data_PCOD8100345
_publ_section_title
;
Structure prediction by ZEFSAII (Michael W. Deem and Ramdas Pophale) SiO2 
 PCOD8100345
Probable space group: C 2/M
;
_chemical_formula_sum "Si O2"
_cell_formula_units_Z 64
_cell_length_a 19.658154
_cell_length_b 13.706479
_cell_length_c 14.819285
_cell_angle_alpha 90.000000
_cell_angle_beta 124.740079
_cell_angle_gamma 90.000000
_cell_volume 3281.204419
_symmetry_space_group_name_H-M "C 2/M"
_symmetry_group_IT_number 12
_symmetry_cell_setting 'monoclinic'
loop_
_space_group_symop_operation_xyz
x,y,z
-x,y,-z
-x,-y,-z
x,-y,z
1/2+x,1/2+y,z
1/2-x,1/2+y,-z
1/2-x,1/2-y,-z
1/2+x,1/2-y,z
loop_
_atom_site_type_symbol
_atom_site_label
_atom_site_fract_x
_atom_site_fract_y
_atom_site_fract_z
Si Si1 0.856612 0.385072 0.032307
Si Si2 0.549752 0.610673 0.782579
Si Si3 0.840335 0.739721 0.854400
Si Si4 0.292338 0.267260 0.399237
Si Si5 0.467174 0.787728 0.800025
Si Si6 0.828630 0.616581 0.573580
Si Si7 0.298823 0.609819 0.971208
Si Si8 0.084907 0.894693 0.610854
O O1 0.865880 0.500000 0.038863
O O2 0.827049 0.353607 0.909515
O O3 0.788427 0.350018 0.054521
O O4 0.943731 0.337544 0.123826
O O5 0.514723 0.500000 0.755117
O O6 0.477788 0.679292 0.767912
O O7 0.571457 0.648784 0.699777
O O8 0.634596 0.617464 0.900239
O O9 0.770912 0.757147 0.727668
O O10 0.927627 0.725177 0.869342
O O11 0.836636 0.833679 0.915188
O O12 0.252966 0.347061 0.436313
O O13 0.323792 0.168916 0.472426
O O14 0.371729 0.314431 0.415945
O O15 0.410332 0.852328 0.690840
O O16 0.827580 0.500000 0.560456
O O17 0.285482 0.500000 0.928024
O O18 0.000000 0.917022 0.500000
O O19 0.132729 0.000000 0.653152
#
# Coordination Sequence:
#
# PCOD8100345 Si02
#       8
#     8   8   8   8   8   8   8   8
#     4  11  23  38  60  90 124 164 207 253 307 367
#     4  10  21  37  60  87 121 162 201 250 306 362
#     4  11  23  38  59  89 120 159 203 251 304 362
#     4  10  22  38  62  88 115 159 201 251 304 356
#     4  11  23  38  62  90 125 163 202 253 311 367
#     4  10  22  42  62  87 122 160 203 248 306 370
#     4  10  22  39  59  86 121 163 205 248 306 368
#     4  10  20  35  58  88 115 146 197 254 305 354
#
# _framework density 19.505033999999998
#
# number of rings (size 3 to 8) (size 9 to 14) (size 15 to 20)
#    0.000    1.625    1.250    3.000    1.750    5.500 
#    0.000    7.500    0.000    1.125    0.000    0.000 
#    0.000    0.000    0.000    0.000    0.000    0.000 
#
# Total GULP energy -396711.238397 kJ/mol
# GULP energy per Si atom -12397.226200 kJ/mol
# Density = 1.946064 g / cm^3
# Si number density = 19.505034 Si / 1000 Ang^3
#
#
#
# Elastic Constant Matrix: (Units=GPa)
#
#
# Indices 1 2 3 4 5 6 
#
# 1 65.2777 61.1101 16.4539 0.0000 -5.3938 0.0000
# 2 61.1101 138.1371 40.8143 0.0000 -11.4368 0.0000
# 3 16.4539 40.8143 87.3524 0.0000 -16.4252 0.0000
# 4 0.0000 0.0000 0.0000 30.3874 0.0000 -2.0865
# 5 -5.3938 -11.4368 -16.4252 0.0000 24.6864 0.0000
# 6 0.0000 0.0000 0.0000 -2.0865 0.0000 26.8573
#
#
#
# Elastic Compliance Matrix: (Units=1/GPa)
#
#
# Indices 1 2 3 4 5 6 
#
# 1 0.026184 -0.011724 0.000686 0.000000 0.000746 0.000000
# 2 -0.011724 0.013695 -0.003977 0.000000 0.001137 0.000000
# 3 0.000686 -0.003977 0.014697 0.000000 0.008086 0.000000
# 4 0.000000 0.000000 0.000000 0.033085 0.000000 0.002570
# 5 0.000746 0.001137 0.008086 0.000000 0.046578 0.000000
# 6 0.000000 0.000000 0.000000 0.002570 0.000000 0.037433
#
#
# Mechanical properties :
#
#
# Convention : Reuss Voigt Hill
#
# Bulk Modulus (GPa) = 40.73900 58.61376 49.67638
# Shear Modulus (GPa) = 23.82273 27.87881 25.85077
#
# Velocity S-wave (km/s) = 3.49859 3.78473 3.64447
# Velocity P-wave (km/s) = 6.10344 7.01532 6.57521
#
# Compressibility (1/GPa) = 0.02454650
#
# Stress axis : x y z
#
# Youngs Moduli (GPa) = 38.19184 73.01963 68.04057
#
# Poissons Ratio (x) = 0.85611 -0.04670
# Poissons Ratio (y) = 0.44777 0.27057
# Poissons Ratio (z) = -0.02621 0.29037
#
# Static dielectric constant tensor:
#      x y z
#    x 3.644870 0.000000 -0.126310 
#    y 0.000000 4.112150 0.000000 
#    z -0.126310 0.000000 3.726410 
# 
# 
# High freq. dielectric constant tensor:
#      x y z
#    x 1.761680 0.000000 -0.002580 
#    y 0.000000 1.762540 0.000000 
#    z -0.002580 0.000000 1.767790 
# 
# From -- ./inp_files/225351.got.cif
#   From: 2010.06.25/outbox.cif.g09.slc.cpg/sg12_113_cif.got.tgz:225351.got - 2010.06.28 00:19:55.
