data_PCOD8100554
_publ_section_title
;
Structure prediction by ZEFSAII (Michael W. Deem and Ramdas Pophale) SiO2 
 PCOD8100554
Probable space group: C 2/M
;
_chemical_formula_sum "Si O2"
_cell_formula_units_Z 56
_cell_length_a 23.621730
_cell_length_b 8.913862
_cell_length_c 15.687751
_cell_angle_alpha 90.000000
_cell_angle_beta 56.754979
_cell_angle_gamma 90.000000
_cell_volume 2762.599593
_symmetry_space_group_name_H-M "C 2/M"
_symmetry_group_IT_number 12
_symmetry_cell_setting 'monoclinic'
loop_
_space_group_symop_operation_xyz
x,y,z
-x,y,-z
-x,-y,-z
x,-y,z
1/2+x,1/2+y,z
1/2-x,1/2+y,-z
1/2-x,1/2-y,-z
1/2+x,1/2-y,z
loop_
_atom_site_type_symbol
_atom_site_label
_atom_site_fract_x
_atom_site_fract_y
_atom_site_fract_z
Si Si1 0.793004 0.174400 0.391377
Si Si2 0.572144 0.822322 0.978829
Si Si3 0.203260 0.176756 0.802268
Si Si4 0.569233 0.323538 0.649632
Si Si5 0.828834 0.176340 0.769726
Si Si6 0.574319 0.321750 0.457654
Si Si7 0.428659 0.676994 0.838425
O O1 0.750000 0.250000 0.500000
O O2 0.769620 0.216938 0.315356
O O3 0.871872 0.222599 0.333674
O O4 0.786133 0.000000 0.414705
O O5 0.630429 0.752575 0.872294
O O6 0.578789 0.000000 0.973234
O O7 0.500000 0.770504 0.000000
O O8 0.583428 0.762486 0.064315
O O9 0.256543 0.240434 0.827026
O O10 0.194749 0.000000 0.822224
O O11 0.558398 0.500000 0.650848
O O12 0.592442 0.263960 0.537413
O O13 0.497602 0.257217 0.739750
O O14 0.873252 0.242242 0.654883
O O15 0.866109 0.213090 0.827552
O O16 0.816109 0.000000 0.770438
O O17 0.500000 0.258488 0.500000
O O18 0.574837 0.500000 0.448848
O O19 0.434144 0.500000 0.851807
#
# Coordination Sequence:
#
# PCOD8100554 Si02
#       7
#     8   8   8   8   8   8   8
#     4  10  21  36  56  84 116 152 193 236 287 345
#     4  11  25  44  65  88 114 148 193 245 301 356
#     4  11  24  41  61  86 119 158 198 242 293 351
#     4   9  16  29  52  82 114 147 188 238 284 335
#     4  10  20  35  59  90 122 157 198 243 293 349
#     4   9  14  25  49  84 119 150 189 233 278 336
#     4  10  20  36  61  90 117 150 196 244 293 350
#
# _framework density 20.270762999999999
#
# number of rings (size 3 to 8) (size 9 to 14) (size 15 to 20)
#    0.000    2.000    1.429    2.571    0.000    5.714 
#    0.000    0.714    0.000    1.286    0.000    0.000 
#    0.000    0.000    0.000    0.000    0.000    0.000 
#
# Total GULP energy -347171.082441 kJ/mol
# GULP energy per Si atom -12398.967230 kJ/mol
# Density = 2.022463 g / cm^3
# Si number density = 20.270763 Si / 1000 Ang^3
#
#
#
# Elastic Constant Matrix: (Units=GPa)
#
#
# Indices 1 2 3 4 5 6 
#
# 1 142.7981 51.2298 52.0910 0.0000 -2.2935 0.0000
# 2 51.2298 57.2990 40.7945 -0.0001 -0.6550 -0.0001
# 3 52.0910 40.7945 108.5240 0.0000 0.6430 0.0000
# 4 0.0000 -0.0001 0.0000 27.0716 0.0000 1.1832
# 5 -2.2935 -0.6550 0.6430 0.0000 36.2121 0.0000
# 6 0.0000 -0.0001 0.0000 1.1832 0.0000 25.4291
#
#
#
# Elastic Compliance Matrix: (Units=1/GPa)
#
#
# Indices 1 2 3 4 5 6 
#
# 1 0.010658 -0.008026 -0.002102 0.000000 0.000567 0.000000
# 2 -0.008026 0.029887 -0.007383 0.000000 0.000163 0.000000
# 3 -0.002102 -0.007383 0.013002 0.000000 -0.000498 0.000000
# 4 0.000000 0.000000 0.000000 0.037014 0.000000 -0.001722
# 5 0.000567 0.000163 -0.000498 0.000000 0.027663 0.000000
# 6 0.000000 0.000000 0.000000 -0.001722 0.000000 0.039405
#
#
# Mechanical properties :
#
#
# Convention : Reuss Voigt Hill
#
# Bulk Modulus (GPa) = 53.98381 66.31684 60.15033
# Shear Modulus (GPa) = 25.14759 28.70962 26.92861
#
# Velocity S-wave (km/s) = 3.52601 3.76747 3.64874
# Velocity P-wave (km/s) = 6.57771 7.19108 6.89122
#
# Compressibility (1/GPa) = 0.01852407
#
# Stress axis : x y z
#
# Youngs Moduli (GPa) = 93.82341 33.45989 76.91242
#
# Poissons Ratio (x) = 0.26856 0.16169
# Poissons Ratio (y) = 0.75304 0.56783
# Poissons Ratio (z) = 0.19724 0.24703
#
# Static dielectric constant tensor:
#      x y z
#    x 3.755370 0.000000 0.127360 
#    y 0.000000 3.257300 0.000000 
#    z 0.127360 0.000000 3.583220 
# 
# 
# High freq. dielectric constant tensor:
#      x y z
#    x 1.807700 0.000000 0.002090 
#    y 0.000000 1.750630 0.000000 
#    z 0.002090 0.000000 1.797610 
# 
# From -- ./inp_files/238422.got.cif
#   From: 2010.06.25/outbox.cif.g09.slc.cpg/sg12_120_cif.got.tgz:238422.got - 2010.06.28 00:19:55.
