data_PCOD8100840
_publ_section_title
;
Structure prediction by ZEFSAII (Michael W. Deem and Ramdas Pophale) SiO2 
 PCOD8100840
Probable space group: C 2/M
;
_chemical_formula_sum "Si O2"
_cell_formula_units_Z 56
_cell_length_a 20.371197
_cell_length_b 7.825601
_cell_length_c 31.473248
_cell_angle_alpha 90.000000
_cell_angle_beta 144.158029
_cell_angle_gamma 90.000000
_cell_volume 2937.927141
_symmetry_space_group_name_H-M "C 2/M"
_symmetry_group_IT_number 12
_symmetry_cell_setting 'monoclinic'
loop_
_space_group_symop_operation_xyz
x,y,z
-x,y,-z
-x,-y,-z
x,-y,z
1/2+x,1/2+y,z
1/2-x,1/2+y,-z
1/2-x,1/2-y,-z
1/2+x,1/2-y,z
loop_
_atom_site_type_symbol
_atom_site_label
_atom_site_fract_x
_atom_site_fract_y
_atom_site_fract_z
Si Si1 0.783748 0.192572 0.334885
Si Si2 0.303238 0.693613 0.183373
Si Si3 0.238670 0.693539 0.584591
Si Si4 0.040542 0.200421 0.343911
Si Si5 0.482323 0.195082 0.573783
Si Si6 0.980324 0.000000 0.920872
Si Si7 0.180146 0.000000 0.082849
Si Si8 0.354049 0.195873 0.819019
O O1 0.761518 0.304913 0.364606
O O2 0.910771 0.199845 0.385367
O O3 0.700286 0.252715 0.253974
O O4 0.756806 0.000000 0.333822
O O5 0.286572 0.500000 0.157250
O O6 0.433255 0.737630 0.258207
O O7 0.254941 0.828005 0.123839
O O8 0.242340 0.714936 0.196499
O O9 0.237963 0.500000 0.568432
O O10 0.351775 0.775781 0.624677
O O11 0.126814 0.779681 0.506248
O O12 0.031165 0.300368 0.382875
O O13 0.048362 0.000000 0.358072
O O14 0.499341 0.000000 0.567930
O O15 0.904811 0.000000 0.922835
O O16 0.955539 0.827037 0.881292
O O17 0.111098 0.000000 0.002529
O O18 0.399094 0.000000 0.841628
#
# Coordination Sequence:
#
# PCOD8100840 Si02
#       8
#     8   8   8   8   8   4   4   8
#     4  11  22  36  54  76 105 143 186 230 272 326
#     4   9  17  31  52  76 105 142 176 218 268 321
#     4  10  23  38  50  76 111 139 184 232 280 322
#     4  10  20  36  55  75 107 144 182 226 276 328
#     4  11  22  34  55  78 102 144 184 230 278 327
#     4   9  18  30  50  78 112 145 162 214 279 317
#     4   9  18  30  48  82 113 134 176 211 263 339
#     4   9  18  31  50  78 105 138 183 217 262 328
#
# _framework density 19.061057000000002
#
# number of rings (size 3 to 8) (size 9 to 14) (size 15 to 20)
#    0.000    2.143    1.429    1.714    3.000    4.000 
#    0.000    2.857    0.000    0.000    0.000    1.000 
#    0.000    0.000    0.000    0.000    0.000    0.000 
#
# Total GULP energy -347184.408118 kJ/mol
# GULP energy per Si atom -12399.443147 kJ/mol
# Density = 1.901767 g / cm^3
# Si number density = 19.061057 Si / 1000 Ang^3
#
#
#
# Elastic Constant Matrix: (Units=GPa)
#
#
# Indices 1 2 3 4 5 6 
#
# 1 73.3327 8.4465 28.2404 -0.0005 -1.4729 0.0007
# 2 8.4465 79.6977 55.6605 -0.0010 -0.2072 0.0013
# 3 28.2404 55.6605 132.9700 -0.0007 1.0708 0.0011
# 4 -0.0005 -0.0010 -0.0007 27.4284 0.0000 -3.6975
# 5 -1.4729 -0.2072 1.0708 0.0000 7.8182 0.0001
# 6 0.0007 0.0013 0.0011 -3.6975 0.0001 15.8826
#
#
#
# Elastic Compliance Matrix: (Units=1/GPa)
#
#
# Indices 1 2 3 4 5 6 
#
# 1 0.014982 0.000935 -0.003600 0.000000 0.003340 0.000000
# 2 0.000935 0.017807 -0.007666 0.000000 0.001698 -0.000001
# 3 -0.003600 -0.007666 0.011514 0.000000 -0.002458 0.000000
# 4 0.000000 0.000000 0.000000 0.037640 0.000000 0.008763
# 5 0.003340 0.001698 -0.002458 0.000000 0.128917 -0.000001
# 6 0.000000 -0.000001 0.000000 0.008763 -0.000001 0.065002
#
#
# Mechanical properties :
#
#
# Convention : Reuss Voigt Hill
#
# Bulk Modulus (GPa) = 42.30007 52.29947 47.29977
# Shear Modulus (GPa) = 16.42552 23.13604 19.78078
#
# Velocity S-wave (km/s) = 2.93871 3.48772 3.22492
# Velocity P-wave (km/s) = 5.80988 6.61184 6.22379
#
# Compressibility (1/GPa) = 0.02364062
#
# Stress axis : x y z
#
# Youngs Moduli (GPa) = 66.74523 56.15870 86.85127
#
# Poissons Ratio (x) = -0.05253 0.31270
# Poissons Ratio (y) = -0.06243 0.66581
# Poissons Ratio (z) = 0.24031 0.43052
#
# Static dielectric constant tensor:
#      x y z
#    x 3.158830 0.000000 0.093780 
#    y 0.000000 3.477200 0.000000 
#    z 0.093780 0.000000 3.635580 
# 
# 
# High freq. dielectric constant tensor:
#      x y z
#    x 1.703750 0.000000 0.001250 
#    y 0.000000 1.744150 0.000000 
#    z 0.001250 0.000000 1.738990 
# 
# From -- ./inp_files/380848.got.cif
#   From: 2010.06.25/outbox.cif.g09.slc.cpg/sg12_191_cif.got.tgz:380848.got - 2010.06.28 00:19:55.
