data_PCOD8100854
_publ_section_title
;
Structure prediction by ZEFSAII (Michael W. Deem and Ramdas Pophale) SiO2 
 PCOD8100854
Probable space group: C 2/M
;
_chemical_formula_sum "Si O2"
_cell_formula_units_Z 64
_cell_length_a 27.514447
_cell_length_b 13.730916
_cell_length_c 9.521736
_cell_angle_alpha 90.000000
_cell_angle_beta 78.562676
_cell_angle_gamma 90.000000
_cell_volume 3525.863754
_symmetry_space_group_name_H-M "C 2/M"
_symmetry_group_IT_number 12
_symmetry_cell_setting 'monoclinic'
loop_
_space_group_symop_operation_xyz
x,y,z
-x,y,-z
-x,-y,-z
x,-y,z
1/2+x,1/2+y,z
1/2-x,1/2+y,-z
1/2-x,1/2-y,-z
1/2+x,1/2-y,z
loop_
_atom_site_type_symbol
_atom_site_label
_atom_site_fract_x
_atom_site_fract_y
_atom_site_fract_z
Si Si1 0.373857 0.795814 0.277328
Si Si2 0.801009 0.109989 0.615584
Si Si3 0.683305 0.610313 0.710043
Si Si4 0.726138 0.115002 0.159178
Si Si5 0.023893 0.389128 0.844724
Si Si6 0.209273 0.385040 0.855828
Si Si7 0.956670 0.389641 0.625313
Si Si8 0.357638 0.796490 0.604356
O O1 0.364921 0.679746 0.262956
O O2 0.431769 0.818696 0.227681
O O3 0.343167 0.851738 0.175817
O O4 0.356195 0.829467 0.442162
O O5 0.788881 0.114273 0.456672
O O6 0.753415 0.149678 0.727791
O O7 0.846782 0.181060 0.625677
O O8 0.815338 0.000000 0.653290
O O9 0.665841 0.500000 0.752968
O O10 0.721646 0.651707 0.804947
O O11 0.681781 0.141605 0.287466
O O12 0.728713 0.000000 0.150322
O O13 0.718099 0.158646 0.007306
O O14 0.044201 0.500000 0.846332
O O15 0.977222 0.385422 0.769229
O O16 0.000000 0.349244 0.000000
O O17 0.208244 0.500000 0.865172
O O18 0.940310 0.500000 0.593161
O O19 0.911215 0.316022 0.639177
O O20 0.000000 0.352247 0.500000
#
# Coordination Sequence:
#
# PCOD8100854 Si02
#       8
#     8   8   8   8   8   8   8   8
#     4  11  21  34  55  79 103 137 177 214 257 307
#     4   9  19  36  54  74 105 141 175 214 257 302
#     4   9  19  36  55  75 103 139 177 215 255 302
#     4  10  21  34  50  78 111 140 172 211 256 309
#     4  10  22  38  55  77 106 135 166 208 260 314
#     4  10  21  34  50  77 112 142 170 209 258 310
#     4  10  20  36  55  77 105 134 165 208 260 310
#     4  11  21  33  55  80 103 136 179 215 253 308
#
# _framework density 18.151579999999999
#
# number of rings (size 3 to 8) (size 9 to 14) (size 15 to 20)
#    0.000    2.000    1.250    2.250    1.750    6.500 
#    0.000    0.000    0.000    1.500    0.000    0.000 
#    0.000    0.000    0.000    0.000    0.000    0.000 
#
# Total GULP energy -396787.260526 kJ/mol
# GULP energy per Si atom -12399.601891 kJ/mol
# Density = 1.811027 g / cm^3
# Si number density = 18.151580 Si / 1000 Ang^3
#
#
#
# Elastic Constant Matrix: (Units=GPa)
#
#
# Indices 1 2 3 4 5 6 
#
# 1 92.9359 44.0396 25.8385 0.0000 8.1683 0.0000
# 2 44.0396 45.8784 25.4071 0.0000 1.8909 0.0000
# 3 25.8385 25.4071 95.5923 0.0000 7.6039 0.0000
# 4 0.0000 0.0000 0.0000 18.3395 0.0000 2.0959
# 5 8.1683 1.8909 7.6039 0.0000 21.7011 0.0000
# 6 0.0000 0.0000 0.0000 2.0959 0.0000 28.6496
#
#
#
# Elastic Compliance Matrix: (Units=1/GPa)
#
#
# Indices 1 2 3 4 5 6 
#
# 1 0.020495 -0.019492 0.000123 0.000000 -0.006059 0.000000
# 2 -0.019492 0.044097 -0.006923 0.000000 0.005920 0.000000
# 3 0.000123 -0.006923 0.012574 0.000000 -0.003849 0.000000
# 4 0.000000 0.000000 0.000000 0.054987 0.000000 -0.004023
# 5 -0.006059 0.005920 -0.003849 0.000000 0.049194 0.000000
# 6 0.000000 0.000000 0.000000 -0.004023 0.000000 0.035199
#
#
# Mechanical properties :
#
#
# Convention : Reuss Voigt Hill
#
# Bulk Modulus (GPa) = 40.67897 47.21968 43.94932
# Shear Modulus (GPa) = 18.02945 23.01281 20.52113
#
# Velocity S-wave (km/s) = 3.15504 3.56450 3.36600
# Velocity P-wave (km/s) = 5.97760 6.55831 6.27468
#
# Compressibility (1/GPa) = 0.02458273
#
# Stress axis : x y z
#
# Youngs Moduli (GPa) = 48.79192 22.67709 79.52918
#
# Poissons Ratio (x) = 0.44202 -0.00977
# Poissons Ratio (y) = 0.95106 0.55056
# Poissons Ratio (z) = -0.00599 0.15699
#
# Static dielectric constant tensor:
#      x y z
#    x 3.260450 0.000000 0.163760 
#    y 0.000000 3.370890 0.000000 
#    z 0.163760 0.000000 3.644170 
# 
# 
# High freq. dielectric constant tensor:
#      x y z
#    x 1.682420 0.000000 0.009630 
#    y 0.000000 1.696780 0.000000 
#    z 0.009630 0.000000 1.716010 
# 
# From -- ./inp_files/104534.got.cif
#   From: 2010.06.25/outbox.cif.g09.slc.cpg/sg12_53_cif.got.tgz:104534.got - 2010.06.28 00:19:55.
