data_PCOD8100630
_publ_section_title
;
Structure prediction by ZEFSAII (Michael W. Deem and Ramdas Pophale) SiO2 
 PCOD8100630
Probable space group: C 2/M
;
_chemical_formula_sum "Si O2"
_cell_formula_units_Z 40
_cell_length_a 19.416004
_cell_length_b 11.388125
_cell_length_c 16.324631
_cell_angle_alpha 90.000000
_cell_angle_beta 35.670292
_cell_angle_gamma 90.000000
_cell_volume 2104.812614
_symmetry_space_group_name_H-M "C 2/M"
_symmetry_group_IT_number 12
_symmetry_cell_setting 'monoclinic'
loop_
_space_group_symop_operation_xyz
x,y,z
-x,y,-z
-x,-y,-z
x,-y,z
1/2+x,1/2+y,z
1/2-x,1/2+y,-z
1/2-x,1/2-y,-z
1/2+x,1/2-y,z
loop_
_atom_site_type_symbol
_atom_site_label
_atom_site_fract_x
_atom_site_fract_y
_atom_site_fract_z
Si Si1 0.323964 0.500000 0.133184
Si Si2 0.477674 0.636992 0.611933
Si Si3 0.385174 0.287694 0.369281
Si Si4 0.560936 0.500000 0.803924
Si Si5 0.905881 0.633218 0.882828
Si Si6 0.735774 0.790535 0.130034
O O1 0.358531 0.500000 0.193805
O O2 0.248195 0.382064 0.192490
O O3 0.426599 0.500000 0.965071
O O4 0.500000 0.688811 0.500000
O O5 0.454823 0.500000 0.629504
O O6 0.586438 0.664942 0.567160
O O7 0.359249 0.691905 0.760414
O O8 0.250000 0.250000 0.500000
O O9 0.411496 0.386039 0.276283
O O10 0.465780 0.174211 0.272566
O O11 0.917918 0.500000 0.903764
O O12 0.805737 0.636350 0.909189
O O13 0.860360 0.722395 0.997146
#
# Coordination Sequence:
#
# PCOD8100630 Si02
#       6
#     4   8   8   4   8   8
#     4  11  22  40  64  91 122 158 205 253 301 360
#     4  10  22  40  62  88 120 159 201 251 307 361
#     4  11  24  40  61  86 122 164 204 242 298 369
#     4  11  24  42  62  86 123 170 204 240 304 369
#     4  10  20  35  60  90 116 153 197 247 300 352
#     4  10  20  36  61  89 120 148 201 252 299 353
#
# _framework density 19.004066000000002
#
# number of rings (size 3 to 8) (size 9 to 14) (size 15 to 20)
#    0.000    1.600    4.000    0.600    4.200    0.000 
#    0.000    0.500    0.000    1.200    0.000    0.000 
#    0.000    0.000    0.000    0.000    0.000    0.000 
#
# Total GULP energy -248004.727897 kJ/mol
# GULP energy per Si atom -12400.236395 kJ/mol
# Density = 1.896081 g / cm^3
# Si number density = 19.004066 Si / 1000 Ang^3
#
#
#
# Elastic Constant Matrix: (Units=GPa)
#
#
# Indices 1 2 3 4 5 6 
#
# 1 114.1732 40.8336 40.0487 0.0000 7.7834 0.0000
# 2 40.8336 110.0969 26.4564 0.0000 -1.5450 0.0000
# 3 40.0487 26.4564 76.7027 0.0000 -6.0016 0.0000
# 4 0.0000 0.0000 0.0000 10.3761 0.0000 -3.6080
# 5 7.7834 -1.5450 -6.0016 0.0000 33.1279 0.0000
# 6 0.0000 0.0000 0.0000 -3.6080 0.0000 22.1744
#
#
#
# Elastic Compliance Matrix: (Units=1/GPa)
#
#
# Indices 1 2 3 4 5 6 
#
# 1 0.012125 -0.003224 -0.005532 0.000000 -0.004001 0.000000
# 2 -0.003224 0.010762 -0.001958 0.000000 0.000905 0.000000
# 3 -0.005532 -0.001958 0.016936 0.000000 0.004277 0.000000
# 4 0.000000 0.000000 0.000000 0.102155 0.000000 0.016622
# 5 -0.004001 0.000905 0.004277 0.000000 0.031943 0.000000
# 6 0.000000 0.000000 0.000000 0.016622 0.000000 0.047801
#
#
# Mechanical properties :
#
#
# Convention : Reuss Voigt Hill
#
# Bulk Modulus (GPa) = 54.36240 57.29447 55.82844
# Shear Modulus (GPa) = 20.05770 26.04461 23.05115
#
# Velocity S-wave (km/s) = 3.25228 3.70601 3.48653
# Velocity P-wave (km/s) = 6.53995 6.96611 6.75639
#
# Compressibility (1/GPa) = 0.01839507
#
# Stress axis : x y z
#
# Youngs Moduli (GPa) = 82.47571 92.92154 59.04706
#
# Poissons Ratio (x) = 0.29956 0.32664
# Poissons Ratio (y) = 0.26588 0.11561
# Poissons Ratio (z) = 0.45624 0.18194
#
# Static dielectric constant tensor:
#      x y z
#    x 3.637810 0.000000 0.096000 
#    y 0.000000 3.471210 0.000000 
#    z 0.096000 0.000000 3.422000 
# 
# 
# High freq. dielectric constant tensor:
#      x y z
#    x 1.728940 0.000000 -0.001520 
#    y 0.000000 1.750270 0.000000 
#    z -0.001520 0.000000 1.733440 
# 
# From -- ./inp_files/153909.got.cif
#   From: 2010.06.25/outbox.cif.g09.slc.cpg/sg12_77_cif.got.tgz:153909.got - 2010.06.28 00:19:55.
