data_PCOD8100311
_publ_section_title
;
Structure prediction by ZEFSAII (Michael W. Deem and Ramdas Pophale) SiO2 
 PCOD8100311
Probable space group: C 2/M
;
_chemical_formula_sum "Si O2"
_cell_formula_units_Z 48
_cell_length_a 24.433753
_cell_length_b 15.768646
_cell_length_c 18.406022
_cell_angle_alpha 90.000000
_cell_angle_beta 161.091445
_cell_angle_gamma 90.000000
_cell_volume 2298.096042
_symmetry_space_group_name_H-M "C 2/M"
_symmetry_group_IT_number 12
_symmetry_cell_setting 'monoclinic'
loop_
_space_group_symop_operation_xyz
x,y,z
-x,y,-z
-x,-y,-z
x,-y,z
1/2+x,1/2+y,z
1/2-x,1/2+y,-z
1/2-x,1/2-y,-z
1/2+x,1/2-y,z
loop_
_atom_site_type_symbol
_atom_site_label
_atom_site_fract_x
_atom_site_fract_y
_atom_site_fract_z
Si Si1 0.176029 0.843082 0.417814
Si Si2 0.643438 0.403613 0.904304
Si Si3 0.169273 0.147218 0.249449
Si Si4 0.494419 0.147955 0.411032
Si Si5 0.666759 0.849581 0.244173
Si Si6 0.996094 0.151538 0.576709
O O1 0.250000 0.750000 0.500000
O O2 0.178037 0.889996 0.342672
O O3 0.298080 0.887637 0.630997
O O4 0.985554 0.842382 0.212805
O O5 0.590633 0.500000 0.854481
O O6 0.635328 0.386152 0.807104
O O7 0.834828 0.389297 0.168691
O O8 0.334552 0.117058 0.413664
O O9 0.155772 0.248273 0.235170
O O10 0.000000 0.109633 0.000000
O O11 0.500000 0.112351 0.500000
O O12 0.478228 0.248377 0.391501
O O13 0.814983 0.877329 0.377492
O O14 0.500000 0.889729 0.000000
O O15 0.000000 0.114430 0.500000
#
# Coordination Sequence:
#
# PCOD8100311 Si02
#       6
#     8   8   8   8   8   8
#     4   9  18  33  54  77 103 144 192 234 276 333
#     4  11  23  38  56  83 122 156 185 237 303 351
#     4   9  16  29  51  78 105 136 183 237 280 323
#     4  10  20  35  58  87 116 151 198 243 285 339
#     4   8  15  27  47  77 104 129 171 232 287 319
#     4   9  19  34  56  83 111 149 196 239 276 334
#
# _framework density 20.886856000000002
#
# number of rings (size 3 to 8) (size 9 to 14) (size 15 to 20)
#    0.000    2.667    0.000    2.500    0.000    6.000 
#    0.000    0.833    0.000   10.000    0.000    0.000 
#    0.000    0.000    0.000    0.000    0.000    0.000 
#
# Total GULP energy -297415.024913 kJ/mol
# GULP energy per Si atom -12392.292705 kJ/mol
# Density = 2.083932 g / cm^3
# Si number density = 20.886856 Si / 1000 Ang^3
#
#
#
# Elastic Constant Matrix: (Units=GPa)
#
#
# Indices 1 2 3 4 5 6 
#
# 1 208.1311 17.4807 110.0239 -0.0038 -30.9995 -0.0039
# 2 17.4807 35.6925 20.0568 -0.0093 3.4854 -0.0063
# 3 110.0239 20.0568 208.1612 -0.0030 -24.1740 -0.0026
# 4 -0.0038 -0.0093 -0.0030 -7.7549 -0.0020 4.6696
# 5 -30.9995 3.4854 -24.1740 -0.0020 38.1744 -0.0024
# 6 -0.0039 -0.0063 -0.0026 4.6696 -0.0024 4.0332
#
#
#
# Elastic Compliance Matrix: (Units=1/GPa)
#
#
# Indices 1 2 3 4 5 6 
#
# 1 0.007267 -0.002188 -0.003153 0.000001 0.004104 0.000003
# 2 -0.002188 0.031143 -0.002570 -0.000005 -0.006247 0.000047
# 3 -0.003153 -0.002570 0.006960 0.000000 0.002081 -0.000002
# 4 0.000001 -0.000005 0.000000 -0.075980 0.000003 0.087969
# 5 0.004104 -0.006247 0.002081 0.000003 0.031416 0.000011
# 6 0.000003 0.000047 -0.000002 0.087969 0.000011 0.146092
#
#
# Mechanical properties :
#
#
# Convention : Reuss Voigt Hill
#
# Bulk Modulus (GPa) = 33.84384 83.01196 58.42790
# Shear Modulus (GPa) = 28.97400 27.18542 28.07971
#
# Velocity S-wave (km/s) = 3.72854 3.61162 3.67055
# Velocity P-wave (km/s) = 5.89700 7.56450 6.78219
#
# Compressibility (1/GPa) = 0.02954748
#
# Stress axis : x y z
#
# Youngs Moduli (GPa) = 137.61608 32.11026 143.67717
#
# Poissons Ratio (x) = 0.07024 0.45308
# Poissons Ratio (y) = 0.30105 0.36924
# Poissons Ratio (z) = 0.43396 0.08252
#
# Static dielectric constant tensor:
#      x y z
#    x 4.227250 0.000000 -0.367270 
#    y 0.000000 3.195700 0.000000 
#    z -0.367270 0.000000 4.061050 
# 
# 
# High freq. dielectric constant tensor:
#      x y z
#    x 1.829120 0.000000 -0.017200 
#    y 0.000000 1.766590 0.000000 
#    z -0.017200 0.000000 1.829170 
# 
# From -- ./inp_files/290569.got.cif
#   From: 2010.06.25/outbox.cif.g09.slc.cpg/sg12_146_cif.got.tgz:290569.got - 2010.06.28 00:19:55.
