data_PCOD8100118
_publ_section_title
;
Structure prediction by ZEFSAII (Michael W. Deem and Ramdas Pophale) SiO2 
 PCOD8100118
Probable space group: C 2/M
;
_chemical_formula_sum "Si O2"
_cell_formula_units_Z 64
_cell_length_a 32.919060
_cell_length_b 14.439711
_cell_length_c 9.910676
_cell_angle_alpha 90.000000
_cell_angle_beta 134.406052
_cell_angle_gamma 90.000000
_cell_volume 3365.502400
_symmetry_space_group_name_H-M "C 2/M"
_symmetry_group_IT_number 12
_symmetry_cell_setting 'monoclinic'
loop_
_space_group_symop_operation_xyz
x,y,z
-x,y,-z
-x,-y,-z
x,-y,z
1/2+x,1/2+y,z
1/2-x,1/2+y,-z
1/2-x,1/2-y,-z
1/2+x,1/2-y,z
loop_
_atom_site_type_symbol
_atom_site_label
_atom_site_fract_x
_atom_site_fract_y
_atom_site_fract_z
Si Si1 0.769723 0.608886 0.139995
Si Si2 0.618524 0.787948 0.998259
Si Si3 0.564684 0.099010 0.650821
Si Si4 0.836629 0.105578 0.599150
Si Si5 0.671497 0.395030 0.113617
Si Si6 0.230574 0.610238 0.170721
Si Si7 0.432862 0.755494 0.842440
Si Si8 0.610732 0.109004 0.477998
O O1 0.770600 0.500000 0.125497
O O2 0.718040 0.639911 0.114467
O O3 0.824199 0.641202 0.352269
O O4 0.766978 0.647826 0.979332
O O5 0.620544 0.677342 0.976147
O O6 0.679878 0.838037 0.132464
O O7 0.588358 0.804126 0.070357
O O8 0.576617 0.826672 0.790776
O O9 0.500000 0.075100 0.500000
O O10 0.581696 0.140246 0.548225
O O11 0.597550 0.000000 0.752227
O O12 0.808270 0.113533 0.682964
O O13 0.789537 0.137834 0.380960
O O14 0.894070 0.165894 0.718638
O O15 0.855077 0.000000 0.613659
O O16 0.651466 0.500000 0.035534
O O17 0.220739 0.500000 0.156576
O O18 0.422606 0.835634 0.711810
O O19 0.500000 0.728249 0.000000
O O20 0.604957 0.000000 0.433501
#
# Coordination Sequence:
#
# PCOD8100118 Si02
#       8
#     8   8   8   8   8   8   8   8
#     4   9  18  34  54  81 115 146 179 220 277 343
#     4  11  22  35  59  83 113 150 190 235 286 331
#     4  10  20  37  58  79 109 149 191 230 274 336
#     4   9  21  40  61  83 111 148 190 239 291 340
#     4   9  20  36  54  79 113 149 185 227 280 338
#     4  10  20  35  57  89 119 143 184 234 285 346
#     4  11  25  40  56  82 115 150 197 242 278 333
#     4  10  21  36  55  81 114 150 186 225 276 338
#
# _framework density 19.016476999999998
#
# number of rings (size 3 to 8) (size 9 to 14) (size 15 to 20)
#    0.000    2.125    1.250    1.125    3.500    4.000 
#    0.000    0.000    0.000    0.375    0.000    0.000 
#    0.000    0.000    0.000    0.000    0.000    0.000 
#
# Total GULP energy -396562.655663 kJ/mol
# GULP energy per Si atom -12392.582989 kJ/mol
# Density = 1.897319 g / cm^3
# Si number density = 19.016477 Si / 1000 Ang^3
#
#
#
# Elastic Constant Matrix: (Units=GPa)
#
#
# Indices 1 2 3 4 5 6 
#
# 1 202.1440 68.5682 62.8997 0.0000 -15.5915 0.0000
# 2 68.5682 84.3666 52.2477 0.0000 -7.5797 0.0000
# 3 62.8997 52.2477 113.9760 0.0000 3.7463 0.0000
# 4 0.0000 0.0000 0.0000 30.0002 0.0000 -1.0997
# 5 -15.5915 -7.5797 3.7463 0.0000 27.5226 0.0000
# 6 0.0000 0.0000 0.0000 -1.0997 0.0000 23.9584
#
#
#
# Elastic Compliance Matrix: (Units=1/GPa)
#
#
# Indices 1 2 3 4 5 6 
#
# 1 0.007344 -0.004328 -0.002176 0.000000 0.003265 0.000000
# 2 -0.004328 0.020014 -0.006918 0.000000 0.004002 0.000000
# 3 -0.002176 -0.006918 0.013309 0.000000 -0.004950 0.000000
# 4 0.000000 0.000000 0.000000 0.033389 0.000000 0.001533
# 5 0.003265 0.004002 -0.004950 0.000000 0.039959 0.000000
# 6 0.000000 0.000000 0.000000 0.001533 0.000000 0.041809
#
#
# Mechanical properties :
#
#
# Convention : Reuss Voigt Hill
#
# Bulk Modulus (GPa) = 72.34331 85.32419 78.83375
# Shear Modulus (GPa) = 26.69857 30.74763 28.72310
#
# Velocity S-wave (km/s) = 3.75102 4.02542 3.89064
# Velocity P-wave (km/s) = 7.54223 8.15913 7.85674
#
# Compressibility (1/GPa) = 0.01382298
#
# Stress axis : x y z
#
# Youngs Moduli (GPa) = 136.16694 49.96510 75.13841
#
# Poissons Ratio (x) = 0.21623 0.16353
# Poissons Ratio (y) = 0.58927 0.51980
# Poissons Ratio (z) = 0.29635 0.34565
#
# Static dielectric constant tensor:
#      x y z
#    x 3.623440 0.000000 -0.162210 
#    y 0.000000 3.474530 0.000000 
#    z -0.162210 0.000000 3.439130 
# 
# 
# High freq. dielectric constant tensor:
#      x y z
#    x 1.743340 0.000000 -0.013000 
#    y 0.000000 1.740630 0.000000 
#    z -0.013000 0.000000 1.729870 
# 
# From -- ./inp_files/112010.got.cif
#   From: 2010.06.25/outbox.cif.g09.slc.cpg/sg12_57_cif.got.tgz:112010.got - 2010.06.28 00:19:55.
