data_PCOD8100351
_publ_section_title
;
Structure prediction by ZEFSAII (Michael W. Deem and Ramdas Pophale) SiO2 
 PCOD8100351
Probable space group: C 2/M
;
_chemical_formula_sum "Si O2"
_cell_formula_units_Z 56
_cell_length_a 15.633262
_cell_length_b 17.982363
_cell_length_c 12.839978
_cell_angle_alpha 90.000000
_cell_angle_beta 127.210258
_cell_angle_gamma 90.000000
_cell_volume 2874.774006
_symmetry_space_group_name_H-M "C 2/M"
_symmetry_group_IT_number 12
_symmetry_cell_setting 'monoclinic'
loop_
_space_group_symop_operation_xyz
x,y,z
-x,y,-z
-x,-y,-z
x,-y,z
1/2+x,1/2+y,z
1/2-x,1/2+y,-z
1/2-x,1/2-y,-z
1/2+x,1/2-y,z
loop_
_atom_site_type_symbol
_atom_site_label
_atom_site_fract_x
_atom_site_fract_y
_atom_site_fract_z
Si Si1 0.863876 0.584345 0.791416
Si Si2 0.794839 0.730272 0.645618
Si Si3 0.600263 0.225037 0.646570
Si Si4 0.824295 0.418267 0.203853
Si Si5 0.462717 0.278396 0.177774
Si Si6 0.895319 0.627803 0.039454
Si Si7 0.408985 0.584053 0.012487
O O1 0.822478 0.500000 0.740726
O O2 0.810331 0.640831 0.668683
O O3 0.991362 0.585877 0.872969
O O4 0.834280 0.611520 0.886412
O O5 0.750000 0.750000 0.500000
O O6 0.712235 0.755286 0.674100
O O7 0.908580 0.772202 0.739579
O O8 0.500000 0.241642 0.500000
O O9 0.601817 0.137990 0.677447
O O10 0.580398 0.270897 0.736711
O O11 0.865923 0.500000 0.264953
O O12 0.826380 0.406230 0.081263
O O13 0.698860 0.407875 0.135595
O O14 0.409583 0.216512 0.063430
O O15 0.418293 0.358886 0.114504
O O16 0.421480 0.500000 0.065270
O O17 0.500000 0.606688 0.000000
#
# Coordination Sequence:
#
# PCOD8100351 Si02
#       7
#     8   8   8   8   8   8   8
#     4  10  20  35  58  88 118 148 183 234 295 349
#     4  11  23  41  60  81 116 158 200 245 282 342
#     4  11  23  40  60  84 113 156 207 240 283 350
#     4  10  21  36  58  87 118 147 186 243 296 346
#     4  10  22  38  61  87 116 157 193 240 295 346
#     4   9  19  33  58  90 118 145 179 234 299 362
#     4  10  22  38  58  87 122 155 192 239 290 351
#
# _framework density 19.479792
#
# number of rings (size 3 to 8) (size 9 to 14) (size 15 to 20)
#    0.000    1.857    1.429    2.571    8.000    1.429 
#    0.000    1.429    0.000    0.857    0.000    0.000 
#    0.000    0.000    0.000    0.000    0.000    0.000 
#
# Total GULP energy -347151.518265 kJ/mol
# GULP energy per Si atom -12398.268509 kJ/mol
# Density = 1.943546 g / cm^3
# Si number density = 19.479792 Si / 1000 Ang^3
#
#
#
# Elastic Constant Matrix: (Units=GPa)
#
#
# Indices 1 2 3 4 5 6 
#
# 1 88.8028 12.9837 4.4963 0.0000 -15.2845 0.0000
# 2 12.9837 135.7524 56.1598 0.0000 -12.7722 0.0000
# 3 4.4963 56.1598 69.6858 0.0000 -12.1627 0.0000
# 4 0.0000 0.0000 0.0000 18.7004 0.0000 5.6368
# 5 -15.2845 -12.7722 -12.1627 0.0000 21.6744 0.0000
# 6 0.0000 0.0000 0.0000 5.6368 0.0000 16.3401
#
#
#
# Elastic Compliance Matrix: (Units=1/GPa)
#
#
# Indices 1 2 3 4 5 6 
#
# 1 0.012955 -0.001030 0.001644 0.000000 0.009451 0.000000
# 2 -0.001030 0.011188 -0.008786 0.000000 0.000936 0.000000
# 3 0.001644 -0.008786 0.022863 0.000000 0.008811 0.000000
# 4 0.000000 0.000000 0.000000 0.059681 0.000000 -0.020588
# 5 0.009451 0.000936 0.008811 0.000000 0.058298 0.000000
# 6 0.000000 0.000000 0.000000 -0.020588 0.000000 0.068301
#
#
# Mechanical properties :
#
#
# Convention : Reuss Voigt Hill
#
# Bulk Modulus (GPa) = 32.61536 49.05784 40.83660
# Shear Modulus (GPa) = 19.24178 26.04971 22.64574
#
# Velocity S-wave (km/s) = 3.14631 3.66084 3.41328
# Velocity P-wave (km/s) = 5.47527 6.56564 6.04509
#
# Compressibility (1/GPa) = 0.03066040
#
# Stress axis : x y z
#
# Youngs Moduli (GPa) = 77.19047 89.38319 43.73895
#
# Poissons Ratio (x) = 0.09204 -0.07189
# Poissons Ratio (y) = 0.07949 0.38431
# Poissons Ratio (z) = -0.12687 0.78536
#
# Static dielectric constant tensor:
#      x y z
#    x 3.785260 0.000000 -0.089340 
#    y 0.000000 3.576400 0.000000 
#    z -0.089340 0.000000 3.280740 
# 
# 
# High freq. dielectric constant tensor:
#      x y z
#    x 1.774620 0.000000 -0.006780 
#    y 0.000000 1.761350 0.000000 
#    z -0.006780 0.000000 1.730110 
# 
# From -- ./inp_files/146216.got.cif
#   From: 2010.06.25/outbox.cif.g09.slc.cpg/sg12_74_cif.got.tgz:146216.got - 2010.06.28 00:19:55.
