data_PCOD8100909
_publ_section_title
;
Structure prediction by ZEFSAII (Michael W. Deem and Ramdas Pophale) SiO2 
 PCOD8100909
Probable space group: C 2/M
;
_chemical_formula_sum "Si O2"
_cell_formula_units_Z 52
_cell_length_a 8.300210
_cell_length_b 29.066207
_cell_length_c 11.377243
_cell_angle_alpha 90.000000
_cell_angle_beta 86.253722
_cell_angle_gamma 90.000000
_cell_volume 2738.958614
_symmetry_space_group_name_H-M "C 2/M"
_symmetry_group_IT_number 12
_symmetry_cell_setting 'monoclinic'
loop_
_space_group_symop_operation_xyz
x,y,z
-x,y,-z
-x,-y,-z
x,-y,z
1/2+x,1/2+y,z
1/2-x,1/2+y,-z
1/2-x,1/2-y,-z
1/2+x,1/2-y,z
loop_
_atom_site_type_symbol
_atom_site_label
_atom_site_fract_x
_atom_site_fract_y
_atom_site_fract_z
Si Si1 0.745029 0.946850 0.920331
Si Si2 0.236081 0.122594 0.678273
Si Si3 0.034562 0.863213 0.128446
Si Si4 0.500000 0.359543 0.500000
Si Si5 0.954514 0.290942 0.632373
Si Si6 0.304128 0.697531 0.698906
Si Si7 0.093208 0.552792 0.176123
O O1 0.892814 0.914954 0.873882
O O2 0.592936 0.936488 0.843713
O O3 0.798477 0.000000 0.905807
O O4 0.700831 0.935161 0.057101
O O5 0.116173 0.108611 0.576104
O O6 0.339512 0.165283 0.628481
O O7 0.352171 0.081049 0.711556
O O8 0.133336 0.137709 0.795286
O O9 0.158767 0.827595 0.180431
O O10 0.000000 0.845356 0.000000
O O11 0.609191 0.327596 0.413000
O O12 0.861591 0.250163 0.702862
O O13 0.000000 0.274079 0.500000
O O14 0.112356 0.304485 0.697026
O O15 0.115322 0.500000 0.208830
#
# Coordination Sequence:
#
# PCOD8100909 Si02
#       7
#     8   8   8   4   8   8   8
#     4   9  18  35  59  86 116 154 198 237 278 338
#     4  11  22  36  59  87 117 152 197 236 294 336
#     4  11  22  37  56  88 126 155 184 235 292 353
#     4  10  20  36  55  86 114 150 191 242 278 338
#     4  12  22  40  64  87 110 151 202 248 281 334
#     4  11  22  38  60  87 115 147 197 241 287 335
#     4   9  18  35  60  87 116 152 196 239 283 344
#
# _framework density 18.985316999999998
#
# number of rings (size 3 to 8) (size 9 to 14) (size 15 to 20)
#    0.000    1.538    3.846    4.154    0.000    0.923 
#    0.000    3.462    0.000    1.385    0.000    0.000 
#    0.000    0.000    0.000    0.000    0.000    0.000 
#
# Total GULP energy -322447.243855 kJ/mol
# GULP energy per Si atom -12401.817071 kJ/mol
# Density = 1.894211 g / cm^3
# Si number density = 18.985317 Si / 1000 Ang^3
#
#
#
# Elastic Constant Matrix: (Units=GPa)
#
#
# Indices 1 2 3 4 5 6 
#
# 1 93.4906 31.7838 39.6686 0.0000 19.2898 0.0000
# 2 31.7838 86.7871 36.5601 0.0000 20.1862 0.0000
# 3 39.6686 36.5601 94.5184 0.0000 28.4845 0.0000
# 4 0.0000 0.0000 0.0000 25.2379 0.0000 1.6989
# 5 19.2898 20.1862 28.4845 0.0000 39.0547 0.0000
# 6 0.0000 0.0000 0.0000 1.6989 0.0000 12.4320
#
#
#
# Elastic Compliance Matrix: (Units=1/GPa)
#
#
# Indices 1 2 3 4 5 6 
#
# 1 0.013855 -0.002822 -0.003974 0.000000 -0.002486 0.000000
# 2 -0.002822 0.014883 -0.003428 0.000000 -0.003799 0.000000
# 3 -0.003974 -0.003428 0.015955 0.000000 -0.007902 0.000000
# 4 0.000000 0.000000 0.000000 0.039991 0.000000 -0.005465
# 5 -0.002486 -0.003799 -0.007902 0.000000 0.034560 0.000000
# 6 0.000000 0.000000 0.000000 -0.005465 0.000000 0.081184
#
#
# Mechanical properties :
#
#
# Convention : Reuss Voigt Hill
#
# Bulk Modulus (GPa) = 41.24330 54.53567 47.88948
# Shear Modulus (GPa) = 21.83809 26.46385 24.15097
#
# Velocity S-wave (km/s) = 3.39523 3.73756 3.57050
# Velocity P-wave (km/s) = 6.09435 6.88574 6.50209
#
# Compressibility (1/GPa) = 0.02424636
#
# Stress axis : x y z
#
# Youngs Moduli (GPa) = 72.17772 67.18871 62.67542
#
# Poissons Ratio (x) = 0.18958 0.24907
# Poissons Ratio (y) = 0.20365 0.21484
# Poissons Ratio (z) = 0.28684 0.23032
#
# Static dielectric constant tensor:
#      x y z
#    x 3.657140 0.000000 0.201680 
#    y 0.000000 3.339040 0.000000 
#    z 0.201680 0.000000 3.410330 
# 
# 
# High freq. dielectric constant tensor:
#      x y z
#    x 1.756640 0.000000 0.012840 
#    y 0.000000 1.724310 0.000000 
#    z 0.012840 0.000000 1.722240 
# 
# From -- ./inp_files/123644.got.cif
#   From: 2010.06.25/outbox.cif.g09.slc.cpg/sg12_62_cif.got.tgz:123644.got - 2010.06.28 00:19:55.
