data_PCOD8100991
_publ_section_title
;
Structure prediction by ZEFSAII (Michael W. Deem and Ramdas Pophale) SiO2 
 PCOD8100991
Probable space group: C 2/M
;
_chemical_formula_sum "Si O2"
_cell_formula_units_Z 48
_cell_length_a 29.745354
_cell_length_b 9.683173
_cell_length_c 9.119695
_cell_angle_alpha 90.000000
_cell_angle_beta 81.265417
_cell_angle_gamma 90.000000
_cell_volume 2596.276495
_symmetry_space_group_name_H-M "C 2/M"
_symmetry_group_IT_number 12
_symmetry_cell_setting 'monoclinic'
loop_
_space_group_symop_operation_xyz
x,y,z
-x,y,-z
-x,-y,-z
x,-y,z
1/2+x,1/2+y,z
1/2-x,1/2+y,-z
1/2-x,1/2-y,-z
1/2+x,1/2-y,z
loop_
_atom_site_type_symbol
_atom_site_label
_atom_site_fract_x
_atom_site_fract_y
_atom_site_fract_z
Si Si1 0.958119 0.839887 0.416695
Si Si2 0.372876 0.661279 0.663006
Si Si3 0.226142 0.153853 0.396288
Si Si4 0.279996 0.848647 0.077985
Si Si5 0.041798 0.339589 0.874928
Si Si6 0.379240 0.838688 0.946445
O O1 0.910227 0.810290 0.520013
O O2 0.960871 0.749693 0.269907
O O3 0.000000 0.797006 0.500000
O O4 0.962200 0.000000 0.370375
O O5 0.371278 0.500000 0.708138
O O6 0.323171 0.710651 0.630775
O O7 0.387107 0.749305 0.797155
O O8 0.250000 0.250000 0.500000
O O9 0.262825 0.150565 0.250547
O O10 0.219344 0.000000 0.464987
O O11 0.275660 0.000000 0.009199
O O12 0.250000 0.750000 0.000000
O O13 0.331713 0.799484 0.044920
O O14 0.042699 0.500000 0.828424
O O15 0.085583 0.296129 0.945959
O O16 0.000000 0.305006 0.000000
O O17 0.383929 0.000000 0.901948
#
# Coordination Sequence:
#
# PCOD8100991 Si02
#       6
#     8   8   8   8   8   8
#     4  10  22  39  59  84 113 145 183 225 272 328
#     4  10  21  38  57  81 112 146 184 227 274 325
#     4  10  22  37  54  79 112 147 185 228 272 323
#     4  10  20  36  56  80 110 145 185 227 271 321
#     4  10  22  39  59  85 114 143 181 227 274 327
#     4  10  21  36  57  84 111 143 185 228 272 326
#
# _framework density 18.488015999999998
#
# number of rings (size 3 to 8) (size 9 to 14) (size 15 to 20)
#    0.000    2.000    1.667    1.000    2.333    3.333 
#    0.000    0.000    0.000    0.000    0.000    0.000 
#    0.000    0.000    0.000    0.000    0.000    0.000 
#
# Total GULP energy -297600.878676 kJ/mol
# GULP energy per Si atom -12400.036612 kJ/mol
# Density = 1.844594 g / cm^3
# Si number density = 18.488016 Si / 1000 Ang^3
#
#
#
# Elastic Constant Matrix: (Units=GPa)
#
#
# Indices 1 2 3 4 5 6 
#
# 1 146.7115 57.6187 76.5364 0.0000 7.2436 0.0000
# 2 57.6187 84.7844 78.8586 0.0000 15.6655 0.0000
# 3 76.5364 78.8586 133.6727 0.0000 14.1599 0.0000
# 4 0.0000 0.0000 0.0000 40.8118 0.0000 6.8749
# 5 7.2436 15.6655 14.1599 0.0000 32.3532 0.0000
# 6 0.0000 0.0000 0.0000 6.8749 0.0000 26.8795
#
#
#
# Elastic Compliance Matrix: (Units=1/GPa)
#
#
# Indices 1 2 3 4 5 6 
#
# 1 0.010155 -0.003523 -0.003855 0.000000 0.001119 0.000000
# 2 -0.003523 0.028597 -0.014125 0.000000 -0.006876 0.000000
# 3 -0.003855 -0.014125 0.018042 0.000000 -0.000194 0.000000
# 4 0.000000 0.000000 0.000000 0.025606 0.000000 -0.006549
# 5 0.001119 -0.006876 -0.000194 0.000000 0.034072 0.000000
# 6 0.000000 0.000000 0.000000 -0.006549 0.000000 0.038878
#
#
# Mechanical properties :
#
#
# Convention : Reuss Voigt Hill
#
# Bulk Modulus (GPa) = 72.52489 87.91066 80.21778
# Shear Modulus (GPa) = 24.63634 30.15255 27.39444
#
# Velocity S-wave (km/s) = 3.65438 4.04285 3.85351
# Velocity P-wave (km/s) = 7.55773 8.33344 7.95504
#
# Compressibility (1/GPa) = 0.01378837
#
# Stress axis : x y z
#
# Youngs Moduli (GPa) = 98.46954 34.96878 55.42742
#
# Poissons Ratio (x) = 0.12319 0.21367
# Poissons Ratio (y) = 0.34689 0.78291
# Poissons Ratio (z) = 0.37960 0.49394
#
# Static dielectric constant tensor:
#      x y z
#    x 3.568140 0.000000 -0.084200 
#    y 0.000000 3.419140 0.000000 
#    z -0.084200 0.000000 3.463130 
# 
# 
# High freq. dielectric constant tensor:
#      x y z
#    x 1.740000 0.000000 -0.006000 
#    y 0.000000 1.716290 0.000000 
#    z -0.006000 0.000000 1.712590 
# 
# From -- ./inp_files/108625.got.cif
#   From: 2010.06.25/outbox.cif.g09.slc.cpg/sg12_55_cif.got.tgz:108625.got - 2010.06.28 00:19:55.
