data_PCOD8100422
_publ_section_title
;
Structure prediction by ZEFSAII (Michael W. Deem and Ramdas Pophale) SiO2 
 PCOD8100422
Probable space group: C 2/M
;
_chemical_formula_sum "Si O2"
_cell_formula_units_Z 48
_cell_length_a 23.929753
_cell_length_b 8.688435
_cell_length_c 12.041171
_cell_angle_alpha 90.000000
_cell_angle_beta 90.776801
_cell_angle_gamma 90.000000
_cell_volume 2503.275107
_symmetry_space_group_name_H-M "C 2/M"
_symmetry_group_IT_number 12
_symmetry_cell_setting 'monoclinic'
loop_
_space_group_symop_operation_xyz
x,y,z
-x,y,-z
-x,-y,-z
x,-y,z
1/2+x,1/2+y,z
1/2-x,1/2+y,-z
1/2-x,1/2-y,-z
1/2+x,1/2-y,z
loop_
_atom_site_type_symbol
_atom_site_label
_atom_site_fract_x
_atom_site_fract_y
_atom_site_fract_z
Si Si1 0.164950 0.817848 0.026343
Si Si2 0.456072 0.683055 0.909143
Si Si3 0.792364 0.681678 0.413671
Si Si4 0.228754 0.317999 0.833714
Si Si5 0.417387 0.817890 0.472464
Si Si6 0.987269 0.182649 0.664991
O O1 0.105327 0.751678 0.063934
O O2 0.211467 0.763399 0.116522
O O3 0.163433 0.000000 0.017258
O O4 0.178760 0.751631 0.905533
O O5 0.454955 0.500000 0.912028
O O6 0.474018 0.740689 0.788289
O O7 0.500000 0.748179 0.000000
O O8 0.786947 0.500000 0.416014
O O9 0.750000 0.750000 0.500000
O O10 0.776951 0.745473 0.291280
O O11 0.854615 0.734828 0.445870
O O12 0.222745 0.500000 0.836948
O O13 0.436182 0.733429 0.585345
O O14 0.455690 0.764142 0.371096
O O15 0.423184 0.000000 0.487902
O O16 0.994745 0.000000 0.658250
#
# Coordination Sequence:
#
# PCOD8100422 Si02
#       6
#     8   8   8   8   8   8
#     4   9  18  34  57  79 104 141 176 216 268 314
#     4   9  19  33  52  82 112 136 173 223 268 310
#     4  10  23  38  56  81 110 144 181 224 272 320
#     4   9  19  36  55  78 107 139 176 218 266 319
#     4  10  21  38  56  78 112 146 176 222 279 322
#     4  10  20  35  59  84 105 142 187 223 264 320
#
# _framework density 19.174880000000002
#
# number of rings (size 3 to 8) (size 9 to 14) (size 15 to 20)
#    0.000    2.500    0.000    2.000    4.667    2.000 
#    0.000    1.667    0.000    2.500    0.000    0.000 
#    0.000    0.000    0.000    0.000    0.000    0.000 
#
# Total GULP energy -297636.461660 kJ/mol
# GULP energy per Si atom -12401.519236 kJ/mol
# Density = 1.913124 g / cm^3
# Si number density = 19.174880 Si / 1000 Ang^3
#
#
#
# Elastic Constant Matrix: (Units=GPa)
#
#
# Indices 1 2 3 4 5 6 
#
# 1 162.9007 14.7306 93.7285 0.0000 -6.5279 0.0000
# 2 14.7306 15.2902 12.6860 0.0000 -0.4865 0.0000
# 3 93.7285 12.6860 185.0596 0.0000 -11.4518 0.0000
# 4 0.0000 0.0000 0.0000 24.8338 0.0000 -4.3423
# 5 -6.5279 -0.4865 -11.4518 0.0000 26.0442 0.0000
# 6 0.0000 0.0000 0.0000 -4.3423 0.0000 24.8196
#
#
#
# Elastic Compliance Matrix: (Units=1/GPa)
#
#
# Indices 1 2 3 4 5 6 
#
# 1 0.009040 -0.005213 -0.004202 0.000000 0.000321 0.000000
# 2 -0.005213 0.072369 -0.002382 0.000000 -0.001002 0.000000
# 3 -0.004202 -0.002382 0.007840 0.000000 0.002350 0.000000
# 4 0.000000 0.000000 0.000000 0.041538 0.000000 0.007267
# 5 0.000321 -0.001002 0.002350 0.000000 0.039491 0.000000
# 6 0.000000 0.000000 0.000000 0.007267 0.000000 0.041562
#
#
# Mechanical properties :
#
#
# Convention : Reuss Voigt Hill
#
# Bulk Modulus (GPa) = 15.23122 67.28230 41.25676
# Shear Modulus (GPa) = 19.43097 31.27988 25.35543
#
# Velocity S-wave (km/s) = 3.18678 4.04331 3.64032
# Velocity P-wave (km/s) = 4.63695 7.54737 6.26355
#
# Compressibility (1/GPa) = 0.06565462
#
# Stress axis : x y z
#
# Youngs Moduli (GPa) = 110.61387 13.81814 127.54481
#
# Poissons Ratio (x) = 0.07204 0.53588
# Poissons Ratio (y) = 0.57668 0.30387
# Poissons Ratio (z) = 0.46475 0.03292
#
# Static dielectric constant tensor:
#      x y z
#    x 3.707210 0.000000 0.087380 
#    y 0.000000 3.248540 0.000000 
#    z 0.087380 0.000000 3.550170 
# 
# 
# High freq. dielectric constant tensor:
#      x y z
#    x 1.754860 0.000000 -0.000280 
#    y 0.000000 1.724660 0.000000 
#    z -0.000280 0.000000 1.755700 
# 
# From -- ./inp_files/172274.got.cif
#   From: 2010.06.25/outbox.cif.g09.slc.cpg/sg12_87_cif.got.tgz:172274.got - 2010.06.28 00:19:55.
