data_PCOD8100728
_publ_section_title
;
Structure prediction by ZEFSAII (Michael W. Deem and Ramdas Pophale) SiO2 
 PCOD8100728
Probable space group: C 2/M
;
_chemical_formula_sum "Si O2"
_cell_formula_units_Z 48
_cell_length_a 30.693581
_cell_length_b 13.527743
_cell_length_c 13.778630
_cell_angle_alpha 90.000000
_cell_angle_beta 153.797539
_cell_angle_gamma 90.000000
_cell_volume 2526.116150
_symmetry_space_group_name_H-M "C 2/M"
_symmetry_group_IT_number 12
_symmetry_cell_setting 'monoclinic'
loop_
_space_group_symop_operation_xyz
x,y,z
-x,y,-z
-x,-y,-z
x,-y,z
1/2+x,1/2+y,z
1/2-x,1/2+y,-z
1/2-x,1/2-y,-z
1/2+x,1/2-y,z
loop_
_atom_site_type_symbol
_atom_site_label
_atom_site_fract_x
_atom_site_fract_y
_atom_site_fract_z
Si Si1 0.163202 0.500000 0.272818
Si Si2 0.772898 0.387788 0.175466
Si Si3 0.250065 0.295243 0.394433
Si Si4 0.054262 0.500000 0.243983
Si Si5 0.412058 0.789712 0.596355
Si Si6 0.099830 0.387895 0.750950
Si Si7 0.618571 0.262618 0.953604
O O1 0.225463 0.409601 0.355867
O O2 0.150157 0.500000 0.363895
O O3 0.050946 0.500000 0.016280
O O4 0.788395 0.500000 0.244839
O O5 0.839129 0.306108 0.361136
O O6 0.803416 0.380947 0.124031
O O7 0.660141 0.354867 0.972799
O O8 0.250000 0.250000 0.500000
O O9 0.360153 0.275542 0.575443
O O10 0.173025 0.245233 0.166193
O O11 0.056268 0.399547 0.308984
O O12 0.503547 0.722385 0.746113
O O13 0.076134 0.500000 0.732832
O O14 0.128635 0.335097 0.908120
O O15 0.000000 0.344633 0.500000
#
# Coordination Sequence:
#
# PCOD8100728 Si02
#       7
#     4   8   8   4   8   8   8
#     4  11  22  38  60  83 115 157 196 256 298 351
#     4  10  21  38  60  87 122 159 194 239 293 355
#     4  11  24  39  58  90 122 155 199 247 301 350
#     4  11  20  34  64  85 111 154 197 249 302 339
#     4  11  21  37  61  89 118 155 197 244 295 355
#     4  10  20  35  62  94 120 150 197 248 298 352
#     4  11  23  37  61  88 122 157 198 245 297 356
#
# _framework density 19.0015
#
# number of rings (size 3 to 8) (size 9 to 14) (size 15 to 20)
#    0.000    1.333    5.833    0.500    2.333    0.667 
#    1.500    0.000    0.000    1.500    0.000    0.000 
#    0.000    0.000    0.000    0.000    0.000    0.000 
#
# Total GULP energy -297461.936163 kJ/mol
# GULP energy per Si atom -12394.247340 kJ/mol
# Density = 1.895825 g / cm^3
# Si number density = 19.001500 Si / 1000 Ang^3
#
#
#
# Elastic Constant Matrix: (Units=GPa)
#
#
# Indices 1 2 3 4 5 6 
#
# 1 134.9845 43.9187 48.7582 0.0000 23.7131 0.0000
# 2 43.9187 68.7506 28.2236 0.0000 16.5689 0.0000
# 3 48.7582 28.2236 70.6824 0.0000 10.9076 0.0000
# 4 0.0000 0.0000 0.0000 27.5631 0.0000 1.6212
# 5 23.7131 16.5689 10.9076 0.0000 44.5027 0.0000
# 6 0.0000 0.0000 0.0000 1.6212 0.0000 36.1935
#
#
#
# Elastic Compliance Matrix: (Units=1/GPa)
#
#
# Indices 1 2 3 4 5 6 
#
# 1 0.011371 -0.004176 -0.005697 0.000000 -0.003108 0.000000
# 2 -0.004176 0.020053 -0.004487 0.000000 -0.004141 0.000000
# 3 -0.005697 -0.004487 0.019896 0.000000 -0.000170 0.000000
# 4 0.000000 0.000000 0.000000 0.036376 0.000000 -0.001629
# 5 -0.003108 -0.004141 -0.000170 0.000000 0.025710 0.000000
# 6 0.000000 0.000000 0.000000 -0.001629 0.000000 0.027702
#
#
# Mechanical properties :
#
#
# Convention : Reuss Voigt Hill
#
# Bulk Modulus (GPa) = 44.24971 57.35760 50.80366
# Shear Modulus (GPa) = 28.19105 31.88634 30.03869
#
# Velocity S-wave (km/s) = 3.85596 4.10090 3.98032
# Velocity P-wave (km/s) = 6.56983 7.25772 6.92232
#
# Compressibility (1/GPa) = 0.02259902
#
# Stress axis : x y z
#
# Youngs Moduli (GPa) = 87.94575 49.86719 50.26249
#
# Poissons Ratio (x) = 0.20825 0.28632
# Poissons Ratio (y) = 0.36728 0.22555
# Poissons Ratio (z) = 0.50099 0.22378
#
# Static dielectric constant tensor:
#      x y z
#    x 3.874300 0.000000 0.183370 
#    y 0.000000 3.486510 0.000000 
#    z 0.183370 0.000000 3.486930 
# 
# 
# High freq. dielectric constant tensor:
#      x y z
#    x 1.761680 0.000000 0.002510 
#    y 0.000000 1.718670 0.000000 
#    z 0.002510 0.000000 1.722400 
# 
# From -- ./inp_files/183920.got.cif
#   From: 2010.06.25/outbox.cif.g09.slc.cpg/sg12_92_cif.got.tgz:183920.got - 2010.06.28 00:19:55.
