data_PCOD8100834
_publ_section_title
;
Structure prediction by ZEFSAII (Michael W. Deem and Ramdas Pophale) SiO2 
 PCOD8100834
Probable space group: C 2/M
;
_chemical_formula_sum "Si O2"
_cell_formula_units_Z 56
_cell_length_a 5.165150
_cell_length_b 16.304770
_cell_length_c 35.409909
_cell_angle_alpha 90.000000
_cell_angle_beta 68.306948
_cell_angle_gamma 90.000000
_cell_volume 2770.901355
_symmetry_space_group_name_H-M "C 2/M"
_symmetry_group_IT_number 12
_symmetry_cell_setting 'monoclinic'
loop_
_space_group_symop_operation_xyz
x,y,z
-x,y,-z
-x,-y,-z
x,-y,z
1/2+x,1/2+y,z
1/2-x,1/2+y,-z
1/2-x,1/2-y,-z
1/2+x,1/2-y,z
loop_
_atom_site_type_symbol
_atom_site_label
_atom_site_fract_x
_atom_site_fract_y
_atom_site_fract_z
Si Si1 0.854734 0.697830 0.545170
Si Si2 0.842385 0.304078 0.754363
Si Si3 0.467262 0.902668 0.114991
Si Si4 0.295638 0.596611 0.376441
Si Si5 0.080182 0.597490 0.672254
Si Si6 0.654206 0.402479 0.836414
Si Si7 0.690166 0.902085 0.023633
O O1 0.548095 0.729974 0.551186
O O2 0.825239 0.627448 0.577596
O O3 0.000000 0.659752 0.500000
O O4 0.554657 0.267471 0.754350
O O5 0.783962 0.361681 0.792860
O O6 0.977577 0.361727 0.715879
O O7 0.670905 0.872483 0.136951
O O8 0.573908 0.866784 0.069399
O O9 0.158680 0.870178 0.140473
O O10 0.464437 0.000000 0.112817
O O11 0.286158 0.500000 0.378919
O O12 0.607716 0.628240 0.352677
O O13 0.107252 0.629220 0.352283
O O14 0.062949 0.500000 0.678121
O O15 0.666665 0.500000 0.830559
O O16 0.688650 0.000000 0.024460
O O17 0.500000 0.868572 0.000000
O O18 0.000000 0.868472 0.000000
#
# Coordination Sequence:
#
# PCOD8100834 Si02
#       7
#     8   8   8   8   8   8   8
#     4  10  21  36  55  81 114 151 188 227 273 323
#     4  12  25  39  57  83 110 137 178 225 270 319
#     4   9  17  29  48  73 101 140 181 210 255 321
#     4  10  21  37  59  84 110 143 184 227 269 321
#     4  10  22  40  59  82 112 145 180 220 274 331
#     4  10  20  36  55  74 104 143 178 215 261 317
#     4   9  15  23  38  65 103 137 164 206 261 309
#
# _framework density 20.210031000000001
#
# number of rings (size 3 to 8) (size 9 to 14) (size 15 to 20)
#    0.000    2.000    0.000    3.857    0.000    7.143 
#    0.000    5.714    0.000    5.143    0.000    0.000 
#    0.000   40.000    0.000    0.000    0.000    0.000 
#
# Total GULP energy -347287.684967 kJ/mol
# GULP energy per Si atom -12403.131606 kJ/mol
# Density = 2.016403 g / cm^3
# Si number density = 20.210031 Si / 1000 Ang^3
#
#
#
# Elastic Constant Matrix: (Units=GPa)
#
#
# Indices 1 2 3 4 5 6 
#
# 1 153.7125 19.8249 66.1083 0.0000 -0.0618 0.0000
# 2 19.8249 19.2127 36.1997 0.0000 -0.5346 0.0000
# 3 66.1083 36.1997 190.7724 0.0000 1.8973 0.0000
# 4 0.0000 0.0000 0.0000 2.7727 0.0000 0.7336
# 5 -0.0618 -0.5346 1.8973 0.0000 36.6905 0.0000
# 6 0.0000 0.0000 0.0000 0.7336 0.0000 6.4261
#
#
#
# Elastic Compliance Matrix: (Units=1/GPa)
#
#
# Indices 1 2 3 4 5 6 
#
# 1 0.007905 -0.004659 -0.001855 0.000000 0.000041 0.000000
# 2 -0.004659 0.083903 -0.014326 0.000000 0.001955 0.000000
# 3 -0.001855 -0.014326 0.008610 0.000000 -0.000657 0.000000
# 4 0.000000 0.000000 0.000000 0.371895 0.000000 -0.042453
# 5 0.000041 0.001955 -0.000657 0.000000 0.027318 0.000000
# 6 0.000000 0.000000 0.000000 -0.042453 0.000000 0.160461
#
#
# Mechanical properties :
#
#
# Convention : Reuss Voigt Hill
#
# Bulk Modulus (GPa) = 17.02530 67.55148 42.28839
# Shear Modulus (GPa) = 6.93145 25.28218 16.10681
#
# Velocity S-wave (km/s) = 1.85396 3.54075 2.82613
# Velocity P-wave (km/s) = 3.60906 7.08612 5.62310
#
# Compressibility (1/GPa) = 0.05873612
#
# Stress axis : x y z
#
# Youngs Moduli (GPa) = 126.50866 11.91856 116.14810
#
# Poissons Ratio (x) = 0.05553 0.21551
# Poissons Ratio (y) = 0.58945 1.66390
# Poissons Ratio (z) = 0.23473 0.17074
#
# Static dielectric constant tensor:
#      x y z
#    x 4.273040 0.000000 0.005540 
#    y 0.000000 3.181160 0.000000 
#    z 0.005540 0.000000 3.865930 
# 
# 
# High freq. dielectric constant tensor:
#      x y z
#    x 1.810600 0.000000 0.001240 
#    y 0.000000 1.751280 0.000000 
#    z 0.001240 0.000000 1.808580 
# 
# From -- ./inp_files/371595.got.cif
#   From: 2010.06.25/outbox.cif.g09.slc.cpg/sg12_186_cif.got.tgz:371595.got - 2010.06.28 00:19:55.
