data_PCOD8100552
_publ_section_title
;
Structure prediction by ZEFSAII (Michael W. Deem and Ramdas Pophale) SiO2 
 PCOD8100552
Probable space group: C 2/M
;
_chemical_formula_sum "Si O2"
_cell_formula_units_Z 64
_cell_length_a 29.708284
_cell_length_b 8.792441
_cell_length_c 15.302617
_cell_angle_alpha 90.000000
_cell_angle_beta 131.911872
_cell_angle_gamma 90.000000
_cell_volume 2974.587413
_symmetry_space_group_name_H-M "C 2/M"
_symmetry_group_IT_number 12
_symmetry_cell_setting 'monoclinic'
loop_
_space_group_symop_operation_xyz
x,y,z
-x,y,-z
-x,-y,-z
x,-y,z
1/2+x,1/2+y,z
1/2-x,1/2+y,-z
1/2-x,1/2-y,-z
1/2+x,1/2-y,z
loop_
_atom_site_type_symbol
_atom_site_label
_atom_site_fract_x
_atom_site_fract_y
_atom_site_fract_z
Si Si1 0.706898 0.675384 0.580471
Si Si2 0.124982 0.171308 0.636508
Si Si3 0.977367 0.827281 0.625137
Si Si4 0.603628 0.175901 0.782590
Si Si5 0.184822 0.322107 0.165509
Si Si6 0.704941 0.321767 0.012051
Si Si7 0.933015 0.319845 0.894694
Si Si8 0.110681 0.320826 0.351312
O O1 0.695922 0.500000 0.541429
O O2 0.671293 0.719925 0.622162
O O3 0.776967 0.708279 0.695109
O O4 0.680549 0.776872 0.466273
O O5 0.056701 0.180868 0.511732
O O6 0.132923 0.286461 0.726809
O O7 0.138339 0.000000 0.687337
O O8 0.932840 0.773275 0.642775
O O9 0.033488 0.715122 0.693958
O O10 0.998411 0.000000 0.671233
O O11 0.636789 0.273121 0.899992
O O12 0.613100 0.000000 0.815729
O O13 0.187344 0.500000 0.146041
O O14 0.115681 0.268112 0.094699
O O15 0.215614 0.234445 0.124865
O O16 0.713958 0.500000 0.020538
O O17 0.750000 0.250000 0.000000
O O18 0.937909 0.500000 0.902163
O O19 0.906801 0.266192 0.768003
O O20 0.000000 0.249568 0.000000
O O21 0.101429 0.500000 0.351746
#
# Coordination Sequence:
#
# PCOD8100552 Si02
#       8
#     8   8   8   8   8   8   8   8
#     4   9  19  36  59  86 119 159 200 251 312 371
#     4   9  18  34  54  79 117 160 200 249 311 366
#     4  10  21  37  57  83 119 160 201 253 311 368
#     4  12  24  36  56  85 118 158 204 255 306 366
#     4  10  21  40  66  92 122 165 212 256 314 376
#     4  12  26  44  64  90 123 160 205 255 311 371
#     4   9  20  38  61  91 127 165 206 257 314 372
#     4  10  20  35  59  90 121 160 206 254 306 368
#
# _framework density 21.515588999999999
#
# number of rings (size 3 to 8) (size 9 to 14) (size 15 to 20)
#    0.000    1.875    0.000    4.875    1.750    6.000 
#    0.000    1.250    0.000    1.875    0.000    0.000 
#    0.000    0.000    0.000    0.000    0.000    0.000 
#
# Total GULP energy -396768.212795 kJ/mol
# GULP energy per Si atom -12399.006650 kJ/mol
# Density = 2.146662 g / cm^3
# Si number density = 21.515589 Si / 1000 Ang^3
#
#
#
# Elastic Constant Matrix: (Units=GPa)
#
#
# Indices 1 2 3 4 5 6 
#
# 1 71.1929 26.1815 36.4603 0.0000 7.3356 0.0000
# 2 26.1815 94.0515 39.9077 0.0000 -5.7284 0.0000
# 3 36.4603 39.9077 118.9082 0.0000 0.7610 0.0000
# 4 0.0000 0.0000 0.0000 34.3258 0.0000 1.0388
# 5 7.3356 -5.7284 0.7610 0.0000 35.9577 0.0000
# 6 0.0000 0.0000 0.0000 1.0388 0.0000 20.6892
#
#
#
# Elastic Compliance Matrix: (Units=1/GPa)
#
#
# Indices 1 2 3 4 5 6 
#
# 1 0.017941 -0.003407 -0.004332 0.000000 -0.004111 0.000000
# 2 -0.003407 0.013200 -0.003404 0.000000 0.002870 0.000000
# 3 -0.004332 -0.003404 0.010880 0.000000 0.000111 0.000000
# 4 0.000000 0.000000 0.000000 0.029177 0.000000 -0.001465
# 5 -0.004111 0.002870 0.000111 0.000000 0.029104 0.000000
# 6 0.000000 0.000000 0.000000 -0.001465 0.000000 0.048408
#
#
# Mechanical properties :
#
#
# Convention : Reuss Voigt Hill
#
# Bulk Modulus (GPa) = 50.66789 54.36128 52.51458
# Shear Modulus (GPa) = 28.15743 30.30140 29.22942
#
# Velocity S-wave (km/s) = 3.62152 3.75687 3.68981
# Velocity P-wave (km/s) = 6.40997 6.64376 6.52791
#
# Compressibility (1/GPa) = 0.01973637
#
# Stress axis : x y z
#
# Youngs Moduli (GPa) = 55.73789 75.75778 91.91438
#
# Poissons Ratio (x) = 0.25809 0.39813
# Poissons Ratio (y) = 0.18989 0.31287
# Poissons Ratio (z) = 0.24143 0.25787
#
# Static dielectric constant tensor:
#      x y z
#    x 3.832980 0.000000 0.221310 
#    y 0.000000 3.623290 0.000000 
#    z 0.221310 0.000000 4.292260 
# 
# 
# High freq. dielectric constant tensor:
#      x y z
#    x 1.843140 0.000000 0.009710 
#    y 0.000000 1.821730 0.000000 
#    z 0.009710 0.000000 1.855910 
# 
# From -- ./inp_files/250083.got.cif
#   From: 2010.06.25/outbox.cif.g09.slc.cpg/sg12_126_cif.got.tgz:250083.got - 2010.06.28 00:19:55.
