data_PCOD8100078
_publ_section_title
;
Structure prediction by ZEFSAII (Michael W. Deem and Ramdas Pophale) SiO2 
 PCOD8100078
Probable space group: C 2/M
;
_chemical_formula_sum "Si O2"
_cell_formula_units_Z 64
_cell_length_a 29.518577
_cell_length_b 9.042059
_cell_length_c 14.760222
_cell_angle_alpha 90.000000
_cell_angle_beta 51.907084
_cell_angle_gamma 90.000000
_cell_volume 3100.534834
_symmetry_space_group_name_H-M "C 2/M"
_symmetry_group_IT_number 12
_symmetry_cell_setting 'monoclinic'
loop_
_space_group_symop_operation_xyz
x,y,z
-x,y,-z
-x,-y,-z
x,-y,z
1/2+x,1/2+y,z
1/2-x,1/2+y,-z
1/2-x,1/2-y,-z
1/2+x,1/2-y,z
loop_
_atom_site_type_symbol
_atom_site_label
_atom_site_fract_x
_atom_site_fract_y
_atom_site_fract_z
Si Si1 0.865734 0.829384 0.123226
Si Si2 0.039321 0.324803 0.115980
Si Si3 0.133609 0.670905 0.516186
Si Si4 0.416765 0.336265 0.770743
Si Si5 0.734758 0.172975 0.262364
Si Si6 0.566797 0.160682 0.422750
Si Si7 0.919366 0.170585 0.250034
Si Si8 0.791589 0.165228 0.884040
O O1 0.800392 0.770821 0.191733
O O2 0.880728 0.809007 0.209317
O O3 0.871783 0.000000 0.085557
O O4 0.908936 0.734630 0.009138
O O5 0.036533 0.500000 0.111883
O O6 0.050111 0.278906 0.206613
O O7 0.978327 0.259386 0.160594
O O8 0.128536 0.500000 0.551701
O O9 0.197731 0.706631 0.398955
O O10 0.086411 0.711090 0.498166
O O11 0.119341 0.770575 0.620005
O O12 0.443930 0.500000 0.749417
O O13 0.418280 0.289182 0.664800
O O14 0.349093 0.339756 0.873931
O O15 0.702370 0.252622 0.219536
O O16 0.734404 0.000000 0.242190
O O17 0.500000 0.135737 0.500000
O O18 0.596561 0.000000 0.363990
O O19 0.935114 0.000000 0.247784
O O20 0.769120 0.000000 0.892213
O O21 0.750000 0.250000 0.000000
#
# Coordination Sequence:
#
# PCOD8100078 Si02
#       8
#     8   8   8   8   8   8   8   8
#     4  10  23  43  65  91 123 162 208 258 316 374
#     4  12  25  41  64  93 124 159 206 261 315 376
#     4  10  21  38  61  91 128 167 208 256 306 363
#     4  11  23  38  58  87 121 158 197 240 297 361
#     4  10  21  40  64  89 124 167 208 253 307 366
#     4  10  20  35  57  86 120 159 201 245 294 353
#     4  11  24  42  65  91 123 163 206 259 318 373
#     4  11  23  37  57  87 122 160 203 248 297 357
#
# _framework density 20.641598999999999
#
# number of rings (size 3 to 8) (size 9 to 14) (size 15 to 20)
#    0.000    1.375    1.250    4.125    0.000   10.250 
#    0.000    0.000    0.000    0.000    0.000    0.000 
#    0.000    0.000    0.000    0.000    0.000    0.000 
#
# Total GULP energy -396804.104880 kJ/mol
# GULP energy per Si atom -12400.128277 kJ/mol
# Density = 2.059462 g / cm^3
# Si number density = 20.641599 Si / 1000 Ang^3
#
#
#
# Elastic Constant Matrix: (Units=GPa)
#
#
# Indices 1 2 3 4 5 6 
#
# 1 85.8069 31.2414 20.5525 0.0000 -5.0828 0.0000
# 2 31.2414 113.1042 43.0310 0.0000 1.8089 0.0001
# 3 20.5525 43.0310 90.7962 0.0000 -3.2043 0.0000
# 4 0.0000 0.0000 0.0000 39.7122 0.0000 2.9455
# 5 -5.0828 1.8089 -3.2043 0.0000 34.8247 0.0000
# 6 0.0000 0.0001 0.0000 2.9455 0.0000 27.0170
#
#
#
# Elastic Compliance Matrix: (Units=1/GPa)
#
#
# Indices 1 2 3 4 5 6 
#
# 1 0.013261 -0.003146 -0.001441 0.000000 0.001966 0.000000
# 2 -0.003146 0.011570 -0.004824 0.000000 -0.001504 0.000000
# 3 -0.001441 -0.004824 0.013672 0.000000 0.001298 0.000000
# 4 0.000000 0.000000 0.000000 0.025386 0.000000 -0.002768
# 5 0.001966 -0.001504 0.001298 0.000000 0.029200 0.000000
# 6 0.000000 0.000000 0.000000 -0.002768 0.000000 0.037315
#
#
# Mechanical properties :
#
#
# Convention : Reuss Voigt Hill
#
# Bulk Modulus (GPa) = 50.81344 53.26190 52.03767
# Shear Modulus (GPa) = 32.09485 33.30295 32.69890
#
# Velocity S-wave (km/s) = 3.94745 4.02106 3.98443
# Velocity P-wave (km/s) = 6.74144 6.88606 6.81413
#
# Compressibility (1/GPa) = 0.01967983
#
# Stress axis : x y z
#
# Youngs Moduli (GPa) = 75.40778 86.43150 73.14159
#
# Poissons Ratio (x) = 0.27192 0.10543
# Poissons Ratio (y) = 0.23724 0.35285
# Poissons Ratio (z) = 0.10869 0.41697
#
# Static dielectric constant tensor:
#      x y z
#    x 3.559540 0.000000 0.000140 
#    y 0.000000 3.880110 0.000000 
#    z 0.000140 0.000000 3.767220 
# 
# 
# High freq. dielectric constant tensor:
#      x y z
#    x 1.814120 0.000000 -0.006300 
#    y 0.000000 1.807800 0.000000 
#    z -0.006300 0.000000 1.811630 
# 
# From -- ./inp_files/249814.got.cif
#   From: 2010.06.25/outbox.cif.g09.slc.cpg/sg12_125_cif.got.tgz:249814.got - 2010.06.28 00:19:55.
