data_PCOD8100643
_publ_section_title
;
Structure prediction by ZEFSAII (Michael W. Deem and Ramdas Pophale) SiO2 
 PCOD8100643
Probable space group: C 2/M
;
_chemical_formula_sum "Si O2"
_cell_formula_units_Z 60
_cell_length_a 17.858339
_cell_length_b 14.083108
_cell_length_c 11.592813
_cell_angle_alpha 90.000000
_cell_angle_beta 70.344261
_cell_angle_gamma 90.000000
_cell_volume 2745.712859
_symmetry_space_group_name_H-M "C 2/M"
_symmetry_group_IT_number 12
_symmetry_cell_setting 'monoclinic'
loop_
_space_group_symop_operation_xyz
x,y,z
-x,y,-z
-x,-y,-z
x,-y,z
1/2+x,1/2+y,z
1/2-x,1/2+y,-z
1/2-x,1/2-y,-z
1/2+x,1/2-y,z
loop_
_atom_site_type_symbol
_atom_site_label
_atom_site_fract_x
_atom_site_fract_y
_atom_site_fract_z
Si Si1 0.693526 0.395969 0.228601
Si Si2 0.265299 0.799892 0.718779
Si Si3 0.603658 0.390965 0.778069
Si Si4 0.482531 0.361882 0.635711
Si Si5 0.500000 0.731163 0.000000
Si Si6 0.763118 0.394675 0.957231
Si Si7 0.059136 0.648806 0.375608
Si Si8 0.440300 0.898473 0.880710
O O1 0.732207 0.500000 0.235622
O O2 0.729494 0.315333 0.295432
O O3 0.599723 0.407043 0.284687
O O4 0.704638 0.365541 0.090125
O O5 0.187794 0.842391 0.695485
O O6 0.254101 0.820269 0.859789
O O7 0.348562 0.844409 0.628071
O O8 0.618095 0.500000 0.807979
O O9 0.548938 0.390457 0.693795
O O10 0.567907 0.336093 0.909148
O O11 0.500000 0.403872 0.500000
O O12 0.478253 0.249614 0.633804
O O13 0.479823 0.802346 0.905630
O O14 0.743421 0.500000 0.919442
O O15 0.849964 0.392115 0.968964
O O16 0.056986 0.591191 0.258917
O O17 0.000000 0.599844 0.500000
O O18 0.476935 0.000000 0.906885
#
# Coordination Sequence:
#
# PCOD8100643 Si02
#       8
#     8   8   8   8   4   8   8   8
#     4  10  20  35  60  91 120 165 216 258 308 377
#     4  10  21  37  60  91 129 163 201 266 323 375
#     4  12  26  41  63  95 130 169 210 261 326 381
#     4  10  22  43  67  90 126 172 216 262 314 379
#     4  12  24  40  58  94 136 168 212 260 318 380
#     4   9  18  33  56  85 120 160 207 257 313 375
#     4   9  19  41  68  96 124 170 221 263 316 375
#     4  10  20  37  64  94 129 172 211 260 318 377
#
# _framework density 21.852249
#
# number of rings (size 3 to 8) (size 9 to 14) (size 15 to 20)
#    0.000    1.867    1.333    2.400    1.867    1.867 
#    0.000    6.667    0.000    0.000    0.000    0.000 
#    0.000    0.000    0.000    0.000    0.000    0.000 
#
# Total GULP energy -371686.961408 kJ/mol
# GULP energy per Si atom -12389.565380 kJ/mol
# Density = 2.180251 g / cm^3
# Si number density = 21.852249 Si / 1000 Ang^3
#
#
#
# Elastic Constant Matrix: (Units=GPa)
#
#
# Indices 1 2 3 4 5 6 
#
# 1 101.3165 48.4066 47.0992 0.0000 -16.7693 0.0000
# 2 48.4066 131.1525 17.5060 0.0000 -1.9715 0.0000
# 3 47.0992 17.5060 120.1174 0.0000 -28.4218 0.0000
# 4 0.0000 0.0000 0.0000 -23.4238 0.0000 16.6627
# 5 -16.7693 -1.9715 -28.4218 0.0000 33.8777 0.0000
# 6 0.0000 0.0000 0.0000 16.6627 0.0000 -25.5536
#
#
#
# Elastic Compliance Matrix: (Units=1/GPa)
#
#
# Indices 1 2 3 4 5 6 
#
# 1 0.014716 -0.004812 -0.004257 0.000000 0.003433 0.000000
# 2 -0.004812 0.009360 0.000110 0.000000 -0.001745 0.000000
# 3 -0.004257 0.000110 0.011830 0.000000 0.007824 0.000000
# 4 0.000000 0.000000 0.000000 -0.079627 0.000000 -0.051923
# 5 0.003433 -0.001745 0.007824 0.000000 0.037680 0.000000
# 6 0.000000 0.000000 0.000000 -0.051923 0.000000 -0.072991
#
#
# Mechanical properties :
#
#
# Convention : Reuss Voigt Hill
#
# Bulk Modulus (GPa) = 55.59275 64.28999 59.94137
# Shear Modulus (GPa) = -90.71138 12.95171 -38.87984
#
# Velocity S-wave (km/s) = -6.44991 2.43717 -4.22265
# Velocity P-wave (km/s) = 5.47476 6.11588 1.92756
#
# Compressibility (1/GPa) = 0.01798796
#
# Stress axis : x y z
#
# Youngs Moduli (GPa) = 67.95312 106.84018 84.53430
#
# Poissons Ratio (x) = 0.51408 0.35984
# Poissons Ratio (y) = 0.32697 -0.00927
# Poissons Ratio (z) = 0.28925 -0.01172
#
# Static dielectric constant tensor:
#      x y z
#    x 3.813530 0.000000 -0.347820 
#    y 0.000000 4.160670 0.000000 
#    z -0.347820 0.000000 4.017750 
# 
# 
# High freq. dielectric constant tensor:
#      x y z
#    x 1.835670 0.000000 -0.023560 
#    y 0.000000 1.881320 0.000000 
#    z -0.023560 0.000000 1.844610 
# 
# From -- ./inp_files/156587.got.cif
#   From: 2010.06.25/outbox.cif.g09.slc.cpg/sg12_79_cif.got.tgz:156587.got - 2010.06.28 00:19:55.
