data_PCOD8100315
_publ_section_title
;
Structure prediction by ZEFSAII (Michael W. Deem and Ramdas Pophale) SiO2 
 PCOD8100315
Probable space group: C 2/M
;
_chemical_formula_sum "Si O2"
_cell_formula_units_Z 56
_cell_length_a 19.278721
_cell_length_b 8.865743
_cell_length_c 24.229430
_cell_angle_alpha 90.000000
_cell_angle_beta 136.219926
_cell_angle_gamma 90.000000
_cell_volume 2865.331930
_symmetry_space_group_name_H-M "C 2/M"
_symmetry_group_IT_number 12
_symmetry_cell_setting 'monoclinic'
loop_
_space_group_symop_operation_xyz
x,y,z
-x,y,-z
-x,-y,-z
x,-y,z
1/2+x,1/2+y,z
1/2-x,1/2+y,-z
1/2-x,1/2-y,-z
1/2+x,1/2-y,z
loop_
_atom_site_type_symbol
_atom_site_label
_atom_site_fract_x
_atom_site_fract_y
_atom_site_fract_z
Si Si1 0.998482 0.824569 0.935237
Si Si2 0.696102 0.177853 0.020634
Si Si3 0.838883 0.173622 0.520220
Si Si4 0.464495 0.321994 0.689686
Si Si5 0.217170 0.173786 0.236146
Si Si6 0.174829 0.323832 0.812604
Si Si7 0.280966 0.823616 0.648634
O O1 0.891690 0.781554 0.848782
O O2 0.024346 0.000000 0.941738
O O3 0.079867 0.724098 0.950392
O O4 0.000000 0.781110 0.000000
O O5 0.742846 0.239281 0.103914
O O6 0.707573 0.000000 0.024669
O O7 0.750000 0.250000 0.000000
O O8 0.750000 0.250000 0.500000
O O9 0.941013 0.220538 0.611213
O O10 0.822751 0.210039 0.445890
O O11 0.824009 0.000000 0.523058
O O12 0.480232 0.500000 0.707374
O O13 0.565184 0.236901 0.764357
O O14 0.375311 0.268221 0.678681
O O15 0.299568 0.207132 0.236605
O O16 0.244205 0.275480 0.303960
O O17 0.219713 0.000000 0.255609
O O18 0.181128 0.500000 0.830296
O O19 0.307709 0.000000 0.661680
#
# Coordination Sequence:
#
# PCOD8100315 Si02
#       7
#     8   8   8   8   8   8   8
#     4  10  20  41  65  84 112 153 193 234 286 338
#     4  12  26  42  62  88 118 151 191 238 285 337
#     4   8  16  32  54  81 113 149 188 232 284 337
#     4  10  20  36  59  86 116 151 191 237 290 342
#     4  10  22  39  60  83 114 153 192 236 287 340
#     4  11  23  42  61  83 116 153 192 235 288 342
#     4  10  20  35  58  87 117 150 192 239 282 338
#
# _framework density 19.543984999999999
#
# number of rings (size 3 to 8) (size 9 to 14) (size 15 to 20)
#    0.000    1.857    1.429    2.571    2.000    3.143 
#    0.000    0.714    0.000    4.286    0.000    0.000 
#    0.000    0.000    0.000    0.000    0.000    0.000 
#
# Total GULP energy -347076.471121 kJ/mol
# GULP energy per Si atom -12395.588254 kJ/mol
# Density = 1.949950 g / cm^3
# Si number density = 19.543985 Si / 1000 Ang^3
#
#
#
# Elastic Constant Matrix: (Units=GPa)
#
#
# Indices 1 2 3 4 5 6 
#
# 1 65.2735 28.9120 3.6540 0.0000 -6.7581 0.0000
# 2 28.9120 82.6856 17.9926 0.0000 -5.2672 0.0000
# 3 3.6540 17.9926 51.7824 0.0000 -15.2728 0.0000
# 4 0.0000 0.0000 0.0000 30.0318 0.0000 -3.1713
# 5 -6.7581 -5.2672 -15.2728 0.0000 32.3494 0.0000
# 6 0.0000 0.0000 0.0000 -3.1713 0.0000 31.5181
#
#
#
# Elastic Compliance Matrix: (Units=1/GPa)
#
#
# Indices 1 2 3 4 5 6 
#
# 1 0.018569 -0.006717 0.002144 0.000000 0.003798 0.000000
# 2 -0.006717 0.015513 -0.005327 0.000000 -0.001392 0.000000
# 3 0.002144 -0.005327 0.024267 0.000000 0.011037 0.000000
# 4 0.000000 0.000000 0.000000 0.033656 0.000000 0.003386
# 5 0.003798 -0.001392 0.011037 0.000000 0.036690 0.000000
# 6 0.000000 0.000000 0.000000 0.003386 0.000000 0.032069
#
#
# Mechanical properties :
#
#
# Convention : Reuss Voigt Hill
#
# Bulk Modulus (GPa) = 25.94206 33.42878 29.68542
# Shear Modulus (GPa) = 25.85142 28.72538 27.28840
#
# Velocity S-wave (km/s) = 3.64088 3.83793 3.74070
# Velocity P-wave (km/s) = 5.56572 6.06475 5.82058
#
# Compressibility (1/GPa) = 0.03854744
#
# Stress axis : x y z
#
# Youngs Moduli (GPa) = 53.85410 64.46084 41.20895
#
# Poissons Ratio (x) = 0.43301 -0.08834
# Poissons Ratio (y) = 0.36176 0.21952
# Poissons Ratio (z) = -0.11545 0.34338
#
# Static dielectric constant tensor:
#      x y z
#    x 3.394270 0.000000 -0.139480 
#    y 0.000000 3.562290 0.000000 
#    z -0.139480 0.000000 4.263160 
# 
# 
# High freq. dielectric constant tensor:
#      x y z
#    x 1.742420 0.000000 -0.007800 
#    y 0.000000 1.765630 0.000000 
#    z -0.007800 0.000000 1.775710 
# 
# From -- ./inp_files/342541.got.cif
#   From: 2010.06.25/outbox.cif.g09.slc.cpg/sg12_172_cif.got.tgz:342541.got - 2010.06.28 00:19:55.
