data_PCOD8100506
_publ_section_title
;
Structure prediction by ZEFSAII (Michael W. Deem and Ramdas Pophale) SiO2 
 PCOD8100506
Probable space group: C 2/M
;
_chemical_formula_sum "Si O2"
_cell_formula_units_Z 64
_cell_length_a 18.986209
_cell_length_b 13.587380
_cell_length_c 12.593043
_cell_angle_alpha 90.000000
_cell_angle_beta 91.657985
_cell_angle_gamma 90.000000
_cell_volume 3247.302955
_symmetry_space_group_name_H-M "C 2/M"
_symmetry_group_IT_number 12
_symmetry_cell_setting 'monoclinic'
loop_
_space_group_symop_operation_xyz
x,y,z
-x,y,-z
-x,-y,-z
x,-y,z
1/2+x,1/2+y,z
1/2-x,1/2+y,-z
1/2-x,1/2-y,-z
1/2+x,1/2-y,z
loop_
_atom_site_type_symbol
_atom_site_label
_atom_site_fract_x
_atom_site_fract_y
_atom_site_fract_z
Si Si1 0.849932 0.205688 0.784454
Si Si2 0.069998 0.609946 0.569155
Si Si3 0.904694 0.255957 0.246185
Si Si4 0.811700 0.702998 0.571295
Si Si5 0.709060 0.114072 0.866017
Si Si6 0.297153 0.393693 0.296822
Si Si7 0.008873 0.885768 0.125244
Si Si8 0.698675 0.109329 0.108586
O O1 0.850060 0.222079 0.656337
O O2 0.776278 0.153068 0.805794
O O3 0.913192 0.137213 0.827461
O O4 0.855550 0.310113 0.846969
O O5 0.092561 0.500000 0.604686
O O6 0.052317 0.674392 0.672261
O O7 0.132042 0.656104 0.503514
O O8 0.000000 0.606586 0.500000
O O9 0.860247 0.325718 0.167650
O O10 0.854928 0.189522 0.319970
O O11 0.954962 0.185385 0.182106
O O12 0.750000 0.750000 0.500000
O O13 0.773875 0.618386 0.638152
O O14 0.697454 0.000000 0.837710
O O15 0.720831 0.132814 0.990207
O O16 0.330543 0.500000 0.324019
O O17 0.273380 0.386776 0.172884
O O18 0.991862 0.000000 0.149803
O O19 0.000000 0.865535 0.000000
O O20 0.664064 0.000000 0.116997
#
# Coordination Sequence:
#
# PCOD8100506 Si02
#       8
#     8   8   8   8   8   8   8   8
#     4  11  21  39  61  89 126 160 207 257 312 371
#     4  11  24  42  65  89 120 163 206 252 312 377
#     4  12  22  41  62  88 124 156 209 258 307 367
#     4  11  20  39  64  92 123 155 201 260 316 368
#     4  11  21  35  60  91 122 157 202 258 312 367
#     4  10  20  35  59  88 119 156 198 248 298 357
#     4  11  26  43  63  91 128 174 213 251 309 379
#     4   9  19  33  57  91 120 154 198 244 306 366
#
# _framework density 19.708663000000001
#
# number of rings (size 3 to 8) (size 9 to 14) (size 15 to 20)
#    0.000    1.250    3.750    3.375    1.750    0.500 
#    0.000    3.125    0.000    4.875    0.000    0.000 
#    0.000    0.000    0.000    0.000    0.000    0.000 
#
# Total GULP energy -396729.263246 kJ/mol
# GULP energy per Si atom -12397.789476 kJ/mol
# Density = 1.966381 g / cm^3
# Si number density = 19.708663 Si / 1000 Ang^3
#
#
#
# Elastic Constant Matrix: (Units=GPa)
#
#
# Indices 1 2 3 4 5 6 
#
# 1 88.2191 48.4171 39.8681 0.0000 -0.5761 0.0000
# 2 48.4171 142.9892 67.1768 0.0000 -2.3111 0.0000
# 3 39.8681 67.1768 101.5232 0.0000 4.3380 0.0000
# 4 0.0000 0.0000 0.0000 27.8881 0.0000 0.7550
# 5 -0.5761 -2.3111 4.3380 0.0000 31.0830 0.0000
# 6 0.0000 0.0000 0.0000 0.7550 0.0000 26.9055
#
#
#
# Elastic Compliance Matrix: (Units=1/GPa)
#
#
# Indices 1 2 3 4 5 6 
#
# 1 0.014794 -0.003280 -0.003662 0.000000 0.000541 0.000000
# 2 -0.003280 0.010966 -0.006036 0.000000 0.001597 0.000000
# 3 -0.003662 -0.006036 0.015396 0.000000 -0.002665 0.000000
# 4 0.000000 0.000000 0.000000 0.035885 0.000000 -0.001007
# 5 0.000541 0.001597 -0.002665 0.000000 0.032673 0.000000
# 6 0.000000 0.000000 0.000000 -0.001007 0.000000 0.037195
#
#
# Mechanical properties :
#
#
# Convention : Reuss Voigt Hill
#
# Bulk Modulus (GPa) = 65.79404 71.51728 68.65566
# Shear Modulus (GPa) = 28.10052 28.99328 28.54690
#
# Velocity S-wave (km/s) = 3.78007 3.83964 3.80997
# Velocity P-wave (km/s) = 7.24622 7.48486 7.36651
#
# Compressibility (1/GPa) = 0.01519895
#
# Stress axis : x y z
#
# Youngs Moduli (GPa) = 67.59368 91.19286 64.95146
#
# Poissons Ratio (x) = 0.29912 0.23788
# Poissons Ratio (y) = 0.22171 0.39205
# Poissons Ratio (z) = 0.24756 0.55045
#
# Static dielectric constant tensor:
#      x y z
#    x 3.209540 0.000000 0.114640 
#    y 0.000000 4.002310 0.000000 
#    z 0.114640 0.000000 3.770080 
# 
# 
# High freq. dielectric constant tensor:
#      x y z
#    x 1.750380 0.000000 0.004330 
#    y 0.000000 1.785860 0.000000 
#    z 0.004330 0.000000 1.776140 
# 
# From -- ./inp_files/156635.got.cif
#   From: 2010.06.25/outbox.cif.g09.slc.cpg/sg12_79_cif.got.tgz:156635.got - 2010.06.28 00:19:55.
