data_PCOD8100789
_publ_section_title
;
Structure prediction by ZEFSAII (Michael W. Deem and Ramdas Pophale) SiO2 
 PCOD8100789
Probable space group: C 2/M
;
_chemical_formula_sum "Si O2"
_cell_formula_units_Z 56
_cell_length_a 16.595067
_cell_length_b 14.531089
_cell_length_c 13.634494
_cell_angle_alpha 90.000000
_cell_angle_beta 54.772110
_cell_angle_gamma 90.000000
_cell_volume 2685.752981
_symmetry_space_group_name_H-M "C 2/M"
_symmetry_group_IT_number 12
_symmetry_cell_setting 'monoclinic'
loop_
_space_group_symop_operation_xyz
x,y,z
-x,y,-z
-x,-y,-z
x,-y,z
1/2+x,1/2+y,z
1/2-x,1/2+y,-z
1/2-x,1/2-y,-z
1/2+x,1/2-y,z
loop_
_atom_site_type_symbol
_atom_site_label
_atom_site_fract_x
_atom_site_fract_y
_atom_site_fract_z
Si Si1 0.557943 0.395586 0.676693
Si Si2 0.672880 0.898479 0.749355
Si Si3 0.466589 0.785973 0.413854
Si Si4 0.222618 0.605030 0.505690
Si Si5 0.455325 0.896759 0.814070
Si Si6 0.110925 0.287555 0.964579
Si Si7 0.068680 0.901258 0.044092
O O1 0.537840 0.500000 0.653159
O O2 0.527367 0.322474 0.615378
O O3 0.673598 0.383227 0.622393
O O4 0.498751 0.372880 0.816504
O O5 0.742195 0.873405 0.608144
O O6 0.562455 0.896904 0.786711
O O7 0.698113 0.000000 0.773022
O O8 0.685717 0.826647 0.829720
O O9 0.500000 0.802770 0.500000
O O10 0.355060 0.823414 0.483407
O O11 0.540919 0.840844 0.290171
O O12 0.181898 0.500000 0.524185
O O13 0.381073 0.850216 0.944052
O O14 0.418176 0.000000 0.818751
O O15 0.143680 0.183217 0.970706
O O16 0.000000 0.285449 0.000000
O O17 0.123217 0.000000 0.025277
O O18 0.000000 0.915664 0.000000
#
# Coordination Sequence:
#
# PCOD8100789 Si02
#       7
#     8   8   8   8   8   8   8
#     4  10  20  36  54  74 103 135 172 217 256 297
#     4   8  14  24  42  70 100 125 154 196 253 310
#     4  11  21  33  49  73 105 139 175 209 249 304
#     4   9  19  34  53  78 106 135 166 207 263 311
#     4   9  16  26  41  65  96 128 159 197 249 298
#     4   9  14  23  41  65  99 123 156 200 256 299
#     4   9  17  28  45  71 100 127 165 212 256 297
#
# _framework density 20.850763000000001
#
# number of rings (size 3 to 8) (size 9 to 14) (size 15 to 20)
#    0.000    2.714    1.429    2.143    2.000    3.143 
#    0.000    0.000    0.000    0.000    0.000    4.000 
#    0.000    9.143    0.000    0.000    0.000    0.000 
#
# Total GULP energy -346997.533155 kJ/mol
# GULP energy per Si atom -12392.769041 kJ/mol
# Density = 2.080331 g / cm^3
# Si number density = 20.850763 Si / 1000 Ang^3
#
#
#
# Elastic Constant Matrix: (Units=GPa)
#
#
# Indices 1 2 3 4 5 6 
#
# 1 12.4282 25.1366 28.0681 0.0000 7.4909 0.0000
# 2 25.1366 179.5423 70.4417 0.0000 13.1168 0.0000
# 3 28.0681 70.4417 111.1911 0.0000 22.1078 0.0000
# 4 0.0000 0.0000 0.0000 39.1514 0.0000 4.3448
# 5 7.4909 13.1168 22.1078 0.0000 15.5313 0.0000
# 6 0.0000 0.0000 0.0000 4.3448 0.0000 7.4983
#
#
#
# Elastic Compliance Matrix: (Units=1/GPa)
#
#
# Indices 1 2 3 4 5 6 
#
# 1 0.217520 -0.012110 -0.039626 0.000000 -0.038279 0.000000
# 2 -0.012110 0.008090 -0.002610 0.000000 0.002723 0.000000
# 3 -0.039626 -0.002610 0.022890 0.000000 -0.011266 0.000000
# 4 0.000000 0.000000 0.000000 0.027297 0.000000 -0.015817
# 5 -0.038279 0.002723 -0.011266 0.000000 0.096585 0.000000
# 6 0.000000 0.000000 0.000000 -0.015817 0.000000 0.142529
#
#
# Mechanical properties :
#
#
# Convention : Reuss Voigt Hill
#
# Bulk Modulus (GPa) = 7.15265 61.16160 34.15713
# Shear Modulus (GPa) = 7.46039 24.40388 15.93213
#
# Velocity S-wave (km/s) = 1.89361 3.42483 2.76724
# Velocity P-wave (km/s) = 2.86686 6.71089 5.16018
#
# Compressibility (1/GPa) = 0.13980835
#
# Stress axis : x y z
#
# Youngs Moduli (GPa) = 4.59727 123.60729 43.68781
#
# Poissons Ratio (x) = 1.49691 1.73117
# Poissons Ratio (y) = 0.05567 0.11401
# Poissons Ratio (z) = 0.18217 0.32258
#
# Static dielectric constant tensor:
#      x y z
#    x 2.852570 0.000000 -0.078720 
#    y 0.000000 4.396970 0.000000 
#    z -0.078720 0.000000 4.069420 
# 
# 
# High freq. dielectric constant tensor:
#      x y z
#    x 1.722190 0.000000 -0.003070 
#    y 0.000000 1.844150 0.000000 
#    z -0.003070 0.000000 1.827570 
# 
# From -- ./inp_files/166673.got.cif
#   From: 2010.06.25/outbox.cif.g09.slc.cpg/sg12_84_cif.got.tgz:166673.got - 2010.06.28 00:19:55.
