data_PCOD8100714
_publ_section_title
;
Structure prediction by ZEFSAII (Michael W. Deem and Ramdas Pophale) SiO2 
 PCOD8100714
Probable space group: C 2/M
;
_chemical_formula_sum "Si O2"
_cell_formula_units_Z 48
_cell_length_a 31.342887
_cell_length_b 14.537561
_cell_length_c 5.773705
_cell_angle_alpha 90.000000
_cell_angle_beta 60.239150
_cell_angle_gamma 90.000000
_cell_volume 2283.796014
_symmetry_space_group_name_H-M "C 2/M"
_symmetry_group_IT_number 12
_symmetry_cell_setting 'monoclinic'
loop_
_space_group_symop_operation_xyz
x,y,z
-x,y,-z
-x,-y,-z
x,-y,z
1/2+x,1/2+y,z
1/2-x,1/2+y,-z
1/2-x,1/2-y,-z
1/2+x,1/2-y,z
loop_
_atom_site_type_symbol
_atom_site_label
_atom_site_fract_x
_atom_site_fract_y
_atom_site_fract_z
Si Si1 0.374645 0.103836 0.423397
Si Si2 0.455429 0.327643 0.488570
Si Si3 0.630734 0.396072 0.550864
Si Si4 0.307906 0.755369 0.853005
Si Si5 0.522729 0.862631 0.692781
Si Si6 0.620911 0.748565 0.958025
O O1 0.327706 0.157980 0.652966
O O2 0.420718 0.102019 0.473824
O O3 0.358180 0.000000 0.403807
O O4 0.392929 0.161548 0.151618
O O5 0.500000 0.381252 0.500000
O O6 0.422321 0.398590 0.435079
O O7 0.480263 0.248210 0.265491
O O8 0.421720 0.264338 0.743167
O O9 0.648757 0.500000 0.540305
O O10 0.671065 0.341440 0.295670
O O11 0.623941 0.347077 0.812936
O O12 0.326027 0.766642 0.067548
O O13 0.250000 0.750000 0.000000
O O14 0.500000 0.893242 0.500000
O O15 0.500000 0.902977 0.000000
#
# Coordination Sequence:
#
# PCOD8100714 Si02
#       6
#     8   8   8   8   8   8
#     4  11  23  39  61  95 127 164 215 264 319 388
#     4  10  20  35  62  86 125 171 210 249 312 376
#     4  10  22  38  61  91 120 156 208 261 319 380
#     4  10  23  44  65  86 120 163 207 263 332 392
#     4  11  22  38  65  95 133 181 221 267 324 387
#     4  10  20  42  59  87 121 167 202 268 321 385
#
# _framework density 21.017638999999999
#
# number of rings (size 3 to 8) (size 9 to 14) (size 15 to 20)
#    0.000    1.667    5.000    2.000    0.000    7.667 
#    0.000    2.500    0.000    0.500    0.000    0.000 
#    0.000    0.000    0.000    0.000    0.000    0.000 
#
# Total GULP energy -297367.562546 kJ/mol
# GULP energy per Si atom -12390.315106 kJ/mol
# Density = 2.096980 g / cm^3
# Si number density = 21.017639 Si / 1000 Ang^3
#
#
#
# Elastic Constant Matrix: (Units=GPa)
#
#
# Indices 1 2 3 4 5 6 
#
# 1 137.5542 12.9465 40.9659 0.0000 -5.6108 0.0000
# 2 12.9465 139.7344 15.7008 0.0000 12.5095 0.0000
# 3 40.9659 15.7008 76.5633 0.0000 16.0675 0.0000
# 4 0.0000 0.0000 0.0000 -7.7050 0.0000 -2.8170
# 5 -5.6108 12.5095 16.0675 0.0000 34.1868 0.0000
# 6 0.0000 0.0000 0.0000 -2.8170 0.0000 13.4710
#
#
#
# Elastic Compliance Matrix: (Units=1/GPa)
#
#
# Indices 1 2 3 4 5 6 
#
# 1 0.009216 -0.000606 -0.005737 0.000000 0.004430 0.000000
# 2 -0.000606 0.007516 -0.000687 0.000000 -0.002527 0.000000
# 3 -0.005737 -0.000687 0.018213 0.000000 -0.009250 0.000000
# 4 0.000000 0.000000 0.000000 -0.120568 0.000000 -0.025213
# 5 0.004430 -0.002527 -0.009250 0.000000 0.035250 0.000000
# 6 0.000000 0.000000 0.000000 -0.025213 0.000000 0.068961
#
#
# Mechanical properties :
#
#
# Convention : Reuss Voigt Hill
#
# Bulk Modulus (GPa) = 47.87937 54.78648 51.33293
# Shear Modulus (GPa) = 126.23413 26.93981 76.58697
#
# Velocity S-wave (km/s) = 7.75831 3.58407 6.04305
# Velocity P-wave (km/s) = 10.15309 6.57654 8.55383
#
# Compressibility (1/GPa) = 0.02088582
#
# Stress axis : x y z
#
# Youngs Moduli (GPa) = 108.50605 133.05024 54.90722
#
# Poissons Ratio (x) = 0.08062 0.31498
# Poissons Ratio (y) = 0.06575 0.03771
# Poissons Ratio (z) = 0.62246 0.09138
#
# Static dielectric constant tensor:
#      x y z
#    x 4.006300 0.000000 0.280760 
#    y 0.000000 3.532100 0.000000 
#    z 0.280760 0.000000 3.734920 
# 
# 
# High freq. dielectric constant tensor:
#      x y z
#    x 1.823440 0.000000 0.012240 
#    y 0.000000 1.803170 0.000000 
#    z 0.012240 0.000000 1.817040 
# 
# From -- ./inp_files/28334.got.cif
#   From: 2010.06.25/outbox.cif.g09.slc.cpg/sg12_15_cif.got.tgz:28334.got - 2010.06.28 00:19:55.
