data_PCOD8100306
_publ_section_title
;
Structure prediction by ZEFSAII (Michael W. Deem and Ramdas Pophale) SiO2 
 PCOD8100306
Probable space group: C 2/M
;
_chemical_formula_sum "Si O2"
_cell_formula_units_Z 56
_cell_length_a 17.938380
_cell_length_b 8.806452
_cell_length_c 18.504363
_cell_angle_alpha 90.000000
_cell_angle_beta 74.934196
_cell_angle_gamma 90.000000
_cell_volume 2822.722293
_symmetry_space_group_name_H-M "C 2/M"
_symmetry_group_IT_number 12
_symmetry_cell_setting 'monoclinic'
loop_
_space_group_symop_operation_xyz
x,y,z
-x,y,-z
-x,-y,-z
x,-y,z
1/2+x,1/2+y,z
1/2-x,1/2+y,-z
1/2-x,1/2-y,-z
1/2+x,1/2-y,z
loop_
_atom_site_type_symbol
_atom_site_label
_atom_site_fract_x
_atom_site_fract_y
_atom_site_fract_z
Si Si1 0.125587 0.825066 0.160940
Si Si2 0.699393 0.177912 0.848895
Si Si3 0.828112 0.174587 0.004696
Si Si4 0.350002 0.674101 0.285760
Si Si5 0.437142 0.676247 0.576800
Si Si6 0.782058 0.676106 0.563822
Si Si7 0.505721 0.177814 0.293341
O O1 0.211202 0.772498 0.164200
O O2 0.112919 0.805503 0.077399
O O3 0.063216 0.718460 0.213955
O O4 0.112289 0.000000 0.187054
O O5 0.666279 0.231211 0.781567
O O6 0.691194 0.000000 0.856742
O O7 0.645991 0.247972 0.926591
O O8 0.812587 0.000000 0.024759
O O9 0.750000 0.250000 0.000000
O O10 0.362412 0.500000 0.260848
O O11 0.279495 0.694157 0.357507
O O12 0.425904 0.733746 0.306106
O O13 0.500000 0.706425 0.500000
O O14 0.433814 0.500000 0.600070
O O15 0.355953 0.727806 0.566506
O O16 0.455562 0.776973 0.641374
O O17 0.803057 0.500000 0.545235
O O18 0.750000 0.750000 0.500000
O O19 0.489044 0.000000 0.296301
#
# Coordination Sequence:
#
# PCOD8100306 Si02
#       7
#     8   8   8   8   8   8   8
#     4   9  19  36  58  84 116 153 191 234 287 345
#     4  10  20  35  58  87 116 149 191 239 290 342
#     4   9  17  31  54  83 114 150 190 235 287 341
#     4  11  24  41  59  82 116 155 194 236 286 344
#     4  11  24  42  64  89 119 155 192 233 283 339
#     4  11  24  41  64  92 119 152 192 236 286 338
#     4  12  25  39  59  86 116 152 194 241 289 338
#
# _framework density 19.839005
#
# number of rings (size 3 to 8) (size 9 to 14) (size 15 to 20)
#    0.000    1.571    0.000    6.000    0.000   12.571 
#    0.000    0.714    0.000    4.286    0.000    0.000 
#    0.000    0.000    0.000    0.000    0.000    0.000 
#
# Total GULP energy -347250.599003 kJ/mol
# GULP energy per Si atom -12401.807107 kJ/mol
# Density = 1.979385 g / cm^3
# Si number density = 19.839005 Si / 1000 Ang^3
#
#
#
# Elastic Constant Matrix: (Units=GPa)
#
#
# Indices 1 2 3 4 5 6 
#
# 1 85.8836 20.2053 26.4255 0.0000 -3.1761 0.0000
# 2 20.2053 82.5281 42.3869 0.0000 -13.4218 0.0000
# 3 26.4255 42.3869 103.5445 0.0000 4.0145 0.0000
# 4 0.0000 0.0000 0.0000 6.9853 0.0000 15.4699
# 5 -3.1761 -13.4218 4.0145 0.0000 28.0091 0.0000
# 6 0.0000 0.0000 0.0000 15.4699 0.0000 30.6899
#
#
#
# Elastic Compliance Matrix: (Units=1/GPa)
#
#
# Indices 1 2 3 4 5 6 
#
# 1 0.012884 -0.001608 -0.002672 0.000000 0.001074 0.000000
# 2 -0.001608 0.017736 -0.007213 0.000000 0.009350 0.000000
# 3 -0.002672 -0.007213 0.013513 0.000000 -0.005696 0.000000
# 4 0.000000 0.000000 0.000000 -1.230555 0.000000 0.620288
# 5 0.001074 0.009350 -0.005696 0.000000 0.041121 0.000000
# 6 0.000000 0.000000 0.000000 0.620288 0.000000 -0.280085
#
#
# Mechanical properties :
#
#
# Convention : Reuss Voigt Hill
#
# Bulk Modulus (GPa) = 47.28394 49.99907 48.64151
# Shear Modulus (GPa) = -3.58332 25.33277 10.87472
#
# Velocity S-wave (km/s) = -1.34541 3.57727 2.34380
# Velocity P-wave (km/s) = 4.63380 6.50536 5.64764
#
# Compressibility (1/GPa) = 0.02114883
#
# Stress axis : x y z
#
# Youngs Moduli (GPa) = 77.61824 56.38322 74.00350
#
# Poissons Ratio (x) = 0.09064 0.19770
# Poissons Ratio (y) = 0.12478 0.53376
# Poissons Ratio (z) = 0.20736 0.40667
#
# Static dielectric constant tensor:
#      x y z
#    x 3.499500 0.000000 -0.008690 
#    y 0.000000 3.880350 0.000000 
#    z -0.008690 0.000000 4.011390 
# 
# 
# High freq. dielectric constant tensor:
#      x y z
#    x 1.758380 0.000000 0.005160 
#    y 0.000000 1.787800 0.000000 
#    z 0.005160 0.000000 1.794340 
# 
# From -- ./inp_files/275291.got.cif
#   From: 2010.06.25/outbox.cif.g09.slc.cpg/sg12_138_cif.got.tgz:275291.got - 2010.06.28 00:19:55.
