data_PCOD8100298
_publ_section_title
;
Structure prediction by ZEFSAII (Michael W. Deem and Ramdas Pophale) SiO2 
 PCOD8100298
Probable space group: C 2/M
;
_chemical_formula_sum "Si O2"
_cell_formula_units_Z 64
_cell_length_a 18.170987
_cell_length_b 15.104005
_cell_length_c 22.394179
_cell_angle_alpha 90.000000
_cell_angle_beta 149.249932
_cell_angle_gamma 90.000000
_cell_volume 3142.509289
_symmetry_space_group_name_H-M "C 2/M"
_symmetry_group_IT_number 12
_symmetry_cell_setting 'monoclinic'
loop_
_space_group_symop_operation_xyz
x,y,z
-x,y,-z
-x,-y,-z
x,-y,z
1/2+x,1/2+y,z
1/2-x,1/2+y,-z
1/2-x,1/2-y,-z
1/2+x,1/2-y,z
loop_
_atom_site_type_symbol
_atom_site_label
_atom_site_fract_x
_atom_site_fract_y
_atom_site_fract_z
Si Si1 0.696822 0.238446 0.084443
Si Si2 0.378407 0.101514 0.167538
Si Si3 0.295560 0.901576 0.441534
Si Si4 0.284949 0.399808 0.057438
Si Si5 0.559840 0.595614 0.183441
Si Si6 0.866849 0.257474 0.827422
Si Si7 0.797751 0.602622 0.581050
Si Si8 0.852161 0.218236 0.427294
O O1 0.761990 0.335759 0.119222
O O2 0.792493 0.164242 0.119127
O O3 0.708243 0.219042 0.162836
O O4 0.535959 0.219872 0.947956
O O5 0.538910 0.134147 0.293453
O O6 0.353119 0.000000 0.171925
O O7 0.361402 0.106872 0.083494
O O8 0.265717 0.879223 0.489480
O O9 0.379005 0.820485 0.467231
O O10 0.141662 0.907465 0.303300
O O11 0.372700 0.000000 0.489244
O O12 0.314054 0.500000 0.099955
O O13 0.403698 0.366963 0.092296
O O14 0.544961 0.500000 0.143382
O O15 0.639168 0.652119 0.188152
O O16 0.778601 0.299732 0.710807
O O17 0.778310 0.500000 0.584746
O O18 0.685052 0.659463 0.540969
O O19 0.000000 0.185802 0.500000
#
# Coordination Sequence:
#
# PCOD8100298 Si02
#       8
#     8   8   8   8   8   8   8   8
#     4  11  22  36  59  83 119 157 184 237 284 344
#     4  10  21  35  60  91 115 146 190 238 292 341
#     4   9  20  38  60  85 113 148 193 239 286 336
#     4  10  20  35  58  87 111 146 195 235 282 336
#     4   9  18  35  57  82 113 147 184 237 288 339
#     4  10  23  38  52  85 120 153 193 225 293 345
#     4  10  22  40  61  86 115 150 195 244 284 333
#     4  11  24  39  59  85 117 157 194 235 289 343
#
# _framework density 20.365891000000001
#
# number of rings (size 3 to 8) (size 9 to 14) (size 15 to 20)
#    0.000    2.000    1.250    1.500    5.250    2.000 
#    0.000    3.125    0.000    0.000    0.000    0.000 
#    0.000    0.000    0.000    0.000    0.000    0.000 
#
# Total GULP energy -396506.141812 kJ/mol
# GULP energy per Si atom -12390.816932 kJ/mol
# Density = 2.031954 g / cm^3
# Si number density = 20.365891 Si / 1000 Ang^3
#
#
#
# Elastic Constant Matrix: (Units=GPa)
#
#
# Indices 1 2 3 4 5 6 
#
# 1 47.3515 21.2497 8.3197 0.0008 -11.0821 0.0003
# 2 21.2497 60.3927 7.9361 0.0012 -1.1451 0.0000
# 3 8.3197 7.9361 53.8560 -0.0008 -4.9452 0.0008
# 4 0.0008 0.0012 -0.0008 21.0261 0.0010 -1.2413
# 5 -11.0821 -1.1451 -4.9452 0.0010 30.0761 0.0001
# 6 0.0003 0.0000 0.0008 -1.2413 0.0001 23.5287
#
#
#
# Elastic Compliance Matrix: (Units=1/GPa)
#
#
# Indices 1 2 3 4 5 6 
#
# 1 0.027934 -0.009377 -0.002052 -0.000001 0.009598 0.000000
# 2 -0.009377 0.020035 -0.001778 -0.000001 -0.002985 0.000000
# 3 -0.002052 -0.001778 0.019364 0.000001 0.002360 -0.000001
# 4 -0.000001 -0.000001 0.000001 0.047708 -0.000002 0.002517
# 5 0.009598 -0.002985 0.002360 -0.000002 0.037060 0.000000
# 6 0.000000 0.000000 -0.000001 0.002517 0.000000 0.042634
#
#
# Mechanical properties :
#
#
# Convention : Reuss Voigt Hill
#
# Bulk Modulus (GPa) = 24.43897 26.29016 25.36456
# Shear Modulus (GPa) = 21.29581 23.19916 22.24749
#
# Velocity S-wave (km/s) = 3.23718 3.37874 3.30872
# Velocity P-wave (km/s) = 5.09886 5.30643 5.20368
#
# Compressibility (1/GPa) = 0.04091826
#
# Stress axis : x y z
#
# Youngs Moduli (GPa) = 35.79911 49.91339 51.64303
#
# Poissons Ratio (x) = 0.46804 0.10598
# Poissons Ratio (y) = 0.33569 0.09181
# Poissons Ratio (z) = 0.07346 0.08873
#
# Static dielectric constant tensor:
#      x y z
#    x 3.444620 0.000000 -0.158320 
#    y 0.000000 3.722190 -0.000010 
#    z -0.158320 -0.000010 3.742500 
# 
# 
# High freq. dielectric constant tensor:
#      x y z
#    x 1.777840 0.000000 -0.013310 
#    y 0.000000 1.789410 0.000000 
#    z -0.013310 0.000000 1.798370 
# 
# From -- ./inp_files/344064.got.cif
#   From: 2010.06.25/outbox.cif.g09.slc.cpg/sg12_173_cif.got.tgz:344064.got - 2010.06.28 00:19:55.
