data_PCOD8100433
_publ_section_title
;
Structure prediction by ZEFSAII (Michael W. Deem and Ramdas Pophale) SiO2 
 PCOD8100433
Probable space group: C 2/M
;
_chemical_formula_sum "Si O2"
_cell_formula_units_Z 64
_cell_length_a 11.242551
_cell_length_b 25.550317
_cell_length_c 11.980715
_cell_angle_alpha 90.000000
_cell_angle_beta 78.336362
_cell_angle_gamma 90.000000
_cell_volume 3370.407439
_symmetry_space_group_name_H-M "C 2/M"
_symmetry_group_IT_number 12
_symmetry_cell_setting 'monoclinic'
loop_
_space_group_symop_operation_xyz
x,y,z
-x,y,-z
-x,-y,-z
x,-y,z
1/2+x,1/2+y,z
1/2-x,1/2+y,-z
1/2-x,1/2-y,-z
1/2+x,1/2-y,z
loop_
_atom_site_type_symbol
_atom_site_label
_atom_site_fract_x
_atom_site_fract_y
_atom_site_fract_z
Si Si1 0.784327 0.701757 0.919764
Si Si2 0.369275 0.120835 0.070661
Si Si3 0.162132 0.797041 0.712799
Si Si4 0.729589 0.060276 0.485369
Si Si5 0.783605 0.939211 0.725447
Si Si6 0.469725 0.194901 0.227338
Si Si7 0.901074 0.345793 0.598523
Si Si8 0.972026 0.886084 0.381372
O O1 0.687180 0.694064 0.839294
O O2 0.915987 0.721399 0.853978
O O3 0.750000 0.750000 0.000000
O O4 0.792702 0.645933 0.983107
O O5 0.296235 0.075986 0.150687
O O6 0.383384 0.167676 0.155303
O O7 0.500000 0.099806 0.000000
O O8 0.111356 0.739151 0.696613
O O9 0.286646 0.806601 0.621181
O O10 0.063317 0.838461 0.691405
O O11 0.717320 0.073531 0.619901
O O12 0.635176 0.096121 0.435059
O O13 0.865460 0.070904 0.414543
O O14 0.696965 0.000000 0.467679
O O15 0.912955 0.910850 0.702143
O O16 0.810523 0.000000 0.728860
O O17 0.529346 0.150896 0.296637
O O18 0.000000 0.319429 0.500000
O O19 0.000000 0.864348 0.500000
#
# Coordination Sequence:
#
# PCOD8100433 Si02
#       8
#     8   8   8   8   8   8   8   8
#     4  10  20  36  56  80 104 141 190 233 272 322
#     4  10  21  37  56  79 113 144 185 244 278 318
#     4  10  21  35  56  82 112 148 187 223 281 332
#     4   9  18  36  60  83 111 146 185 232 280 331
#     4  10  20  35  59  85 109 148 191 227 280 337
#     4  10  21  35  53  79 111 143 185 228 274 331
#     4  10  21  35  51  80 116 145 184 226 272 335
#     4   9  19  35  56  87 118 143 180 227 275 339
#
# _framework density 18.988802
#
# number of rings (size 3 to 8) (size 9 to 14) (size 15 to 20)
#    0.000    2.250    1.250    1.125    1.750    3.000 
#    0.000    0.625    0.000   11.250    0.000    0.000 
#    0.000    0.000    0.000    0.000    0.000    0.000 
#
# Total GULP energy -396632.999086 kJ/mol
# GULP energy per Si atom -12394.781221 kJ/mol
# Density = 1.894558 g / cm^3
# Si number density = 18.988802 Si / 1000 Ang^3
#
#
#
# Elastic Constant Matrix: (Units=GPa)
#
#
# Indices 1 2 3 4 5 6 
#
# 1 98.0814 54.8072 56.0605 0.0000 4.1027 0.0000
# 2 54.8072 84.7348 48.6490 0.0000 5.3108 0.0000
# 3 56.0605 48.6490 94.3454 0.0000 -5.5577 0.0000
# 4 0.0000 0.0000 0.0000 35.3122 0.0000 1.0228
# 5 4.1027 5.3108 -5.5577 0.0000 39.3744 0.0000
# 6 0.0000 0.0000 0.0000 1.0228 0.0000 15.9932
#
#
#
# Elastic Compliance Matrix: (Units=1/GPa)
#
#
# Indices 1 2 3 4 5 6 
#
# 1 0.018821 -0.007910 -0.007217 0.000000 -0.001913 0.000000
# 2 -0.007910 0.020584 -0.006080 0.000000 -0.002810 0.000000
# 3 -0.007217 -0.006080 0.018268 0.000000 0.004151 0.000000
# 4 0.000000 0.000000 0.000000 0.028371 0.000000 -0.001814
# 5 -0.001913 -0.002810 0.004151 0.000000 0.026561 0.000000
# 6 0.000000 0.000000 0.000000 -0.001814 0.000000 0.062642
#
#
# Mechanical properties :
#
#
# Convention : Reuss Voigt Hill
#
# Bulk Modulus (GPa) = 65.53659 66.24388 65.89024
# Shear Modulus (GPa) = 22.44684 25.97896 24.21290
#
# Velocity S-wave (km/s) = 3.44191 3.70282 3.57475
# Velocity P-wave (km/s) = 7.09816 7.29676 7.19815
#
# Compressibility (1/GPa) = 0.01525865
#
# Stress axis : x y z
#
# Youngs Moduli (GPa) = 53.13250 48.58036 54.74193
#
# Poissons Ratio (x) = 0.38426 0.39510
# Poissons Ratio (y) = 0.42027 0.33282
# Poissons Ratio (z) = 0.38348 0.29536
#
# Static dielectric constant tensor:
#      x y z
#    x 3.734650 0.000000 -0.083710 
#    y 0.000000 3.255280 0.000000 
#    z -0.083710 0.000000 3.876290 
# 
# 
# High freq. dielectric constant tensor:
#      x y z
#    x 1.746110 0.000000 -0.002340 
#    y 0.000000 1.716090 0.000000 
#    z -0.002340 0.000000 1.740880 
# 
# From -- ./inp_files/135352.got.cif
#   From: 2010.06.25/outbox.cif.g09.slc.cpg/sg12_68_cif.got.tgz:135352.got - 2010.06.28 00:19:55.
