data_PCOD8100129
_publ_section_title
;
Structure prediction by ZEFSAII (Michael W. Deem and Ramdas Pophale) SiO2 
 PCOD8100129
Probable space group: C 2/M
;
_chemical_formula_sum "Si O2"
_cell_formula_units_Z 48
_cell_length_a 23.357602
_cell_length_b 15.648181
_cell_length_c 19.863024
_cell_angle_alpha 90.000000
_cell_angle_beta 18.308031
_cell_angle_gamma 90.000000
_cell_volume 2280.555882
_symmetry_space_group_name_H-M "C 2/M"
_symmetry_group_IT_number 12
_symmetry_cell_setting 'monoclinic'
loop_
_space_group_symop_operation_xyz
x,y,z
-x,y,-z
-x,-y,-z
x,-y,z
1/2+x,1/2+y,z
1/2-x,1/2+y,-z
1/2-x,1/2-y,-z
1/2+x,1/2-y,z
loop_
_atom_site_type_symbol
_atom_site_label
_atom_site_fract_x
_atom_site_fract_y
_atom_site_fract_z
Si Si1 0.314808 0.092885 0.433936
Si Si2 0.724953 0.096350 0.934503
Si Si3 0.212847 0.596053 0.266852
Si Si4 0.991176 0.812519 0.296683
Si Si5 0.885640 0.764613 0.986125
Si Si6 0.246365 0.313731 0.369315
O O1 0.256583 0.107104 0.575982
O O2 0.207835 0.156644 0.504875
O O3 0.249270 0.000000 0.485388
O O4 0.530880 0.102943 0.187791
O O5 0.886780 0.113001 0.807182
O O6 0.752146 0.000000 0.873615
O O7 0.722893 0.173784 0.881304
O O8 0.300027 0.500000 0.168726
O O9 0.266824 0.648692 0.272565
O O10 0.000000 0.585328 0.500000
O O11 0.277995 0.651493 0.130563
O O12 0.094545 0.772085 0.117258
O O13 0.938858 0.741638 0.411799
O O14 0.074495 0.757174 0.815578
#
# Coordination Sequence:
#
# PCOD8100129 Si02
#       6
#     8   8   8   8   8   8
#     4  10  20  35  57  90 126 157 207 263 310 373
#     4  11  22  36  61  92 123 164 208 261 316 367
#     4  11  26  42  62  94 132 171 211 258 317 385
#     4  11  21  38  61  92 125 168 210 266 318 374
#     4  11  22  41  63  89 128 169 215 262 314 380
#     4  11  21  40  62  89 125 168 211 261 324 375
#
# _framework density 21.047498999999998
#
# number of rings (size 3 to 8) (size 9 to 14) (size 15 to 20)
#    0.000    1.167    3.333    4.000    2.333    4.667 
#    0.000    0.000    0.000    7.500    0.000    0.000 
#    0.000    0.000    0.000    0.000    0.000    0.000 
#
# Total GULP energy -297404.737854 kJ/mol
# GULP energy per Si atom -12391.864077 kJ/mol
# Density = 2.099959 g / cm^3
# Si number density = 21.047499 Si / 1000 Ang^3
#
#
#
# Elastic Constant Matrix: (Units=GPa)
#
#
# Indices 1 2 3 4 5 6 
#
# 1 75.7274 51.4426 19.5790 0.0015 -6.4004 0.0118
# 2 51.4426 178.7028 44.0132 0.0394 8.7343 0.0364
# 3 19.5790 44.0132 70.1116 -0.0671 -4.2265 0.0427
# 4 0.0015 0.0394 -0.0671 -8.8349 0.0487 -3.4559
# 5 -6.4004 8.7343 -4.2265 0.0487 25.9125 -0.0152
# 6 0.0118 0.0364 0.0427 -3.4559 -0.0152 26.3016
#
#
#
# Elastic Compliance Matrix: (Units=1/GPa)
#
#
# Indices 1 2 3 4 5 6 
#
# 1 0.017415 -0.004946 -0.001413 0.000020 0.005738 0.000007
# 2 -0.004946 0.008253 -0.004081 0.000041 -0.004669 0.000000
# 3 -0.001413 -0.004081 0.017453 -0.000116 0.003874 -0.000035
# 4 0.000020 0.000041 -0.000116 -0.107652 0.000166 -0.014145
# 5 0.005738 -0.004669 0.003874 0.000166 0.042214 0.000044
# 6 0.000007 0.000000 -0.000035 -0.014145 0.000044 0.036162
#
#
# Mechanical properties :
#
#
# Convention : Reuss Voigt Hill
#
# Bulk Modulus (GPa) = 44.96015 61.62349 53.29182
# Shear Modulus (GPa) = 118.65864 22.64298 70.65081
#
# Velocity S-wave (km/s) = 7.51658 3.28350 5.80002
# Velocity P-wave (km/s) = 9.83563 6.61189 8.38024
#
# Compressibility (1/GPa) = 0.02224192
#
# Stress axis : x y z
#
# Youngs Moduli (GPa) = 57.42104 121.16834 57.29719
#
# Poissons Ratio (x) = 0.59928 0.08094
# Poissons Ratio (y) = 0.28399 0.23384
# Poissons Ratio (z) = 0.08111 0.49451
#
# Static dielectric constant tensor:
#      x y z
#    x 3.588680 -0.000040 -0.156420 
#    y -0.000040 4.380720 0.000180 
#    z -0.156420 0.000180 3.776740 
# 
# 
# High freq. dielectric constant tensor:
#      x y z
#    x 1.795950 0.000000 -0.026550 
#    y 0.000000 1.839140 0.000010 
#    z -0.026550 0.000010 1.825160 
# 
# From -- ./inp_files/325612.got.cif
#   From: 2010.06.25/outbox.cif.g09.slc.cpg/sg12_163_cif.got.tgz:325612.got - 2010.06.28 00:19:55.
