data_PCOD8100589
_publ_section_title
;
Structure prediction by ZEFSAII (Michael W. Deem and Ramdas Pophale) SiO2 
 PCOD8100589
Probable space group: C 2/M
;
_chemical_formula_sum "Si O2"
_cell_formula_units_Z 64
_cell_length_a 19.067344
_cell_length_b 18.291118
_cell_length_c 16.569382
_cell_angle_alpha 90.000000
_cell_angle_beta 36.002272
_cell_angle_gamma 90.000000
_cell_volume 3396.871760
_symmetry_space_group_name_H-M "C 2/M"
_symmetry_group_IT_number 12
_symmetry_cell_setting 'monoclinic'
loop_
_space_group_symop_operation_xyz
x,y,z
-x,y,-z
-x,-y,-z
x,-y,z
1/2+x,1/2+y,z
1/2-x,1/2+y,-z
1/2-x,1/2-y,-z
1/2+x,1/2-y,z
loop_
_atom_site_type_symbol
_atom_site_label
_atom_site_fract_x
_atom_site_fract_y
_atom_site_fract_z
Si Si1 0.849622 0.304715 0.438228
Si Si2 0.416004 0.818500 0.864975
Si Si3 0.226929 0.798203 0.910050
Si Si4 0.400347 0.084741 0.031876
Si Si5 0.429290 0.328133 0.446204
Si Si6 0.653235 0.586895 0.635029
Si Si7 0.681744 0.332071 0.281241
Si Si8 0.456514 0.581731 0.949799
O O1 0.750000 0.250000 0.500000
O O2 0.928768 0.258837 0.428088
O O3 0.783000 0.376882 0.535008
O O4 0.942185 0.323095 0.281114
O O5 0.340438 0.829259 0.853391
O O6 0.370657 0.741410 0.942390
O O7 0.396681 0.882538 0.946189
O O8 0.264432 0.744694 0.801613
O O9 0.161026 0.869321 0.939038
O O10 0.271075 0.100627 0.188396
O O11 0.424659 0.000000 0.999698
O O12 0.500000 0.118938 0.000000
O O13 0.388606 0.380886 0.411853
O O14 0.562816 0.351632 0.343023
O O15 0.339675 0.332741 0.603949
O O16 0.670167 0.500000 0.613021
O O17 0.559418 0.609068 0.792111
O O18 0.419270 0.500000 0.958385
O O19 0.500000 0.582893 0.000000
#
# Coordination Sequence:
#
# PCOD8100589 Si02
#       8
#     8   8   8   8   8   8   8   8
#     4  10  20  35  60  83 115 150 194 243 292 342
#     4  10  21  37  58  89 115 155 199 243 294 354
#     4  10  20  37  62  85 119 149 197 250 294 349
#     4  10  24  40  56  84 125 161 198 243 296 359
#     4  10  21  39  60  88 118 152 197 246 291 354
#     4  10  23  39  60  87 119 157 196 242 295 356
#     4  10  22  38  61  87 116 156 199 240 297 348
#     4  10  23  41  61  87 117 154 201 248 299 351
#
# _framework density 18.840862999999999
#
# number of rings (size 3 to 8) (size 9 to 14) (size 15 to 20)
#    0.000    2.000    1.250    1.500    8.750    4.000 
#    0.000    1.250    0.000    0.000    0.000    4.375 
#    0.000    0.000    0.000    0.000    0.000    0.000 
#
# Total GULP energy -396588.341825 kJ/mol
# GULP energy per Si atom -12393.385682 kJ/mol
# Density = 1.879798 g / cm^3
# Si number density = 18.840863 Si / 1000 Ang^3
#
#
#
# Elastic Constant Matrix: (Units=GPa)
#
#
# Indices 1 2 3 4 5 6 
#
# 1 72.6082 30.0564 30.8101 0.0008 4.1912 -0.0005
# 2 30.0564 81.8256 30.8394 0.0003 -4.6174 -0.0002
# 3 30.8101 30.8394 120.7608 0.0014 -1.7143 -0.0009
# 4 0.0008 0.0003 0.0014 22.6077 -0.0008 -4.1592
# 5 4.1912 -4.6174 -1.7143 -0.0008 28.2432 0.0005
# 6 -0.0005 -0.0002 -0.0009 -4.1592 0.0005 26.4566
#
#
#
# Elastic Compliance Matrix: (Units=1/GPa)
#
#
# Indices 1 2 3 4 5 6 
#
# 1 0.017589 -0.005487 -0.003139 0.000000 -0.003698 0.000000
# 2 -0.005487 0.015348 -0.002475 0.000000 0.003173 0.000000
# 3 -0.003139 -0.002475 0.009723 0.000000 0.000651 0.000000
# 4 0.000000 0.000000 0.000000 0.045550 0.000001 0.007161
# 5 -0.003698 0.003173 0.000651 0.000001 0.036514 0.000000
# 6 0.000000 0.000000 0.000000 0.007161 0.000000 0.038924
#
#
# Mechanical properties :
#
#
# Convention : Reuss Voigt Hill
#
# Bulk Modulus (GPa) = 48.87611 50.95626 49.91619
# Shear Modulus (GPa) = 25.95138 27.69408 26.82273
#
# Velocity S-wave (km/s) = 3.71536 3.83808 3.77722
# Velocity P-wave (km/s) = 6.66356 6.83707 6.75087
#
# Compressibility (1/GPa) = 0.02045989
#
# Stress axis : x y z
#
# Youngs Moduli (GPa) = 56.85335 65.15417 102.84993
#
# Poissons Ratio (x) = 0.35747 0.32284
# Poissons Ratio (y) = 0.31193 0.25452
# Poissons Ratio (z) = 0.17846 0.16124
#
# Static dielectric constant tensor:
#      x y z
#    x 3.546880 0.000000 -0.263830 
#    y 0.000000 3.621860 0.000030 
#    z -0.263830 0.000030 1.924990 
# 
# 
# High freq. dielectric constant tensor:
#      x y z
#    x 1.729920 0.000000 -0.001530 
#    y 0.000000 1.721260 0.000000 
#    z -0.001530 0.000000 1.746690 
# 
# From -- ./inp_files/285210.got.cif
#   From: 2010.06.25/outbox.cif.g09.slc.cpg/sg12_143_cif.got.tgz:285210.got - 2010.06.28 00:19:55.
