data_PCOD8100116
_publ_section_title
;
Structure prediction by ZEFSAII (Michael W. Deem and Ramdas Pophale) SiO2 
 PCOD8100116
Probable space group: C 2/M
;
_chemical_formula_sum "Si O2"
_cell_formula_units_Z 40
_cell_length_a 10.603636
_cell_length_b 26.708366
_cell_length_c 6.121425
_cell_angle_alpha 90.000000
_cell_angle_beta 79.924670
_cell_angle_gamma 90.000000
_cell_volume 1706.888111
_symmetry_space_group_name_H-M "C 2/M"
_symmetry_group_IT_number 12
_symmetry_cell_setting 'monoclinic'
loop_
_space_group_symop_operation_xyz
x,y,z
-x,y,-z
-x,-y,-z
x,-y,z
1/2+x,1/2+y,z
1/2-x,1/2+y,-z
1/2-x,1/2-y,-z
1/2+x,1/2-y,z
loop_
_atom_site_type_symbol
_atom_site_label
_atom_site_fract_x
_atom_site_fract_y
_atom_site_fract_z
Si Si1 0.163325 0.189269 0.207885
Si Si2 0.901643 0.294701 0.844399
Si Si3 0.796668 0.635283 0.545276
Si Si4 0.626595 0.056863 0.827611
Si Si5 0.863858 0.093130 0.023302
O O1 0.071524 0.238212 0.254694
O O2 0.229823 0.178156 0.418795
O O3 0.091517 0.139873 0.144326
O O4 0.261747 0.201784 0.986461
O O5 0.906138 0.335691 0.650137
O O6 0.000000 0.311200 0.000000
O O7 0.866254 0.593023 0.381704
O O8 0.688808 0.608822 0.724580
O O9 0.753262 0.061458 0.938375
O O10 0.615655 0.000000 0.746849
O O11 0.500000 0.072175 0.000000
O O12 0.000000 0.062998 0.000000
#
# Coordination Sequence:
#
# PCOD8100116 Si02
#       5
#     8   8   8   8   8
#     4   9  20  36  55  87 127 167 210 257 316 382
#     4  10  20  35  57  88 126 167 215 266 313 374
#     4  10  22  40  65  90 123 170 216 263 323 388
#     4  10  24  45  67  94 128 167 214 271 336 398
#     4  10  22  40  64  95 129 165 212 268 320 383
#
# _framework density 23.434460999999999
#
# number of rings (size 3 to 8) (size 9 to 14) (size 15 to 20)
#    0.000    2.200    0.000    1.200    0.000   14.800 
#    0.000    5.000    0.000    6.600    0.000    0.000 
#    0.000    0.000    0.000    0.000    0.000    0.000 
#
# Total GULP energy -247913.643828 kJ/mol
# GULP energy per Si atom -12395.682191 kJ/mol
# Density = 2.338112 g / cm^3
# Si number density = 23.434461 Si / 1000 Ang^3
#
#
#
# Elastic Constant Matrix: (Units=GPa)
#
#
# Indices 1 2 3 4 5 6 
#
# 1 127.2480 46.1078 45.8104 0.0000 9.9472 0.0000
# 2 46.1078 110.6200 71.9246 0.0000 2.6794 0.0000
# 3 45.8104 71.9246 138.1237 0.0000 18.0338 0.0000
# 4 0.0000 0.0000 0.0000 17.3744 0.0000 -1.5121
# 5 9.9472 2.6794 18.0338 0.0000 39.8355 0.0000
# 6 0.0000 0.0000 0.0000 -1.5121 0.0000 12.3829
#
#
#
# Elastic Compliance Matrix: (Units=1/GPa)
#
#
# Indices 1 2 3 4 5 6 
#
# 1 0.009587 -0.003059 -0.001383 0.000000 -0.001562 0.000000
# 2 -0.003059 0.014872 -0.007119 0.000000 0.002987 0.000000
# 3 -0.001383 -0.007119 0.012008 0.000000 -0.004612 0.000000
# 4 0.000000 0.000000 0.000000 0.058174 0.000000 0.007104
# 5 -0.001562 0.002987 -0.004612 0.000000 0.027380 0.000000
# 6 0.000000 0.000000 0.000000 0.007104 0.000000 0.081624
#
#
# Mechanical properties :
#
#
# Convention : Reuss Voigt Hill
#
# Bulk Modulus (GPa) = 74.93947 78.18637 76.56292
# Shear Modulus (GPa) = 21.62480 28.06182 24.84331
#
# Velocity S-wave (km/s) = 3.04102 3.46419 3.25948
# Velocity P-wave (km/s) = 6.66169 7.03115 6.84891
#
# Compressibility (1/GPa) = 0.01334410
#
# Stress axis : x y z
#
# Youngs Moduli (GPa) = 104.30744 67.24177 83.27849
#
# Poissons Ratio (x) = 0.20570 0.11515
# Poissons Ratio (y) = 0.31909 0.59290
# Poissons Ratio (z) = 0.14423 0.47872
#
# Static dielectric constant tensor:
#      x y z
#    x 4.019740 0.000000 0.073490 
#    y 0.000000 4.363860 0.000000 
#    z 0.073490 0.000000 4.224730 
# 
# 
# High freq. dielectric constant tensor:
#      x y z
#    x 1.924140 0.000000 0.005530 
#    y 0.000000 1.918930 0.000000 
#    z 0.005530 0.000000 1.931260 
# 
# From -- ./inp_files/7609.got.cif
#   From: 2010.06.25/outbox.cif.g09.slc.cpg/sg12_4_cif.got.tgz:7609.got - 2010.06.28 00:19:55.
