data_PCOD8100438
_publ_section_title
;
Structure prediction by ZEFSAII (Michael W. Deem and Ramdas Pophale) SiO2 
 PCOD8100438
Probable space group: C 2/M
;
_chemical_formula_sum "Si O2"
_cell_formula_units_Z 64
_cell_length_a 29.762244
_cell_length_b 9.149253
_cell_length_c 11.872535
_cell_angle_alpha 90.000000
_cell_angle_beta 93.401704
_cell_angle_gamma 90.000000
_cell_volume 3227.222393
_symmetry_space_group_name_H-M "C 2/M"
_symmetry_group_IT_number 12
_symmetry_cell_setting 'monoclinic'
loop_
_space_group_symop_operation_xyz
x,y,z
-x,y,-z
-x,-y,-z
x,-y,z
1/2+x,1/2+y,z
1/2-x,1/2+y,-z
1/2-x,1/2-y,-z
1/2+x,1/2-y,z
loop_
_atom_site_type_symbol
_atom_site_label
_atom_site_fract_x
_atom_site_fract_y
_atom_site_fract_z
Si Si1 0.338166 0.338337 0.075236
Si Si2 0.083597 0.168517 0.747198
Si Si3 0.339697 0.172646 0.856154
Si Si4 0.391169 0.828477 0.472151
Si Si5 0.241003 0.167849 0.784229
Si Si6 0.288027 0.171525 0.433076
Si Si7 0.579929 0.827097 0.280314
Si Si8 0.993406 0.673020 0.129824
O O1 0.346805 0.500000 0.026864
O O2 0.367246 0.314312 0.191842
O O3 0.286039 0.321428 0.102723
O O4 0.351722 0.222598 0.983410
O O5 0.084908 0.242970 0.625311
O O6 0.049742 0.246691 0.827467
O O7 0.069554 0.000000 0.730170
O O8 0.290974 0.230006 0.810957
O O9 0.376529 0.238366 0.776650
O O10 0.340186 0.000000 0.857121
O O11 0.338466 0.789647 0.482343
O O12 0.418107 0.780037 0.588709
O O13 0.396556 0.000000 0.448237
O O14 0.216073 0.273378 0.694210
O O15 0.241894 0.000000 0.739834
O O16 0.250000 0.250000 0.500000
O O17 0.279391 0.000000 0.439197
O O18 0.535379 0.770232 0.210919
O O19 0.582051 0.000000 0.271111
O O20 0.986569 0.500000 0.140187
O O21 0.000000 0.717004 0.000000
#
# Coordination Sequence:
#
# PCOD8100438 Si02
#       8
#     8   8   8   8   8   8   8   8
#     4  10  21  36  54  80 118 155 187 236 295 348
#     4  11  23  39  60  86 120 156 191 241 298 347
#     4  10  20  35  59  85 113 151 194 242 290 345
#     4  10  21  39  61  84 113 153 200 240 285 348
#     4  10  20  36  55  80 116 153 192 240 291 344
#     4  11  22  35  56  83 114 156 202 246 289 346
#     4   9  19  37  59  85 114 145 188 244 295 335
#     4  10  21  39  64  90 116 149 193 241 289 351
#
# _framework density 19.831295999999998
#
# number of rings (size 3 to 8) (size 9 to 14) (size 15 to 20)
#    0.000    1.875    1.250    2.625    0.000    6.250 
#    0.000    4.375    0.000    0.000    0.000    0.000 
#    0.000    0.000    0.000    0.000    0.000    0.000 
#
# Total GULP energy -396823.449735 kJ/mol
# GULP energy per Si atom -12400.732804 kJ/mol
# Density = 1.978616 g / cm^3
# Si number density = 19.831296 Si / 1000 Ang^3
#
#
#
# Elastic Constant Matrix: (Units=GPa)
#
#
# Indices 1 2 3 4 5 6 
#
# 1 99.2062 37.3296 42.3270 0.0000 -8.0835 0.0000
# 2 37.3296 53.8352 41.5411 0.0000 -5.6704 0.0000
# 3 42.3270 41.5411 121.2958 0.0000 -1.4540 0.0000
# 4 0.0000 0.0000 0.0000 30.5770 0.0000 -3.2036
# 5 -8.0835 -5.6704 -1.4540 0.0000 37.5032 0.0000
# 6 0.0000 0.0000 0.0000 -3.2036 0.0000 24.6375
#
#
#
# Elastic Compliance Matrix: (Units=1/GPa)
#
#
# Indices 1 2 3 4 5 6 
#
# 1 0.014144 -0.007923 -0.002201 0.000000 0.001765 0.000000
# 2 -0.007923 0.030149 -0.007530 0.000000 0.002559 0.000000
# 3 -0.002201 -0.007530 0.011577 0.000000 -0.001164 0.000000
# 4 0.000000 0.000000 0.000000 0.033156 0.000000 0.004311
# 5 0.001765 0.002559 -0.001164 0.000000 0.027387 0.000000
# 6 0.000000 0.000000 0.000000 0.004311 0.000000 0.041149
#
#
# Mechanical properties :
#
#
# Convention : Reuss Voigt Hill
#
# Bulk Modulus (GPa) = 48.63294 57.41472 53.02383
# Shear Modulus (GPa) = 25.03441 28.75284 26.89362
#
# Velocity S-wave (km/s) = 3.55684 3.81185 3.68655
# Velocity P-wave (km/s) = 6.43775 6.95615 6.70197
#
# Compressibility (1/GPa) = 0.02056220
#
# Stress axis : x y z
#
# Youngs Moduli (GPa) = 70.69937 33.16846 86.37675
#
# Poissons Ratio (x) = 0.26281 0.19012
# Poissons Ratio (y) = 0.56018 0.65040
# Poissons Ratio (z) = 0.15561 0.24975
#
# Static dielectric constant tensor:
#      x y z
#    x 3.792540 0.000000 0.059220 
#    y 0.000000 3.439120 0.000000 
#    z 0.059220 0.000000 3.607750 
# 
# 
# High freq. dielectric constant tensor:
#      x y z
#    x 1.781320 0.000000 -0.002200 
#    y 0.000000 1.751940 0.000000 
#    z -0.002200 0.000000 1.779540 
# 
# From -- ./inp_files/187503.got.cif
#   From: 2010.06.25/outbox.cif.g09.slc.cpg/sg12_94_cif.got.tgz:187503.got - 2010.06.28 00:19:55.
