data_PCOD8100575
_publ_section_title
;
Structure prediction by ZEFSAII (Michael W. Deem and Ramdas Pophale) SiO2 
 PCOD8100575
Probable space group: C 2/M
;
_chemical_formula_sum "Si O2"
_cell_formula_units_Z 44
_cell_length_a 22.225241
_cell_length_b 14.760516
_cell_length_c 18.749839
_cell_angle_alpha 90.000000
_cell_angle_beta 161.401440
_cell_angle_gamma 90.000000
_cell_volume 1961.771447
_symmetry_space_group_name_H-M "C 2/M"
_symmetry_group_IT_number 12
_symmetry_cell_setting 'monoclinic'
loop_
_space_group_symop_operation_xyz
x,y,z
-x,y,-z
-x,-y,-z
x,-y,z
1/2+x,1/2+y,z
1/2-x,1/2+y,-z
1/2-x,1/2-y,-z
1/2+x,1/2-y,z
loop_
_atom_site_type_symbol
_atom_site_label
_atom_site_fract_x
_atom_site_fract_y
_atom_site_fract_z
Si Si1 0.500000 0.652349 0.000000
Si Si2 0.365643 0.892265 0.200753
Si Si3 0.530167 0.399046 0.190804
Si Si4 0.150019 0.603895 0.231045
Si Si5 0.910812 0.606316 0.680519
Si Si6 0.379442 0.753376 0.430743
O O1 0.542230 0.595002 0.118387
O O2 0.675686 0.714124 0.175532
O O3 0.408549 0.869074 0.165723
O O4 0.520259 0.838079 0.419483
O O5 0.387432 0.000000 0.242332
O O6 0.160295 0.853193 0.991845
O O7 0.523530 0.500000 0.213625
O O8 0.716143 0.348391 0.430845
O O9 0.217635 0.500000 0.310375
O O10 0.052631 0.634763 0.196469
O O11 0.338232 0.664955 0.433343
O O12 0.000000 0.618702 0.000000
O O13 0.878843 0.500000 0.638596
O O14 0.500000 0.718015 0.500000
#
# Coordination Sequence:
#
# PCOD8100575 Si02
#       6
#     4   8   8   8   8   8
#     4  12  21  36  57  90 134 170 204 246 290 372
#     4  10  21  37  60  95 134 167 198 241 303 377
#     4  10  20  35  59  92 131 173 205 238 295 371
#     4  10  23  46  70  88 114 160 215 274 324 356
#     4   9  19  39  63  89 124 162 206 256 310 367
#     4  12  24  40  62  92 128 165 210 255 301 369
#
# _framework density 22.428709999999999
#
# number of rings (size 3 to 8) (size 9 to 14) (size 15 to 20)
#    0.000    1.636    4.545    0.273    0.000    2.182 
#    3.273    0.909    0.000    0.000    0.000    0.000 
#    0.000    0.000    0.000    0.000    0.000    0.000 
#
# Total GULP energy -272618.104304 kJ/mol
# GULP energy per Si atom -12391.732014 kJ/mol
# Density = 2.237766 g / cm^3
# Si number density = 22.428710 Si / 1000 Ang^3
#
#
#
# Elastic Constant Matrix: (Units=GPa)
#
#
# Indices 1 2 3 4 5 6 
#
# 1 199.9891 23.8721 64.1054 0.0004 11.4843 -0.0003
# 2 23.8721 59.7376 4.8820 -0.0044 7.9010 -0.0025
# 3 64.1054 4.8820 91.5366 0.0091 11.1022 -0.0033
# 4 0.0004 -0.0044 0.0091 10.3673 0.0047 9.5742
# 5 11.4843 7.9010 11.1022 0.0047 47.4832 -0.0009
# 6 -0.0003 -0.0025 -0.0033 9.5742 -0.0009 24.7276
#
#
#
# Elastic Compliance Matrix: (Units=1/GPa)
#
#
# Indices 1 2 3 4 5 6 
#
# 1 0.006755 -0.002301 -0.004587 0.000006 -0.000179 -0.000003
# 2 -0.002301 0.017931 0.000977 0.000010 -0.002656 -0.000002
# 3 -0.004587 0.000977 0.014377 -0.000020 -0.002415 0.000010
# 4 0.000006 0.000010 -0.000020 0.150143 -0.000014 -0.058133
# 5 -0.000179 -0.002656 -0.002415 -0.000014 0.022110 0.000006
# 6 -0.000003 -0.000002 0.000010 -0.058133 0.000006 0.062949
#
#
# Mechanical properties :
#
#
# Convention : Reuss Voigt Hill
#
# Bulk Modulus (GPa) = 36.70690 59.66471 48.18580
# Shear Modulus (GPa) = 16.93954 33.74254 25.34104
#
# Velocity S-wave (km/s) = 2.75118 3.88291 3.36497
# Velocity P-wave (km/s) = 5.14719 6.83830 6.05210
#
# Compressibility (1/GPa) = 0.02724284
#
# Stress axis : x y z
#
# Youngs Moduli (GPa) = 148.02939 55.76998 69.55319
#
# Poissons Ratio (x) = 0.12833 0.31901
# Poissons Ratio (y) = 0.34063 -0.06797
# Poissons Ratio (z) = 0.67895 -0.05450
#
# Static dielectric constant tensor:
#      x y z
#    x 4.421980 -0.000020 0.261570 
#    y -0.000020 3.906660 -0.000030 
#    z 0.261570 -0.000030 3.989500 
# 
# 
# High freq. dielectric constant tensor:
#      x y z
#    x 1.896940 0.000000 0.011850 
#    y 0.000000 1.868400 0.000000 
#    z 0.011850 0.000000 1.869070 
# 
# From -- ./inp_files/285287.got.cif
#   From: 2010.06.25/outbox.cif.g09.slc.cpg/sg12_143_cif.got.tgz:285287.got - 2010.06.28 00:19:55.
