data_PCOD8100072
_publ_section_title
;
Structure prediction by ZEFSAII (Michael W. Deem and Ramdas Pophale) SiO2 
 PCOD8100072
Probable space group: C 2/M
;
_chemical_formula_sum "Si O2"
_cell_formula_units_Z 56
_cell_length_a 21.003415
_cell_length_b 8.765746
_cell_length_c 29.332416
_cell_angle_alpha 90.000000
_cell_angle_beta 30.494204
_cell_angle_gamma 90.000000
_cell_volume 2740.443888
_symmetry_space_group_name_H-M "C 2/M"
_symmetry_group_IT_number 12
_symmetry_cell_setting 'monoclinic'
loop_
_space_group_symop_operation_xyz
x,y,z
-x,y,-z
-x,-y,-z
x,-y,z
1/2+x,1/2+y,z
1/2-x,1/2+y,-z
1/2-x,1/2-y,-z
1/2+x,1/2-y,z
loop_
_atom_site_type_symbol
_atom_site_label
_atom_site_fract_x
_atom_site_fract_y
_atom_site_fract_z
Si Si1 0.093076 0.823660 0.902312
Si Si2 0.144667 0.819766 0.280474
Si Si3 0.497812 0.822283 0.291504
Si Si4 0.252363 0.180151 0.548465
Si Si5 0.497842 0.819761 0.553670
Si Si6 0.651763 0.327612 0.122739
Si Si7 0.600128 0.672303 0.054348
O O1 0.220686 0.728469 0.822765
O O2 0.027535 0.797550 0.894034
O O3 0.128050 0.000000 0.889161
O O4 0.000000 0.766571 0.000000
O O5 0.118685 0.758769 0.347745
O O6 0.035305 0.748890 0.316846
O O7 0.135646 0.000000 0.285092
O O8 0.371924 0.743220 0.349888
O O9 0.605447 0.792561 0.188310
O O10 0.475849 0.000000 0.312552
O O11 0.250000 0.250000 0.500000
O O12 0.372055 0.233404 0.503651
O O13 0.247414 0.000000 0.548067
O O14 0.500000 0.764095 0.500000
O O15 0.477670 0.000000 0.568947
O O16 0.638185 0.500000 0.149785
O O17 0.573080 0.306234 0.124674
O O18 0.797584 0.294423 0.024450
O O19 0.649441 0.500000 0.014481
#
# Coordination Sequence:
#
# PCOD8100072 Si02
#       7
#     8   8   8   8   8   8   8
#     4  10  21  38  61  87 120 163 206 247 299 369
#     4  12  25  40  62  91 124 159 202 259 314 370
#     4  12  24  39  61  87 119 158 204 253 305 368
#     4  11  22  39  65  93 122 157 200 252 305 361
#     4  10  23  44  68  93 126 169 210 251 308 378
#     4  10  20  35  57  86 119 155 200 253 303 358
#     4   9  19  36  57  83 119 161 200 244 302 365
#
# _framework density 20.434646000000001
#
# number of rings (size 3 to 8) (size 9 to 14) (size 15 to 20)
#    0.000    1.429    1.429    4.286    0.000    4.571 
#    0.000    5.714    0.000    0.000    0.000    0.000 
#    0.000    0.000    0.000    0.000    0.000    0.000 
#
# Total GULP energy -347293.685610 kJ/mol
# GULP energy per Si atom -12403.345915 kJ/mol
# Density = 2.038814 g / cm^3
# Si number density = 20.434646 Si / 1000 Ang^3
#
#
#
# Elastic Constant Matrix: (Units=GPa)
#
#
# Indices 1 2 3 4 5 6 
#
# 1 112.1514 42.3844 40.8700 -0.0164 2.9046 0.0913
# 2 42.3844 94.6302 41.2710 -0.0102 0.7158 0.0107
# 3 40.8700 41.2710 100.8449 0.0002 5.7938 0.0367
# 4 -0.0164 -0.0102 0.0002 39.8935 -0.0070 0.7092
# 5 2.9046 0.7158 5.7938 -0.0070 32.7281 0.0123
# 6 0.0913 0.0107 0.0367 0.7092 0.0123 25.9245
#
#
#
# Elastic Compliance Matrix: (Units=1/GPa)
#
#
# Indices 1 2 3 4 5 6 
#
# 1 0.011484 -0.003798 -0.003077 0.000004 -0.000391 -0.000034
# 2 -0.003798 0.014134 -0.004290 0.000002 0.000787 0.000013
# 3 -0.003077 -0.004290 0.013030 -0.000003 -0.001940 -0.000005
# 4 0.000004 0.000002 -0.000003 0.025079 0.000006 -0.000686
# 5 -0.000391 0.000787 -0.001940 0.000006 0.030916 -0.000011
# 6 -0.000034 0.000013 -0.000005 -0.000686 -0.000011 0.038592
#
#
# Mechanical properties :
#
#
# Convention : Reuss Voigt Hill
#
# Bulk Modulus (GPa) = 61.28701 61.85302 61.57002
# Shear Modulus (GPa) = 31.05494 31.91595 31.48545
#
# Velocity S-wave (km/s) = 3.90259 3.95632 3.92955
# Velocity P-wave (km/s) = 7.09674 7.15572 7.12629
#
# Compressibility (1/GPa) = 0.01631667
#
# Stress axis : x y z
#
# Youngs Moduli (GPa) = 87.08145 70.75206 76.74351
#
# Poissons Ratio (x) = 0.26875 0.23614
# Poissons Ratio (y) = 0.33078 0.32924
# Poissons Ratio (z) = 0.26794 0.30354
#
# Static dielectric constant tensor:
#      x y z
#    x 3.878360 -0.000030 0.010830 
#    y -0.000030 3.618340 0.000000 
#    z 0.010830 0.000000 3.696720 
# 
# 
# High freq. dielectric constant tensor:
#      x y z
#    x 1.801100 0.000000 0.003320 
#    y 0.000000 1.796240 0.000000 
#    z 0.003320 0.000000 1.799660 
# 
# From -- ./inp_files/380665.got.cif
#   From: 2010.06.25/outbox.cif.g09.slc.cpg/sg12_191_cif.got.tgz:380665.got - 2010.06.28 00:19:55.
