data_PCOD8100002
_publ_section_title
;
Structure prediction by ZEFSAII (Michael W. Deem and Ramdas Pophale) SiO2 
 PCOD8100002
Probable space group: C 2/M
;
_chemical_formula_sum "Si O2"
_cell_formula_units_Z 48
_cell_length_a 30.405832
_cell_length_b 18.307217
_cell_length_c 8.514103
_cell_angle_alpha 90.000000
_cell_angle_beta 146.733974
_cell_angle_gamma 90.000000
_cell_volume 2599.658058
_symmetry_space_group_name_H-M "C 2/M"
_symmetry_group_IT_number 12
_symmetry_cell_setting 'monoclinic'
loop_
_space_group_symop_operation_xyz
x,y,z
-x,y,-z
-x,-y,-z
x,-y,z
1/2+x,1/2+y,z
1/2-x,1/2+y,-z
1/2-x,1/2-y,-z
1/2+x,1/2-y,z
loop_
_atom_site_type_symbol
_atom_site_label
_atom_site_fract_x
_atom_site_fract_y
_atom_site_fract_z
Si Si1 0.863557 0.918056 0.828474
Si Si2 0.594689 0.334905 0.326725
Si Si3 0.081124 0.688417 0.148483
Si Si4 0.577078 0.278113 0.833209
Si Si5 0.307790 0.306829 0.088180
Si Si6 0.218585 0.417288 0.618874
O O1 0.859844 0.899569 0.631217
O O2 0.775196 0.912545 0.635639
O O3 0.898700 0.000000 0.957892
O O4 0.921521 0.857689 0.079448
O O5 0.627606 0.256085 0.368180
O O6 0.619636 0.337969 0.584317
O O7 0.500000 0.339042 0.000000
O O8 0.134345 0.616481 0.315839
O O9 0.068475 0.711448 0.929651
O O10 0.000000 0.671299 0.000000
O O11 0.500000 0.274892 0.500000
O O12 0.654610 0.267872 0.953221
O O13 0.250000 0.250000 0.000000
O O14 0.256557 0.376689 0.881809
O O15 0.203628 0.500000 0.626939
#
# Coordination Sequence:
#
# PCOD8100002 Si02
#       6
#     8   8   8   8   8   8
#     4   9  20  35  53  79 114 152 187 226 282 336
#     4  10  20  35  57  85 114 144 190 229 276 340
#     4  10  20  36  59  82 110 147 193 237 283 336
#     4  10  21  35  57  84 114 146 188 238 281 335
#     4  11  21  34  59  87 113 147 190 231 281 331
#     4  10  22  38  56  81 113 150 191 235 282 336
#
# _framework density 18.463967
#
# number of rings (size 3 to 8) (size 9 to 14) (size 15 to 20)
#    0.000    2.000    1.667    3.000    2.333    3.667 
#    0.000    3.333    0.000    0.500    0.000    0.000 
#    0.000    0.000    0.000    0.000    0.000    0.000 
#
# Total GULP energy -297467.337103 kJ/mol
# GULP energy per Si atom -12394.472379 kJ/mol
# Density = 1.842194 g / cm^3
# Si number density = 18.463967 Si / 1000 Ang^3
#
#
#
# Elastic Constant Matrix: (Units=GPa)
#
#
# Indices 1 2 3 4 5 6 
#
# 1 120.0704 57.6565 49.3255 0.0000 -8.0666 0.0000
# 2 57.6565 123.5739 60.2685 0.0000 6.8210 0.0000
# 3 49.3255 60.2685 109.6534 0.0000 -7.6360 0.0000
# 4 0.0000 0.0000 0.0000 18.6791 0.0000 3.7479
# 5 -8.0666 6.8210 -7.6360 0.0000 24.3153 0.0000
# 6 0.0000 0.0000 0.0000 3.7479 0.0000 24.0362
#
#
#
# Elastic Compliance Matrix: (Units=1/GPa)
#
#
# Indices 1 2 3 4 5 6 
#
# 1 0.011840 -0.004535 -0.002526 0.000000 0.004407 0.000000
# 2 -0.004535 0.013455 -0.005850 0.000000 -0.007116 0.000000
# 3 -0.002526 -0.005850 0.013830 0.000000 0.005146 0.000000
# 4 0.000000 0.000000 0.000000 0.055265 0.000000 -0.008617
# 5 0.004407 -0.007116 0.005146 0.000000 0.046201 0.000000
# 6 0.000000 0.000000 0.000000 -0.008617 0.000000 0.042948
#
#
# Mechanical properties :
#
#
# Convention : Reuss Voigt Hill
#
# Bulk Modulus (GPa) = 75.18606 76.42207 75.80406
# Shear Modulus (GPa) = 23.38681 25.80927 24.59804
#
# Velocity S-wave (km/s) = 3.56282 3.74280 3.65392
# Velocity P-wave (km/s) = 7.59827 7.75614 7.67761
#
# Compressibility (1/GPa) = 0.01330034
#
# Stress axis : x y z
#
# Youngs Moduli (GPa) = 84.45769 74.32432 72.30663
#
# Poissons Ratio (x) = 0.33709 0.18268
# Poissons Ratio (y) = 0.38305 0.42302
# Poissons Ratio (z) = 0.21338 0.43482
#
# Static dielectric constant tensor:
#      x y z
#    x 3.807950 0.000000 -0.089770 
#    y 0.000000 3.413870 0.000000 
#    z -0.089770 0.000000 3.258830 
# 
# 
# High freq. dielectric constant tensor:
#      x y z
#    x 1.731720 0.000000 0.000170 
#    y 0.000000 1.697240 0.000000 
#    z 0.000170 0.000000 1.704880 
# 
# From -- ./inp_files/112929.got.cif
#   From: 2010.06.25/outbox.cif.g09.slc.cpg/sg12_57_cif.got.tgz:112929.got - 2010.06.28 00:19:55.
