data_PCOD8100307
_publ_section_title
;
Structure prediction by ZEFSAII (Michael W. Deem and Ramdas Pophale) SiO2 
 PCOD8100307
Probable space group: C 2/M
;
_chemical_formula_sum "Si O2"
_cell_formula_units_Z 36
_cell_length_a 9.143243
_cell_length_b 19.974226
_cell_length_c 15.346431
_cell_angle_alpha 90.000000
_cell_angle_beta 41.003544
_cell_angle_gamma 90.000000
_cell_volume 1838.871704
_symmetry_space_group_name_H-M "C 2/M"
_symmetry_group_IT_number 12
_symmetry_cell_setting 'monoclinic'
loop_
_space_group_symop_operation_xyz
x,y,z
-x,y,-z
-x,-y,-z
x,-y,z
1/2+x,1/2+y,z
1/2-x,1/2+y,-z
1/2-x,1/2-y,-z
1/2+x,1/2-y,z
loop_
_atom_site_type_symbol
_atom_site_label
_atom_site_fract_x
_atom_site_fract_y
_atom_site_fract_z
Si Si1 0.748840 0.287250 0.590379
Si Si2 0.050637 0.692508 0.167000
Si Si3 0.755503 0.927040 0.360028
Si Si4 0.268451 0.423804 0.150379
Si Si5 0.000000 0.270362 0.000000
O O1 0.750000 0.250000 0.500000
O O2 0.646116 0.238790 0.708660
O O3 0.634549 0.362147 0.639948
O O4 0.000000 0.303666 0.500000
O O5 0.061252 0.618892 0.204553
O O6 0.004139 0.683992 0.084875
O O7 0.283588 0.724584 0.091113
O O8 0.500000 0.934933 0.500000
O O9 0.788146 0.910297 0.243809
O O10 0.870083 0.000000 0.330165
O O11 0.206002 0.500000 0.158321
O O12 0.500000 0.403663 0.000000
#
# Coordination Sequence:
#
# PCOD8100307 Si02
#       5
#     8   8   8   8   4
#     4  11  22  36  58  86 116 148 189 244 290 340
#     4  11  20  37  55  83 115 150 193 239 288 347
#     4   9  18  34  56  83 111 148 193 237 284 339
#     4  10  20  35  58  87 116 149 195 247 290 342
#     4  10  22  32  56  80 110 152 190 232 288 344
#
# _framework density 19.577221999999999
#
# number of rings (size 3 to 8) (size 9 to 14) (size 15 to 20)
#    0.000    1.778    1.111    5.333    3.111    0.000 
#    0.000    0.556    0.000    6.667    0.000    0.000 
#    0.000    0.000    0.000    0.000    0.000    0.000 
#
# Total GULP energy -223008.859897 kJ/mol
# GULP energy per Si atom -12389.381105 kJ/mol
# Density = 1.953266 g / cm^3
# Si number density = 19.577222 Si / 1000 Ang^3
#
#
#
# Elastic Constant Matrix: (Units=GPa)
#
#
# Indices 1 2 3 4 5 6 
#
# 1 76.5319 52.7882 17.7427 0.0001 20.2005 -0.0005
# 2 52.7882 189.2451 37.7273 0.0009 24.2561 -0.0019
# 3 17.7427 37.7273 100.5725 0.0037 20.5577 -0.0114
# 4 0.0001 0.0009 0.0037 22.4775 -0.0002 15.0823
# 5 20.2005 24.2561 20.5577 -0.0002 32.5791 0.0032
# 6 -0.0005 -0.0019 -0.0114 15.0823 0.0032 17.6097
#
#
#
# Elastic Compliance Matrix: (Units=1/GPa)
#
#
# Indices 1 2 3 4 5 6 
#
# 1 0.017959 -0.003959 -0.000011 -0.000002 -0.008181 0.000004
# 2 -0.003959 0.006917 -0.001545 0.000000 -0.001721 0.000000
# 3 -0.000011 -0.001545 0.011811 -0.000018 -0.006296 0.000024
# 4 -0.000002 0.000000 -0.000018 0.104603 0.000022 -0.089590
# 5 -0.008181 -0.001721 -0.006296 0.000022 0.041021 -0.000031
# 6 0.000004 0.000000 0.000024 -0.089590 -0.000031 0.133519
#
#
# Mechanical properties :
#
#
# Convention : Reuss Voigt Hill
#
# Bulk Modulus (GPa) = 38.97327 64.76287 51.86807
# Shear Modulus (GPa) = 14.90706 31.73934 23.32320
#
# Velocity S-wave (km/s) = 2.76243 4.03083 3.45533
# Velocity P-wave (km/s) = 5.48866 7.40378 6.51695
#
# Compressibility (1/GPa) = 0.02565861
#
# Stress axis : x y z
#
# Youngs Moduli (GPa) = 55.68270 144.57437 84.66364
#
# Poissons Ratio (x) = 0.57233 0.00093
# Poissons Ratio (y) = 0.22043 0.13077
# Poissons Ratio (z) = 0.00061 0.22331
#
# Static dielectric constant tensor:
#      x y z
#    x 3.181790 0.000000 0.218330 
#    y 0.000000 4.203950 -0.000010 
#    z 0.218330 -0.000010 3.924950 
# 
# 
# High freq. dielectric constant tensor:
#      x y z
#    x 1.716870 0.000000 0.024100 
#    y 0.000000 1.781250 0.000000 
#    z 0.024100 0.000000 1.777180 
# 
# From -- ./inp_files/119697.got.cif
#   From: 2010.06.25/outbox.cif.g09.slc.cpg/sg12_60_cif.got.tgz:119697.got - 2010.06.28 00:19:55.
