data_PCOD8100319
_publ_section_title
;
Structure prediction by ZEFSAII (Michael W. Deem and Ramdas Pophale) SiO2 
 PCOD8100319
Probable space group: C 2/M
;
_chemical_formula_sum "Si O2"
_cell_formula_units_Z 48
_cell_length_a 18.030037
_cell_length_b 8.594206
_cell_length_c 31.304085
_cell_angle_alpha 90.000000
_cell_angle_beta 150.623234
_cell_angle_gamma 90.000000
_cell_volume 2379.507347
_symmetry_space_group_name_H-M "C 2/M"
_symmetry_group_IT_number 12
_symmetry_cell_setting 'monoclinic'
loop_
_space_group_symop_operation_xyz
x,y,z
-x,y,-z
-x,-y,-z
x,-y,z
1/2+x,1/2+y,z
1/2-x,1/2+y,-z
1/2-x,1/2-y,-z
1/2+x,1/2-y,z
loop_
_atom_site_type_symbol
_atom_site_label
_atom_site_fract_x
_atom_site_fract_y
_atom_site_fract_z
Si Si1 0.679071 0.679161 0.673296
Si Si2 0.673645 0.317635 0.503392
Si Si3 0.334617 0.680615 0.831241
Si Si4 0.315564 0.681060 0.658630
Si Si5 0.100036 0.325761 0.008113
Si Si6 0.859506 0.681329 0.185196
O O1 0.712461 0.500000 0.700396
O O2 0.503106 0.716677 0.588394
O O3 0.768647 0.783730 0.751871
O O4 0.734402 0.717721 0.653868
O O5 0.709264 0.500000 0.526237
O O6 0.750000 0.250000 0.500000
O O7 0.740915 0.224897 0.576623
O O8 0.366383 0.500000 0.852461
O O9 0.216036 0.734662 0.808033
O O10 0.497031 0.764343 0.917544
O O11 0.290160 0.500000 0.655293
O O12 0.492570 0.716281 0.746488
O O13 0.154389 0.500000 0.024901
O O14 0.246802 0.217974 0.089192
O O15 0.000000 0.319622 0.000000
O O16 0.901736 0.500000 0.206335
#
# Coordination Sequence:
#
# PCOD8100319 Si02
#       6
#     8   8   8   8   8   8
#     4  11  24  41  60  84 117 155 193 236 289 345
#     4  11  24  42  65  91 118 150 191 238 287 341
#     4  10  20  35  58  87 117 152 195 240 288 342
#     4  12  25  40  60  86 118 155 194 237 289 346
#     4   9  17  31  54  84 117 152 193 240 288 338
#     4  10  20  36  59  86 118 154 195 242 289 341
#
# _framework density 20.172243000000002
#
# number of rings (size 3 to 8) (size 9 to 14) (size 15 to 20)
#    0.000    1.500    0.000    5.500    0.000   11.333 
#    0.000    0.833    0.000    0.000    0.000    0.000 
#    0.000    0.000    0.000    0.000    0.000    0.000 
#
# Total GULP energy -297726.353385 kJ/mol
# GULP energy per Si atom -12405.264724 kJ/mol
# Density = 2.012633 g / cm^3
# Si number density = 20.172243 Si / 1000 Ang^3
#
#
#
# Elastic Constant Matrix: (Units=GPa)
#
#
# Indices 1 2 3 4 5 6 
#
# 1 65.3963 7.9519 22.8878 -0.0002 -47.1806 0.0000
# 2 7.9519 57.8110 28.8857 -0.0002 -0.1409 0.0002
# 3 22.8878 28.8857 108.3857 -0.0003 -34.9082 -0.0001
# 4 -0.0002 -0.0002 -0.0003 39.8759 -0.0003 -2.0041
# 5 -47.1806 -0.1409 -34.9082 -0.0003 -55.9319 0.0000
# 6 0.0000 0.0002 -0.0001 -2.0041 0.0000 30.4652
#
#
#
# Elastic Compliance Matrix: (Units=1/GPa)
#
#
# Indices 1 2 3 4 5 6 
#
# 1 0.011918 0.000830 -0.004976 0.000000 -0.006950 0.000000
# 2 0.000830 0.019527 -0.004680 0.000000 0.002171 0.000000
# 3 -0.004976 -0.004680 0.010724 0.000000 -0.002484 0.000000
# 4 0.000000 0.000000 0.000000 0.025161 0.000000 0.001655
# 5 -0.006950 0.002171 -0.002484 0.000000 -0.010472 0.000000
# 6 0.000000 0.000000 0.000000 0.001655 0.000000 0.032933
#
#
# Mechanical properties :
#
#
# Convention : Reuss Voigt Hill
#
# Bulk Modulus (GPa) = 40.78730 39.00487 39.89608
# Shear Modulus (GPa) = 43.24607 14.33966 28.79286
#
# Velocity S-wave (km/s) = 4.63519 2.66909 3.78213
# Velocity P-wave (km/s) = 6.99357 5.37370 6.23645
#
# Compressibility (1/GPa) = 0.02451743
#
# Stress axis : x y z
#
# Youngs Moduli (GPa) = 83.90531 51.21030 93.24473
#
# Poissons Ratio (x) = -0.04251 0.46402
# Poissons Ratio (y) = -0.06966 0.43640
# Poissons Ratio (z) = 0.41754 0.23967
#
# Static dielectric constant tensor:
#      x y z
#    x 1.507850 0.000040 4.079440 
#    y 0.000040 3.764960 -0.000090 
#    z 4.079440 -0.000090 -4.329310 
# 
# 
# High freq. dielectric constant tensor:
#      x y z
#    x 1.769300 0.000000 0.000800 
#    y 0.000000 1.800240 0.000000 
#    z 0.000800 0.000000 1.805690 
# 
# From -- ./inp_files/274004.got.cif
#   From: 2010.06.25/outbox.cif.g09.slc.cpg/sg12_138_cif.got.tgz:274004.got - 2010.06.28 00:19:55.
