data_PCOD8100683
_publ_section_title
;
Structure prediction by ZEFSAII (Michael W. Deem and Ramdas Pophale) SiO2 
 PCOD8100683
Probable space group: C 2/M
;
_chemical_formula_sum "Si O2"
_cell_formula_units_Z 64
_cell_length_a 22.753967
_cell_length_b 9.217219
_cell_length_c 16.472112
_cell_angle_alpha 90.000000
_cell_angle_beta 95.531221
_cell_angle_gamma 90.000000
_cell_volume 3438.582453
_symmetry_space_group_name_H-M "C 2/M"
_symmetry_group_IT_number 12
_symmetry_cell_setting 'monoclinic'
loop_
_space_group_symop_operation_xyz
x,y,z
-x,y,-z
-x,-y,-z
x,-y,z
1/2+x,1/2+y,z
1/2-x,1/2+y,-z
1/2-x,1/2-y,-z
1/2+x,1/2-y,z
loop_
_atom_site_type_symbol
_atom_site_label
_atom_site_fract_x
_atom_site_fract_y
_atom_site_fract_z
Si Si1 0.232498 0.670390 0.122513
Si Si2 0.329687 0.328906 0.739250
Si Si3 0.487575 0.161323 0.366367
Si Si4 0.165964 0.669093 0.949985
Si Si5 0.964894 0.170762 0.772465
Si Si6 0.698416 0.669245 0.447790
Si Si7 0.905620 0.662179 0.496225
Si Si8 0.469640 0.163322 0.082205
O O1 0.240371 0.500000 0.138545
O O2 0.209224 0.743569 0.201118
O O3 0.296005 0.737778 0.108526
O O4 0.186104 0.703393 0.044544
O O5 0.324993 0.500000 0.755629
O O6 0.397494 0.275381 0.753802
O O7 0.304720 0.287789 0.647333
O O8 0.494760 0.276511 0.296250
O O9 0.427260 0.193590 0.407271
O O10 0.540536 0.172394 0.435759
O O11 0.485091 0.000000 0.327845
O O12 0.175423 0.500000 0.931528
O O13 0.098012 0.716602 0.932503
O O14 0.992339 0.230425 0.858114
O O15 0.967424 0.000000 0.774892
O O16 0.707955 0.500000 0.459153
O O17 0.750000 0.750000 0.500000
O O18 0.639070 0.713078 0.485524
O O19 0.877456 0.500000 0.496889
O O20 0.471687 0.000000 0.117682
O O21 0.500000 0.168429 0.000000
#
# Coordination Sequence:
#
# PCOD8100683 Si02
#       8
#     8   8   8   8   8   8   8   8
#     4  10  20  35  61  89 110 145 194 237 274 326
#     4  10  22  39  57  81 114 148 184 230 286 340
#     4   9  18  34  58  85 112 145 185 227 276 335
#     4   9  19  37  58  83 118 152 184 229 282 331
#     4  11  22  36  56  85 117 148 187 234 285 335
#     4  11  23  40  59  82 113 149 189 235 288 341
#     4   9  18  35  59  85 111 143 185 230 278 335
#     4  10  21  38  59  84 116 154 192 228 277 337
#
# _framework density 18.61232
#
# number of rings (size 3 to 8) (size 9 to 14) (size 15 to 20)
#    0.000    2.125    1.250    2.625    0.000    4.750 
#    2.250    1.250    0.000    0.000    0.000    0.000 
#    0.000    0.000    0.000    0.000    0.000    0.000 
#
# Total GULP energy -396824.781025 kJ/mol
# GULP energy per Si atom -12400.774407 kJ/mol
# Density = 1.856996 g / cm^3
# Si number density = 18.612320 Si / 1000 Ang^3
#
#
#
# Elastic Constant Matrix: (Units=GPa)
#
#
# Indices 1 2 3 4 5 6 
#
# 1 108.0087 62.9434 69.1904 0.0000 -6.7967 0.0000
# 2 62.9434 79.4618 59.3520 0.0000 -4.0794 0.0000
# 3 69.1904 59.3520 108.9061 0.0000 -7.7617 0.0000
# 4 0.0000 0.0000 0.0000 34.4819 0.0000 -1.2700
# 5 -6.7967 -4.0794 -7.7617 0.0000 28.5535 0.0000
# 6 0.0000 0.0000 0.0000 -1.2700 0.0000 30.7234
#
#
#
# Elastic Compliance Matrix: (Units=1/GPa)
#
#
# Indices 1 2 3 4 5 6 
#
# 1 0.019842 -0.010632 -0.006713 0.000000 0.001379 0.000000
# 2 -0.010632 0.026921 -0.007978 0.000000 -0.000853 0.000000
# 3 -0.006713 -0.007978 0.017948 0.000000 0.002141 0.000000
# 4 0.000000 0.000000 0.000000 0.029045 0.000000 0.001201
# 5 0.001379 -0.000853 0.002141 0.000000 0.035810 0.000000
# 6 0.000000 0.000000 0.000000 0.001201 0.000000 0.032598
#
#
# Mechanical properties :
#
#
# Convention : Reuss Voigt Hill
#
# Bulk Modulus (GPa) = 71.10009 75.48311 73.29160
# Shear Modulus (GPa) = 22.98862 25.74450 24.36656
#
# Velocity S-wave (km/s) = 3.51825 3.72317 3.62216
# Velocity P-wave (km/s) = 7.40187 7.68935 7.54698
#
# Compressibility (1/GPa) = 0.01406468
#
# Stress axis : x y z
#
# Youngs Moduli (GPa) = 50.39873 37.14510 55.71712
#
# Poissons Ratio (x) = 0.39492 0.37405
# Poissons Ratio (y) = 0.53583 0.44451
# Poissons Ratio (z) = 0.33835 0.29634
#
# Static dielectric constant tensor:
#      x y z
#    x 3.317730 0.000000 -0.134690 
#    y 0.000000 3.233130 0.000000 
#    z -0.134690 0.000000 4.416790 
# 
# 
# High freq. dielectric constant tensor:
#      x y z
#    x 1.722280 0.000000 -0.009360 
#    y 0.000000 1.722430 0.000000 
#    z -0.009360 0.000000 1.723900 
# 
# From -- ./inp_files/238571.got.cif
#   From: 2010.06.25/outbox.cif.g09.slc.cpg/sg12_120_cif.got.tgz:238571.got - 2010.06.28 00:19:55.
