data_PCOD8100477
_publ_section_title
;
Structure prediction by ZEFSAII (Michael W. Deem and Ramdas Pophale) SiO2 
 PCOD8100477
Probable space group: C 2/M
;
_chemical_formula_sum "Si O2"
_cell_formula_units_Z 40
_cell_length_a 21.027329
_cell_length_b 8.942608
_cell_length_c 10.484804
_cell_angle_alpha 90.000000
_cell_angle_beta 99.572226
_cell_angle_gamma 90.000000
_cell_volume 1944.103331
_symmetry_space_group_name_H-M "C 2/M"
_symmetry_group_IT_number 12
_symmetry_cell_setting 'monoclinic'
loop_
_space_group_symop_operation_xyz
x,y,z
-x,y,-z
-x,-y,-z
x,-y,z
1/2+x,1/2+y,z
1/2-x,1/2+y,-z
1/2-x,1/2-y,-z
1/2+x,1/2-y,z
loop_
_atom_site_type_symbol
_atom_site_label
_atom_site_fract_x
_atom_site_fract_y
_atom_site_fract_z
Si Si1 0.952918 0.176362 0.592187
Si Si2 0.776742 0.329213 0.820370
Si Si3 0.975523 0.175911 0.130795
Si Si4 0.188701 0.176436 0.414142
Si Si5 0.658894 0.171332 0.886570
O O1 0.878894 0.227793 0.543265
O O2 0.000000 0.248878 0.500000
O O3 0.973273 0.221180 0.742925
O O4 0.957058 0.000000 0.580912
O O5 0.771856 0.500000 0.772192
O O6 0.815268 0.229707 0.732619
O O7 0.704312 0.266840 0.808726
O O8 0.816323 0.312562 0.962115
O O9 0.911888 0.264023 0.146963
O O10 0.960480 0.000000 0.124469
O O11 0.000000 0.228891 0.000000
O O12 0.250000 0.250000 0.500000
O O13 0.196655 0.000000 0.422215
O O14 0.659767 0.000000 0.841555
#
# Coordination Sequence:
#
# PCOD8100477 Si02
#       5
#     8   8   8   8   8
#     4   9  20  38  59  85 119 161 203 244 295 361
#     4  10  21  38  59  84 119 159 199 244 301 365
#     4  10  20  35  59  87 116 156 205 247 297 364
#     4  11  23  39  62  89 121 158 205 254 299 357
#     4  10  21  36  58  89 120 153 196 252 309 358
#
# _framework density 20.575037999999999
#
# number of rings (size 3 to 8) (size 9 to 14) (size 15 to 20)
#    0.000    2.000    0.000    3.000    2.800    4.400 
#    0.000    2.000    0.000    3.000    0.000    0.000 
#    0.000    0.000    0.000    0.000    0.000    0.000 
#
# Total GULP energy -248002.173024 kJ/mol
# GULP energy per Si atom -12400.108651 kJ/mol
# Density = 2.052821 g / cm^3
# Si number density = 20.575038 Si / 1000 Ang^3
#
#
#
# Elastic Constant Matrix: (Units=GPa)
#
#
# Indices 1 2 3 4 5 6 
#
# 1 172.7092 48.3938 57.5421 0.0000 1.9101 0.0000
# 2 48.3938 71.5973 24.9271 0.0000 5.8777 0.0000
# 3 57.5421 24.9271 87.3243 0.0000 -9.0401 0.0000
# 4 0.0000 0.0000 0.0000 26.1322 0.0000 -1.1455
# 5 1.9101 5.8777 -9.0401 0.0000 33.8451 0.0000
# 6 0.0000 0.0000 0.0000 -1.1455 0.0000 33.0777
#
#
#
# Elastic Compliance Matrix: (Units=1/GPa)
#
#
# Indices 1 2 3 4 5 6 
#
# 1 0.008437 -0.004055 -0.004503 0.000000 -0.000975 0.000000
# 2 -0.004055 0.017998 -0.002844 0.000000 -0.003656 0.000000
# 3 -0.004503 -0.002844 0.015744 0.000000 0.004953 0.000000
# 4 0.000000 0.000000 0.000000 0.038325 0.000000 0.001327
# 5 -0.000975 -0.003656 0.004953 0.000000 0.031559 0.000000
# 6 0.000000 0.000000 0.000000 0.001327 0.000000 0.030278
#
#
# Mechanical properties :
#
#
# Convention : Reuss Voigt Hill
#
# Bulk Modulus (GPa) = 51.61438 65.92856 58.77147
# Shear Modulus (GPa) = 29.13670 31.99551 30.56611
#
# Velocity S-wave (km/s) = 3.76722 3.94771 3.85852
# Velocity P-wave (km/s) = 6.63799 7.27267 6.96257
#
# Compressibility (1/GPa) = 0.01937444
#
# Stress axis : x y z
#
# Youngs Moduli (GPa) = 118.51872 55.56070 63.51805
#
# Poissons Ratio (x) = 0.22531 0.28603
# Poissons Ratio (y) = 0.48062 0.18065
# Poissons Ratio (z) = 0.53371 0.15802
#
# Static dielectric constant tensor:
#      x y z
#    x 3.978800 0.000000 -0.194260 
#    y 0.000000 3.598710 0.000000 
#    z -0.194260 0.000000 3.913830 
# 
# 
# High freq. dielectric constant tensor:
#      x y z
#    x 1.818710 0.000000 -0.002590 
#    y 0.000000 1.785710 0.000000 
#    z -0.002590 0.000000 1.806600 
# 
# From -- ./inp_files/151724.got.cif
#   From: 2010.06.25/outbox.cif.g09.slc.cpg/sg12_76_cif.got.tgz:151724.got - 2010.06.28 00:19:55.
