data_PCOD8100154
_publ_section_title
;
Structure prediction by ZEFSAII (Michael W. Deem and Ramdas Pophale) SiO2 
 PCOD8100154
Probable space group: C 2/M
;
_chemical_formula_sum "Si O2"
_cell_formula_units_Z 56
_cell_length_a 14.411269
_cell_length_b 13.986905
_cell_length_c 17.064375
_cell_angle_alpha 90.000000
_cell_angle_beta 129.143634
_cell_angle_gamma 90.000000
_cell_volume 2667.675097
_symmetry_space_group_name_H-M "C 2/M"
_symmetry_group_IT_number 12
_symmetry_cell_setting 'monoclinic'
loop_
_space_group_symop_operation_xyz
x,y,z
-x,y,-z
-x,-y,-z
x,-y,z
1/2+x,1/2+y,z
1/2-x,1/2+y,-z
1/2-x,1/2-y,-z
1/2+x,1/2-y,z
loop_
_atom_site_type_symbol
_atom_site_label
_atom_site_fract_x
_atom_site_fract_y
_atom_site_fract_z
Si Si1 0.761088 0.387795 0.804745
Si Si2 0.865481 0.396229 0.454163
Si Si3 0.975795 0.702594 0.829875
Si Si4 0.863150 0.803017 0.400503
Si Si5 0.215286 0.391960 0.005419
Si Si6 0.347881 0.109949 0.625584
Si Si7 0.530587 0.392826 0.927055
O O1 0.749282 0.500000 0.784831
O O2 0.655507 0.336705 0.698813
O O3 0.744077 0.359454 0.886034
O O4 0.890974 0.354259 0.844589
O O5 0.799612 0.500000 0.405831
O O6 0.811870 0.306485 0.377698
O O7 0.860282 0.364756 0.541717
O O8 0.000000 0.410954 0.500000
O O9 0.940974 0.676439 0.722545
O O10 0.962270 0.816730 0.835546
O O11 0.112989 0.676868 0.919087
O O12 0.787014 0.870180 0.417717
O O13 0.000000 0.809002 0.500000
O O14 0.165182 0.500000 0.981983
O O15 0.326726 0.384037 0.006527
O O16 0.380505 0.000000 0.659332
O O17 0.487842 0.500000 0.881129
O O18 0.500000 0.368920 0.000000
#
# Coordination Sequence:
#
# PCOD8100154 Si02
#       7
#     8   8   8   8   8   8   8
#     4  10  21  36  57  88 117 141 184 240 285 332
#     4   9  19  37  58  80 109 145 186 233 278 325
#     4  11  20  35  61  86 113 149 186 228 283 337
#     4  10  20  35  58  83 112 150 185 227 286 341
#     4  10  20  36  60  87 115 148 185 230 283 333
#     4  10  21  37  59  88 117 143 183 237 284 334
#     4  10  22  38  53  75 112 155 194 227 263 320
#
# _framework density 20.992062000000001
#
# number of rings (size 3 to 8) (size 9 to 14) (size 15 to 20)
#    0.000    2.000    0.000    4.714    0.000    4.571 
#    0.000    5.714    0.000   19.714    0.000    0.000 
#    0.000    0.000    0.000    0.000    0.000    0.000 
#
# Total GULP energy -347132.328409 kJ/mol
# GULP energy per Si atom -12397.583157 kJ/mol
# Density = 2.094428 g / cm^3
# Si number density = 20.992062 Si / 1000 Ang^3
#
#
#
# Elastic Constant Matrix: (Units=GPa)
#
#
# Indices 1 2 3 4 5 6 
#
# 1 87.0912 7.3589 40.4211 0.0000 -8.5789 0.0000
# 2 7.3589 139.6963 55.7674 0.0000 -3.1140 0.0000
# 3 40.4211 55.7674 94.7506 0.0000 9.8826 0.0000
# 4 0.0000 0.0000 0.0000 36.3761 0.0000 -1.3267
# 5 -8.5789 -3.1140 9.8826 0.0000 20.6316 0.0000
# 6 0.0000 0.0000 0.0000 -1.3267 0.0000 18.3600
#
#
#
# Elastic Compliance Matrix: (Units=1/GPa)
#
#
# Indices 1 2 3 4 5 6 
#
# 1 0.017645 0.003821 -0.011159 0.000000 0.013259 0.000000
# 2 0.003821 0.010555 -0.008604 0.000000 0.007303 0.000000
# 3 -0.011159 -0.008604 0.022102 0.000000 -0.016526 0.000000
# 4 0.000000 0.000000 0.000000 0.027563 0.000000 0.001992
# 5 0.013259 0.007303 -0.016526 0.000000 0.063001 0.000000
# 6 0.000000 0.000000 0.000000 0.001992 0.000000 0.054610
#
#
# Mechanical properties :
#
#
# Convention : Reuss Voigt Hill
#
# Bulk Modulus (GPa) = 54.29686 58.73699 56.51692
# Shear Modulus (GPa) = 21.41344 29.60626 25.50985
#
# Velocity S-wave (km/s) = 3.19732 3.75954 3.48977
# Velocity P-wave (km/s) = 6.28904 6.84740 6.57415
#
# Compressibility (1/GPa) = 0.01841727
#
# Stress axis : x y z
#
# Youngs Moduli (GPa) = 56.67464 94.74558 45.24460
#
# Poissons Ratio (x) = -0.36200 0.50488
# Poissons Ratio (y) = -0.21654 0.38928
# Poissons Ratio (z) = 0.63243 0.81517
#
# Static dielectric constant tensor:
#      x y z
#    x 3.791900 0.000000 -0.162770 
#    y 0.000000 4.346130 0.000000 
#    z -0.162770 0.000000 3.517300 
# 
# 
# High freq. dielectric constant tensor:
#      x y z
#    x 1.824730 0.000000 -0.011620 
#    y 0.000000 1.846160 0.000000 
#    z -0.011620 0.000000 1.794460 
# 
# From -- ./inp_files/270382.got.cif
#   From: 2010.06.25/outbox.cif.g09.slc.cpg/sg12_136_cif.got.tgz:270382.got - 2010.06.28 00:19:55.
