data_PCOD8100573
_publ_section_title
;
Structure prediction by ZEFSAII (Michael W. Deem and Ramdas Pophale) SiO2 
 PCOD8100573
Probable space group: C 2/M
;
_chemical_formula_sum "Si O2"
_cell_formula_units_Z 64
_cell_length_a 16.972204
_cell_length_b 14.767006
_cell_length_c 14.780314
_cell_angle_alpha 90.000000
_cell_angle_beta 126.610708
_cell_angle_gamma 90.000000
_cell_volume 2973.520124
_symmetry_space_group_name_H-M "C 2/M"
_symmetry_group_IT_number 12
_symmetry_cell_setting 'monoclinic'
loop_
_space_group_symop_operation_xyz
x,y,z
-x,y,-z
-x,-y,-z
x,-y,z
1/2+x,1/2+y,z
1/2-x,1/2+y,-z
1/2-x,1/2-y,-z
1/2+x,1/2-y,z
loop_
_atom_site_type_symbol
_atom_site_label
_atom_site_fract_x
_atom_site_fract_y
_atom_site_fract_z
Si Si1 0.772148 0.681851 0.700768
Si Si2 0.881726 0.137146 0.744934
Si Si3 0.530447 0.100666 0.122872
Si Si4 0.234436 0.599673 0.489652
Si Si5 0.665511 0.400502 0.096463
Si Si6 0.844767 0.721063 0.235583
Si Si7 0.425740 0.277490 0.117481
Si Si8 0.479368 0.897595 0.591142
O O1 0.835574 0.770546 0.745119
O O2 0.850482 0.606361 0.786385
O O3 0.732766 0.662665 0.571997
O O4 0.682022 0.701157 0.708193
O O5 0.818926 0.092313 0.622730
O O6 0.887269 0.081528 0.842848
O O7 0.991913 0.154595 0.785859
O O8 0.470625 0.176759 0.136221
O O9 0.500532 0.000000 0.137310
O O10 0.500000 0.113771 0.000000
O O11 0.219178 0.500000 0.438981
O O12 0.132656 0.633288 0.464992
O O13 0.668174 0.500000 0.050165
O O14 0.775111 0.366215 0.191660
O O15 0.614053 0.321933 0.002163
O O16 0.840429 0.770325 0.134548
O O17 0.953748 0.680515 0.320417
O O18 0.500000 0.897871 0.500000
O O19 0.498128 0.000000 0.641719
#
# Coordination Sequence:
#
# PCOD8100573 Si02
#       8
#     8   8   8   8   8   8   8   8
#     4  10  21  37  56  84 122 162 199 244 298 362
#     4  10  21  38  62  88 117 152 199 251 308 371
#     4  10  20  37  63  91 120 159 207 258 310 367
#     4  11  22  38  62  89 119 157 202 250 305 371
#     4  11  23  40  63  89 121 160 201 252 312 370
#     4  11  23  38  58  85 124 163 203 250 303 365
#     4  11  23  40  62  90 122 159 207 257 307 364
#     4  10  20  35  59  92 123 152 196 256 316 369
#
# _framework density 21.523312000000001
#
# number of rings (size 3 to 8) (size 9 to 14) (size 15 to 20)
#    0.000    1.500    0.000    7.500    0.000    5.500 
#    0.000    2.500    0.000    0.750    0.000    0.000 
#    0.000    0.000    0.000    0.000    0.000    0.000 
#
# Total GULP energy -396538.042550 kJ/mol
# GULP energy per Si atom -12391.813830 kJ/mol
# Density = 2.147432 g / cm^3
# Si number density = 21.523312 Si / 1000 Ang^3
#
#
#
# Elastic Constant Matrix: (Units=GPa)
#
#
# Indices 1 2 3 4 5 6 
#
# 1 105.1577 52.8994 38.4053 0.0000 -24.6762 0.0000
# 2 52.8994 84.9362 31.1334 0.0000 -6.9441 0.0000
# 3 38.4053 31.1334 103.7186 0.0000 -17.1079 0.0000
# 4 0.0000 0.0000 0.0000 79.3932 0.0000 6.9272
# 5 -24.6762 -6.9441 -17.1079 0.0000 30.7842 0.0000
# 6 0.0000 0.0000 0.0000 6.9272 0.0000 23.5233
#
#
#
# Elastic Compliance Matrix: (Units=1/GPa)
#
#
# Indices 1 2 3 4 5 6 
#
# 1 0.017388 -0.009258 -0.001877 0.000000 0.010807 0.000000
# 2 -0.009258 0.018179 -0.002836 0.000000 -0.004897 0.000000
# 3 -0.001877 -0.002836 0.011928 0.000000 0.004484 0.000000
# 4 0.000000 0.000000 0.000000 0.012928 0.000000 -0.003807
# 5 0.010807 -0.004897 0.004484 0.000000 0.042534 0.000000
# 6 0.000000 0.000000 0.000000 -0.003807 0.000000 0.043632
#
#
# Mechanical properties :
#
#
# Convention : Reuss Voigt Hill
#
# Bulk Modulus (GPa) = 51.14653 59.85432 55.50042
# Shear Modulus (GPa) = 27.61686 38.16510 32.89098
#
# Velocity S-wave (km/s) = 3.58594 4.21550 3.91340
# Velocity P-wave (km/s) = 6.40002 7.18077 6.80160
#
# Compressibility (1/GPa) = 0.01955167
#
# Stress axis : x y z
#
# Youngs Moduli (GPa) = 57.51032 55.00874 83.83948
#
# Poissons Ratio (x) = 0.50927 0.15737
# Poissons Ratio (y) = 0.53243 0.23780
# Poissons Ratio (z) = 0.10795 0.15603
#
# Static dielectric constant tensor:
#      x y z
#    x 3.999540 0.000000 0.034020 
#    y 0.000000 4.008790 0.000000 
#    z 0.034020 0.000000 3.867490 
# 
# 
# High freq. dielectric constant tensor:
#      x y z
#    x 1.829490 0.000000 -0.004600 
#    y 0.000000 1.843090 0.000000 
#    z -0.004600 0.000000 1.849180 
# 
# From -- ./inp_files/225725.got.cif
#   From: 2010.06.25/outbox.cif.g09.slc.cpg/sg12_113_cif.got.tgz:225725.got - 2010.06.28 00:19:55.
