data_PCOD8100463
_publ_section_title
;
Structure prediction by ZEFSAII (Michael W. Deem and Ramdas Pophale) SiO2 
 PCOD8100463
Probable space group: C 2/M
;
_chemical_formula_sum "Si O2"
_cell_formula_units_Z 56
_cell_length_a 15.253478
_cell_length_b 8.515969
_cell_length_c 24.381497
_cell_angle_alpha 90.000000
_cell_angle_beta 60.937360
_cell_angle_gamma 90.000000
_cell_volume 2768.337597
_symmetry_space_group_name_H-M "C 2/M"
_symmetry_group_IT_number 12
_symmetry_cell_setting 'monoclinic'
loop_
_space_group_symop_operation_xyz
x,y,z
-x,y,-z
-x,-y,-z
x,-y,z
1/2+x,1/2+y,z
1/2-x,1/2+y,-z
1/2-x,1/2-y,-z
1/2+x,1/2-y,z
loop_
_atom_site_type_symbol
_atom_site_label
_atom_site_fract_x
_atom_site_fract_y
_atom_site_fract_z
Si Si1 0.167283 0.684083 0.281352
Si Si2 0.028337 0.184373 0.929692
Si Si3 0.754569 0.681942 0.146428
Si Si4 0.834521 0.315820 0.934584
Si Si5 0.100699 0.312744 0.496962
Si Si6 0.563610 0.816970 0.628915
Si Si7 0.762753 0.184122 0.363710
O O1 0.185432 0.500000 0.264077
O O2 0.199576 0.785990 0.219970
O O3 0.231114 0.747049 0.313694
O O4 0.052549 0.720980 0.329619
O O5 0.129440 0.272462 0.882540
O O6 0.940566 0.234455 0.914943
O O7 0.047065 0.000000 0.918840
O O8 0.000000 0.232797 0.000000
O O9 0.746046 0.500000 0.133295
O O10 0.698243 0.783232 0.117494
O O11 0.845564 0.500000 0.940902
O O12 0.750000 0.250000 0.000000
O O13 0.098921 0.500000 0.497687
O O14 0.104304 0.251079 0.558352
O O15 0.193606 0.244771 0.433536
O O16 0.000000 0.247498 0.500000
O O17 0.622619 0.730045 0.659758
O O18 0.584744 0.000000 0.627978
O O19 0.746503 0.000000 0.367797
#
# Coordination Sequence:
#
# PCOD8100463 Si02
#       7
#     8   8   8   8   8   8   8
#     4  10  22  41  60  81 116 164 208 247 300 368
#     4  11  23  41  68  98 128 162 201 250 306 364
#     4  12  26  43  65  93 127 166 208 257 309 366
#     4  12  24  41  67  98 130 163 202 249 303 365
#     4   9  15  30  57  86 113 150 201 246 298 365
#     4  10  20  35  59  86 116 155 200 251 303 363
#     4  10  20  35  59  86 116 155 199 251 305 363
#
# _framework density 20.228748
#
# number of rings (size 3 to 8) (size 9 to 14) (size 15 to 20)
#    0.000    1.429    2.857    3.429    0.000    2.857 
#    0.000    2.857    0.000    0.857    0.000    0.000 
#    0.000    0.000    0.000    0.000    0.000    0.000 
#
# Total GULP energy -347298.656920 kJ/mol
# GULP energy per Si atom -12403.523461 kJ/mol
# Density = 2.018271 g / cm^3
# Si number density = 20.228748 Si / 1000 Ang^3
#
#
#
# Elastic Constant Matrix: (Units=GPa)
#
#
# Indices 1 2 3 4 5 6 
#
# 1 126.9846 5.4555 25.5155 0.0000 25.3459 0.0000
# 2 5.4555 44.7537 19.7871 0.0000 0.4999 0.0000
# 3 25.5155 19.7871 100.8638 0.0000 24.6166 0.0000
# 4 0.0000 0.0000 0.0000 24.3786 0.0000 0.4848
# 5 25.3459 0.4999 24.6166 0.0000 19.4760 0.0000
# 6 0.0000 0.0000 0.0000 0.4848 0.0000 32.1861
#
#
#
# Elastic Compliance Matrix: (Units=1/GPa)
#
#
# Indices 1 2 3 4 5 6 
#
# 1 0.010836 -0.001810 0.001510 0.000000 -0.015963 0.000000
# 2 -0.001810 0.025632 -0.007208 0.000000 0.010809 0.000000
# 3 0.001510 -0.007208 0.016458 0.000000 -0.022582 0.000000
# 4 0.000000 0.000000 0.000000 0.041032 0.000000 -0.000618
# 5 -0.015963 0.010809 -0.022582 0.000000 0.100384 0.000000
# 6 0.000000 0.000000 0.000000 -0.000618 0.000000 0.031079
#
#
# Mechanical properties :
#
#
# Convention : Reuss Voigt Hill
#
# Bulk Modulus (GPa) = 26.37977 41.56869 33.97423
# Shear Modulus (GPa) = 19.75717 29.99775 24.87746
#
# Velocity S-wave (km/s) = 3.12859 3.85506 3.51067
# Velocity P-wave (km/s) = 5.11076 6.35682 5.76754
#
# Compressibility (1/GPa) = 0.03790784
#
# Stress axis : x y z
#
# Youngs Moduli (GPa) = 92.28845 39.01445 60.76172
#
# Poissons Ratio (x) = 0.07062 -0.09175
# Poissons Ratio (y) = 0.16706 0.43799
# Poissons Ratio (z) = -0.13936 0.28123
#
# Static dielectric constant tensor:
#      x y z
#    x 3.951680 0.000000 0.130870 
#    y 0.000000 3.482380 0.000000 
#    z 0.130870 0.000000 3.752500 
# 
# 
# High freq. dielectric constant tensor:
#      x y z
#    x 1.806920 0.000000 0.003100 
#    y 0.000000 1.770930 0.000000 
#    z 0.003100 0.000000 1.790020 
# 
# From -- ./inp_files/338538.got.cif
#   From: 2010.06.25/outbox.cif.g09.slc.cpg/sg12_170_cif.got.tgz:338538.got - 2010.06.28 00:19:55.
