data_PCOD8100780
_publ_section_title
;
Structure prediction by ZEFSAII (Michael W. Deem and Ramdas Pophale) SiO2 
 PCOD8100780
Probable space group: C 2/M
;
_chemical_formula_sum "Si O2"
_cell_formula_units_Z 48
_cell_length_a 10.683499
_cell_length_b 20.037096
_cell_length_c 13.647906
_cell_angle_alpha 90.000000
_cell_angle_beta 113.041413
_cell_angle_gamma 90.000000
_cell_volume 2688.481295
_symmetry_space_group_name_H-M "C 2/M"
_symmetry_group_IT_number 12
_symmetry_cell_setting 'monoclinic'
loop_
_space_group_symop_operation_xyz
x,y,z
-x,y,-z
-x,-y,-z
x,-y,z
1/2+x,1/2+y,z
1/2-x,1/2+y,-z
1/2-x,1/2-y,-z
1/2+x,1/2-y,z
loop_
_atom_site_type_symbol
_atom_site_label
_atom_site_fract_x
_atom_site_fract_y
_atom_site_fract_z
Si Si1 0.426119 0.000000 0.081009
Si Si2 0.359389 0.577650 0.218778
Si Si3 0.937914 0.872573 0.877084
Si Si4 0.437426 0.303965 0.374852
Si Si5 0.136141 0.250000 0.272282
Si Si6 0.939171 0.372573 0.877084
Si Si7 0.654889 0.500000 0.081009
O O1 0.472982 0.931606 0.148215
O O2 0.262029 0.000000 0.024059
O O3 0.500000 0.000000 0.000000
O O4 0.376038 0.500000 0.252075
O O5 0.439182 0.596479 0.146021
O O6 0.412956 0.621899 0.325914
O O7 0.206839 0.596478 0.146021
O O8 0.864518 0.811585 0.802411
O O9 0.824768 0.931606 0.851784
O O10 0.000000 0.848991 0.000000
O O11 0.500000 0.312267 0.500000
O O12 0.294423 0.264679 0.341860
O O13 0.547437 0.264680 0.341860
O O14 0.062107 0.311585 0.197589
O O15 0.000000 0.348991 0.000000
O O16 0.500000 0.500000 0.000000
#
# Coordination Sequence:
#
# PCOD8100780 Si02
#       7
#     4   8   8   8   8   8   4
#     4  10  22  32  52  76 109 156 188 210 251 310
#     4  10  20  36  53  83 108 144 182 227 263 326
#     4  10  21  32  55  79 119 148 181 209 264 319
#     4  10  22  40  61  78 101 139 184 237 288 320
#     4  10  22  38  56  84 108 140 182 230 270 328
#     4  10  21  32  55  79 119 148 181 209 264 319
#     4  10  22  32  52  76 109 156 188 210 251 310
#
# _framework density 17.853946000000001
#
# number of rings (size 3 to 8) (size 9 to 14) (size 15 to 20)
#    0.000    2.000    1.667    1.000   11.667    0.333 
#    0.000    5.000    0.000    0.000    0.000    1.167 
#    0.000    0.000    0.000    0.000    0.000    0.000 
#
# Total GULP energy -297441.094789 kJ/mol
# GULP energy per Si atom -12393.378950 kJ/mol
# Density = 1.781331 g / cm^3
# Si number density = 17.853946 Si / 1000 Ang^3
#
#
#
# Elastic Constant Matrix: (Units=GPa)
#
#
# Indices 1 2 3 4 5 6 
#
# 1 144.8331 58.5718 58.1952 0.0000 1.0515 0.0000
# 2 58.5718 128.2626 54.6967 0.0000 0.0994 0.0000
# 3 58.1952 54.6967 123.5560 0.0000 -0.5067 0.0000
# 4 0.0000 0.0000 0.0000 12.0221 0.0000 0.3493
# 5 1.0515 0.0994 -0.5067 0.0000 22.8004 0.0000
# 6 0.0000 0.0000 0.0000 0.3493 0.0000 25.6861
#
#
#
# Elastic Compliance Matrix: (Units=1/GPa)
#
#
# Indices 1 2 3 4 5 6 
#
# 1 0.009344 -0.002945 -0.003100 0.000000 -0.000487 0.000000
# 2 -0.002945 0.010539 -0.003278 0.000000 0.000017 0.000000
# 3 -0.003100 -0.003278 0.011006 0.000000 0.000402 0.000000
# 4 0.000000 0.000000 0.000000 0.083213 0.000000 -0.001131
# 5 -0.000487 0.000017 0.000402 0.000000 0.043890 0.000000
# 6 0.000000 0.000000 0.000000 -0.001131 0.000000 0.038947
#
#
# Mechanical properties :
#
#
# Convention : Reuss Voigt Hill
#
# Bulk Modulus (GPa) = 81.67158 82.17544 81.92351
# Shear Modulus (GPa) = 22.76163 27.11426 24.93795
#
# Velocity S-wave (km/s) = 3.57442 3.90124 3.74140
# Velocity P-wave (km/s) = 7.92962 8.14980 8.04047
#
# Compressibility (1/GPa) = 0.01224416
#
# Stress axis : x y z
#
# Youngs Moduli (GPa) = 107.01545 94.88159 90.85645
#
# Poissons Ratio (x) = 0.27943 0.28161
# Poissons Ratio (y) = 0.31517 0.29787
# Poissons Ratio (z) = 0.33170 0.31107
#
# Static dielectric constant tensor:
#      x y z
#    x 3.430350 0.000000 0.010140 
#    y 0.000000 4.098240 0.000000 
#    z 0.010140 0.000000 3.033850 
# 
# 
# High freq. dielectric constant tensor:
#      x y z
#    x 1.705300 0.000000 0.001170 
#    y 0.000000 1.711040 0.000000 
#    z 0.001170 0.000000 1.659540 
# 
# From -- ./inp_files/197226.got.cif
#   From: 2010.06.25/outbox.cif.g09.slc.cpg/sg12_99_cif.got.tgz:197226.got - 2010.06.28 00:19:55.
