data_PCOD8100841
_publ_section_title
;
Structure prediction by ZEFSAII (Michael W. Deem and Ramdas Pophale) SiO2 
 PCOD8100841
Probable space group: C 2/M
;
_chemical_formula_sum "Si O2"
_cell_formula_units_Z 60
_cell_length_a 11.668601
_cell_length_b 14.018536
_cell_length_c 20.650385
_cell_angle_alpha 90.000000
_cell_angle_beta 81.271373
_cell_angle_gamma 90.000000
_cell_volume 3338.799442
_symmetry_space_group_name_H-M "C 2/M"
_symmetry_group_IT_number 12
_symmetry_cell_setting 'monoclinic'
loop_
_space_group_symop_operation_xyz
x,y,z
-x,y,-z
-x,-y,-z
x,-y,z
1/2+x,1/2+y,z
1/2-x,1/2+y,-z
1/2-x,1/2-y,-z
1/2+x,1/2-y,z
loop_
_atom_site_type_symbol
_atom_site_label
_atom_site_fract_x
_atom_site_fract_y
_atom_site_fract_z
Si Si1 0.650362 0.893354 0.397508
Si Si2 0.086696 0.221566 0.051307
Si Si3 0.500000 0.649320 0.500000
Si Si4 0.122881 0.891937 0.701782
Si Si5 0.756006 0.609475 0.952169
Si Si6 0.578181 0.392909 0.853130
Si Si7 0.760515 0.606340 0.470801
Si Si8 0.061594 0.727940 0.614682
O O1 0.747579 0.888570 0.334796
O O2 0.698561 0.849952 0.462176
O O3 0.540695 0.848098 0.371026
O O4 0.614362 0.000000 0.417611
O O5 0.130248 0.326375 0.067169
O O6 0.025787 0.178052 0.119834
O O7 0.188074 0.149164 0.020788
O O8 0.000000 0.233750 0.000000
O O9 0.620573 0.592722 0.477523
O O10 0.475282 0.713036 0.442432
O O11 0.123341 0.870909 0.777751
O O12 0.057632 0.802323 0.674687
O O13 0.071500 0.000000 0.691384
O O14 0.791037 0.500000 0.961994
O O15 0.683732 0.620863 0.893003
O O16 0.529212 0.500000 0.863027
O O17 0.811445 0.500000 0.457591
O O18 0.814868 0.674262 0.409588
#
# Coordination Sequence:
#
# PCOD8100841 Si02
#       8
#     8   8   4   8   8   8   8   8
#     4  10  20  36  55  76 102 132 170 215 264 323
#     4   9  17  30  51  81 111 138 173 215 258 298
#     4  12  21  32  53  76 104 130 161 212 267 322
#     4  10  22  37  52  74 103 136 176 219 263 315
#     4   9  17  30  52  80 109 140 177 215 254 300
#     4   9  18  34  53  72 101 140 180 215 252 303
#     4  11  22  36  54  78 103 131 166 213 270 326
#     4  12  21  35  56  77 102 131 171 216 271 322
#
# _framework density 17.970531000000001
#
# number of rings (size 3 to 8) (size 9 to 14) (size 15 to 20)
#    0.000    1.867    2.667    2.200    0.000    4.533 
#    0.000    0.000    0.000    0.800    0.000    0.000 
#    0.000    0.000    0.000    0.000    0.000    0.000 
#
# Total GULP energy -371673.926510 kJ/mol
# GULP energy per Si atom -12389.130884 kJ/mol
# Density = 1.792963 g / cm^3
# Si number density = 17.970531 Si / 1000 Ang^3
#
#
#
# Elastic Constant Matrix: (Units=GPa)
#
#
# Indices 1 2 3 4 5 6 
#
# 1 77.5593 38.4903 17.9041 0.0000 -11.2733 0.0000
# 2 38.4903 104.1883 37.5823 0.0000 -4.7843 0.0000
# 3 17.9041 37.5823 95.3790 0.0000 -7.6324 0.0000
# 4 0.0000 0.0000 0.0000 28.6200 0.0000 -0.6216
# 5 -11.2733 -4.7843 -7.6324 0.0000 14.3452 0.0000
# 6 0.0000 0.0000 0.0000 -0.6216 0.0000 45.6654
#
#
#
# Elastic Compliance Matrix: (Units=1/GPa)
#
#
# Indices 1 2 3 4 5 6 
#
# 1 0.017561 -0.005942 -0.000010 0.000000 0.011814 0.000000
# 2 -0.005942 0.013227 -0.004300 0.000000 -0.002546 0.000000
# 3 -0.000010 -0.004300 0.012602 0.000000 0.005263 0.000000
# 4 0.000000 0.000000 0.000000 0.034951 0.000000 0.000476
# 5 0.011814 -0.002546 0.005263 0.000000 0.080944 0.000000
# 6 0.000000 0.000000 0.000000 0.000476 0.000000 0.021905
#
#
# Mechanical properties :
#
#
# Convention : Reuss Voigt Hill
#
# Bulk Modulus (GPa) = 43.69339 51.67556 47.68448
# Shear Modulus (GPa) = 23.88641 29.93611 26.91126
#
# Velocity S-wave (km/s) = 3.64977 4.08590 3.87398
# Velocity P-wave (km/s) = 6.49059 7.14686 6.82662
#
# Compressibility (1/GPa) = 0.02288676
#
# Stress axis : x y z
#
# Youngs Moduli (GPa) = 56.94285 75.60108 79.35264
#
# Poissons Ratio (x) = 0.44919 0.00080
# Poissons Ratio (y) = 0.33833 0.34124
# Poissons Ratio (z) = 0.00057 0.32511
#
# Static dielectric constant tensor:
#      x y z
#    x 3.512520 0.000000 -0.154020 
#    y 0.000000 3.600960 0.000000 
#    z -0.154020 0.000000 3.183690 
# 
# 
# High freq. dielectric constant tensor:
#      x y z
#    x 1.685150 0.000000 -0.009880 
#    y 0.000000 1.710800 0.000000 
#    z -0.009880 0.000000 1.673870 
# 
# From -- ./inp_files/263303.got.cif
#   From: 2010.06.25/outbox.cif.g09.slc.cpg/sg12_132_cif.got.tgz:263303.got - 2010.06.28 00:19:55.
