data_PCOD8100049
_publ_section_title
;
Structure prediction by ZEFSAII (Michael W. Deem and Ramdas Pophale) SiO2 
 PCOD8100049
Probable space group: C 2/M
;
_chemical_formula_sum "Si O2"
_cell_formula_units_Z 32
_cell_length_a 8.292103
_cell_length_b 12.698394
_cell_length_c 14.696726
_cell_angle_alpha 90.000000
_cell_angle_beta 103.869578
_cell_angle_gamma 90.000000
_cell_volume 1502.392782
_symmetry_space_group_name_H-M "C 2/M"
_symmetry_group_IT_number 12
_symmetry_cell_setting 'monoclinic'
loop_
_space_group_symop_operation_xyz
x,y,z
-x,y,-z
-x,-y,-z
x,-y,z
1/2+x,1/2+y,z
1/2-x,1/2+y,-z
1/2-x,1/2-y,-z
1/2+x,1/2-y,z
loop_
_atom_site_type_symbol
_atom_site_label
_atom_site_fract_x
_atom_site_fract_y
_atom_site_fract_z
Si Si1 0.407589 0.205086 0.070126
Si Si2 0.176623 0.324671 0.623603
Si Si3 0.664157 0.618797 0.172083
Si Si4 0.300443 0.882821 0.575670
O O1 0.523014 0.299937 0.122277
O O2 0.341645 0.133648 0.143843
O O3 0.500000 0.141806 0.000000
O O4 0.250000 0.250000 0.000000
O O5 0.301810 0.365564 0.716847
O O6 0.184244 0.197485 0.615678
O O7 0.234736 0.375711 0.536669
O O8 0.991021 0.356912 0.623399
O O9 0.600227 0.500000 0.145803
O O10 0.257669 0.000000 0.603963
#
# Coordination Sequence:
#
# PCOD8100049 Si02
#       4
#     8   8   8   8
#     4   9  21  39  57  83 112 139 184 233 280 348
#     4  10  20  35  57  86 114 151 198 232 271 336
#     4  11  21  37  61  84 113 149 187 235 284 331
#     4  10  20  37  56  79 121 159 187 232 281 323
#
# _framework density 21.299357000000001
#
# number of rings (size 3 to 8) (size 9 to 14) (size 15 to 20)
#    0.000    2.000    0.000    4.500    0.000    5.000 
#    0.000   20.000    0.000    0.000    0.000    0.000 
#    0.000    0.000    0.000    0.000    0.000    0.000 
#
# Total GULP energy -198294.111737 kJ/mol
# GULP energy per Si atom -12393.381984 kJ/mol
# Density = 2.125088 g / cm^3
# Si number density = 21.299357 Si / 1000 Ang^3
#
#
#
# Elastic Constant Matrix: (Units=GPa)
#
#
# Indices 1 2 3 4 5 6 
#
# 1 52.7605 19.5389 30.2630 0.0000 6.6277 0.0000
# 2 19.5389 148.5461 18.6578 0.0000 3.9182 0.0000
# 3 30.2630 18.6578 105.9376 0.0000 17.9202 0.0000
# 4 0.0000 0.0000 0.0000 9.6526 0.0000 1.5978
# 5 6.6277 3.9182 17.9202 0.0000 25.1756 0.0000
# 6 0.0000 0.0000 0.0000 1.5978 0.0000 30.6217
#
#
#
# Elastic Compliance Matrix: (Units=1/GPa)
#
#
# Indices 1 2 3 4 5 6 
#
# 1 0.023456 -0.002286 -0.006041 0.000000 -0.001519 0.000000
# 2 -0.002286 0.007108 -0.000584 0.000000 -0.000089 0.000000
# 3 -0.006041 -0.000584 0.012487 0.000000 -0.007207 0.000000
# 4 0.000000 0.000000 0.000000 0.104502 0.000000 -0.005453
# 5 -0.001519 -0.000089 -0.007207 0.000000 0.045265 0.000000
# 6 0.000000 0.000000 0.000000 -0.005453 0.000000 0.032941
#
#
# Mechanical properties :
#
#
# Convention : Reuss Voigt Hill
#
# Bulk Modulus (GPa) = 39.63632 49.35150 44.49391
# Shear Modulus (GPa) = 19.84192 29.00894 24.42543
#
# Velocity S-wave (km/s) = 3.05548 3.69448 3.39007
# Velocity P-wave (km/s) = 5.57651 6.43581 6.02151
#
# Compressibility (1/GPa) = 0.02522938
#
# Stress axis : x y z
#
# Youngs Moduli (GPa) = 42.63263 140.68014 80.08191
#
# Poissons Ratio (x) = 0.32166 0.48378
# Poissons Ratio (y) = 0.09748 0.04675
# Poissons Ratio (z) = 0.25754 0.08212
#
# Static dielectric constant tensor:
#      x y z
#    x 2.794380 0.000000 1.722240 
#    y 0.000000 3.522700 0.000000 
#    z 1.722240 0.000000 1.423960 
# 
# 
# High freq. dielectric constant tensor:
#      x y z
#    x 1.827020 0.000000 0.004690 
#    y 0.000000 1.821640 0.000000 
#    z 0.004690 0.000000 1.845840 
# 
# From -- ./inp_files/193332.got.cif
#   From: 2010.06.25/outbox.cif.g09.slc.cpg/sg12_97_cif.got.tgz:193332.got - 2010.06.28 00:19:55.
