data_PCOD8100249
_publ_section_title
;
Structure prediction by ZEFSAII (Michael W. Deem and Ramdas Pophale) SiO2 
 PCOD8100249
Probable space group: C 2/M
;
_chemical_formula_sum "Si O2"
_cell_formula_units_Z 64
_cell_length_a 28.485831
_cell_length_b 8.485117
_cell_length_c 23.974149
_cell_angle_alpha 90.000000
_cell_angle_beta 147.047261
_cell_angle_gamma 90.000000
_cell_volume 3152.002589
_symmetry_space_group_name_H-M "C 2/M"
_symmetry_group_IT_number 12
_symmetry_cell_setting 'monoclinic'
loop_
_space_group_symop_operation_xyz
x,y,z
-x,y,-z
-x,-y,-z
x,-y,z
1/2+x,1/2+y,z
1/2-x,1/2+y,-z
1/2-x,1/2-y,-z
1/2+x,1/2-y,z
loop_
_atom_site_type_symbol
_atom_site_label
_atom_site_fract_x
_atom_site_fract_y
_atom_site_fract_z
Si Si1 0.501351 0.687992 0.063892
Si Si2 0.491426 0.815719 0.427988
Si Si3 0.895103 0.318160 0.149228
Si Si4 0.343242 0.316019 0.981692
Si Si5 0.581183 0.316870 0.331156
Si Si6 0.657430 0.685060 0.291377
Si Si7 0.334697 0.317993 0.202885
Si Si8 0.651590 0.815339 0.511722
O O1 0.502912 0.500000 0.064035
O O2 0.586550 0.759313 0.178966
O O3 0.500000 0.756714 0.000000
O O4 0.416743 0.746182 0.012835
O O5 0.500000 0.758883 0.500000
O O6 0.414347 0.724471 0.321734
O O7 0.581407 0.772968 0.488221
O O8 0.470842 0.000000 0.403433
O O9 0.878207 0.500000 0.146547
O O10 0.856282 0.215445 0.160213
O O11 0.996470 0.288972 0.245994
O O12 0.848565 0.274435 0.045495
O O13 0.355581 0.500000 0.005366
O O14 0.249586 0.280183 0.861960
O O15 0.554555 0.500000 0.300804
O O16 0.638867 0.263430 0.336319
O O17 0.635226 0.285713 0.440387
O O18 0.647838 0.500000 0.276523
O O19 0.754408 0.736346 0.371330
O O20 0.313216 0.500000 0.188680
O O21 0.649806 0.000000 0.494515
#
# Coordination Sequence:
#
# PCOD8100249 Si02
#       8
#     8   8   8   8   8   8   8   8
#     4   9  18  34  59  89 119 153 198 245 290 341
#     4  10  22  40  61  88 120 158 204 251 294 343
#     4  12  23  38  61  89 121 156 197 244 303 364
#     4  11  22  39  63  92 124 157 198 246 298 356
#     4  11  20  34  57  85 119 153 190 240 296 356
#     4   9  18  33  54  85 119 152 190 238 292 346
#     4  12  25  41  62  89 122 159 199 246 303 360
#     4  10  20  35  58  85 118 155 194 240 291 352
#
# _framework density 20.304552000000001
#
# number of rings (size 3 to 8) (size 9 to 14) (size 15 to 20)
#    0.000    1.500    2.500    3.750    0.000    1.250 
#    0.000    4.375    0.000    1.500    0.000    0.000 
#    0.000    0.000    0.000    0.000    0.000    0.000 
#
# Total GULP energy -396895.030861 kJ/mol
# GULP energy per Si atom -12402.969714 kJ/mol
# Density = 2.025834 g / cm^3
# Si number density = 20.304552 Si / 1000 Ang^3
#
#
#
# Elastic Constant Matrix: (Units=GPa)
#
#
# Indices 1 2 3 4 5 6 
#
# 1 122.0322 14.1499 94.5038 0.0000 -9.8810 0.0000
# 2 14.1499 43.6806 23.1647 0.0000 -2.8828 0.0000
# 3 94.5038 23.1647 130.6508 0.0000 15.8383 0.0000
# 4 0.0000 0.0000 0.0000 27.3871 0.0000 0.4982
# 5 -9.8810 -2.8828 15.8383 0.0000 41.0013 0.0000
# 6 0.0000 0.0000 0.0000 0.4982 0.0000 17.4614
#
#
#
# Elastic Compliance Matrix: (Units=1/GPa)
#
#
# Indices 1 2 3 4 5 6 
#
# 1 0.024282 0.003580 -0.019869 0.000000 0.013779 0.000000
# 2 0.003580 0.026338 -0.007961 0.000000 0.005790 0.000000
# 3 -0.019869 -0.007961 0.025269 0.000000 -0.015109 0.000000
# 4 0.000000 0.000000 0.000000 0.036532 0.000000 -0.001042
# 5 0.013779 0.005790 -0.015109 0.000000 0.033954 0.000000
# 6 0.000000 0.000000 0.000000 -0.001042 0.000000 0.057299
#
#
# Mechanical properties :
#
#
# Convention : Reuss Voigt Hill
#
# Bulk Modulus (GPa) = 36.51141 62.22226 49.36684
# Shear Modulus (GPa) = 19.13478 28.13964 23.63721
#
# Velocity S-wave (km/s) = 3.07317 3.72678 3.41564
# Velocity P-wave (km/s) = 5.53294 7.01637 6.31834
#
# Compressibility (1/GPa) = 0.02738870
#
# Stress axis : x y z
#
# Youngs Moduli (GPa) = 41.18262 37.96810 39.57388
#
# Poissons Ratio (x) = -0.13594 0.78630
# Poissons Ratio (y) = -0.14745 0.31507
# Poissons Ratio (z) = 0.81826 0.30228
#
# Static dielectric constant tensor:
#      x y z
#    x 3.822750 0.000000 0.067730 
#    y 0.000000 3.383990 0.000000 
#    z 0.067730 0.000000 3.933200 
# 
# 
# High freq. dielectric constant tensor:
#      x y z
#    x 1.795210 0.000000 0.010420 
#    y 0.000000 1.766350 0.000000 
#    z 0.010420 0.000000 1.805420 
# 
# From -- ./inp_files/353568.got.cif
#   From: 2010.06.25/outbox.cif.g09.slc.cpg/sg12_177_cif.got.tgz:353568.got - 2010.06.28 00:19:55.
