data_PCOD8100985
_publ_section_title
;
Structure prediction by ZEFSAII (Michael W. Deem and Ramdas Pophale) SiO2 
 PCOD8100985
Probable space group: C 2/M
;
_chemical_formula_sum "Si O2"
_cell_formula_units_Z 44
_cell_length_a 8.203940
_cell_length_b 18.576758
_cell_length_c 15.818961
_cell_angle_alpha 90.000000
_cell_angle_beta 121.977394
_cell_angle_gamma 90.000000
_cell_volume 2045.021426
_symmetry_space_group_name_H-M "C 2/M"
_symmetry_group_IT_number 12
_symmetry_cell_setting 'monoclinic'
loop_
_space_group_symop_operation_xyz
x,y,z
-x,y,-z
-x,-y,-z
x,-y,z
1/2+x,1/2+y,z
1/2-x,1/2+y,-z
1/2-x,1/2-y,-z
1/2+x,1/2-y,z
loop_
_atom_site_type_symbol
_atom_site_label
_atom_site_fract_x
_atom_site_fract_y
_atom_site_fract_z
Si Si1 0.808183 0.917058 0.402009
Si Si2 0.143097 0.581088 0.900189
Si Si3 0.447272 0.840474 0.282068
Si Si4 0.212771 0.917921 0.802537
Si Si5 0.051815 0.204320 0.199972
Si Si6 0.000000 0.175559 0.000000
O O1 0.631299 0.867005 0.386843
O O2 0.828558 0.905781 0.307719
O O3 0.000000 0.888719 0.500000
O O4 0.769131 0.000000 0.415424
O O5 0.205031 0.500000 0.935877
O O6 0.316130 0.630005 0.981418
O O7 0.119379 0.591605 0.792793
O O8 0.936141 0.597414 0.886475
O O9 0.267962 0.816597 0.290594
O O10 0.496076 0.776041 0.231616
O O11 0.086220 0.862561 0.820160
O O12 0.159213 0.000000 0.812845
O O13 0.055166 0.221227 0.099092
#
# Coordination Sequence:
#
# PCOD8100985 Si02
#       6
#     8   8   8   8   8   4
#     4   9  18  37  65  91 113 142 181 222 271 335
#     4   9  18  34  55  79 108 143 185 231 279 327
#     4  10  20  36  56  79 113 148 181 228 282 331
#     4   9  19  36  57  82 116 151 181 227 285 333
#     4  11  23  38  56  80 112 152 192 232 280 329
#     4  10  23  36  56  80 107 148 196 242 271 322
#
# _framework density 21.515667000000001
#
# number of rings (size 3 to 8) (size 9 to 14) (size 15 to 20)
#    0.000    2.364    0.000    4.091    0.000    8.000 
#    0.000    6.364    0.000    3.273    0.000    0.636 
#    0.000    0.000    0.000    0.000    0.000    0.000 
#
# Total GULP energy -272646.572070 kJ/mol
# GULP energy per Si atom -12393.026003 kJ/mol
# Density = 2.146670 g / cm^3
# Si number density = 21.515667 Si / 1000 Ang^3
#
#
#
# Elastic Constant Matrix: (Units=GPa)
#
#
# Indices 1 2 3 4 5 6 
#
# 1 104.3348 41.3704 33.2875 0.0000 30.6415 0.0000
# 2 41.3704 75.1504 23.2960 0.0000 13.9922 0.0000
# 3 33.2875 23.2960 94.4030 0.0000 32.5990 0.0000
# 4 0.0000 0.0000 0.0000 20.6725 0.0000 3.9925
# 5 30.6415 13.9922 32.5990 0.0000 34.7290 0.0000
# 6 0.0000 0.0000 0.0000 3.9925 0.0000 29.5451
#
#
#
# Elastic Compliance Matrix: (Units=1/GPa)
#
#
# Indices 1 2 3 4 5 6 
#
# 1 0.015342 -0.006396 -0.000069 0.000000 -0.010894 0.000000
# 2 -0.006396 0.017395 -0.002317 0.000000 0.000810 0.000000
# 3 -0.000069 -0.002317 0.016047 0.000000 -0.014068 0.000000
# 4 0.000000 0.000000 0.000000 0.049670 0.000000 -0.006712
# 5 -0.010894 0.000810 -0.014068 0.000000 0.051286 0.000000
# 6 0.000000 0.000000 0.000000 -0.006712 0.000000 0.034754
#
#
# Mechanical properties :
#
#
# Convention : Reuss Voigt Hill
#
# Bulk Modulus (GPa) = 32.03086 52.19954 42.11520
# Shear Modulus (GPa) = 23.53330 28.71829 26.12580
#
# Velocity S-wave (km/s) = 3.31082 3.65740 3.48842
# Velocity P-wave (km/s) = 5.43460 6.49225 5.98683
#
# Compressibility (1/GPa) = 0.03121989
#
# Stress axis : x y z
#
# Youngs Moduli (GPa) = 65.17919 57.48736 62.31655
#
# Poissons Ratio (x) = 0.36769 0.00433
# Poissons Ratio (y) = 0.41689 0.14438
# Poissons Ratio (z) = 0.00453 0.13319
#
# Static dielectric constant tensor:
#      x y z
#    x 3.983890 0.000000 0.475080 
#    y 0.000000 3.915690 0.000000 
#    z 0.475080 0.000000 3.816490 
# 
# 
# High freq. dielectric constant tensor:
#      x y z
#    x 1.838430 0.000000 0.033500 
#    y 0.000000 1.845410 0.000000 
#    z 0.033500 0.000000 1.821900 
# 
# From -- ./inp_files/195363.got.cif
#   From: 2010.06.25/outbox.cif.g09.slc.cpg/sg12_98_cif.got.tgz:195363.got - 2010.06.28 00:19:55.
