data_PCOD8100537
_publ_section_title
;
Structure prediction by ZEFSAII (Michael W. Deem and Ramdas Pophale) SiO2 
 PCOD8100537
Probable space group: C 2/M
;
_chemical_formula_sum "Si O2"
_cell_formula_units_Z 64
_cell_length_a 15.381094
_cell_length_b 8.884652
_cell_length_c 25.037868
_cell_angle_alpha 90.000000
_cell_angle_beta 108.334909
_cell_angle_gamma 90.000000
_cell_volume 3247.867294
_symmetry_space_group_name_H-M "C 2/M"
_symmetry_group_IT_number 12
_symmetry_cell_setting 'monoclinic'
loop_
_space_group_symop_operation_xyz
x,y,z
-x,y,-z
-x,-y,-z
x,-y,z
1/2+x,1/2+y,z
1/2-x,1/2+y,-z
1/2-x,1/2-y,-z
1/2+x,1/2-y,z
loop_
_atom_site_type_symbol
_atom_site_label
_atom_site_fract_x
_atom_site_fract_y
_atom_site_fract_z
Si Si1 0.776559 0.174527 0.252774
Si Si2 0.728026 0.176835 0.939778
Si Si3 0.726981 0.177877 0.636329
Si Si4 0.979539 0.824718 0.253873
Si Si5 0.658531 0.172678 0.128619
Si Si6 0.530996 0.173973 0.859155
Si Si7 0.901954 0.321856 0.634029
Si Si8 0.971367 0.320948 0.436833
O O1 0.752699 0.274008 0.299259
O O2 0.705401 0.220712 0.193202
O O3 0.877281 0.214719 0.251980
O O4 0.766964 0.000000 0.266582
O O5 0.803905 0.225343 0.911593
O O6 0.626741 0.228944 0.902489
O O7 0.732247 0.000000 0.947576
O O8 0.750000 0.250000 0.000000
O O9 0.801278 0.250657 0.611255
O O10 0.628646 0.239793 0.598333
O O11 0.732907 0.000000 0.633158
O O12 0.049188 0.729511 0.302535
O O13 0.992869 0.777291 0.195565
O O14 0.002136 0.000000 0.264770
O O15 0.549184 0.195686 0.112497
O O16 0.683350 0.000000 0.120279
O O17 0.536455 0.000000 0.841851
O O18 0.894370 0.500000 0.632573
O O19 0.957249 0.261573 0.593385
O O20 0.970885 0.500000 0.437720
O O21 0.000000 0.255571 0.500000
#
# Coordination Sequence:
#
# PCOD8100537 Si02
#       8
#     8   8   8   8   8   8   8   8
#     4  10  20  35  59  89 122 155 187 234 297 356
#     4  11  24  41  61  86 116 155 199 244 289 342
#     4  11  22  37  60  89 118 153 197 244 291 349
#     4  11  21  35  60  92 122 152 191 240 291 349
#     4  10  21  40  62  86 116 152 190 236 291 347
#     4  10  22  39  62  89 119 156 196 236 291 354
#     4  11  22  38  60  86 118 157 194 237 295 352
#     4   9  20  39  60  82 113 155 200 244 294 351
#
# _framework density 19.705238999999999
#
# number of rings (size 3 to 8) (size 9 to 14) (size 15 to 20)
#    0.000    1.625    2.500    2.250    0.000    4.000 
#    0.000    2.500    0.000    5.250    0.000    0.000 
#    0.000    0.000    0.000    0.000    0.000    0.000 
#
# Total GULP energy -396967.356037 kJ/mol
# GULP energy per Si atom -12405.229876 kJ/mol
# Density = 1.966039 g / cm^3
# Si number density = 19.705239 Si / 1000 Ang^3
#
#
#
# Elastic Constant Matrix: (Units=GPa)
#
#
# Indices 1 2 3 4 5 6 
#
# 1 150.3428 39.9999 59.1779 0.0000 -11.2580 0.0000
# 2 39.9999 60.4529 35.3957 0.0000 -7.3513 0.0000
# 3 59.1779 35.3957 130.1393 0.0000 -12.6209 0.0000
# 4 0.0000 0.0000 0.0000 19.2964 0.0000 -2.1652
# 5 -11.2580 -7.3513 -12.6209 0.0000 13.3667 0.0000
# 6 0.0000 0.0000 0.0000 -2.1652 0.0000 33.4049
#
#
#
# Elastic Compliance Matrix: (Units=1/GPa)
#
#
# Indices 1 2 3 4 5 6 
#
# 1 0.009005 -0.004020 -0.002730 0.000000 0.002796 0.000000
# 2 -0.004020 0.021971 -0.003638 0.000000 0.005263 0.000000
# 3 -0.002730 -0.003638 0.010455 0.000000 0.005572 0.000000
# 4 0.000000 0.000000 0.000000 0.052203 0.000000 0.003384
# 5 0.002796 0.005263 0.005572 0.000000 0.085323 0.000000
# 6 0.000000 0.000000 0.000000 0.003384 0.000000 0.030155
#
#
# Mechanical properties :
#
#
# Convention : Reuss Voigt Hill
#
# Bulk Modulus (GPa) = 48.41102 67.78691 58.09896
# Shear Modulus (GPa) = 21.11725 26.97104 24.04414
#
# Velocity S-wave (km/s) = 3.27717 3.70364 3.49691
# Velocity P-wave (km/s) = 6.24025 7.26391 6.77145
#
# Compressibility (1/GPa) = 0.02065646
#
# Stress axis : x y z
#
# Youngs Moduli (GPa) = 111.04901 45.51376 95.64467
#
# Poissons Ratio (x) = 0.18295 0.26115
# Poissons Ratio (y) = 0.44639 0.34791
# Poissons Ratio (z) = 0.30321 0.16556
#
# Static dielectric constant tensor:
#      x y z
#    x 4.463270 0.000000 -0.021870 
#    y 0.000000 3.439880 0.000000 
#    z -0.021870 0.000000 3.579270 
# 
# 
# High freq. dielectric constant tensor:
#      x y z
#    x 1.786790 0.000000 0.001690 
#    y 0.000000 1.756480 0.000000 
#    z 0.001690 0.000000 1.762400 
# 
# From -- ./inp_files/360002.got.cif
#   From: 2010.06.25/outbox.cif.g09.slc.cpg/sg12_181_cif.got.tgz:360002.got - 2010.06.28 00:19:55.
