data_PCOD8100742
_publ_section_title
;
Structure prediction by ZEFSAII (Michael W. Deem and Ramdas Pophale) SiO2 
 PCOD8100742
Probable space group: C 2/M
;
_chemical_formula_sum "Si O2"
_cell_formula_units_Z 36
_cell_length_a 13.625743
_cell_length_b 10.440766
_cell_length_c 13.522448
_cell_angle_alpha 90.000000
_cell_angle_beta 119.145435
_cell_angle_gamma 90.000000
_cell_volume 1680.173945
_symmetry_space_group_name_H-M "C 2/M"
_symmetry_group_IT_number 12
_symmetry_cell_setting 'monoclinic'
loop_
_space_group_symop_operation_xyz
x,y,z
-x,y,-z
-x,-y,-z
x,-y,z
1/2+x,1/2+y,z
1/2-x,1/2+y,-z
1/2-x,1/2-y,-z
1/2+x,1/2-y,z
loop_
_atom_site_type_symbol
_atom_site_label
_atom_site_fract_x
_atom_site_fract_y
_atom_site_fract_z
Si Si1 0.107684 0.252387 0.989946
Si Si2 0.978248 0.755862 0.605195
Si Si3 0.607813 0.000000 0.480300
Si Si4 0.136477 0.000000 0.355010
Si Si5 0.521349 0.500000 0.894671
Si Si6 0.325571 0.146616 0.172747
O O1 0.090049 0.129301 0.908229
O O2 0.136536 0.361253 0.924353
O O3 0.205052 0.218178 0.116502
O O4 0.000000 0.294616 0.000000
O O5 0.901786 0.629504 0.588689
O O6 0.000000 0.778050 0.500000
O O7 0.095807 0.732285 0.718304
O O8 0.910066 0.876228 0.611702
O O9 0.500000 0.000000 0.500000
O O10 0.729415 0.000000 0.591310
O O11 0.094122 0.000000 0.222040
O O12 0.500000 0.500000 0.000000
O O13 0.319677 0.000000 0.208593
#
# Coordination Sequence:
#
# PCOD8100742 Si02
#       6
#     8   8   4   4   4   8
#     4  10  22  40  63  95 125 166 209 253 323 379
#     4  11  24  43  64  95 126 173 215 263 323 376
#     4  10  24  43  67  94 123 165 217 262 326 372
#     4  12  23  44  68  92 131 166 217 269 312 391
#     4  10  20  35  63  94 115 158 208 246 311 368
#     4  11  22  40  66  92 131 164 209 268 311 384
#
# _framework density 21.426352999999999
#
# number of rings (size 3 to 8) (size 9 to 14) (size 15 to 20)
#    0.000    1.333    4.444    1.000    0.000    7.556 
#    4.000    0.000    0.000    0.000    0.000    0.000 
#    0.000    0.000    0.000    0.000    0.000    0.000 
#
# Total GULP energy -223071.233271 kJ/mol
# GULP energy per Si atom -12392.846293 kJ/mol
# Density = 2.137759 g / cm^3
# Si number density = 21.426353 Si / 1000 Ang^3
#
#
#
# Elastic Constant Matrix: (Units=GPa)
#
#
# Indices 1 2 3 4 5 6 
#
# 1 119.3980 31.9609 60.8318 0.0000 19.6374 0.0000
# 2 31.9609 119.1881 42.7251 0.0000 6.1810 0.0000
# 3 60.8318 42.7251 165.9615 0.0000 31.3161 0.0000
# 4 0.0000 0.0000 0.0000 18.8345 0.0000 6.8769
# 5 19.6374 6.1810 31.3161 0.0000 44.8126 0.0000
# 6 0.0000 0.0000 0.0000 6.8769 0.0000 12.4028
#
#
#
# Elastic Compliance Matrix: (Units=1/GPa)
#
#
# Indices 1 2 3 4 5 6 
#
# 1 0.010775 -0.001664 -0.003079 0.000000 -0.002340 0.000000
# 2 -0.001664 0.009508 -0.001990 0.000000 0.000809 0.000000
# 3 -0.003079 -0.001990 0.008478 0.000000 -0.004301 0.000000
# 4 0.000000 0.000000 0.000000 0.066571 0.000000 -0.036911
# 5 -0.002340 0.000809 -0.004301 0.000000 0.026235 0.000000
# 6 0.000000 0.000000 0.000000 -0.036911 0.000000 0.101093
#
#
# Mechanical properties :
#
#
# Convention : Reuss Voigt Hill
#
# Bulk Modulus (GPa) = 65.38931 75.06480 70.22705
# Shear Modulus (GPa) = 20.72761 33.14530 26.93646
#
# Velocity S-wave (km/s) = 3.11366 3.93738 3.54950
# Velocity P-wave (km/s) = 6.59628 7.46864 7.04597
#
# Compressibility (1/GPa) = 0.01529302
#
# Stress axis : x y z
#
# Youngs Moduli (GPa) = 92.81118 105.17612 117.95028
#
# Poissons Ratio (x) = 0.17502 0.36321
# Poissons Ratio (y) = 0.15444 0.23476
# Poissons Ratio (z) = 0.28580 0.20934
#
# Static dielectric constant tensor:
#      x y z
#    x 3.677900 0.000000 0.210210 
#    y 0.000000 5.110340 0.000000 
#    z 0.210210 0.000000 3.965330 
# 
# 
# High freq. dielectric constant tensor:
#      x y z
#    x 1.823070 0.000000 0.016010 
#    y 0.000000 1.846090 0.000000 
#    z 0.016010 0.000000 1.853740 
# 
# From -- ./inp_files/212163.got.cif
#   From: 2010.06.25/outbox.cif.g09.slc.cpg/sg12_107_cif.got.tgz:212163.got - 2010.06.28 00:19:55.
