data_PCOD8100568
_publ_section_title
;
Structure prediction by ZEFSAII (Michael W. Deem and Ramdas Pophale) SiO2 
 PCOD8100568
Probable space group: C 2/M
;
_chemical_formula_sum "Si O2"
_cell_formula_units_Z 64
_cell_length_a 15.155239
_cell_length_b 8.754089
_cell_length_c 24.949418
_cell_angle_alpha 90.000000
_cell_angle_beta 70.023310
_cell_angle_gamma 90.000000
_cell_volume 3110.887106
_symmetry_space_group_name_H-M "C 2/M"
_symmetry_group_IT_number 12
_symmetry_cell_setting 'monoclinic'
loop_
_space_group_symop_operation_xyz
x,y,z
-x,y,-z
-x,-y,-z
x,-y,z
1/2+x,1/2+y,z
1/2-x,1/2+y,-z
1/2-x,1/2-y,-z
1/2+x,1/2-y,z
loop_
_atom_site_type_symbol
_atom_site_label
_atom_site_fract_x
_atom_site_fract_y
_atom_site_fract_z
Si Si1 0.205468 0.677455 0.260032
Si Si2 0.549718 0.180617 0.149777
Si Si3 0.518412 0.324809 0.264131
Si Si4 0.516296 0.177212 0.434854
Si Si5 0.739701 0.677121 0.868451
Si Si6 0.375258 0.325297 0.386519
Si Si7 0.710014 0.678257 0.367411
Si Si8 0.949614 0.319633 0.063085
O O1 0.213308 0.500000 0.273283
O O2 0.096763 0.716735 0.273517
O O3 0.263058 0.716495 0.194280
O O4 0.246223 0.775207 0.300688
O O5 0.495852 0.268547 0.208664
O O6 0.659990 0.224553 0.127430
O O7 0.504712 0.240710 0.103951
O O8 0.537023 0.000000 0.160888
O O9 0.553756 0.500000 0.256102
O O10 0.425781 0.307351 0.318801
O O11 0.500000 0.214536 0.500000
O O12 0.423192 0.224011 0.422261
O O13 0.601424 0.278037 0.395179
O O14 0.539117 0.000000 0.420496
O O15 0.720511 0.500000 0.882144
O O16 0.658724 0.770528 0.914774
O O17 0.373355 0.500000 0.406392
O O18 0.269419 0.265482 0.400562
O O19 0.723671 0.500000 0.372771
O O20 0.954195 0.500000 0.060767
O O21 0.000000 0.250844 0.000000
#
# Coordination Sequence:
#
# PCOD8100568 Si02
#       8
#     8   8   8   8   8   8   8   8
#     4  10  20  37  61  88 126 163 197 250 311 368
#     4   9  20  38  57  81 116 159 195 239 305 364
#     4  10  20  35  59  91 123 156 201 251 303 364
#     4  11  25  46  70  94 125 166 210 258 311 367
#     4   9  20  37  57  83 115 153 196 242 297 359
#     4  11  24  41  63  94 129 166 208 257 308 367
#     4  12  25  40  63  95 128 167 210 254 308 368
#     4  10  22  39  58  83 116 154 200 249 298 358
#
# _framework density 20.57291
#
# number of rings (size 3 to 8) (size 9 to 14) (size 15 to 20)
#    0.000    1.750    1.250    3.375    1.750    6.750 
#    0.000    0.000    0.000    0.000    0.000    0.000 
#    0.000    0.000    0.000    0.000    0.000    0.000 
#
# Total GULP energy -396937.765016 kJ/mol
# GULP energy per Si atom -12404.305157 kJ/mol
# Density = 2.052609 g / cm^3
# Si number density = 20.572910 Si / 1000 Ang^3
#
#
#
# Elastic Constant Matrix: (Units=GPa)
#
#
# Indices 1 2 3 4 5 6 
#
# 1 66.9836 6.6448 15.5918 0.0000 17.6122 0.0000
# 2 6.6448 58.0997 30.2820 0.0000 3.1427 0.0000
# 3 15.5918 30.2820 77.1913 0.0000 17.5437 0.0000
# 4 0.0000 0.0000 0.0000 27.9065 0.0000 -1.2385
# 5 17.6122 3.1427 17.5437 0.0000 30.2071 0.0000
# 6 0.0000 0.0000 0.0000 -1.2385 0.0000 30.4994
#
#
#
# Elastic Compliance Matrix: (Units=1/GPa)
#
#
# Indices 1 2 3 4 5 6 
#
# 1 0.017811 -0.000988 -0.001006 0.000000 -0.009698 0.000000
# 2 -0.000988 0.021943 -0.009240 0.000000 0.003660 0.000000
# 3 -0.001006 -0.009240 0.018930 0.000000 -0.009446 0.000000
# 4 0.000000 0.000000 0.000000 0.035899 0.000000 0.001458
# 5 -0.009698 0.003660 -0.009446 0.000000 0.043864 0.000000
# 6 0.000000 0.000000 0.000000 0.001458 0.000000 0.032847
#
#
# Mechanical properties :
#
#
# Convention : Reuss Voigt Hill
#
# Bulk Modulus (GPa) = 27.61291 34.14575 30.87933
# Shear Modulus (GPa) = 24.29139 27.70634 25.99887
#
# Velocity S-wave (km/s) = 3.43993 3.67378 3.55877
# Velocity P-wave (km/s) = 5.40635 5.88464 5.65056
#
# Compressibility (1/GPa) = 0.03621494
#
# Stress axis : x y z
#
# Youngs Moduli (GPa) = 56.14497 45.57270 52.82652
#
# Poissons Ratio (x) = 0.04503 0.05314
# Poissons Ratio (y) = 0.05548 0.48814
# Poissons Ratio (z) = 0.05648 0.42111
#
# Static dielectric constant tensor:
#      x y z
#    x 3.643340 0.000000 0.140150 
#    y 0.000000 3.636510 0.000000 
#    z 0.140150 0.000000 3.851700 
# 
# 
# High freq. dielectric constant tensor:
#      x y z
#    x 1.806010 0.000000 0.006920 
#    y 0.000000 1.802270 0.000000 
#    z 0.006920 0.000000 1.800560 
# 
# From -- ./inp_files/359778.got.cif
#   From: 2010.06.25/outbox.cif.g09.slc.cpg/sg12_180_cif.got.tgz:359778.got - 2010.06.28 00:19:55.
