data_PCOD8100314
_publ_section_title
;
Structure prediction by ZEFSAII (Michael W. Deem and Ramdas Pophale) SiO2 
 PCOD8100314
Probable space group: C 2/M
;
_chemical_formula_sum "Si O2"
_cell_formula_units_Z 48
_cell_length_a 17.511170
_cell_length_b 8.874755
_cell_length_c 14.991502
_cell_angle_alpha 90.000000
_cell_angle_beta 95.977946
_cell_angle_gamma 90.000000
_cell_volume 2317.120237
_symmetry_space_group_name_H-M "C 2/M"
_symmetry_group_IT_number 12
_symmetry_cell_setting 'monoclinic'
loop_
_space_group_symop_operation_xyz
x,y,z
-x,y,-z
-x,-y,-z
x,-y,z
1/2+x,1/2+y,z
1/2-x,1/2+y,-z
1/2-x,1/2-y,-z
1/2+x,1/2-y,z
loop_
_atom_site_type_symbol
_atom_site_label
_atom_site_fract_x
_atom_site_fract_y
_atom_site_fract_z
Si Si1 0.589307 0.322895 0.136164
Si Si2 0.688689 0.828733 0.291562
Si Si3 0.937960 0.326172 0.191659
Si Si4 0.332125 0.173820 0.015954
Si Si5 0.866539 0.824422 0.349555
Si Si6 0.831835 0.325574 0.515403
O O1 0.585134 0.500000 0.122979
O O2 0.656076 0.284378 0.214534
O O3 0.508367 0.262670 0.158730
O O4 0.607842 0.250011 0.043427
O O5 0.777939 0.791225 0.316337
O O6 0.640872 0.807565 0.378455
O O7 0.679031 0.000000 0.256264
O O8 0.961476 0.500000 0.204409
O O9 0.863851 0.306212 0.119728
O O10 0.920219 0.259288 0.285975
O O11 0.323333 0.000000 0.988699
O O12 0.250000 0.250000 0.000000
O O13 0.886672 0.757988 0.450485
O O14 0.885794 0.000000 0.350776
O O15 0.824982 0.500000 0.488178
O O16 0.750000 0.250000 0.500000
#
# Coordination Sequence:
#
# PCOD8100314 Si02
#       6
#     8   8   8   8   8   8
#     4  12  25  39  59  86 117 153 190 234 286 338
#     4   9  19  36  58  84 116 153 192 236 284 336
#     4  11  24  41  60  83 115 154 192 232 282 340
#     4  11  24  42  65  90 115 147 188 234 282 335
#     4  10  20  35  58  87 117 150 190 238 288 338
#     4   9  17  31  54  83 114 150 191 237 286 333
#
# _framework density 20.715368000000002
#
# number of rings (size 3 to 8) (size 9 to 14) (size 15 to 20)
#    0.000    1.667    0.000    6.000    0.000   11.333 
#    0.000    0.833    0.000    5.000    0.000    0.000 
#    0.000    0.000    0.000    0.000    0.000    0.000 
#
# Total GULP energy -297642.338660 kJ/mol
# GULP energy per Si atom -12401.764111 kJ/mol
# Density = 2.066822 g / cm^3
# Si number density = 20.715368 Si / 1000 Ang^3
#
#
#
# Elastic Constant Matrix: (Units=GPa)
#
#
# Indices 1 2 3 4 5 6 
#
# 1 52.7170 17.4295 4.5954 0.0000 -21.5813 0.0000
# 2 17.4295 131.5801 33.7252 0.0000 -12.6426 0.0000
# 3 4.5954 33.7252 83.0516 0.0000 -33.3907 0.0000
# 4 0.0000 0.0000 0.0000 39.0527 0.0000 -6.9486
# 5 -21.5813 -12.6426 -33.3907 0.0000 33.5872 0.0000
# 6 0.0000 0.0000 0.0000 -6.9486 0.0000 33.8322
#
#
#
# Elastic Compliance Matrix: (Units=1/GPa)
#
#
# Indices 1 2 3 4 5 6 
#
# 1 0.032415 -0.004528 0.012883 0.000000 0.031932 0.000000
# 2 -0.004528 0.009118 -0.005400 0.000000 -0.004846 0.000000
# 3 0.012883 -0.005400 0.026706 0.000000 0.032795 0.000000
# 4 0.000000 0.000000 0.000000 0.026578 0.000000 0.005459
# 5 0.031932 -0.004846 0.032795 0.000000 0.081070 0.000000
# 6 0.000000 0.000000 0.000000 0.005459 0.000000 0.030679
#
#
# Mechanical properties :
#
#
# Convention : Reuss Voigt Hill
#
# Bulk Modulus (GPa) = 13.48633 42.09431 27.79032
# Shear Modulus (GPa) = 22.18550 35.40099 28.79325
#
# Velocity S-wave (km/s) = 3.27612 4.13840 3.73224
# Velocity P-wave (km/s) = 4.56454 6.57264 5.65838
#
# Compressibility (1/GPa) = 0.07414916
#
# Stress axis : x y z
#
# Youngs Moduli (GPa) = 30.84954 109.66990 37.44490
#
# Poissons Ratio (x) = 0.49656 -0.48241
# Poissons Ratio (y) = 0.13968 0.20222
# Poissons Ratio (z) = -0.39744 0.59227
#
# Static dielectric constant tensor:
#      x y z
#    x 3.411460 0.000000 -0.070760 
#    y 0.000000 3.995840 0.000000 
#    z -0.070760 0.000000 4.063130 
# 
# 
# High freq. dielectric constant tensor:
#      x y z
#    x 1.789100 0.000000 -0.013950 
#    y 0.000000 1.822720 0.000000 
#    z -0.013950 0.000000 1.827170 
# 
# From -- ./inp_files/221714.got.cif
#   From: 2010.06.25/outbox.cif.g09.slc.cpg/sg12_111_cif.got.tgz:221714.got - 2010.06.28 00:19:55.
