data_PCOD8100216
_publ_section_title
;
Structure prediction by ZEFSAII (Michael W. Deem and Ramdas Pophale) SiO2 
 PCOD8100216
Probable space group: C 2/M
;
_chemical_formula_sum "Si O2"
_cell_formula_units_Z 48
_cell_length_a 23.410184
_cell_length_b 8.902798
_cell_length_c 12.510334
_cell_angle_alpha 90.000000
_cell_angle_beta 90.324401
_cell_angle_gamma 90.000000
_cell_volume 2607.313722
_symmetry_space_group_name_H-M "C 2/M"
_symmetry_group_IT_number 12
_symmetry_cell_setting 'monoclinic'
loop_
_space_group_symop_operation_xyz
x,y,z
-x,y,-z
-x,-y,-z
x,-y,z
1/2+x,1/2+y,z
1/2-x,1/2+y,-z
1/2-x,1/2-y,-z
1/2+x,1/2-y,z
loop_
_atom_site_type_symbol
_atom_site_label
_atom_site_fract_x
_atom_site_fract_y
_atom_site_fract_z
Si Si1 0.183335 0.174279 0.613564
Si Si2 0.120987 0.676729 0.793560
Si Si3 0.114853 0.176378 0.182182
Si Si4 0.001558 0.323529 0.120883
Si Si5 0.810934 0.177925 0.018324
Si Si6 0.301721 0.674439 0.629881
O O1 0.134617 0.268938 0.673758
O O2 0.245632 0.228306 0.651719
O O3 0.174204 0.204946 0.488071
O O4 0.176964 0.000000 0.641993
O O5 0.130841 0.500000 0.806085
O O6 0.056338 0.722240 0.819790
O O7 0.164254 0.763213 0.870767
O O8 0.147706 0.230875 0.076684
O O9 0.150196 0.227027 0.286568
O O10 0.053212 0.252456 0.187549
O O11 0.105533 0.000000 0.180930
O O12 0.011030 0.500000 0.118216
O O13 0.000000 0.259165 0.000000
O O14 0.804479 0.000000 0.021478
O O15 0.750000 0.250000 0.000000
O O16 0.285434 0.500000 0.645727
#
# Coordination Sequence:
#
# PCOD8100216 Si02
#       6
#     8   8   8   8   8   8
#     4  10  20  35  58  85 112 146 186 227 275 332
#     4  11  22  37  56  78 110 147 185 230 277 326
#     4  10  21  36  56  81 109 142 181 226 275 329
#     4  10  21  38  57  78 106 146 189 229 276 326
#     4  11  22  34  53  83 114 143 178 223 277 335
#     4   9  19  37  58  83 115 147 181 225 279 333
#
# _framework density 18.409752999999998
#
# number of rings (size 3 to 8) (size 9 to 14) (size 15 to 20)
#    0.000    1.833    1.667    2.500    0.000    5.000 
#    0.000    0.833    0.000    5.000    0.000    0.000 
#    0.000    0.000    0.000    0.000    0.000    0.000 
#
# Total GULP energy -297724.139404 kJ/mol
# GULP energy per Si atom -12405.172475 kJ/mol
# Density = 1.836785 g / cm^3
# Si number density = 18.409753 Si / 1000 Ang^3
#
#
#
# Elastic Constant Matrix: (Units=GPa)
#
#
# Indices 1 2 3 4 5 6 
#
# 1 111.6666 40.8659 44.9520 0.0000 -12.0396 0.0000
# 2 40.8659 55.3313 27.5033 0.0000 -9.3413 0.0000
# 3 44.9520 27.5033 92.0366 0.0000 -10.3361 0.0000
# 4 0.0000 0.0000 0.0000 28.7508 0.0000 -0.8909
# 5 -12.0396 -9.3413 -10.3361 0.0000 31.9343 0.0000
# 6 0.0000 0.0000 0.0000 -0.8909 0.0000 36.3784
#
#
#
# Elastic Compliance Matrix: (Units=1/GPa)
#
#
# Indices 1 2 3 4 5 6 
#
# 1 0.013631 -0.007735 -0.004175 0.000000 0.001525 0.000000
# 2 -0.007735 0.026203 -0.003652 0.000000 0.003567 0.000000
# 3 -0.004175 -0.003652 0.014216 0.000000 0.001959 0.000000
# 4 0.000000 0.000000 0.000000 0.034808 0.000000 0.000852
# 5 0.001525 0.003567 0.001959 0.000000 0.033567 0.000000
# 6 0.000000 0.000000 0.000000 0.000852 0.000000 0.027510
#
#
# Mechanical properties :
#
#
# Convention : Reuss Voigt Hill
#
# Bulk Modulus (GPa) = 43.61769 53.96410 48.79090
# Shear Modulus (GPa) = 26.49721 29.12693 27.81207
#
# Velocity S-wave (km/s) = 3.79793 3.98194 3.89102
# Velocity P-wave (km/s) = 6.55565 7.10757 6.83718
#
# Compressibility (1/GPa) = 0.02292648
#
# Stress axis : x y z
#
# Youngs Moduli (GPa) = 73.36265 38.16361 70.34512
#
# Poissons Ratio (x) = 0.29518 0.29368
# Poissons Ratio (y) = 0.56744 0.25690
# Poissons Ratio (z) = 0.30628 0.13937
#
# Static dielectric constant tensor:
#      x y z
#    x 3.288160 0.000000 -0.141250 
#    y 0.000000 3.376240 0.000000 
#    z -0.141250 0.000000 3.444920 
# 
# 
# High freq. dielectric constant tensor:
#      x y z
#    x 1.712390 0.000000 -0.004810 
#    y 0.000000 1.716820 0.000000 
#    z -0.004810 0.000000 1.717190 
# 
# From -- ./inp_files/172023.got.cif
#   From: 2010.06.25/outbox.cif.g09.slc.cpg/sg12_87_cif.got.tgz:172023.got - 2010.06.28 00:19:55.
