data_PCOD8100998
_publ_section_title
;
Structure prediction by ZEFSAII (Michael W. Deem and Ramdas Pophale) SiO2 
 PCOD8100998
Probable space group: C 2/M
;
_chemical_formula_sum "Si O2"
_cell_formula_units_Z 64
_cell_length_a 14.227273
_cell_length_b 13.221007
_cell_length_c 27.621517
_cell_angle_alpha 90.000000
_cell_angle_beta 40.036204
_cell_angle_gamma 90.000000
_cell_volume 3342.166308
_symmetry_space_group_name_H-M "C 2/M"
_symmetry_group_IT_number 12
_symmetry_cell_setting 'monoclinic'
loop_
_space_group_symop_operation_xyz
x,y,z
-x,y,-z
-x,-y,-z
x,-y,z
1/2+x,1/2+y,z
1/2-x,1/2+y,-z
1/2-x,1/2-y,-z
1/2+x,1/2-y,z
loop_
_atom_site_type_symbol
_atom_site_label
_atom_site_fract_x
_atom_site_fract_y
_atom_site_fract_z
Si Si1 0.134510 0.613901 0.245710
Si Si2 0.709010 0.294260 0.899145
Si Si3 0.381119 0.618028 0.441330
Si Si4 0.620342 0.617280 0.130547
Si Si5 0.796175 0.884413 0.276826
Si Si6 0.433688 0.383140 0.958839
Si Si7 0.106997 0.762205 0.415515
Si Si8 0.162234 0.695816 0.602102
O O1 0.120352 0.500000 0.234593
O O2 0.155863 0.674302 0.187787
O O3 0.267954 0.629410 0.230545
O O4 0.992006 0.646478 0.329987
O O5 0.744912 0.178583 0.899353
O O6 0.561520 0.306790 0.925847
O O7 0.700391 0.363147 0.951106
O O8 0.402473 0.500000 0.419680
O O9 0.520821 0.657719 0.416423
O O10 0.233293 0.634792 0.529727
O O11 0.360900 0.684508 0.400625
O O12 0.653708 0.500000 0.126071
O O13 0.465605 0.648022 0.216847
O O14 0.616369 0.643070 0.075194
O O15 0.677926 0.824452 0.354981
O O16 0.774250 0.000000 0.300884
O O17 0.487041 0.500000 0.941576
O O18 0.239732 0.820178 0.389061
O O19 0.000000 0.717456 0.500000
#
# Coordination Sequence:
#
# PCOD8100998 Si02
#       8
#     8   8   8   8   8   8   8   8
#     4  11  20  34  58  83 110 147 189 236 281 329
#     4  11  20  34  60  88 112 148 191 230 275 332
#     4  10  21  38  57  80 113 147 184 233 287 340
#     4  10  21  38  59  83 116 155 189 227 283 338
#     4  10  20  36  56  80 112 148 187 234 285 333
#     4  10  20  37  60  90 120 146 187 235 280 330
#     4  10  21  37  56  80 111 145 188 234 286 339
#     4  10  21  36  56  82 108 147 189 231 281 342
#
# _framework density 19.149256999999999
#
# number of rings (size 3 to 8) (size 9 to 14) (size 15 to 20)
#    0.000    1.750    2.500    3.000    0.000    3.500 
#    0.000    1.875    0.000    2.250    0.000    0.000 
#    0.000    0.000    0.000    0.000    0.000    0.000 
#
# Total GULP energy -396657.981925 kJ/mol
# GULP energy per Si atom -12395.561935 kJ/mol
# Density = 1.910567 g / cm^3
# Si number density = 19.149257 Si / 1000 Ang^3
#
#
#
# Elastic Constant Matrix: (Units=GPa)
#
#
# Indices 1 2 3 4 5 6 
#
# 1 84.3387 12.8865 -8.2652 0.0000 -5.9503 0.0000
# 2 12.8865 190.9843 120.0287 0.0000 -11.5593 0.0000
# 3 -8.2652 120.0287 153.0618 0.0000 -3.8907 0.0000
# 4 0.0000 0.0000 0.0000 25.1343 0.0000 -3.1916
# 5 -5.9503 -11.5593 -3.8907 0.0000 25.0326 0.0000
# 6 0.0000 0.0000 0.0000 -3.1916 0.0000 31.1602
#
#
#
# Elastic Compliance Matrix: (Units=1/GPa)
#
#
# Indices 1 2 3 4 5 6 
#
# 1 0.012627 -0.002320 0.002561 0.000000 0.002328 0.000000
# 2 -0.002320 0.011070 -0.008724 0.000000 0.003204 0.000000
# 3 0.002561 -0.008724 0.013480 0.000000 -0.001325 0.000000
# 4 0.000000 0.000000 0.000000 0.040311 0.000000 0.004129
# 5 0.002328 0.003204 -0.001325 0.000000 0.041775 0.000000
# 6 0.000000 0.000000 0.000000 0.004129 0.000000 0.032515
#
#
# Mechanical properties :
#
#
# Convention : Reuss Voigt Hill
#
# Bulk Modulus (GPa) = 49.48707 75.29834 62.39270
# Shear Modulus (GPa) = 28.49314 36.51437 32.50376
#
# Velocity S-wave (km/s) = 3.86158 4.37146 4.12441
# Velocity P-wave (km/s) = 6.76619 8.05523 7.43869
#
# Compressibility (1/GPa) = 0.02020730
#
# Stress axis : x y z
#
# Youngs Moduli (GPa) = 79.19748 90.33717 74.18670
#
# Poissons Ratio (x) = 0.20961 -0.18996
# Poissons Ratio (y) = 0.18376 0.64724
# Poissons Ratio (z) = -0.20279 0.78815
#
# Static dielectric constant tensor:
#      x y z
#    x 3.493590 0.000000 0.072630 
#    y 0.000000 3.303420 0.000000 
#    z 0.072630 0.000000 3.680500 
# 
# 
# High freq. dielectric constant tensor:
#      x y z
#    x 1.739380 0.000000 0.004640 
#    y 0.000000 1.725580 0.000000 
#    z 0.004640 0.000000 1.755760 
# 
# From -- ./inp_files/376099.got.cif
#   From: 2010.06.25/outbox.cif.g09.slc.cpg/sg12_189_cif.got.tgz:376099.got - 2010.06.28 00:19:55.
