data_PCOD8100042
_publ_section_title
;
Structure prediction by ZEFSAII (Michael W. Deem and Ramdas Pophale) SiO2 
 PCOD8100042
Probable space group: C 2/M
;
_chemical_formula_sum "Si O2"
_cell_formula_units_Z 64
_cell_length_a 13.956962
_cell_length_b 24.128607
_cell_length_c 16.239075
_cell_angle_alpha 90.000000
_cell_angle_beta 143.705458
_cell_angle_gamma 90.000000
_cell_volume 3237.125097
_symmetry_space_group_name_H-M "C 2/M"
_symmetry_group_IT_number 12
_symmetry_cell_setting 'monoclinic'
loop_
_space_group_symop_operation_xyz
x,y,z
-x,y,-z
-x,-y,-z
x,-y,z
1/2+x,1/2+y,z
1/2-x,1/2+y,-z
1/2-x,1/2-y,-z
1/2+x,1/2-y,z
loop_
_atom_site_type_symbol
_atom_site_label
_atom_site_fract_x
_atom_site_fract_y
_atom_site_fract_z
Si Si1 0.606726 0.832301 0.835406
Si Si2 0.174078 0.226989 0.134940
Si Si3 0.258129 0.668835 0.106584
Si Si4 0.921454 0.561359 0.753433
Si Si5 0.296560 0.762046 0.658843
Si Si6 0.734472 0.062491 0.189419
Si Si7 0.400744 0.440434 0.563713
Si Si8 0.885266 0.823693 0.596832
O O1 0.686734 0.814050 0.804580
O O2 0.526725 0.893740 0.776034
O O3 0.472775 0.788415 0.770366
O O4 0.749838 0.831349 0.002064
O O5 0.142974 0.283764 0.062840
O O6 0.229891 0.242704 0.266130
O O7 0.000000 0.196575 0.000000
O O8 0.208030 0.607075 0.099168
O O9 0.429264 0.690270 0.258588
O O10 0.998741 0.500000 0.793472
O O11 0.902441 0.576169 0.836943
O O12 0.733458 0.559705 0.599216
O O13 0.164349 0.806260 0.531721
O O14 0.274557 0.707854 0.586216
O O15 0.919871 0.068156 0.350915
O O16 0.705944 0.000000 0.135595
O O17 0.395368 0.500000 0.607661
O O18 0.359963 0.389305 0.595881
#
# Coordination Sequence:
#
# PCOD8100042 Si02
#       8
#     8   8   8   8   8   8   8   8
#     4  12  23  41  60  87 120 156 203 244 294 360
#     4  12  24  39  62  84 116 162 203 242 299 355
#     4  11  22  36  57  82 120 160 192 237 287 354
#     4  10  20  35  57  85 120 156 196 248 297 350
#     4  11  22  39  59  86 122 152 195 249 301 347
#     4   9  19  33  53  87 122 157 195 233 295 369
#     4   9  17  32  56  84 119 159 192 231 294 364
#     4  10  21  38  57  86 122 151 193 245 290 352
#
# _framework density 19.770630000000001
#
# number of rings (size 3 to 8) (size 9 to 14) (size 15 to 20)
#    0.000    1.500    3.750    2.250    0.000    2.500 
#    0.000    1.250    0.000    1.125    0.000    1.750 
#    0.000    0.000    0.000    0.000    0.000    0.000 
#
# Total GULP energy -396457.524526 kJ/mol
# GULP energy per Si atom -12389.297641 kJ/mol
# Density = 1.972563 g / cm^3
# Si number density = 19.770630 Si / 1000 Ang^3
#
#
#
# Elastic Constant Matrix: (Units=GPa)
#
#
# Indices 1 2 3 4 5 6 
#
# 1 92.6743 59.6769 35.6005 0.0000 -4.9546 0.0000
# 2 59.6769 151.4771 21.0137 0.0000 -0.9691 0.0000
# 3 35.6005 21.0137 96.2972 0.0000 -1.0894 0.0000
# 4 0.0000 0.0000 0.0000 20.5185 0.0000 -2.3304
# 5 -4.9546 -0.9691 -1.0894 0.0000 26.4498 0.0000
# 6 0.0000 0.0000 0.0000 -2.3304 0.0000 22.6197
#
#
#
# Elastic Compliance Matrix: (Units=1/GPa)
#
#
# Indices 1 2 3 4 5 6 
#
# 1 0.016536 -0.005830 -0.004811 0.000000 0.002686 0.000000
# 2 -0.005830 0.008864 0.000212 0.000000 -0.000759 0.000000
# 3 -0.004811 0.000212 0.012112 0.000000 -0.000395 0.000000
# 4 0.000000 0.000000 0.000000 0.049314 0.000000 0.005081
# 5 0.002686 -0.000759 -0.000395 0.000000 0.038267 0.000000
# 6 0.000000 0.000000 0.000000 0.005081 0.000000 0.044733
#
#
# Mechanical properties :
#
#
# Convention : Reuss Voigt Hill
#
# Bulk Modulus (GPa) = 60.03903 63.67010 61.85456
# Shear Modulus (GPa) = 25.47967 28.86142 27.17055
#
# Velocity S-wave (km/s) = 3.59383 3.82489 3.71116
# Velocity P-wave (km/s) = 6.90323 7.19588 7.05107
#
# Compressibility (1/GPa) = 0.01665583
#
# Stress axis : x y z
#
# Youngs Moduli (GPa) = 60.47238 112.81262 82.56131
#
# Poissons Ratio (x) = 0.65773 0.39719
# Poissons Ratio (y) = 0.35257 -0.01754
# Poissons Ratio (z) = 0.29092 -0.02397
#
# Static dielectric constant tensor:
#      x y z
#    x 3.219640 0.000000 0.068950 
#    y 0.000000 3.925460 0.000000 
#    z 0.068950 0.000000 3.719470 
# 
# 
# High freq. dielectric constant tensor:
#      x y z
#    x 1.716460 0.000000 0.010250 
#    y 0.000000 1.779200 0.000000 
#    z 0.010250 0.000000 1.789570 
# 
# From -- ./inp_files/209420.got.cif
#   From: 2010.06.25/outbox.cif.g09.slc.cpg/sg12_105_cif.got.tgz:209420.got - 2010.06.28 00:19:55.
