data_PCOD8100337
_publ_section_title
;
Structure prediction by ZEFSAII (Michael W. Deem and Ramdas Pophale) SiO2 
 PCOD8100337
Probable space group: C 2/M
;
_chemical_formula_sum "Si O2"
_cell_formula_units_Z 64
_cell_length_a 29.267575
_cell_length_b 22.189098
_cell_length_c 8.972492
_cell_angle_alpha 90.000000
_cell_angle_beta 148.177899
_cell_angle_gamma 90.000000
_cell_volume 3072.442213
_symmetry_space_group_name_H-M "C 2/M"
_symmetry_group_IT_number 12
_symmetry_cell_setting 'monoclinic'
loop_
_space_group_symop_operation_xyz
x,y,z
-x,y,-z
-x,-y,-z
x,-y,z
1/2+x,1/2+y,z
1/2-x,1/2+y,-z
1/2-x,1/2-y,-z
1/2+x,1/2-y,z
loop_
_atom_site_type_symbol
_atom_site_label
_atom_site_fract_x
_atom_site_fract_y
_atom_site_fract_z
Si Si1 0.186414 0.194287 0.857773
Si Si2 0.566745 0.932333 0.510407
Si Si3 0.546135 0.435393 0.970332
Si Si4 0.984968 0.186342 0.783058
Si Si5 0.586656 0.749091 0.831265
Si Si6 0.759983 0.429707 0.157754
Si Si7 0.760180 0.931613 0.556009
Si Si8 0.112306 0.618681 0.944808
O O1 0.149267 0.201967 0.922005
O O2 0.111836 0.204753 0.527727
O O3 0.250000 0.250000 0.000000
O O4 0.221925 0.124957 0.948347
O O5 0.635931 0.924865 0.569697
O O6 0.484957 0.888331 0.256177
O O7 0.616353 0.919704 0.804048
O O8 0.529786 0.000000 0.412047
O O9 0.537268 0.500000 0.859999
O O10 0.499285 0.381140 0.753928
O O11 0.500000 0.441914 0.000000
O O12 0.647959 0.419239 0.269652
O O13 0.060516 0.227625 0.923720
O O14 0.000000 0.187364 0.000000
O O15 0.500000 0.757733 0.500000
O O16 0.634383 0.812586 0.970039
O O17 0.731589 0.500000 0.035593
O O18 0.734197 0.414086 0.254655
O O19 0.732008 0.000000 0.463525
O O20 0.684909 0.896387 0.265030
#
# Coordination Sequence:
#
# PCOD8100337 Si02
#       8
#     8   8   8   8   8   8   8   8
#     4  11  24  41  66  90 126 168 210 259 318 376
#     4  10  20  35  58  87 122 161 209 258 312 376
#     4   9  19  37  60  86 118 152 195 254 313 366
#     4  10  23  41  61  90 120 156 205 257 308 372
#     4  10  21  39  57  83 119 164 204 251 307 378
#     4  10  23  41  61  91 128 167 208 258 319 384
#     4  10  21  38  61  91 126 162 209 264 316 374
#     4  11  20  36  60  86 121 163 210 259 313 366
#
# _framework density 20.830335000000002
#
# number of rings (size 3 to 8) (size 9 to 14) (size 15 to 20)
#    0.000    1.875    1.250    3.000    1.750    6.000 
#    0.000    7.500    0.000    4.500    0.000    0.000 
#    0.000    0.000    0.000    0.000    0.000    0.000 
#
# Total GULP energy -396490.243469 kJ/mol
# GULP energy per Si atom -12390.320108 kJ/mol
# Density = 2.078292 g / cm^3
# Si number density = 20.830335 Si / 1000 Ang^3
#
#
#
# Elastic Constant Matrix: (Units=GPa)
#
#
# Indices 1 2 3 4 5 6 
#
# 1 107.2000 27.1198 43.6397 0.0000 11.6719 0.0000
# 2 27.1198 119.2428 33.9850 0.0000 4.2798 0.0000
# 3 43.6397 33.9850 68.8990 0.0000 16.1216 0.0000
# 4 0.0000 0.0000 0.0000 32.8276 0.0000 3.4084
# 5 11.6719 4.2798 16.1216 0.0000 20.5074 0.0000
# 6 0.0000 0.0000 0.0000 3.4084 0.0000 25.3890
#
#
#
# Elastic Compliance Matrix: (Units=1/GPa)
#
#
# Indices 1 2 3 4 5 6 
#
# 1 0.012644 -0.000736 -0.007350 0.000000 -0.001265 0.000000
# 2 -0.000736 0.009878 -0.004929 0.000000 0.002232 0.000000
# 3 -0.007350 -0.004929 0.024975 0.000000 -0.014422 0.000000
# 4 0.000000 0.000000 0.000000 0.030893 0.000000 -0.004147
# 5 -0.001265 0.002232 -0.014422 0.000000 0.060355 0.000000
# 6 0.000000 0.000000 0.000000 -0.004147 0.000000 0.039944
#
#
# Mechanical properties :
#
#
# Convention : Reuss Voigt Hill
#
# Bulk Modulus (GPa) = 46.57881 56.09229 51.33555
# Shear Modulus (GPa) = 23.59897 28.45128 26.02513
#
# Velocity S-wave (km/s) = 3.36953 3.69976 3.53850
# Velocity P-wave (km/s) = 6.12763 6.72589 6.43372
#
# Compressibility (1/GPa) = 0.02146899
#
# Stress axis : x y z
#
# Youngs Moduli (GPa) = 79.08773 101.23312 40.03993
#
# Poissons Ratio (x) = 0.07446 0.29429
# Poissons Ratio (y) = 0.05817 0.19735
# Poissons Ratio (z) = 0.58128 0.49896
#
# Static dielectric constant tensor:
#      x y z
#    x 3.938540 0.000000 0.244070 
#    y 0.000000 4.449210 0.000000 
#    z 0.244070 0.000000 3.438070 
# 
# 
# High freq. dielectric constant tensor:
#      x y z
#    x 1.820230 0.000000 0.023010 
#    y 0.000000 1.832730 0.000000 
#    z 0.023010 0.000000 1.784470 
# 
# From -- ./inp_files/113650.got.cif
#   From: 2010.06.25/outbox.cif.g09.slc.cpg/sg12_57_cif.got.tgz:113650.got - 2010.06.28 00:19:55.
