data_PCOD8100132
_publ_section_title
;
Structure prediction by ZEFSAII (Michael W. Deem and Ramdas Pophale) SiO2 
 PCOD8100132
Probable space group: C 2/M
;
_chemical_formula_sum "Si O2"
_cell_formula_units_Z 56
_cell_length_a 9.425320
_cell_length_b 18.856082
_cell_length_c 30.114610
_cell_angle_alpha 90.000000
_cell_angle_beta 149.013312
_cell_angle_gamma 90.000000
_cell_volume 2755.473039
_symmetry_space_group_name_H-M "C 2/M"
_symmetry_group_IT_number 12
_symmetry_cell_setting 'monoclinic'
loop_
_space_group_symop_operation_xyz
x,y,z
-x,y,-z
-x,-y,-z
x,-y,z
1/2+x,1/2+y,z
1/2-x,1/2+y,-z
1/2-x,1/2-y,-z
1/2+x,1/2-y,z
loop_
_atom_site_type_symbol
_atom_site_label
_atom_site_fract_x
_atom_site_fract_y
_atom_site_fract_z
Si Si1 0.814133 0.808367 0.571960
Si Si2 0.225219 0.418492 0.716596
Si Si3 0.739430 0.179801 0.800243
Si Si4 0.837626 0.416486 0.851304
Si Si5 0.263676 0.148751 0.541776
Si Si6 0.309471 0.821590 0.764252
Si Si7 0.808435 0.321872 0.989867
O O1 0.500000 0.812735 0.500000
O O2 0.849261 0.858580 0.538596
O O3 0.894124 0.726942 0.583447
O O4 0.005846 0.835924 0.663016
O O5 0.223536 0.500000 0.730102
O O6 0.124147 0.373077 0.731846
O O7 0.528822 0.394700 0.782736
O O8 0.008963 0.405893 0.618598
O O9 0.517689 0.190543 0.779535
O O10 0.809363 0.255165 0.797256
O O11 0.018236 0.146480 0.895218
O O12 0.885410 0.500000 0.865304
O O13 0.893214 0.389545 0.816092
O O14 0.053016 0.381242 0.942541
O O15 0.000000 0.131303 0.500000
O O16 0.750000 0.250000 0.000000
O O17 0.000000 0.302528 0.000000
#
# Coordination Sequence:
#
# PCOD8100132 Si02
#       7
#     8   8   8   8   8   8   8
#     4  10  21  34  61  92 127 163 214 266 318 373
#     4  11  23  42  65  92 132 175 217 265 325 387
#     4  12  24  40  66  99 126 167 220 265 326 377
#     4  11  26  45  66  94 131 175 215 263 324 387
#     4  10  20  35  57  92 125 163 214 265 319 376
#     4  12  24  41  68  95 134 169 215 275 314 388
#     4  12  24  42  69 100 128 162 213 268 318 385
#
# _framework density 20.323188999999999
#
# number of rings (size 3 to 8) (size 9 to 14) (size 15 to 20)
#    0.000    0.857    4.286    3.429    4.000    1.714 
#    0.000    1.429    0.000    2.571    0.000    0.000 
#    0.000    0.000    0.000    0.000    0.000    0.000 
#
# Total GULP energy -347310.159743 kJ/mol
# GULP energy per Si atom -12403.934277 kJ/mol
# Density = 2.027693 g / cm^3
# Si number density = 20.323189 Si / 1000 Ang^3
#
#
#
# Elastic Constant Matrix: (Units=GPa)
#
#
# Indices 1 2 3 4 5 6 
#
# 1 126.3745 46.8200 36.3103 -0.0017 -3.8782 -0.0001
# 2 46.8200 93.2902 39.7228 -0.0030 -4.4019 -0.0034
# 3 36.3103 39.7228 149.0232 0.0003 -8.2770 -0.0006
# 4 -0.0017 -0.0030 0.0003 29.1205 -0.0004 -2.2616
# 5 -3.8782 -4.4019 -8.2770 -0.0004 32.5674 -0.0014
# 6 -0.0001 -0.0034 -0.0006 -2.2616 -0.0014 16.9103
#
#
#
# Elastic Compliance Matrix: (Units=1/GPa)
#
#
# Indices 1 2 3 4 5 6 
#
# 1 0.009918 -0.004447 -0.001216 0.000000 0.000271 -0.000001
# 2 -0.004447 0.014108 -0.002638 0.000001 0.000707 0.000003
# 3 -0.001216 -0.002638 0.007792 0.000000 0.001479 0.000000
# 4 0.000000 0.000001 0.000000 0.034700 0.000001 0.004641
# 5 0.000271 0.000707 0.001479 0.000001 0.031209 0.000003
# 6 -0.000001 0.000003 0.000000 0.004641 0.000003 0.059756
#
#
# Mechanical properties :
#
#
# Convention : Reuss Voigt Hill
#
# Bulk Modulus (GPa) = 65.72049 68.26600 66.99324
# Shear Modulus (GPa) = 27.90837 32.10863 30.00850
#
# Velocity S-wave (km/s) = 3.70973 3.97911 3.84678
# Velocity P-wave (km/s) = 7.12442 7.40096 7.26401
#
# Compressibility (1/GPa) = 0.01521595
#
# Stress axis : x y z
#
# Youngs Moduli (GPa) = 100.82326 70.88391 128.33821
#
# Poissons Ratio (x) = 0.31523 0.15609
# Poissons Ratio (y) = 0.44837 0.33851
# Poissons Ratio (z) = 0.12262 0.18696
#
# Static dielectric constant tensor:
#      x y z
#    x 3.751860 0.000000 -0.130750 
#    y 0.000000 3.469790 -0.000010 
#    z -0.130750 -0.000010 4.015220 
# 
# 
# High freq. dielectric constant tensor:
#      x y z
#    x 1.803190 0.000000 -0.005710 
#    y 0.000000 1.765130 0.000000 
#    z -0.005710 0.000000 1.815190 
# 
# From -- ./inp_files/257033.got.cif
#   From: 2010.06.25/outbox.cif.g09.slc.cpg/sg12_129_cif.got.tgz:257033.got - 2010.06.28 00:19:55.
