data_PCOD8100660
_publ_section_title
;
Structure prediction by ZEFSAII (Michael W. Deem and Ramdas Pophale) SiO2 
 PCOD8100660
Probable space group: C 2/M
;
_chemical_formula_sum "Si O2"
_cell_formula_units_Z 64
_cell_length_a 15.344653
_cell_length_b 8.945204
_cell_length_c 23.673273
_cell_angle_alpha 90.000000
_cell_angle_beta 90.499872
_cell_angle_gamma 90.000000
_cell_volume 3249.294677
_symmetry_space_group_name_H-M "C 2/M"
_symmetry_group_IT_number 12
_symmetry_cell_setting 'monoclinic'
loop_
_space_group_symop_operation_xyz
x,y,z
-x,y,-z
-x,-y,-z
x,-y,z
1/2+x,1/2+y,z
1/2-x,1/2+y,-z
1/2-x,1/2-y,-z
1/2+x,1/2-y,z
loop_
_atom_site_type_symbol
_atom_site_label
_atom_site_fract_x
_atom_site_fract_y
_atom_site_fract_z
Si Si1 0.353211 0.174410 0.254379
Si Si2 0.101374 0.827531 0.858586
Si Si3 0.594542 0.328780 0.128629
Si Si4 0.416228 0.676834 0.366682
Si Si5 0.591183 0.823573 0.364191
Si Si6 0.849542 0.826726 0.746431
Si Si7 0.246338 0.823652 0.560477
Si Si8 0.258649 0.175715 0.939840
O O1 0.395481 0.223658 0.196016
O O2 0.398964 0.266395 0.303758
O O3 0.251709 0.214026 0.252819
O O4 0.370304 0.000000 0.264272
O O5 0.175708 0.774235 0.902223
O O6 0.007084 0.806692 0.887403
O O7 0.115396 0.000000 0.840633
O O8 0.624078 0.500000 0.119654
O O9 0.608958 0.282501 0.193612
O O10 0.651610 0.225389 0.088620
O O11 0.424033 0.500000 0.365323
O O12 0.505584 0.747616 0.390207
O O13 0.340369 0.730780 0.408195
O O14 0.602960 0.772825 0.299846
O O15 0.672210 0.768393 0.402024
O O16 0.580403 0.000000 0.365754
O O17 0.865447 0.000000 0.732014
O O18 0.250000 0.750000 0.500000
O O19 0.247585 0.000000 0.552960
O O20 0.260428 0.000000 0.948154
O O21 0.250000 0.250000 0.000000
#
# Coordination Sequence:
#
# PCOD8100660 Si02
#       8
#     8   8   8   8   8   8   8   8
#     4  11  21  35  61  95 124 156 197 243 296 355
#     4  10  22  39  62  89 120 159 198 241 299 359
#     4  10  21  40  62  87 119 154 194 241 294 355
#     4  11  23  41  62  89 123 161 199 242 299 360
#     4  11  23  40  62  92 123 157 201 250 298 354
#     4  10  20  35  60  92 124 159 193 237 301 363
#     4  10  24  43  63  86 118 158 203 251 302 354
#     4  11  24  41  61  86 116 156 202 248 298 350
#
# _framework density 19.696583
#
# number of rings (size 3 to 8) (size 9 to 14) (size 15 to 20)
#    0.000    1.500    2.500    2.250    0.000    6.000 
#    0.000    5.000    0.000    0.000    0.000    0.000 
#    0.000    0.000    0.000    0.000    0.000    0.000 
#
# Total GULP energy -396995.000302 kJ/mol
# GULP energy per Si atom -12406.093759 kJ/mol
# Density = 1.965175 g / cm^3
# Si number density = 19.696583 Si / 1000 Ang^3
#
#
#
# Elastic Constant Matrix: (Units=GPa)
#
#
# Indices 1 2 3 4 5 6 
#
# 1 144.8804 45.7066 57.3508 0.0000 -15.6908 0.0000
# 2 45.7066 66.8564 45.0837 0.0000 -8.2931 0.0000
# 3 57.3508 45.0837 128.9913 0.0000 -12.7655 0.0000
# 4 0.0000 0.0000 0.0000 38.5216 0.0000 -3.1527
# 5 -15.6908 -8.2931 -12.7655 0.0000 12.3376 0.0000
# 6 0.0000 0.0000 0.0000 -3.1527 0.0000 34.5685
#
#
#
# Elastic Compliance Matrix: (Units=1/GPa)
#
#
# Indices 1 2 3 4 5 6 
#
# 1 0.009958 -0.004441 -0.002136 0.000000 0.007469 0.000000
# 2 -0.004441 0.022071 -0.005382 0.000000 0.003620 0.000000
# 3 -0.002136 -0.005382 0.011092 0.000000 0.005143 0.000000
# 4 0.000000 0.000000 0.000000 0.026155 0.000000 0.002385
# 5 0.007469 0.003620 0.005143 0.000000 0.098307 0.000000
# 6 0.000000 0.000000 0.000000 0.002385 0.000000 0.029146
#
#
# Mechanical properties :
#
#
# Convention : Reuss Voigt Hill
#
# Bulk Modulus (GPa) = 52.07118 70.77893 61.42506
# Shear Modulus (GPa) = 22.02199 29.92468 25.97333
#
# Velocity S-wave (km/s) = 3.34737 3.90203 3.63529
# Velocity P-wave (km/s) = 6.43692 7.50425 6.99098
#
# Compressibility (1/GPa) = 0.01920448
#
# Stress axis : x y z
#
# Youngs Moduli (GPa) = 100.42541 45.30768 90.15506
#
# Poissons Ratio (x) = 0.20120 0.19258
# Poissons Ratio (y) = 0.44596 0.48517
# Poissons Ratio (z) = 0.21451 0.24382
#
# Static dielectric constant tensor:
#      x y z
#    x 3.938790 0.000000 0.061250 
#    y 0.000000 1.617710 0.000000 
#    z 0.061250 0.000000 3.477370 
# 
# 
# High freq. dielectric constant tensor:
#      x y z
#    x 1.787110 0.000000 0.000850 
#    y 0.000000 1.767240 0.000000 
#    z 0.000850 0.000000 1.761360 
# 
# From -- ./inp_files/338735.got.cif
#   From: 2010.06.25/outbox.cif.g09.slc.cpg/sg12_170_cif.got.tgz:338735.got - 2010.06.28 00:19:55.
