data_PCOD8100652
_publ_section_title
;
Structure prediction by ZEFSAII (Michael W. Deem and Ramdas Pophale) SiO2 
 PCOD8100652
Probable space group: C 2/M
;
_chemical_formula_sum "Si O2"
_cell_formula_units_Z 48
_cell_length_a 27.873379
_cell_length_b 8.581748
_cell_length_c 17.174001
_cell_angle_alpha 90.000000
_cell_angle_beta 143.788808
_cell_angle_gamma 90.000000
_cell_volume 2426.891489
_symmetry_space_group_name_H-M "C 2/M"
_symmetry_group_IT_number 12
_symmetry_cell_setting 'monoclinic'
loop_
_space_group_symop_operation_xyz
x,y,z
-x,y,-z
-x,-y,-z
x,-y,z
1/2+x,1/2+y,z
1/2-x,1/2+y,-z
1/2-x,1/2-y,-z
1/2+x,1/2-y,z
loop_
_atom_site_type_symbol
_atom_site_label
_atom_site_fract_x
_atom_site_fract_y
_atom_site_fract_z
Si Si1 0.059521 0.178357 0.006806
Si Si2 0.768506 0.681722 0.744283
Si Si3 0.872141 0.180012 0.150397
Si Si4 0.725936 0.180374 0.846170
Si Si5 0.306079 0.815956 0.505713
Si Si6 0.491985 0.179738 0.766030
O O1 0.148993 0.220751 0.152092
O O2 0.058273 0.000000 0.975782
O O3 0.000000 0.205568 0.000000
O O4 0.032093 0.289291 0.901656
O O5 0.788418 0.500000 0.764604
O O6 0.720449 0.718319 0.760823
O O7 0.712979 0.732972 0.600130
O O8 0.849765 0.277757 0.197836
O O9 0.962640 0.223037 0.241879
O O10 0.866239 0.000000 0.164841
O O11 0.810238 0.222208 0.999621
O O12 0.721830 0.000000 0.818099
O O13 0.250000 0.750000 0.500000
O O14 0.398311 0.771495 0.647079
O O15 0.292947 0.000000 0.481169
O O16 0.502604 0.000000 0.758801
#
# Coordination Sequence:
#
# PCOD8100652 Si02
#       6
#     8   8   8   8   8   8
#     4  11  23  38  59  87 119 155 199 253 305 357
#     4  12  24  39  62  90 122 160 204 251 302 360
#     4  10  20  35  60  91 124 160 198 245 303 361
#     4  10  20  36  60  90 125 160 198 247 303 358
#     4  11  25  44  64  88 122 164 207 251 306 364
#     4  11  23  39  61  89 121 158 201 250 303 361
#
# _framework density 19.778388
#
# number of rings (size 3 to 8) (size 9 to 14) (size 15 to 20)
#    0.000    1.167    1.667    5.000    0.000    8.000 
#    0.000    0.833    0.000    5.000    0.000    0.000 
#    0.000    0.000    0.000    0.000    0.000    0.000 
#
# Total GULP energy -297774.250385 kJ/mol
# GULP energy per Si atom -12407.260433 kJ/mol
# Density = 1.973337 g / cm^3
# Si number density = 19.778388 Si / 1000 Ang^3
#
#
#
# Elastic Constant Matrix: (Units=GPa)
#
#
# Indices 1 2 3 4 5 6 
#
# 1 119.9710 48.0091 35.0595 0.0000 7.7496 0.0000
# 2 48.0091 50.1157 12.6755 0.0000 0.0986 0.0000
# 3 35.0595 12.6755 59.0729 0.0000 3.9725 0.0000
# 4 0.0000 0.0000 0.0000 29.7090 0.0000 -1.3568
# 5 7.7496 0.0986 3.9725 0.0000 33.9434 0.0000
# 6 0.0000 0.0000 0.0000 -1.3568 0.0000 38.8485
#
#
#
# Elastic Compliance Matrix: (Units=1/GPa)
#
#
# Indices 1 2 3 4 5 6 
#
# 1 0.015749 -0.013498 -0.006261 0.000000 -0.002824 0.000000
# 2 -0.013498 0.032675 0.000805 0.000000 0.002893 0.000000
# 3 -0.006261 0.000805 0.020537 0.000000 -0.000976 0.000000
# 4 0.000000 0.000000 0.000000 0.033714 0.000000 0.001177
# 5 -0.002824 0.002893 -0.000976 0.000000 0.030211 0.000000
# 6 0.000000 0.000000 0.000000 0.001177 0.000000 0.025782
#
#
# Mechanical properties :
#
#
# Convention : Reuss Voigt Hill
#
# Bulk Modulus (GPa) = 32.20205 46.73865 39.47035
# Shear Modulus (GPa) = 24.16333 29.39455 26.77894
#
# Velocity S-wave (km/s) = 3.49908 3.85930 3.68360
# Velocity P-wave (km/s) = 5.71328 6.59859 6.17183
#
# Compressibility (1/GPa) = 0.03105392
#
# Stress axis : x y z
#
# Youngs Moduli (GPa) = 63.49725 30.60464 48.69305
#
# Poissons Ratio (x) = 0.41309 0.30485
# Poissons Ratio (y) = 0.85707 -0.03920
# Poissons Ratio (z) = 0.39753 -0.02464
#
# Static dielectric constant tensor:
#      x y z
#    x 3.722480 0.000000 0.040490 
#    y 0.000000 3.662980 0.000000 
#    z 0.040490 0.000000 3.480890 
# 
# 
# High freq. dielectric constant tensor:
#      x y z
#    x 1.788800 0.000000 0.002290 
#    y 0.000000 1.784590 0.000000 
#    z 0.002290 0.000000 1.751000 
# 
# From -- ./inp_files/295889.got.cif
#   From: 2010.06.25/outbox.cif.g09.slc.cpg/sg12_148_cif.got.tgz:295889.got - 2010.06.28 00:19:55.
