data_PCOD8100032
_publ_section_title
;
Structure prediction by ZEFSAII (Michael W. Deem and Ramdas Pophale) SiO2 
 PCOD8100032
Probable space group: C 2/M
;
_chemical_formula_sum "Si O2"
_cell_formula_units_Z 60
_cell_length_a 22.399623
_cell_length_b 17.382901
_cell_length_c 11.810074
_cell_angle_alpha 90.000000
_cell_angle_beta 137.742230
_cell_angle_gamma 90.000000
_cell_volume 3092.336028
_symmetry_space_group_name_H-M "C 2/M"
_symmetry_group_IT_number 12
_symmetry_cell_setting 'monoclinic'
loop_
_space_group_symop_operation_xyz
x,y,z
-x,y,-z
-x,-y,-z
x,-y,z
1/2+x,1/2+y,z
1/2-x,1/2+y,-z
1/2-x,1/2-y,-z
1/2+x,1/2-y,z
loop_
_atom_site_type_symbol
_atom_site_label
_atom_site_fract_x
_atom_site_fract_y
_atom_site_fract_z
Si Si1 0.488923 0.196687 0.179368
Si Si2 0.355733 0.090474 0.878794
Si Si3 0.840025 0.086042 0.699954
Si Si4 0.000000 0.185310 0.000000
Si Si5 0.444627 0.298131 0.307569
Si Si6 0.687369 0.174635 0.416852
Si Si7 0.429717 0.582193 0.597718
Si Si8 0.184889 0.085341 0.782848
O O1 0.475594 0.264625 0.072719
O O2 0.438348 0.218542 0.227021
O O3 0.594270 0.188321 0.349628
O O4 0.446802 0.119361 0.065817
O O5 0.333887 0.140529 0.737222
O O6 0.280457 0.105386 0.866852
O O7 0.364059 0.000000 0.859362
O O8 0.912883 0.134045 0.867605
O O9 0.739551 0.116031 0.572978
O O10 0.854148 0.094900 0.584788
O O11 0.846406 0.000000 0.754965
O O12 0.500000 0.282858 0.500000
O O13 0.498381 0.351599 0.295398
O O14 0.349936 0.342243 0.190684
O O15 0.750000 0.250000 0.500000
O O16 0.477298 0.500000 0.688100
O O17 0.386779 0.579181 0.415561
O O18 0.187326 0.000000 0.846665
#
# Coordination Sequence:
#
# PCOD8100032 Si02
#       8
#     8   8   8   4   8   8   8   8
#     4  12  24  39  60  90 123 164 198 252 315 361
#     4  11  23  40  62  92 125 160 207 258 307 362
#     4  11  21  34  57  86 120 161 198 239 301 374
#     4  12  21  40  53  88 126 158 190 248 315 366
#     4  10  20  35  57  85 118 152 207 247 303 364
#     4  12  21  37  61  86 123 160 202 250 304 364
#     4   9  15  28  52  82 115 148 188 239 292 352
#     4   9  18  33  57  86 116 154 198 252 300 350
#
# _framework density 19.402806999999999
#
# number of rings (size 3 to 8) (size 9 to 14) (size 15 to 20)
#    0.000    1.333    5.333    1.000    1.867    3.733 
#    0.000    0.000    0.000    0.400    0.000    0.000 
#    0.000    0.000    0.000    0.000    0.000    0.000 
#
# Total GULP energy -371699.531137 kJ/mol
# GULP energy per Si atom -12389.984371 kJ/mol
# Density = 1.935865 g / cm^3
# Si number density = 19.402807 Si / 1000 Ang^3
#
#
#
# Elastic Constant Matrix: (Units=GPa)
#
#
# Indices 1 2 3 4 5 6 
#
# 1 76.1459 38.2017 29.7299 0.0000 9.5580 0.0000
# 2 38.2017 94.5230 39.8522 0.0000 0.8633 0.0000
# 3 29.7299 39.8522 77.0092 0.0000 11.9843 0.0000
# 4 0.0000 0.0000 0.0000 44.1433 0.0000 -7.1217
# 5 9.5580 0.8633 11.9843 0.0000 28.0567 0.0000
# 6 0.0000 0.0000 0.0000 -7.1217 0.0000 32.7216
#
#
#
# Elastic Compliance Matrix: (Units=1/GPa)
#
#
# Indices 1 2 3 4 5 6 
#
# 1 0.017874 -0.005848 -0.003165 0.000000 -0.004557 0.000000
# 2 -0.005848 0.015647 -0.006508 0.000000 0.004290 0.000000
# 3 -0.003165 -0.006508 0.018613 0.000000 -0.006672 0.000000
# 4 0.000000 0.000000 0.000000 0.023478 0.000000 0.005110
# 5 -0.004557 0.004290 -0.006672 0.000000 0.039913 0.000000
# 6 0.000000 0.000000 0.000000 0.005110 0.000000 0.031673
#
#
# Mechanical properties :
#
#
# Convention : Reuss Voigt Hill
#
# Bulk Modulus (GPa) = 47.40666 51.47174 49.43920
# Shear Modulus (GPa) = 26.98754 30.31061 28.64907
#
# Velocity S-wave (km/s) = 3.73354 3.95673 3.84675
# Velocity P-wave (km/s) = 6.56290 6.88911 6.72798
#
# Compressibility (1/GPa) = 0.02109408
#
# Stress axis : x y z
#
# Youngs Moduli (GPa) = 55.94627 63.90852 53.72500
#
# Poissons Ratio (x) = 0.37373 0.17004
# Poissons Ratio (y) = 0.32717 0.34962
# Poissons Ratio (z) = 0.17707 0.41589
#
# Static dielectric constant tensor:
#      x y z
#    x 3.486280 0.000000 0.063020 
#    y 0.000000 3.952380 0.000000 
#    z 0.063020 0.000000 3.345760 
# 
# 
# High freq. dielectric constant tensor:
#      x y z
#    x 1.738280 0.000000 0.014740 
#    y 0.000000 1.760700 0.000000 
#    z 0.014740 0.000000 1.736820 
# 
# From -- ./inp_files/177386.got.cif
#   From: 2010.06.25/outbox.cif.g09.slc.cpg/sg12_89_cif.got.tgz:177386.got - 2010.06.28 00:19:55.
