data_PCOD8100094
_publ_section_title
;
Structure prediction by ZEFSAII (Michael W. Deem and Ramdas Pophale) SiO2 
 PCOD8100094
Probable space group: C 2/M
;
_chemical_formula_sum "Si O2"
_cell_formula_units_Z 48
_cell_length_a 9.827981
_cell_length_b 28.710416
_cell_length_c 16.930066
_cell_angle_alpha 90.000000
_cell_angle_beta 31.280354
_cell_angle_gamma 90.000000
_cell_volume 2480.384211
_symmetry_space_group_name_H-M "C 2/M"
_symmetry_group_IT_number 12
_symmetry_cell_setting 'monoclinic'
loop_
_space_group_symop_operation_xyz
x,y,z
-x,y,-z
-x,-y,-z
x,-y,z
1/2+x,1/2+y,z
1/2-x,1/2+y,-z
1/2-x,1/2-y,-z
1/2+x,1/2-y,z
loop_
_atom_site_type_symbol
_atom_site_label
_atom_site_fract_x
_atom_site_fract_y
_atom_site_fract_z
Si Si1 0.303316 0.270918 0.323610
Si Si2 0.628221 0.626693 0.670788
Si Si3 0.204396 0.446846 0.654601
Si Si4 0.071617 0.383083 0.329843
Si Si5 0.747309 0.212488 0.178689
Si Si6 0.217294 0.448425 0.825942
O O1 0.446704 0.320728 0.267316
O O2 0.474588 0.230994 0.278474
O O3 0.305559 0.259888 0.229887
O O4 0.000000 0.270769 0.500000
O O5 0.736044 0.599400 0.695141
O O6 0.399081 0.595147 0.751859
O O7 0.821586 0.635120 0.501684
O O8 0.500000 0.426159 0.500000
O O9 0.209706 0.500000 0.624526
O O10 0.100083 0.440942 0.796092
O O11 0.001333 0.422939 0.695812
O O12 0.204873 0.342092 0.214238
O O13 0.000000 0.220969 0.000000
O O14 0.356117 0.500000 0.758682
O O15 0.000000 0.447489 0.000000
#
# Coordination Sequence:
#
# PCOD8100094 Si02
#       6
#     8   8   8   8   8   8
#     4  11  22  40  62  86 120 156 196 244 290 352
#     4  10  20  38  60  84 118 154 193 239 290 348
#     4  10  20  35  57  87 117 148 196 244 281 342
#     4  10  21  37  59  86 118 152 193 241 289 344
#     4  11  24  40  60  88 120 153 196 246 296 346
#     4  10  22  39  59  86 120 154 192 242 294 344
#
# _framework density 19.351841
#
# number of rings (size 3 to 8) (size 9 to 14) (size 15 to 20)
#    0.000    1.667    5.000    1.000    0.000    6.000 
#    0.000    1.667    0.000    3.500    0.000    0.000 
#    0.000    0.000    0.000    0.000    0.000    0.000 
#
# Total GULP energy -297410.624264 kJ/mol
# GULP energy per Si atom -12392.109344 kJ/mol
# Density = 1.930780 g / cm^3
# Si number density = 19.351841 Si / 1000 Ang^3
#
#
#
# Elastic Constant Matrix: (Units=GPa)
#
#
# Indices 1 2 3 4 5 6 
#
# 1 100.5200 40.2566 30.3607 0.0000 20.3310 -0.0001
# 2 40.2566 53.1883 23.8662 0.0000 -1.0836 0.0000
# 3 30.3607 23.8662 81.3806 0.0000 25.0335 0.0000
# 4 0.0000 0.0000 0.0000 15.1568 0.0000 -2.6164
# 5 20.3310 -1.0836 25.0335 0.0000 33.5468 0.0000
# 6 -0.0001 0.0000 0.0000 -2.6164 0.0000 47.1775
#
#
#
# Elastic Compliance Matrix: (Units=1/GPa)
#
#
# Indices 1 2 3 4 5 6 
#
# 1 0.017723 -0.014252 0.001315 0.000000 -0.012183 0.000000
# 2 -0.014252 0.034480 -0.010117 0.000000 0.017301 0.000000
# 3 0.001315 -0.010117 0.019612 0.000000 -0.015759 0.000000
# 4 0.000000 0.000000 0.000000 0.066615 0.000000 0.003694
# 5 -0.012183 0.017301 -0.015759 0.000000 0.049511 0.000000
# 6 0.000000 0.000000 0.000000 0.003694 0.000000 0.021401
#
#
# Mechanical properties :
#
#
# Convention : Reuss Voigt Hill
#
# Bulk Modulus (GPa) = 38.89896 47.11732 43.00814
# Shear Modulus (GPa) = 18.93813 28.54992 23.74402
#
# Velocity S-wave (km/s) = 3.13169 3.84514 3.50661
# Velocity P-wave (km/s) = 5.76378 6.64184 6.21833
#
# Compressibility (1/GPa) = 0.02570763
#
# Stress axis : x y z
#
# Youngs Moduli (GPa) = 56.42424 29.00221 50.99035
#
# Poissons Ratio (x) = 0.41335 -0.06707
# Poissons Ratio (y) = 0.80418 0.51585
# Poissons Ratio (z) = -0.07422 0.29340
#
# Static dielectric constant tensor:
#      x y z
#    x 3.146660 0.000000 0.972480 
#    y 0.000000 3.672970 0.000010 
#    z 0.972480 0.000010 2.540670 
# 
# 
# High freq. dielectric constant tensor:
#      x y z
#    x 1.759780 0.000000 0.025550 
#    y 0.000000 1.744350 0.000000 
#    z 0.025550 0.000000 1.748750 
# 
# From -- ./inp_files/200117.got.cif
#   From: 2010.06.25/outbox.cif.g09.slc.cpg/sg12_101_cif.got.tgz:200117.got - 2010.06.28 00:19:55.
