data_PCOD8100868
_publ_section_title
;
Structure prediction by ZEFSAII (Michael W. Deem and Ramdas Pophale) SiO2 
 PCOD8100868
Probable space group: C 2/M
;
_chemical_formula_sum "Si O2"
_cell_formula_units_Z 64
_cell_length_a 29.684980
_cell_length_b 12.402220
_cell_length_c 19.050186
_cell_angle_alpha 90.000000
_cell_angle_beta 150.888588
_cell_angle_gamma 90.000000
_cell_volume 3412.138517
_symmetry_space_group_name_H-M "C 2/M"
_symmetry_group_IT_number 12
_symmetry_cell_setting 'monoclinic'
loop_
_space_group_symop_operation_xyz
x,y,z
-x,y,-z
-x,-y,-z
x,-y,z
1/2+x,1/2+y,z
1/2-x,1/2+y,-z
1/2-x,1/2-y,-z
1/2+x,1/2-y,z
loop_
_atom_site_type_symbol
_atom_site_label
_atom_site_fract_x
_atom_site_fract_y
_atom_site_fract_z
Si Si1 0.136759 0.301416 0.650241
Si Si2 0.801377 0.377824 0.692834
Si Si3 0.042307 0.378468 0.653600
Si Si4 0.560742 0.124542 0.235230
Si Si5 0.969552 0.749406 0.232237
Si Si6 0.616270 0.622890 0.512529
Si Si7 0.657935 0.376276 0.041021
Si Si8 0.068592 0.751836 0.036536
O O1 0.091643 0.295915 0.666566
O O2 0.144468 0.185648 0.622427
O O3 0.069253 0.374763 0.509720
O O4 0.236798 0.353544 0.795571
O O5 0.832647 0.500000 0.752922
O O6 0.839161 0.350861 0.665453
O O7 0.691191 0.364879 0.551327
O O8 0.841319 0.296973 0.804798
O O9 0.078010 0.500000 0.689128
O O10 0.068032 0.344592 0.767788
O O11 0.545220 0.199334 0.281889
O O12 0.552411 0.000000 0.246353
O O13 0.481199 0.152662 0.070841
O O14 0.019673 0.837677 0.348887
O O15 0.879595 0.801511 0.073247
O O16 0.605854 0.500000 0.522106
O O17 0.644701 0.500000 0.001599
O O18 0.595367 0.350562 0.023227
O O19 0.000000 0.803659 0.000000
#
# Coordination Sequence:
#
# PCOD8100868 Si02
#       8
#     8   8   8   8   8   8   8   8
#     4  10  20  37  59  83 102 133 180 226 266 314
#     4   9  16  29  52  77 103 138 178 221 265 306
#     4  10  20  38  61  82 106 136 175 226 273 308
#     4   9  17  30  50  77 107 140 178 220 265 309
#     4  10  22  35  51  78 112 147 174 211 262 324
#     4  10  20  36  55  78 108 142 178 218 264 315
#     4  11  21  35  54  77 108 144 178 215 264 321
#     4   9  17  30  49  77 107 138 176 223 263 309
#
# _framework density 18.756564000000001
#
# number of rings (size 3 to 8) (size 9 to 14) (size 15 to 20)
#    0.000    2.250    1.250    2.625    0.000    2.750 
#    0.000    6.250    0.000    0.000    0.000    0.000 
#    0.000    0.000    0.000    0.000    0.000    0.000 
#
# Total GULP energy -396628.631778 kJ/mol
# GULP energy per Si atom -12394.644743 kJ/mol
# Density = 1.871387 g / cm^3
# Si number density = 18.756564 Si / 1000 Ang^3
#
#
#
# Elastic Constant Matrix: (Units=GPa)
#
#
# Indices 1 2 3 4 5 6 
#
# 1 105.7572 46.5907 33.4869 0.0000 -9.4166 0.0000
# 2 46.5907 99.1165 29.5966 0.0000 -4.8632 0.0000
# 3 33.4869 29.5966 68.5732 0.0000 -1.3138 0.0000
# 4 0.0000 0.0000 0.0000 19.9780 0.0000 -1.0925
# 5 -9.4166 -4.8632 -1.3138 0.0000 28.4481 0.0000
# 6 0.0000 0.0000 0.0000 -1.0925 0.0000 23.7720
#
#
#
# Elastic Compliance Matrix: (Units=1/GPa)
#
#
# Indices 1 2 3 4 5 6 
#
# 1 0.013225 -0.004755 -0.004341 0.000000 0.003364 0.000000
# 2 -0.004755 0.013379 -0.003442 0.000000 0.000554 0.000000
# 3 -0.004341 -0.003442 0.018166 0.000000 -0.001186 0.000000
# 4 0.000000 0.000000 0.000000 0.050181 0.000000 0.002306
# 5 0.003364 0.000554 -0.001186 0.000000 0.036305 0.000000
# 6 0.000000 0.000000 0.000000 0.002306 0.000000 0.042172
#
#
# Mechanical properties :
#
#
# Convention : Reuss Voigt Hill
#
# Bulk Modulus (GPa) = 50.77893 54.75503 52.76698
# Shear Modulus (GPa) = 24.38203 25.35780 24.86992
#
# Velocity S-wave (km/s) = 3.60935 3.68087 3.64528
# Velocity P-wave (km/s) = 6.67093 6.87902 6.77577
#
# Compressibility (1/GPa) = 0.01969321
#
# Stress axis : x y z
#
# Youngs Moduli (GPa) = 75.61685 74.74280 55.04845
#
# Poissons Ratio (x) = 0.35540 0.23898
# Poissons Ratio (y) = 0.35955 0.18947
# Poissons Ratio (z) = 0.32828 0.25726
#
# Static dielectric constant tensor:
#      x y z
#    x 3.626500 0.000000 0.030260 
#    y 0.000000 3.304140 0.000000 
#    z 0.030260 0.000000 3.280860 
# 
# 
# High freq. dielectric constant tensor:
#      x y z
#    x 1.734190 0.000000 0.001550 
#    y 0.000000 1.716920 0.000000 
#    z 0.001550 0.000000 1.712860 
# 
# From -- ./inp_files/296521.got.cif
#   From: 2010.06.25/outbox.cif.g09.slc.cpg/sg12_149_cif.got.tgz:296521.got - 2010.06.28 00:19:55.
