data_PCOD8100581
_publ_section_title
;
Structure prediction by ZEFSAII (Michael W. Deem and Ramdas Pophale) SiO2 
 PCOD8100581
Probable space group: C 2/M
;
_chemical_formula_sum "Si O2"
_cell_formula_units_Z 64
_cell_length_a 18.570423
_cell_length_b 18.265296
_cell_length_c 14.448822
_cell_angle_alpha 90.000000
_cell_angle_beta 40.849237
_cell_angle_gamma 90.000000
_cell_volume 3205.573721
_symmetry_space_group_name_H-M "C 2/M"
_symmetry_group_IT_number 12
_symmetry_cell_setting 'monoclinic'
loop_
_space_group_symop_operation_xyz
x,y,z
-x,y,-z
-x,-y,-z
x,-y,z
1/2+x,1/2+y,z
1/2-x,1/2+y,-z
1/2-x,1/2-y,-z
1/2+x,1/2-y,z
loop_
_atom_site_type_symbol
_atom_site_label
_atom_site_fract_x
_atom_site_fract_y
_atom_site_fract_z
Si Si1 0.704209 0.329573 0.573369
Si Si2 0.003428 0.916957 0.265621
Si Si3 0.113052 0.083106 0.345505
Si Si4 0.697700 0.415464 0.948711
Si Si5 0.114037 0.583504 0.702893
Si Si6 0.869125 0.583302 0.930049
Si Si7 0.627127 0.321956 0.858573
Si Si8 0.170905 0.655468 0.835976
O O1 0.750000 0.250000 0.500000
O O2 0.593940 0.357212 0.626857
O O3 0.801047 0.385454 0.454721
O O4 0.670340 0.333061 0.712897
O O5 0.098795 0.907594 0.249723
O O6 0.954123 0.000000 0.318718
O O7 0.071468 0.905161 0.105477
O O8 0.200195 0.139339 0.303297
O O9 0.000000 0.106569 0.500000
O O10 0.146315 0.000000 0.339869
O O11 0.725857 0.500000 0.902816
O O12 0.786959 0.381220 0.934117
O O13 0.705736 0.372819 0.844449
O O14 0.145035 0.500000 0.694559
O O15 0.109030 0.626525 0.805136
O O16 0.994094 0.590177 0.772198
O O17 0.831488 0.500000 0.981038
O O18 0.866132 0.618013 0.033926
O O19 0.645924 0.239820 0.872620
O O20 0.500000 0.343120 0.000000
#
# Coordination Sequence:
#
# PCOD8100581 Si02
#       8
#     8   8   8   8   8   8   8   8
#     4  12  25  44  63  91 134 169 206 270 322 380
#     4  10  20  39  67  93 123 165 215 270 319 369
#     4  10  20  35  59  94 132 165 206 260 320 381
#     4  10  22  43  68  94 121 163 224 278 314 364
#     4  11  23  40  66  96 126 170 213 258 324 392
#     4  10  21  40  65  95 130 167 213 262 314 382
#     4  12  26  44  64  92 127 169 218 264 323 383
#     4  12  22  38  62  96 134 171 208 259 319 394
#
# _framework density 19.965225
#
# number of rings (size 3 to 8) (size 9 to 14) (size 15 to 20)
#    0.000    1.125    3.750    3.375    0.000    3.750 
#    2.250    0.625    0.000    2.250    0.000    0.000 
#    0.000    0.000    0.000    0.000    0.000    0.000 
#
# Total GULP energy -396708.484773 kJ/mol
# GULP energy per Si atom -12397.140149 kJ/mol
# Density = 1.991978 g / cm^3
# Si number density = 19.965225 Si / 1000 Ang^3
#
#
#
# Elastic Constant Matrix: (Units=GPa)
#
#
# Indices 1 2 3 4 5 6 
#
# 1 106.2404 47.4392 55.2854 0.0000 -3.0560 0.0000
# 2 47.4392 81.1283 28.2379 0.0000 -2.9210 0.0000
# 3 55.2854 28.2379 94.4093 0.0000 5.5323 0.0000
# 4 0.0000 0.0000 0.0000 34.9225 0.0000 1.1234
# 5 -3.0560 -2.9210 5.5323 0.0000 37.1147 0.0000
# 6 0.0000 0.0000 0.0000 1.1234 0.0000 29.1418
#
#
#
# Elastic Compliance Matrix: (Units=1/GPa)
#
#
# Indices 1 2 3 4 5 6 
#
# 1 0.016609 -0.006937 -0.007767 0.000000 0.001979 0.000000
# 2 -0.006937 0.016765 -0.001004 0.000000 0.000898 0.000000
# 3 -0.007767 -0.001004 0.015620 0.000000 -0.003047 0.000000
# 4 0.000000 0.000000 0.000000 0.028670 0.000000 -0.001105
# 5 0.001979 0.000898 -0.003047 0.000000 0.027631 0.000000
# 6 0.000000 0.000000 0.000000 -0.001105 0.000000 0.034358
#
#
# Mechanical properties :
#
#
# Convention : Reuss Voigt Hill
#
# Bulk Modulus (GPa) = 56.89797 60.41146 58.65472
# Shear Modulus (GPa) = 28.25987 30.29017 29.27502
#
# Velocity S-wave (km/s) = 3.76633 3.89928 3.83338
# Velocity P-wave (km/s) = 6.89015 7.11313 7.00252
#
# Compressibility (1/GPa) = 0.01757532
#
# Stress axis : x y z
#
# Youngs Moduli (GPa) = 60.20766 59.64923 64.02213
#
# Poissons Ratio (x) = 0.41381 0.49728
# Poissons Ratio (y) = 0.41768 0.06431
# Poissons Ratio (z) = 0.46765 0.05992
#
# Static dielectric constant tensor:
#      x y z
#    x 3.884720 0.000000 -0.094370 
#    y 0.000000 3.629430 0.000000 
#    z -0.094370 0.000000 3.741760 
# 
# 
# High freq. dielectric constant tensor:
#      x y z
#    x 1.780770 0.000000 -0.005990 
#    y 0.000000 1.765950 0.000000 
#    z -0.005990 0.000000 1.786310 
# 
# From -- ./inp_files/226821.got.cif
#   From: 2010.06.25/outbox.cif.g09.slc.cpg/sg12_114_cif.got.tgz:226821.got - 2010.06.28 00:19:55.
