data_PCOD8100378
_publ_section_title
;
Structure prediction by ZEFSAII (Michael W. Deem and Ramdas Pophale) SiO2 
 PCOD8100378
Probable space group: C 2/M
;
_chemical_formula_sum "Si O2"
_cell_formula_units_Z 52
_cell_length_a 15.525174
_cell_length_b 28.532221
_cell_length_c 10.358873
_cell_angle_alpha 90.000000
_cell_angle_beta 35.402841
_cell_angle_gamma 90.000000
_cell_volume 2658.301754
_symmetry_space_group_name_H-M "C 2/M"
_symmetry_group_IT_number 12
_symmetry_cell_setting 'monoclinic'
loop_
_space_group_symop_operation_xyz
x,y,z
-x,y,-z
-x,-y,-z
x,-y,z
1/2+x,1/2+y,z
1/2-x,1/2+y,-z
1/2-x,1/2-y,-z
1/2+x,1/2-y,z
loop_
_atom_site_type_symbol
_atom_site_label
_atom_site_fract_x
_atom_site_fract_y
_atom_site_fract_z
Si Si1 0.865534 0.000000 0.977589
Si Si2 0.500000 0.864048 0.000000
Si Si3 0.157580 0.271947 0.266462
Si Si4 0.201875 0.000000 0.656430
Si Si5 0.606252 0.400679 0.142183
Si Si6 0.831477 0.847082 0.184577
Si Si7 0.724591 0.822084 0.920088
Si Si8 0.739389 0.403373 0.486994
O O1 0.842327 0.044968 0.912569
O O2 0.027953 0.000000 0.840759
O O3 0.762403 0.000000 0.232754
O O4 0.420661 0.832936 0.987477
O O5 0.367877 0.894672 0.224982
O O6 0.271934 0.296461 0.222086
O O7 0.169180 0.215927 0.279294
O O8 0.000000 0.290552 0.500000
O O9 0.174594 0.290978 0.101662
O O10 0.272219 0.954541 0.503782
O O11 0.682584 0.369396 0.160772
O O12 0.426374 0.397602 0.371988
O O13 0.676072 0.384787 0.921060
O O14 0.746348 0.866622 0.413493
O O15 0.000000 0.836240 0.000000
#
# Coordination Sequence:
#
# PCOD8100378 Si02
#       8
#     4   4   8   4   8   8   8   8
#     4   9  14  30  64  97 112 136 189 256 287 328
#     4  12  26  39  54  76 122 168 188 223 286 358
#     4  10  21  39  62  82 112 151 191 251 288 333
#     4   9  16  31  60  94 120 140 191 236 294 334
#     4   9  18  35  62  89 115 143 194 247 290 325
#     4   9  17  33  59  91 116 142 189 245 292 333
#     4  10  24  41  56  85 116 154 199 234 288 345
#     4  10  20  35  58  89 120 156 186 235 284 349
#
# _framework density 19.561361000000002
#
# number of rings (size 3 to 8) (size 9 to 14) (size 15 to 20)
#    0.000    2.308    1.538    0.923    3.231    0.308 
#    0.000    3.077    0.000    3.692    0.000    0.000 
#    0.000    0.000    0.000    0.000    0.000    0.000 
#
# Total GULP energy -322150.280966 kJ/mol
# GULP energy per Si atom -12390.395422 kJ/mol
# Density = 1.951684 g / cm^3
# Si number density = 19.561361 Si / 1000 Ang^3
#
#
#
# Elastic Constant Matrix: (Units=GPa)
#
#
# Indices 1 2 3 4 5 6 
#
# 1 89.9282 67.5501 11.1538 0.0000 -4.9444 0.0000
# 2 67.5501 164.4921 41.0721 0.0000 -1.4448 0.0000
# 3 11.1538 41.0721 82.2456 0.0000 7.9719 0.0000
# 4 0.0000 0.0000 0.0000 22.2275 0.0000 -7.5981
# 5 -4.9444 -1.4448 7.9719 0.0000 12.0707 0.0000
# 6 0.0000 0.0000 0.0000 -7.5981 0.0000 20.0091
#
#
#
# Elastic Compliance Matrix: (Units=1/GPa)
#
#
# Indices 1 2 3 4 5 6 
#
# 1 0.016527 -0.006907 0.000675 0.000000 0.005497 0.000000
# 2 -0.006907 0.009960 -0.004144 0.000000 0.001100 0.000000
# 3 0.000675 -0.004144 0.015126 0.000000 -0.010209 0.000000
# 4 0.000000 0.000000 0.000000 0.051700 0.000000 0.019632
# 5 0.005497 0.001100 -0.010209 0.000000 0.091971 0.000000
# 6 0.000000 0.000000 0.000000 0.019632 0.000000 0.057432
#
#
# Mechanical properties :
#
#
# Convention : Reuss Voigt Hill
#
# Bulk Modulus (GPa) = 47.93520 64.02422 55.97971
# Shear Modulus (GPa) = 18.48966 25.32080 21.90523
#
# Velocity S-wave (km/s) = 3.07777 3.60172 3.35000
# Velocity P-wave (km/s) = 6.09823 7.07796 6.60628
#
# Compressibility (1/GPa) = 0.02086149
#
# Stress axis : x y z
#
# Youngs Moduli (GPa) = 60.50756 100.40015 66.11117
#
# Poissons Ratio (x) = 0.69348 -0.04464
# Poissons Ratio (y) = 0.41794 0.27395
# Poissons Ratio (z) = -0.04086 0.41604
#
# Static dielectric constant tensor:
#      x y z
#    x 3.413360 0.000000 0.045050 
#    y 0.000000 3.746440 0.000000 
#    z 0.045050 0.000000 3.445390 
# 
# 
# High freq. dielectric constant tensor:
#      x y z
#    x 1.743930 0.000000 0.005590 
#    y 0.000000 1.770570 0.000000 
#    z 0.005590 0.000000 1.751860 
# 
# From -- ./inp_files/160810.got.cif
#   From: 2010.06.25/outbox.cif.g09.slc.cpg/sg12_81_cif.got.tgz:160810.got - 2010.06.28 00:19:55.
