data_PCOD8100123
_publ_section_title
;
Structure prediction by ZEFSAII (Michael W. Deem and Ramdas Pophale) SiO2 
 PCOD8100123
Probable space group: C 2/M
;
_chemical_formula_sum "Si O2"
_cell_formula_units_Z 52
_cell_length_a 21.423461
_cell_length_b 11.688276
_cell_length_c 17.833240
_cell_angle_alpha 90.000000
_cell_angle_beta 144.042266
_cell_angle_gamma 90.000000
_cell_volume 2622.090858
_symmetry_space_group_name_H-M "C 2/M"
_symmetry_group_IT_number 12
_symmetry_cell_setting 'monoclinic'
loop_
_space_group_symop_operation_xyz
x,y,z
-x,y,-z
-x,-y,-z
x,-y,z
1/2+x,1/2+y,z
1/2-x,1/2+y,-z
1/2-x,1/2-y,-z
1/2+x,1/2-y,z
loop_
_atom_site_type_symbol
_atom_site_label
_atom_site_fract_x
_atom_site_fract_y
_atom_site_fract_z
Si Si1 0.416780 0.365574 0.985492
Si Si2 0.234160 0.763082 0.737712
Si Si3 0.964392 0.623079 0.629491
Si Si4 0.531562 0.758226 0.227777
Si Si5 0.524706 0.000000 0.148630
Si Si6 0.161331 0.500000 0.134596
Si Si7 0.727690 0.629911 0.373527
Si Si8 0.500000 0.199721 0.500000
O O1 0.418908 0.500000 0.000807
O O2 0.296273 0.325565 0.852388
O O3 0.500000 0.329842 0.000000
O O4 0.447710 0.302611 0.092342
O O5 0.265658 0.889985 0.788562
O O6 0.268427 0.721540 0.689359
O O7 0.106748 0.769033 0.622321
O O8 0.010519 0.500000 0.699692
O O9 0.014668 0.722472 0.731660
O O10 0.838312 0.628176 0.524942
O O11 0.980360 0.627253 0.555796
O O12 0.558485 0.886471 0.226146
O O13 0.634367 0.676543 0.335936
O O14 0.581679 0.000000 0.125204
O O15 0.399346 0.000000 0.004655
O O16 0.700088 0.500000 0.318087
#
# Coordination Sequence:
#
# PCOD8100123 Si02
#       8
#     8   8   8   8   4   4   8   4
#     4  11  21  35  61  95 129 160 192 243 307 364
#     4  11  21  38  63  89 121 160 210 245 295 357
#     4  10  22  39  61  85 118 162 210 254 297 353
#     4  12  20  35  58  93 126 154 192 251 310 361
#     4  11  20  32  58  95 126 154 190 236 312 375
#     4  11  20  35  60  92 126 163 191 240 299 378
#     4  10  20  35  57  89 125 160 197 247 304 361
#     4  10  25  45  64  82 114 166 214 256 288 358
#
# _framework density 19.831502
#
# number of rings (size 3 to 8) (size 9 to 14) (size 15 to 20)
#    0.000    1.231    5.385    1.615    0.000    2.154 
#    0.000    0.769   10.154    0.000    0.000    0.000 
#    0.000    0.000    0.000    0.000    0.000    0.000 
#
# Total GULP energy -322117.221984 kJ/mol
# GULP energy per Si atom -12389.123922 kJ/mol
# Density = 1.978636 g / cm^3
# Si number density = 19.831502 Si / 1000 Ang^3
#
#
#
# Elastic Constant Matrix: (Units=GPa)
#
#
# Indices 1 2 3 4 5 6 
#
# 1 68.4518 22.4941 46.2314 0.0000 -7.5918 0.0000
# 2 22.4941 111.7589 46.8633 0.0000 1.9716 0.0000
# 3 46.2314 46.8633 103.6036 0.0000 -0.5106 0.0000
# 4 0.0000 0.0000 0.0000 35.7000 0.0000 -8.8757
# 5 -7.5918 1.9716 -0.5106 0.0000 35.8364 0.0000
# 6 0.0000 0.0000 0.0000 -8.8757 0.0000 8.7881
#
#
#
# Elastic Compliance Matrix: (Units=1/GPa)
#
#
# Indices 1 2 3 4 5 6 
#
# 1 0.021616 -0.000486 -0.009404 0.000000 0.004472 0.000000
# 2 -0.000486 0.011070 -0.004794 0.000000 -0.000780 0.000000
# 3 -0.009404 -0.004794 0.016009 0.000000 -0.001500 0.000000
# 4 0.000000 0.000000 0.000000 0.037403 0.000000 0.037776
# 5 0.004472 -0.000780 -0.001500 0.000000 0.028873 0.000000
# 6 0.000000 0.000000 0.000000 0.037776 0.000000 0.151944
#
#
# Mechanical properties :
#
#
# Convention : Reuss Voigt Hill
#
# Bulk Modulus (GPa) = 51.74136 57.22132 54.48134
# Shear Modulus (GPa) = 16.51661 27.27993 21.89827
#
# Velocity S-wave (km/s) = 2.88904 3.71291 3.32658
# Velocity P-wave (km/s) = 6.10540 6.87731 6.50282
#
# Compressibility (1/GPa) = 0.01932690
#
# Stress axis : x y z
#
# Youngs Moduli (GPa) = 46.26275 90.33634 62.46301
#
# Poissons Ratio (x) = 0.04394 0.58738
# Poissons Ratio (y) = 0.02250 0.29945
# Poissons Ratio (z) = 0.43504 0.43307
#
# Static dielectric constant tensor:
#      x y z
#    x 3.436730 0.000000 -0.023320 
#    y 0.000000 3.684210 0.000000 
#    z -0.023320 0.000000 3.912000 
# 
# 
# High freq. dielectric constant tensor:
#      x y z
#    x 1.732360 0.000000 -0.012880 
#    y 0.000000 1.778200 0.000000 
#    z -0.012880 0.000000 1.786380 
# 
# From -- ./inp_files/283396.got.cif
#   From: 2010.06.25/outbox.cif.g09.slc.cpg/sg12_142_cif.got.tgz:283396.got - 2010.06.28 00:19:55.
