data_PCOD8100621
_publ_section_title
;
Structure prediction by ZEFSAII (Michael W. Deem and Ramdas Pophale) SiO2 
 PCOD8100621
Probable space group: C 2/M
;
_chemical_formula_sum "Si O2"
_cell_formula_units_Z 64
_cell_length_a 20.198405
_cell_length_b 8.975185
_cell_length_c 21.338696
_cell_angle_alpha 90.000000
_cell_angle_beta 118.747940
_cell_angle_gamma 90.000000
_cell_volume 3391.573147
_symmetry_space_group_name_H-M "C 2/M"
_symmetry_group_IT_number 12
_symmetry_cell_setting 'monoclinic'
loop_
_space_group_symop_operation_xyz
x,y,z
-x,y,-z
-x,-y,-z
x,-y,z
1/2+x,1/2+y,z
1/2-x,1/2+y,-z
1/2-x,1/2-y,-z
1/2+x,1/2-y,z
loop_
_atom_site_type_symbol
_atom_site_label
_atom_site_fract_x
_atom_site_fract_y
_atom_site_fract_z
Si Si1 0.593838 0.168511 0.289705
Si Si2 0.474372 0.325790 0.558817
Si Si3 0.339198 0.673504 0.154867
Si Si4 0.665454 0.826782 0.082395
Si Si5 0.095645 0.826135 0.165142
Si Si6 0.329382 0.827282 0.546143
Si Si7 0.077391 0.825052 0.931638
Si Si8 0.443827 0.174355 0.294271
O O1 0.617039 0.280229 0.245323
O O2 0.652586 0.190660 0.372459
O O3 0.510499 0.208630 0.275783
O O4 0.596156 0.000000 0.265147
O O5 0.500000 0.294934 0.500000
O O6 0.466406 0.500000 0.569748
O O7 0.393489 0.249270 0.533060
O O8 0.538856 0.256881 0.632732
O O9 0.355930 0.500000 0.174101
O O10 0.251616 0.706211 0.103857
O O11 0.381741 0.732665 0.112453
O O12 0.367293 0.762937 0.228777
O O13 0.650792 0.759623 0.143831
O O14 0.647499 0.000000 0.075911
O O15 0.611351 0.753171 0.007301
O O16 0.009858 0.780663 0.111481
O O17 0.109196 0.000000 0.163134
O O18 0.250000 0.750000 0.500000
O O19 0.325633 0.000000 0.525061
O O20 0.089347 0.000000 0.945261
O O21 0.435966 0.000000 0.304958
#
# Coordination Sequence:
#
# PCOD8100621 Si02
#       8
#     8   8   8   8   8   8   8   8
#     4   9  19  36  58  85 114 146 188 234 280 334
#     4  10  21  38  61  88 119 157 195 235 287 342
#     4  10  21  39  59  82 113 150 190 233 284 340
#     4  11  24  38  55  82 116 151 185 233 290 339
#     4  11  22  37  59  83 111 148 189 234 284 336
#     4  10  21  38  61  90 121 154 194 240 288 342
#     4  10  21  38  60  83 108 144 192 237 280 339
#     4  10  20  35  60  89 115 148 190 239 285 335
#
# _framework density 18.870298999999999
#
# number of rings (size 3 to 8) (size 9 to 14) (size 15 to 20)
#    0.000    1.875    1.250    3.375    0.000    7.500 
#    2.250    0.000    0.000    0.000    0.000    0.000 
#    0.000    0.000    0.000    0.000    0.000    0.000 
#
# Total GULP energy -396956.209868 kJ/mol
# GULP energy per Si atom -12404.881558 kJ/mol
# Density = 1.882735 g / cm^3
# Si number density = 18.870299 Si / 1000 Ang^3
#
#
#
# Elastic Constant Matrix: (Units=GPa)
#
#
# Indices 1 2 3 4 5 6 
#
# 1 61.7057 36.8956 25.6656 0.0000 -9.2814 0.0000
# 2 36.8956 76.9568 41.8291 0.0000 -5.5990 0.0000
# 3 25.6656 41.8291 89.2334 0.0000 -9.4569 0.0000
# 4 0.0000 0.0000 0.0000 37.0430 0.0000 -1.5561
# 5 -9.2814 -5.5990 -9.4569 0.0000 26.9627 0.0000
# 6 0.0000 0.0000 0.0000 -1.5561 0.0000 31.2424
#
#
#
# Elastic Compliance Matrix: (Units=1/GPa)
#
#
# Indices 1 2 3 4 5 6 
#
# 1 0.023736 -0.010179 -0.001468 0.000000 0.005542 0.000000
# 2 -0.010179 0.021818 -0.007469 0.000000 -0.001593 0.000000
# 3 -0.001468 -0.007469 0.015488 0.000000 0.003376 0.000000
# 4 0.000000 0.000000 0.000000 0.027052 0.000000 0.001347
# 5 0.005542 -0.001593 0.003376 0.000000 0.039849 0.000000
# 6 0.000000 0.000000 0.000000 0.001347 0.000000 0.032075
#
#
# Mechanical properties :
#
#
# Convention : Reuss Voigt Hill
#
# Bulk Modulus (GPa) = 43.83909 48.51961 46.17935
# Shear Modulus (GPa) = 24.28915 27.28333 25.78624
#
# Velocity S-wave (km/s) = 3.59160 3.80654 3.70063
# Velocity P-wave (km/s) = 6.36252 6.71473 6.54100
#
# Compressibility (1/GPa) = 0.02281069
#
# Stress axis : x y z
#
# Youngs Moduli (GPa) = 42.12926 45.83401 64.56761
#
# Poissons Ratio (x) = 0.46653 0.09481
# Poissons Ratio (y) = 0.42882 0.48223
# Poissons Ratio (z) = 0.06186 0.34231
#
# Static dielectric constant tensor:
#      x y z
#    x 3.410220 0.000000 -0.022550 
#    y 0.000000 3.525960 0.000000 
#    z -0.022550 0.000000 3.467860 
# 
# 
# High freq. dielectric constant tensor:
#      x y z
#    x 1.725910 0.000000 -0.001020 
#    y 0.000000 1.742180 0.000000 
#    z -0.001020 0.000000 1.739860 
# 
# From -- ./inp_files/319762.got.cif
#   From: 2010.06.25/outbox.cif.g09.slc.cpg/sg12_160_cif.got.tgz:319762.got - 2010.06.28 00:19:55.
