data_PCOD8100271
_publ_section_title
;
Structure prediction by ZEFSAII (Michael W. Deem and Ramdas Pophale) SiO2 
 PCOD8100271
Probable space group: C 2/M
;
_chemical_formula_sum "Si O2"
_cell_formula_units_Z 48
_cell_length_a 20.359842
_cell_length_b 8.943125
_cell_length_c 26.317914
_cell_angle_alpha 90.000000
_cell_angle_beta 30.251654
_cell_angle_gamma 90.000000
_cell_volume 2414.195270
_symmetry_space_group_name_H-M "C 2/M"
_symmetry_group_IT_number 12
_symmetry_cell_setting 'monoclinic'
loop_
_space_group_symop_operation_xyz
x,y,z
-x,y,-z
-x,-y,-z
x,-y,z
1/2+x,1/2+y,z
1/2-x,1/2+y,-z
1/2-x,1/2-y,-z
1/2+x,1/2-y,z
loop_
_atom_site_type_symbol
_atom_site_label
_atom_site_fract_x
_atom_site_fract_y
_atom_site_fract_z
Si Si1 0.365062 0.329087 0.893601
Si Si2 0.624068 0.671831 0.231439
Si Si3 0.892449 0.674989 0.221332
Si Si4 0.879071 0.827439 0.545031
Si Si5 0.883508 0.322083 0.112396
Si Si6 0.875580 0.676264 0.440562
O O1 0.368633 0.500000 0.908477
O O2 0.335750 0.313476 0.853833
O O3 0.503859 0.257197 0.812924
O O4 0.250000 0.250000 0.000000
O O5 0.590816 0.500000 0.267715
O O6 0.744881 0.733331 0.183699
O O7 0.500621 0.774231 0.325042
O O8 0.923136 0.500000 0.202438
O O9 0.750518 0.712141 0.337569
O O10 0.901253 0.736060 0.157911
O O11 0.890491 0.723371 0.488726
O O12 0.000000 0.790389 0.500000
O O13 0.880497 0.000000 0.526615
O O14 0.886391 0.500000 0.108699
O O15 0.000000 0.255932 0.000000
O O16 0.860115 0.500000 0.447113
O O17 0.750000 0.750000 0.500000
#
# Coordination Sequence:
#
# PCOD8100271 Si02
#       6
#     8   8   8   8   8   8
#     4  11  23  38  59  85 115 151 190 236 287 343
#     4  10  21  39  62  86 113 150 196 240 286 342
#     4  10  20  35  58  86 115 149 189 234 284 338
#     4  10  21  39  63  89 119 156 197 241 290 349
#     4   9  17  33  59  87 113 145 188 233 277 333
#     4  12  25  40  60  86 118 155 197 246 298 352
#
# _framework density 19.882401999999999
#
# number of rings (size 3 to 8) (size 9 to 14) (size 15 to 20)
#    0.000    1.667    0.000    5.000    0.000   10.333 
#    0.000    2.500    0.000    2.000    0.000    0.000 
#    0.000    0.000    0.000    0.000    0.000    0.000 
#
# Total GULP energy -297729.784603 kJ/mol
# GULP energy per Si atom -12405.407692 kJ/mol
# Density = 1.983715 g / cm^3
# Si number density = 19.882402 Si / 1000 Ang^3
#
#
#
# Elastic Constant Matrix: (Units=GPa)
#
#
# Indices 1 2 3 4 5 6 
#
# 1 87.6171 33.3935 25.8248 0.0106 -10.6835 -0.0181
# 2 33.3935 91.7044 48.6052 0.0104 -3.2422 -0.0153
# 3 25.8248 48.6052 113.5019 0.0064 -6.5397 -0.0061
# 4 0.0106 0.0104 0.0064 31.1108 -0.0003 -0.3667
# 5 -10.6835 -3.2422 -6.5397 -0.0003 42.0185 0.0031
# 6 -0.0181 -0.0153 -0.0061 -0.3667 0.0031 28.4391
#
#
#
# Elastic Compliance Matrix: (Units=1/GPa)
#
#
# Indices 1 2 3 4 5 6 
#
# 1 0.013749 -0.004313 -0.001109 -0.000003 0.002990 0.000006
# 2 -0.004313 0.015460 -0.005685 -0.000002 -0.000788 0.000004
# 3 -0.001109 -0.005685 0.011559 0.000000 0.001078 -0.000001
# 4 -0.000003 -0.000002 0.000000 0.032148 -0.000001 0.000415
# 5 0.002990 -0.000788 0.001078 -0.000001 0.024666 -0.000001
# 6 0.000006 0.000004 -0.000001 0.000415 -0.000001 0.035168
#
#
# Mechanical properties :
#
#
# Convention : Reuss Voigt Hill
#
# Bulk Modulus (GPa) = 53.89414 56.49672 55.19543
# Shear Modulus (GPa) = 31.02721 32.64701 31.83711
#
# Velocity S-wave (km/s) = 3.95465 4.05656 4.00593
# Velocity P-wave (km/s) = 6.92948 7.10057 7.01554
#
# Compressibility (1/GPa) = 0.01855489
#
# Stress axis : x y z
#
# Youngs Moduli (GPa) = 72.73483 64.68196 86.51079
#
# Poissons Ratio (x) = 0.27897 0.09594
# Poissons Ratio (y) = 0.31370 0.49179
# Poissons Ratio (z) = 0.08066 0.36770
#
# Static dielectric constant tensor:
#      x y z
#    x 2.451340 -0.000120 0.296380 
#    y -0.000120 3.454870 0.000030 
#    z 0.296380 0.000030 3.678190 
# 
# 
# High freq. dielectric constant tensor:
#      x y z
#    x 1.793530 0.000000 -0.001600 
#    y 0.000000 1.750320 0.000000 
#    z -0.001600 0.000000 1.793940 
# 
# From -- ./inp_files/365392.got.cif
#   From: 2010.06.25/outbox.cif.g09.slc.cpg/sg12_183_cif.got.tgz:365392.got - 2010.06.28 00:19:55.
