data_PCOD8100531
_publ_section_title
;
Structure prediction by ZEFSAII (Michael W. Deem and Ramdas Pophale) SiO2 
 PCOD8100531
Probable space group: C 2/M
;
_chemical_formula_sum "Si O2"
_cell_formula_units_Z 40
_cell_length_a 19.620843
_cell_length_b 8.876168
_cell_length_c 15.050469
_cell_angle_alpha 90.000000
_cell_angle_beta 49.091302
_cell_angle_gamma 90.000000
_cell_volume 1980.950856
_symmetry_space_group_name_H-M "C 2/M"
_symmetry_group_IT_number 12
_symmetry_cell_setting 'monoclinic'
loop_
_space_group_symop_operation_xyz
x,y,z
-x,y,-z
-x,-y,-z
x,-y,z
1/2+x,1/2+y,z
1/2-x,1/2+y,-z
1/2-x,1/2-y,-z
1/2+x,1/2-y,z
loop_
_atom_site_type_symbol
_atom_site_label
_atom_site_fract_x
_atom_site_fract_y
_atom_site_fract_z
Si Si1 0.222559 0.827110 0.262642
Si Si2 0.924634 0.328093 0.132640
Si Si3 0.487205 0.326324 0.247855
Si Si4 0.179310 0.174687 0.494758
Si Si5 0.326883 0.177284 0.874058
O O1 0.329891 0.811822 0.164010
O O2 0.188655 0.763142 0.386483
O O3 0.179143 0.727554 0.222803
O O4 0.191753 0.000000 0.275291
O O5 0.940844 0.500000 0.149955
O O6 0.926967 0.218629 0.214782
O O7 0.000000 0.273626 0.000000
O O8 0.516437 0.500000 0.216599
O O9 0.423807 0.297901 0.387472
O O10 0.575339 0.223644 0.173813
O O11 0.250000 0.250000 0.500000
O O12 0.205398 0.000000 0.472336
O O13 0.316081 0.000000 0.890873
O O14 0.250000 0.250000 0.000000
#
# Coordination Sequence:
#
# PCOD8100531 Si02
#       5
#     8   8   8   8   8
#     4  10  21  39  62  90 127 167 207 254 311 367
#     4  10  20  35  59  89 120 160 209 257 309 365
#     4  11  23  39  62  92 125 163 208 255 307 366
#     4  10  21  38  63  93 127 166 206 256 308 363
#     4  12  26  44  65  90 124 164 207 258 314 373
#
# _framework density 20.192322999999998
#
# number of rings (size 3 to 8) (size 9 to 14) (size 15 to 20)
#    0.000    1.400    2.000    3.600    0.000    5.200 
#    0.000    4.000    0.000    0.000    0.000    0.000 
#    0.000    0.000    0.000    0.000    0.000    0.000 
#
# Total GULP energy -248095.823979 kJ/mol
# GULP energy per Si atom -12404.791199 kJ/mol
# Density = 2.014636 g / cm^3
# Si number density = 20.192323 Si / 1000 Ang^3
#
#
#
# Elastic Constant Matrix: (Units=GPa)
#
#
# Indices 1 2 3 4 5 6 
#
# 1 66.7149 31.4127 7.6858 0.0000 5.5125 0.0000
# 2 31.4127 97.5611 32.1099 -0.0002 3.7843 0.0004
# 3 7.6858 32.1099 96.0093 0.0001 4.3446 -0.0001
# 4 0.0000 -0.0002 0.0001 29.0304 0.0000 5.0463
# 5 5.5125 3.7843 4.3446 0.0000 35.1334 -0.0001
# 6 0.0000 0.0004 -0.0001 5.0463 -0.0001 36.4477
#
#
#
# Elastic Compliance Matrix: (Units=1/GPa)
#
#
# Indices 1 2 3 4 5 6 
#
# 1 0.017868 -0.005875 0.000636 0.000000 -0.002249 0.000000
# 2 -0.005875 0.013470 -0.004033 0.000000 -0.000030 0.000000
# 3 0.000636 -0.004033 0.011764 0.000000 -0.001120 0.000000
# 4 0.000000 0.000000 0.000000 0.035296 0.000000 -0.004887
# 5 -0.002249 -0.000030 -0.001120 0.000000 0.028958 0.000000
# 6 0.000000 0.000000 0.000000 -0.004887 0.000000 0.028113
#
#
# Mechanical properties :
#
#
# Convention : Reuss Voigt Hill
#
# Bulk Modulus (GPa) = 40.71976 44.74468 42.73222
# Shear Modulus (GPa) = 30.82600 32.72741 31.77671
#
# Velocity S-wave (km/s) = 3.91144 4.03026 3.97130
# Velocity P-wave (km/s) = 6.37251 6.62305 6.49898
#
# Compressibility (1/GPa) = 0.02455810
#
# Stress axis : x y z
#
# Youngs Moduli (GPa) = 55.96558 74.23677 85.00252
#
# Poissons Ratio (x) = 0.43617 -0.05409
# Poissons Ratio (y) = 0.32882 0.34285
# Poissons Ratio (z) = -0.03562 0.29943
#
# Static dielectric constant tensor:
#      x y z
#    x 3.541450 0.000000 0.015360 
#    y 0.000000 3.626710 0.000000 
#    z 0.015360 0.000000 3.977600 
# 
# 
# High freq. dielectric constant tensor:
#      x y z
#    x 1.786470 0.000000 -0.001500 
#    y 0.000000 1.780820 0.000000 
#    z -0.001500 0.000000 1.807070 
# 
# From -- ./inp_files/229637.got.cif
#   From: 2010.06.25/outbox.cif.g09.slc.cpg/sg12_115_cif.got.tgz:229637.got - 2010.06.28 00:19:55.
