data_PCOD8100425
_publ_section_title
;
Structure prediction by ZEFSAII (Michael W. Deem and Ramdas Pophale) SiO2 
 PCOD8100425
Probable space group: C 2/M
;
_chemical_formula_sum "Si O2"
_cell_formula_units_Z 48
_cell_length_a 24.950100
_cell_length_b 8.984406
_cell_length_c 12.444641
_cell_angle_alpha 90.000000
_cell_angle_beta 109.404908
_cell_angle_gamma 90.000000
_cell_volume 2631.147256
_symmetry_space_group_name_H-M "C 2/M"
_symmetry_group_IT_number 12
_symmetry_cell_setting 'monoclinic'
loop_
_space_group_symop_operation_xyz
x,y,z
-x,y,-z
-x,-y,-z
x,-y,z
1/2+x,1/2+y,z
1/2-x,1/2+y,-z
1/2-x,1/2-y,-z
1/2+x,1/2-y,z
loop_
_atom_site_type_symbol
_atom_site_label
_atom_site_fract_x
_atom_site_fract_y
_atom_site_fract_z
Si Si1 0.362991 0.673979 0.378343
Si Si2 0.753729 0.326383 0.387326
Si Si3 0.437575 0.324020 0.622960
Si Si4 0.439465 0.326648 0.230896
Si Si5 0.368854 0.326489 0.781826
Si Si6 0.939467 0.323956 0.005135
O O1 0.351340 0.500000 0.390633
O O2 0.304482 0.761794 0.349922
O O3 0.407977 0.737554 0.495491
O O4 0.387305 0.703087 0.276062
O O5 0.762840 0.500000 0.413670
O O6 0.750000 0.250000 0.500000
O O7 0.697216 0.295298 0.281584
O O8 0.433792 0.500000 0.617089
O O9 0.502817 0.271907 0.672148
O O10 0.403997 0.262905 0.703965
O O11 0.444415 0.500000 0.203303
O O12 0.429227 0.232423 0.118084
O O13 0.381536 0.500000 0.807806
O O14 0.388201 0.238514 0.899768
O O15 0.936981 0.500000 0.002633
O O16 0.000000 0.265954 0.000000
#
# Coordination Sequence:
#
# PCOD8100425 Si02
#       6
#     8   8   8   8   8   8
#     4  10  20  36  57  86 117 147 187 229 277 332
#     4  11  22  37  58  84 114 149 187 230 275 328
#     4   9  16  31  56  85 114 143 180 230 274 325
#     4  10  20  35  59  84 112 151 189 227 274 334
#     4  10  20  36  59  83 108 144 192 231 268 327
#     4  11  23  37  55  82 116 147 182 232 284 333
#
# _framework density 18.242992999999998
#
# number of rings (size 3 to 8) (size 9 to 14) (size 15 to 20)
#    0.000    1.833    3.333    1.500    0.000    4.667 
#    0.000    1.667    0.000    2.000    0.000    0.000 
#    0.000    0.000    0.000    0.000    0.000    0.000 
#
# Total GULP energy -297666.032777 kJ/mol
# GULP energy per Si atom -12402.751366 kJ/mol
# Density = 1.820147 g / cm^3
# Si number density = 18.242993 Si / 1000 Ang^3
#
#
#
# Elastic Constant Matrix: (Units=GPa)
#
#
# Indices 1 2 3 4 5 6 
#
# 1 133.6634 54.3467 57.0258 0.0000 2.2237 0.0000
# 2 54.3467 67.8995 51.6284 0.0000 6.1840 0.0000
# 3 57.0258 51.6284 116.7458 0.0000 3.5910 0.0000
# 4 0.0000 0.0000 0.0000 22.6918 0.0000 -0.4475
# 5 2.2237 6.1840 3.5910 0.0000 24.4744 0.0000
# 6 0.0000 0.0000 0.0000 -0.4475 0.0000 30.5753
#
#
#
# Elastic Compliance Matrix: (Units=1/GPa)
#
#
# Indices 1 2 3 4 5 6 
#
# 1 0.011531 -0.007576 -0.002319 0.000000 0.001207 0.000000
# 2 -0.007576 0.027601 -0.008350 0.000000 -0.005061 0.000000
# 3 -0.002319 -0.008350 0.013380 0.000000 0.000357 0.000000
# 4 0.000000 0.000000 0.000000 0.044082 0.000000 0.000645
# 5 0.001207 -0.005061 0.000357 0.000000 0.041976 0.000000
# 6 0.000000 0.000000 0.000000 0.000645 0.000000 0.032716
#
#
# Mechanical properties :
#
#
# Convention : Reuss Voigt Hill
#
# Bulk Modulus (GPa) = 62.41322 71.59004 67.00163
# Shear Modulus (GPa) = 23.46134 25.90216 24.68175
#
# Velocity S-wave (km/s) = 3.59004 3.77217 3.68223
# Velocity P-wave (km/s) = 7.17433 7.63544 7.40847
#
# Compressibility (1/GPa) = 0.01602225
#
# Stress axis : x y z
#
# Youngs Moduli (GPa) = 86.72063 36.23018 74.73768
#
# Poissons Ratio (x) = 0.27448 0.17335
# Poissons Ratio (y) = 0.65699 0.62405
# Poissons Ratio (z) = 0.20114 0.30252
#
# Static dielectric constant tensor:
#      x y z
#    x 3.448290 0.000000 0.066440 
#    y 0.000000 3.169050 0.000000 
#    z 0.066440 0.000000 3.355490 
# 
# 
# High freq. dielectric constant tensor:
#      x y z
#    x 1.709440 0.000000 0.002250 
#    y 0.000000 1.687310 0.000000 
#    z 0.002250 0.000000 1.709240 
# 
# From -- ./inp_files/172106.got.cif
#   From: 2010.06.25/outbox.cif.g09.slc.cpg/sg12_87_cif.got.tgz:172106.got - 2010.06.28 00:19:55.
