data_PCOD8100375
_publ_section_title
;
Structure prediction by ZEFSAII (Michael W. Deem and Ramdas Pophale) SiO2 
 PCOD8100375
Probable space group: C 2/M
;
_chemical_formula_sum "Si O2"
_cell_formula_units_Z 64
_cell_length_a 15.015862
_cell_length_b 8.544912
_cell_length_c 31.326386
_cell_angle_alpha 90.000000
_cell_angle_beta 51.864012
_cell_angle_gamma 90.000000
_cell_volume 3161.498666
_symmetry_space_group_name_H-M "C 2/M"
_symmetry_group_IT_number 12
_symmetry_cell_setting 'monoclinic'
loop_
_space_group_symop_operation_xyz
x,y,z
-x,y,-z
-x,-y,-z
x,-y,z
1/2+x,1/2+y,z
1/2-x,1/2+y,-z
1/2-x,1/2-y,-z
1/2+x,1/2-y,z
loop_
_atom_site_type_symbol
_atom_site_label
_atom_site_fract_x
_atom_site_fract_y
_atom_site_fract_z
Si Si1 0.170619 0.685638 0.165087
Si Si2 0.700070 0.684061 0.557866
Si Si3 0.306240 0.677597 0.049027
Si Si4 0.897494 0.183076 0.938971
Si Si5 0.101851 0.683988 0.440003
Si Si6 0.551651 0.684699 0.364518
Si Si7 0.044343 0.180634 0.818121
Si Si8 0.219392 0.816748 0.242309
O O1 0.158012 0.500000 0.162826
O O2 0.275422 0.754356 0.104279
O O3 0.197224 0.724005 0.205610
O O4 0.053880 0.765155 0.184886
O O5 0.694678 0.500000 0.553972
O O6 0.750000 0.750000 0.500000
O O7 0.779555 0.731325 0.573681
O O8 0.575095 0.753766 0.603387
O O9 0.330455 0.500000 0.052906
O O10 0.193881 0.700063 0.053926
O O11 0.409458 0.732551 0.986439
O O12 0.012027 0.204154 0.877904
O O13 0.858213 0.000000 0.947903
O O14 0.088547 0.500000 0.437062
O O15 0.102743 0.766439 0.394445
O O16 0.000000 0.746630 0.500000
O O17 0.549352 0.500000 0.362854
O O18 0.629917 0.748861 0.303289
O O19 0.155923 0.281800 0.776442
O O20 0.070711 0.000000 0.800745
O O21 0.204606 0.000000 0.238379
#
# Coordination Sequence:
#
# PCOD8100375 Si02
#       8
#     8   8   8   8   8   8   8   8
#     4  10  20  36  59  85 113 149 191 237 293 350
#     4  10  20  36  58  85 116 146 177 215 265 323
#     4   8  14  26  47  76 108 140 177 226 284 346
#     4   8  14  26  47  76 107 139 179 227 283 348
#     4  10  20  35  58  89 120 147 178 217 269 332
#     4  10  23  40  58  82 112 149 190 232 276 324
#     4  10  20  36  59  84 111 149 193 239 295 349
#     4  11  24  41  57  79 114 153 201 248 284 331
#
# _framework density 20.243563999999999
#
# number of rings (size 3 to 8) (size 9 to 14) (size 15 to 20)
#    0.000    2.375    1.250    1.125    0.000    3.750 
#    0.000    1.875    0.000    3.750    0.000    0.000 
#    0.000    0.000    0.000    0.000    0.000    0.000 
#
# Total GULP energy -396453.804083 kJ/mol
# GULP energy per Si atom -12389.181378 kJ/mol
# Density = 2.019749 g / cm^3
# Si number density = 20.243564 Si / 1000 Ang^3
#
#
#
# Elastic Constant Matrix: (Units=GPa)
#
#
# Indices 1 2 3 4 5 6 
#
# 1 67.2591 8.1612 27.0590 0.0001 1.6793 0.0001
# 2 8.1612 22.1274 17.6300 0.0002 -2.0630 0.0004
# 3 27.0590 17.6300 118.8736 0.0000 7.7039 -0.0001
# 4 0.0001 0.0002 0.0000 26.2894 0.0001 3.0457
# 5 1.6793 -2.0630 7.7039 0.0001 34.0153 0.0001
# 6 0.0001 0.0004 -0.0001 3.0457 0.0001 27.6676
#
#
#
# Elastic Compliance Matrix: (Units=1/GPa)
#
#
# Indices 1 2 3 4 5 6 
#
# 1 0.016609 -0.003581 -0.003230 0.000000 -0.000306 0.000000
# 2 -0.003581 0.052839 -0.007348 0.000000 0.005046 -0.000001
# 3 -0.003230 -0.007348 0.010409 0.000000 -0.002644 0.000000
# 4 0.000000 0.000000 0.000000 0.038530 0.000000 -0.004241
# 5 -0.000306 0.005046 -0.002644 0.000000 0.030318 0.000000
# 6 0.000000 -0.000001 0.000000 -0.004241 0.000000 0.036610
#
#
# Mechanical properties :
#
#
# Convention : Reuss Voigt Hill
#
# Bulk Modulus (GPa) = 19.40302 34.88450 27.14376
# Shear Modulus (GPa) = 21.66254 27.95511 24.80883
#
# Velocity S-wave (km/s) = 3.27478 3.72013 3.50454
# Velocity P-wave (km/s) = 4.88922 5.97681 5.46016
#
# Compressibility (1/GPa) = 0.05153836
#
# Stress axis : x y z
#
# Youngs Moduli (GPa) = 60.20672 18.92547 96.07408
#
# Poissons Ratio (x) = 0.06778 0.31031
# Poissons Ratio (y) = 0.21561 0.70598
# Poissons Ratio (z) = 0.19446 0.13907
#
# Static dielectric constant tensor:
#      x y z
#    x 3.536660 0.000000 -0.095630 
#    y 0.000000 3.511250 0.000000 
#    z -0.095630 0.000000 4.167840 
# 
# 
# High freq. dielectric constant tensor:
#      x y z
#    x 1.774240 0.000000 0.003190 
#    y 0.000000 1.774280 0.000000 
#    z 0.003190 0.000000 1.806150 
# 
# From -- ./inp_files/375408.got.cif
#   From: 2010.06.25/outbox.cif.g09.slc.cpg/sg12_188_cif.got.tgz:375408.got - 2010.06.28 00:19:55.
