data_PCOD8100849
_publ_section_title
;
Structure prediction by ZEFSAII (Michael W. Deem and Ramdas Pophale) SiO2 
 PCOD8100849
Probable space group: C 2/M
;
_chemical_formula_sum "Si O2"
_cell_formula_units_Z 64
_cell_length_a 28.691550
_cell_length_b 8.573988
_cell_length_c 14.345098
_cell_angle_alpha 90.000000
_cell_angle_beta 107.228047
_cell_angle_gamma 90.000000
_cell_volume 3370.578738
_symmetry_space_group_name_H-M "C 2/M"
_symmetry_group_IT_number 12
_symmetry_cell_setting 'monoclinic'
loop_
_space_group_symop_operation_xyz
x,y,z
-x,y,-z
-x,-y,-z
x,-y,z
1/2+x,1/2+y,z
1/2-x,1/2+y,-z
1/2-x,1/2-y,-z
1/2+x,1/2-y,z
loop_
_atom_site_type_symbol
_atom_site_label
_atom_site_fract_x
_atom_site_fract_y
_atom_site_fract_z
Si Si1 0.605820 0.819776 0.210988
Si Si2 0.852115 0.819088 0.936690
Si Si3 0.334500 0.820037 0.256617
Si Si4 0.305455 0.681985 0.627009
Si Si5 0.098746 0.681451 0.865474
Si Si6 0.296411 0.317746 0.409551
Si Si7 0.746259 0.817909 0.099734
Si Si8 0.999207 0.684510 0.894083
O O1 0.612568 0.785896 0.105452
O O2 0.643183 0.718798 0.293861
O O3 0.549401 0.769346 0.193483
O O4 0.614933 0.000000 0.239621
O O5 0.797263 0.774517 0.874987
O O6 0.861369 0.000000 0.922844
O O7 0.861942 0.775988 0.049945
O O8 0.386534 0.791097 0.234698
O O9 0.335208 0.771230 0.365630
O O10 0.294936 0.709074 0.185992
O O11 0.319285 0.000000 0.237318
O O12 0.294296 0.500000 0.628892
O O13 0.309961 0.733806 0.522065
O O14 0.259797 0.771680 0.646813
O O15 0.103049 0.500000 0.893618
O O16 0.044736 0.745043 0.858547
O O17 0.302690 0.500000 0.397163
O O18 0.734101 0.000000 0.087987
O O19 0.750000 0.750000 0.000000
O O20 0.000825 0.500000 0.905037
O O21 0.000000 0.756709 0.000000
#
# Coordination Sequence:
#
# PCOD8100849 Si02
#       8
#     8   8   8   8   8   8   8   8
#     4  11  21  35  58  82 109 144 183 230 281 333
#     4  12  23  34  50  75 109 146 184 223 268 325
#     4  11  22  35  55  80 110 146 184 227 272 328
#     4  10  21  38  59  85 114 141 179 230 280 331
#     4  10  20  36  55  76 106 144 186 227 273 323
#     4  10  21  38  60  83 112 147 182 224 275 334
#     4  12  23  35  50  72 106 144 183 221 264 320
#     4   9  17  33  57  81 106 143 188 232 278 328
#
# _framework density 18.987838
#
# number of rings (size 3 to 8) (size 9 to 14) (size 15 to 20)
#    0.000    1.375    2.500    4.500    0.000    2.000 
#    0.000    1.875    0.000    0.750    0.000    5.250 
#    0.000    0.000    0.000    0.000    0.000    0.000 
#
# Total GULP energy -396753.408795 kJ/mol
# GULP energy per Si atom -12398.544025 kJ/mol
# Density = 1.894462 g / cm^3
# Si number density = 18.987838 Si / 1000 Ang^3
#
#
#
# Elastic Constant Matrix: (Units=GPa)
#
#
# Indices 1 2 3 4 5 6 
#
# 1 133.9796 24.8212 41.2702 0.0000 -12.9573 0.0000
# 2 24.8212 47.1184 16.0398 0.0000 -1.5891 0.0000
# 3 41.2702 16.0398 69.9412 0.0000 -9.8230 0.0000
# 4 0.0000 0.0000 0.0000 28.3355 0.0000 -3.2171
# 5 -12.9573 -1.5891 -9.8230 0.0000 29.0447 0.0000
# 6 0.0000 0.0000 0.0000 -3.2171 0.0000 20.3311
#
#
#
# Elastic Compliance Matrix: (Units=1/GPa)
#
#
# Indices 1 2 3 4 5 6 
#
# 1 0.009783 -0.003498 -0.004603 0.000000 0.002616 0.000000
# 2 -0.003498 0.024280 -0.003713 0.000000 -0.001488 0.000000
# 3 -0.004603 -0.003713 0.018423 0.000000 0.003974 0.000000
# 4 0.000000 0.000000 0.000000 0.035937 0.000000 0.005687
# 5 0.002616 -0.001488 0.003974 0.000000 0.036860 0.000000
# 6 0.000000 0.000000 0.000000 0.005687 0.000000 0.050086
#
#
# Mechanical properties :
#
#
# Convention : Reuss Voigt Hill
#
# Bulk Modulus (GPa) = 34.65257 46.14463 40.39860
# Shear Modulus (GPa) = 23.96757 26.80279 25.38518
#
# Velocity S-wave (km/s) = 3.55668 3.76117 3.66036
# Velocity P-wave (km/s) = 5.92926 6.57395 6.25991
#
# Compressibility (1/GPa) = 0.02885789
#
# Stress axis : x y z
#
# Youngs Moduli (GPa) = 102.22071 41.18662 54.27891
#
# Poissons Ratio (x) = 0.14408 0.24984
# Poissons Ratio (y) = 0.35760 0.20153
# Poissons Ratio (z) = 0.47050 0.15292
#
# Static dielectric constant tensor:
#      x y z
#    x 3.764480 0.000000 -0.141000 
#    y 0.000000 3.327920 0.000000 
#    z -0.141000 0.000000 3.456010 
# 
# 
# High freq. dielectric constant tensor:
#      x y z
#    x 1.736990 0.000000 -0.013350 
#    y 0.000000 1.734380 0.000000 
#    z -0.013350 0.000000 1.714930 
# 
# From -- ./inp_files/244226.got.cif
#   From: 2010.06.25/outbox.cif.g09.slc.cpg/sg12_123_cif.got.tgz:244226.got - 2010.06.28 00:19:55.
