data_PCOD8100398
_publ_section_title
;
Structure prediction by ZEFSAII (Michael W. Deem and Ramdas Pophale) SiO2 
 PCOD8100398
Probable space group: C 2/M
;
_chemical_formula_sum "Si O2"
_cell_formula_units_Z 64
_cell_length_a 15.345410
_cell_length_b 8.620206
_cell_length_c 33.235993
_cell_angle_alpha 90.000000
_cell_angle_beta 45.888680
_cell_angle_gamma 90.000000
_cell_volume 3156.621165
_symmetry_space_group_name_H-M "C 2/M"
_symmetry_group_IT_number 12
_symmetry_cell_setting 'monoclinic'
loop_
_space_group_symop_operation_xyz
x,y,z
-x,y,-z
-x,-y,-z
x,-y,z
1/2+x,1/2+y,z
1/2-x,1/2+y,-z
1/2-x,1/2-y,-z
1/2+x,1/2-y,z
loop_
_atom_site_type_symbol
_atom_site_label
_atom_site_fract_x
_atom_site_fract_y
_atom_site_fract_z
Si Si1 0.119514 0.816593 0.438771
Si Si2 0.084084 0.316873 0.363586
Si Si3 0.544410 0.822211 0.941941
Si Si4 0.312473 0.816636 0.440842
Si Si5 0.364892 0.318872 0.940669
Si Si6 0.697753 0.677390 0.174052
Si Si7 0.232230 0.817928 0.764127
Si Si8 0.975354 0.319503 0.829003
O O1 0.128832 0.749211 0.391417
O O2 0.238737 0.761827 0.425032
O O3 0.000000 0.752539 0.500000
O O4 0.112403 0.000000 0.437656
O O5 0.082983 0.500000 0.367574
O O6 0.176778 0.260493 0.299756
O O7 0.950435 0.254643 0.394408
O O8 0.484452 0.708805 0.928767
O O9 0.688378 0.801926 0.892543
O O10 0.505405 0.000000 0.945511
O O11 0.500000 0.770077 0.000000
O O12 0.250000 0.750000 0.500000
O O13 0.308635 0.000000 0.445410
O O14 0.346257 0.500000 0.938315
O O15 0.379902 0.231122 0.893735
O O16 0.250000 0.250000 0.000000
O O17 0.654280 0.500000 0.188500
O O18 0.734444 0.725819 0.206727
O O19 0.587256 0.783055 0.193696
O O20 0.096835 0.779725 0.793844
O O21 0.244024 0.000000 0.768653
O O22 0.007125 0.500000 0.822227
#
# Coordination Sequence:
#
# PCOD8100398 Si02
#       8
#     8   8   8   8   8   8   8   8
#     4  10  20  35  58  90 126 163 205 253 310 372
#     4  10  23  40  61  90 124 164 209 257 308 369
#     4  10  21  38  61  91 128 163 204 257 319 384
#     4  10  20  36  58  87 123 161 202 250 308 367
#     4  12  24  39  62  92 129 166 210 264 321 384
#     4  11  23  41  67  96 128 167 212 263 324 385
#     4  11  24  44  65  91 129 170 219 269 317 376
#     4  12  25  43  67  94 126 168 217 266 324 384
#
# _framework density 20.274844999999999
#
# number of rings (size 3 to 8) (size 9 to 14) (size 15 to 20)
#    0.000    1.250    2.500    3.750    0.000    4.500 
#    0.000    1.250    0.000    0.000    0.000    0.000 
#    0.000    0.000    0.000    0.000    0.000    0.000 
#
# Total GULP energy -396963.882183 kJ/mol
# GULP energy per Si atom -12405.121318 kJ/mol
# Density = 2.022870 g / cm^3
# Si number density = 20.274845 Si / 1000 Ang^3
#
#
#
# Elastic Constant Matrix: (Units=GPa)
#
#
# Indices 1 2 3 4 5 6 
#
# 1 140.6535 15.3261 52.7389 0.0007 4.3685 0.0017
# 2 15.3261 50.7716 21.8588 0.0019 2.9527 0.0026
# 3 52.7389 21.8588 133.5634 0.0007 1.4490 0.0011
# 4 0.0007 0.0019 0.0007 28.7718 0.0001 4.2448
# 5 4.3685 2.9527 1.4490 0.0001 28.4144 0.0005
# 6 0.0017 0.0026 0.0011 4.2448 0.0005 35.8636
#
#
#
# Elastic Compliance Matrix: (Units=1/GPa)
#
#
# Indices 1 2 3 4 5 6 
#
# 1 0.008441 -0.001139 -0.003136 0.000000 -0.001020 0.000000
# 2 -0.001139 0.021460 -0.003042 -0.000001 -0.001900 -0.000001
# 3 -0.003136 -0.003042 0.009219 0.000000 0.000328 0.000000
# 4 0.000000 -0.000001 0.000000 0.035374 0.000000 -0.004187
# 5 -0.001020 -0.001900 0.000328 0.000000 0.035531 0.000000
# 6 0.000000 -0.000001 0.000000 -0.004187 0.000000 0.028379
#
#
# Mechanical properties :
#
#
# Convention : Reuss Voigt Hill
#
# Bulk Modulus (GPa) = 40.83631 56.09290 48.46460
# Shear Modulus (GPa) = 31.01747 34.28094 32.64920
#
# Velocity S-wave (km/s) = 3.91557 4.11641 4.01725
# Velocity P-wave (km/s) = 6.37396 7.09362 6.74340
#
# Compressibility (1/GPa) = 0.02448801
#
# Stress axis : x y z
#
# Youngs Moduli (GPa) = 118.46730 46.59860 108.46597
#
# Poissons Ratio (x) = 0.05307 0.34011
# Poissons Ratio (y) = 0.13491 0.32993
# Poissons Ratio (z) = 0.37147 0.14174
#
# Static dielectric constant tensor:
#      x y z
#    x 4.897860 -0.000030 -0.399080 
#    y -0.000030 3.646840 0.000010 
#    z -0.399080 0.000010 3.984760 
# 
# 
# High freq. dielectric constant tensor:
#      x y z
#    x 1.807010 0.000000 0.000270 
#    y 0.000000 1.787290 0.000000 
#    z 0.000270 0.000000 1.791370 
# 
# From -- ./inp_files/375459.got.cif
#   From: 2010.06.25/outbox.cif.g09.slc.cpg/sg12_188_cif.got.tgz:375459.got - 2010.06.28 00:19:55.
