data_PCOD8100533
_publ_section_title
;
Structure prediction by ZEFSAII (Michael W. Deem and Ramdas Pophale) SiO2 
 PCOD8100533
Probable space group: C 2/M
;
_chemical_formula_sum "Si O2"
_cell_formula_units_Z 64
_cell_length_a 30.610466
_cell_length_b 8.604009
_cell_length_c 16.779313
_cell_angle_alpha 90.000000
_cell_angle_beta 44.719642
_cell_angle_gamma 90.000000
_cell_volume 3109.527955
_symmetry_space_group_name_H-M "C 2/M"
_symmetry_group_IT_number 12
_symmetry_cell_setting 'monoclinic'
loop_
_space_group_symop_operation_xyz
x,y,z
-x,y,-z
-x,-y,-z
x,-y,z
1/2+x,1/2+y,z
1/2-x,1/2+y,-z
1/2-x,1/2-y,-z
1/2+x,1/2-y,z
loop_
_atom_site_type_symbol
_atom_site_label
_atom_site_fract_x
_atom_site_fract_y
_atom_site_fract_z
Si Si1 0.003273 0.819917 0.736926
Si Si2 0.899028 0.179768 0.519600
Si Si3 0.788043 0.181414 0.123224
Si Si4 0.647365 0.182550 0.270608
Si Si5 0.387644 0.680544 0.288022
Si Si6 0.805742 0.679510 0.524883
Si Si7 0.373654 0.819031 0.882384
Si Si8 0.316092 0.819496 0.251571
O O1 0.036024 0.787485 0.609134
O O2 0.049075 0.770115 0.749338
O O3 0.943052 0.713637 0.822607
O O4 0.984487 0.000000 0.768752
O O5 0.901832 0.227350 0.608899
O O6 0.845182 0.286634 0.552903
O O7 0.880656 0.000000 0.532436
O O8 0.717003 0.233274 0.203656
O O9 0.820039 0.274010 0.154019
O O10 0.792409 0.000000 0.136399
O O11 0.824715 0.219746 0.995530
O O12 0.633166 0.236796 0.199597
O O13 0.637047 0.000000 0.293330
O O14 0.388508 0.500000 0.266460
O O15 0.329820 0.716164 0.421075
O O16 0.380140 0.776127 0.214930
O O17 0.811554 0.500000 0.493480
O O18 0.735290 0.719825 0.635748
O O19 0.358182 0.000000 0.912382
O O20 0.301234 0.000000 0.278140
#
# Coordination Sequence:
#
# PCOD8100533 Si02
#       8
#     8   8   8   8   8   8   8   8
#     4   9  21  41  61  85 119 159 202 244 292 351
#     4  10  20  35  59  89 121 158 198 245 296 351
#     4  11  23  41  63  87 119 158 198 245 299 354
#     4  10  22  39  61  90 122 155 195 242 301 362
#     4  10  21  38  59  85 118 157 200 242 292 351
#     4  11  20  33  54  84 123 160 194 237 294 354
#     4  11  24  41  62  88 117 156 202 249 298 351
#     4  12  23  36  57  88 121 154 196 242 295 353
#
# _framework density 20.581900999999998
#
# number of rings (size 3 to 8) (size 9 to 14) (size 15 to 20)
#    0.000    1.500    1.250    5.250    0.000    5.000 
#    0.000    3.125    0.000    3.750    0.000    0.000 
#    0.000    0.000    0.000    0.000    0.000    0.000 
#
# Total GULP energy -396928.760630 kJ/mol
# GULP energy per Si atom -12404.023770 kJ/mol
# Density = 2.053506 g / cm^3
# Si number density = 20.581901 Si / 1000 Ang^3
#
#
#
# Elastic Constant Matrix: (Units=GPa)
#
#
# Indices 1 2 3 4 5 6 
#
# 1 65.3462 21.9850 14.7284 0.0007 14.7634 -0.0008
# 2 21.9850 64.7595 10.3270 0.0009 -1.4892 -0.0006
# 3 14.7284 10.3270 29.3381 0.0001 -1.2785 -0.0013
# 4 0.0007 0.0009 0.0001 34.5229 -0.0003 4.4042
# 5 14.7634 -1.4892 -1.2785 -0.0003 27.8477 0.0001
# 6 -0.0008 -0.0006 -0.0013 4.4042 0.0001 29.3913
#
#
#
# Elastic Compliance Matrix: (Units=1/GPa)
#
#
# Indices 1 2 3 4 5 6 
#
# 1 0.022487 -0.006397 -0.009591 0.000000 -0.012704 0.000000
# 2 -0.006397 0.018190 -0.003007 0.000000 0.004226 0.000000
# 3 -0.009591 -0.003007 0.040254 0.000000 0.006772 0.000001
# 4 0.000000 0.000000 0.000000 0.029531 0.000001 -0.004425
# 5 -0.012704 0.004226 0.006772 0.000001 0.043182 0.000000
# 6 0.000000 0.000000 0.000001 -0.004425 0.000000 0.034687
#
#
# Mechanical properties :
#
#
# Convention : Reuss Voigt Hill
#
# Bulk Modulus (GPa) = 23.28787 28.16940 25.72863
# Shear Modulus (GPa) = 20.77843 25.84593 23.31218
#
# Velocity S-wave (km/s) = 3.18079 3.54752 3.36914
# Velocity P-wave (km/s) = 4.98289 5.52232 5.25952
#
# Compressibility (1/GPa) = 0.04294082
#
# Stress axis : x y z
#
# Youngs Moduli (GPa) = 44.46995 54.97493 24.84228
#
# Poissons Ratio (x) = 0.35166 0.23826
# Poissons Ratio (y) = 0.28446 0.07471
# Poissons Ratio (z) = 0.42651 0.16533
#
# Static dielectric constant tensor:
#      x y z
#    x 3.851250 0.000000 0.211700 
#    y 0.000000 3.588180 0.000000 
#    z 0.211700 0.000000 3.586750 
# 
# 
# High freq. dielectric constant tensor:
#      x y z
#    x 1.807210 0.000000 0.015560 
#    y 0.000000 1.806720 0.000000 
#    z 0.015560 0.000000 1.790390 
# 
# From -- ./inp_files/249701.got.cif
#   From: 2010.06.25/outbox.cif.g09.slc.cpg/sg12_125_cif.got.tgz:249701.got - 2010.06.28 00:19:55.
