data_PCOD8100238
_publ_section_title
;
Structure prediction by ZEFSAII (Michael W. Deem and Ramdas Pophale) SiO2 
 PCOD8100238
Probable space group: C 2/M
;
_chemical_formula_sum "Si O2"
_cell_formula_units_Z 56
_cell_length_a 32.239224
_cell_length_b 15.456634
_cell_length_c 12.693080
_cell_angle_alpha 90.000000
_cell_angle_beta 25.698041
_cell_angle_gamma 90.000000
_cell_volume 2742.736675
_symmetry_space_group_name_H-M "C 2/M"
_symmetry_group_IT_number 12
_symmetry_cell_setting 'monoclinic'
loop_
_space_group_symop_operation_xyz
x,y,z
-x,y,-z
-x,-y,-z
x,-y,z
1/2+x,1/2+y,z
1/2-x,1/2+y,-z
1/2-x,1/2-y,-z
1/2+x,1/2-y,z
loop_
_atom_site_type_symbol
_atom_site_label
_atom_site_fract_x
_atom_site_fract_y
_atom_site_fract_z
Si Si1 0.850593 0.752718 0.824841
Si Si2 0.072274 0.834929 0.541359
Si Si3 0.780798 0.598703 0.103665
Si Si4 0.623373 0.402411 0.067847
Si Si5 0.209642 0.399885 0.465361
Si Si6 0.850752 0.400442 0.170440
Si Si7 0.468911 0.205599 0.188291
O O1 0.929232 0.764230 0.551791
O O2 0.855064 0.836382 0.888567
O O3 0.750000 0.750000 0.000000
O O4 0.858628 0.662056 0.869654
O O5 0.172639 0.885367 0.312828
O O6 0.054424 0.791461 0.694169
O O7 0.986707 0.901418 0.716149
O O8 0.809630 0.500000 0.011419
O O9 0.785915 0.617508 0.216849
O O10 0.647296 0.500000 0.051396
O O11 0.688614 0.375615 0.818492
O O12 0.186155 0.500000 0.506019
O O13 0.211856 0.373839 0.583807
O O14 0.126184 0.351526 0.594199
O O15 0.882137 0.500000 0.105830
O O16 0.947604 0.345750 0.943226
O O17 0.500000 0.232225 0.000000
#
# Coordination Sequence:
#
# PCOD8100238 Si02
#       7
#     8   8   8   8   8   8   8
#     4  10  22  39  58  82 114 147 189 239 281 332
#     4  11  23  38  56  84 119 153 192 238 283 341
#     4  10  21  39  61  85 116 154 194 239 294 347
#     4  11  23  39  61  87 118 157 194 232 285 346
#     4   9  18  34  56  84 115 148 194 246 291 342
#     4   9  18  34  57  83 113 150 193 245 297 341
#     4  10  20  35  58  85 114 152 195 240 294 348
#
# _framework density 20.417563000000001
#
# number of rings (size 3 to 8) (size 9 to 14) (size 15 to 20)
#    0.000    2.000    0.000    3.857    0.000    6.286 
#    0.000    5.000    0.000    7.714    0.000    0.000 
#    0.000    0.000    0.000    0.000    0.000    0.000 
#
# Total GULP energy -347155.956681 kJ/mol
# GULP energy per Si atom -12398.427024 kJ/mol
# Density = 2.037109 g / cm^3
# Si number density = 20.417563 Si / 1000 Ang^3
#
#
#
# Elastic Constant Matrix: (Units=GPa)
#
#
# Indices 1 2 3 4 5 6 
#
# 1 98.6230 48.5788 34.3021 0.0000 5.4894 0.0000
# 2 48.5788 95.4703 41.1883 0.0000 9.3050 0.0000
# 3 34.3021 41.1883 104.0994 0.0000 4.2327 0.0000
# 4 0.0000 0.0000 0.0000 28.5739 0.0000 0.4112
# 5 5.4894 9.3050 4.2327 0.0000 26.5185 0.0000
# 6 0.0000 0.0000 0.0000 0.4112 0.0000 30.4687
#
#
#
# Elastic Compliance Matrix: (Units=1/GPa)
#
#
# Indices 1 2 3 4 5 6 
#
# 1 0.013923 -0.006118 -0.002151 0.000000 -0.000392 0.000000
# 2 -0.006118 0.015682 -0.004043 0.000000 -0.003591 0.000000
# 3 -0.002151 -0.004043 0.011916 0.000000 -0.000038 0.000000
# 4 0.000000 0.000000 0.000000 0.035004 0.000000 -0.000472
# 5 -0.000392 -0.003591 -0.000038 0.000000 0.039057 0.000000
# 6 0.000000 0.000000 0.000000 -0.000472 0.000000 0.032827
#
#
# Mechanical properties :
#
#
# Convention : Reuss Voigt Hill
#
# Bulk Modulus (GPa) = 59.18258 60.70346 59.94302
# Shear Modulus (GPa) = 27.98525 28.72044 28.35285
#
# Velocity S-wave (km/s) = 3.70624 3.75461 3.73050
# Velocity P-wave (km/s) = 6.88215 6.97077 6.92660
#
# Compressibility (1/GPa) = 0.01689687
#
# Stress axis : x y z
#
# Youngs Moduli (GPa) = 71.82136 63.76808 83.92012
#
# Poissons Ratio (x) = 0.39016 0.18053
# Poissons Ratio (y) = 0.43944 0.33925
# Poissons Ratio (z) = 0.15450 0.25779
#
# Static dielectric constant tensor:
#      x y z
#    x 4.009190 0.000000 0.351920 
#    y 0.000000 3.835200 0.000000 
#    z 0.351920 0.000000 4.013500 
# 
# 
# High freq. dielectric constant tensor:
#      x y z
#    x 1.806060 0.000000 0.005200 
#    y 0.000000 1.793100 0.000000 
#    z 0.005200 0.000000 1.797160 
# 
# From -- ./inp_files/189644.got.cif
#   From: 2010.06.25/outbox.cif.g09.slc.cpg/sg12_95_cif.got.tgz:189644.got - 2010.06.28 00:19:55.
