data_PCOD8100198
_publ_section_title
;
Structure prediction by ZEFSAII (Michael W. Deem and Ramdas Pophale) SiO2 
 PCOD8100198
Probable space group: C 2/M
;
_chemical_formula_sum "Si O2"
_cell_formula_units_Z 56
_cell_length_a 34.329794
_cell_length_b 9.248350
_cell_length_c 23.037536
_cell_angle_alpha 90.000000
_cell_angle_beta 156.152324
_cell_angle_gamma 90.000000
_cell_volume 2957.210245
_symmetry_space_group_name_H-M "C 2/M"
_symmetry_group_IT_number 12
_symmetry_cell_setting 'monoclinic'
loop_
_space_group_symop_operation_xyz
x,y,z
-x,y,-z
-x,-y,-z
x,-y,z
1/2+x,1/2+y,z
1/2-x,1/2+y,-z
1/2-x,1/2-y,-z
1/2+x,1/2-y,z
loop_
_atom_site_type_symbol
_atom_site_label
_atom_site_fract_x
_atom_site_fract_y
_atom_site_fract_z
Si Si1 0.400334 0.662905 0.424407
Si Si2 0.196959 0.330585 0.803973
Si Si3 0.596563 0.663075 0.757969
Si Si4 0.518162 0.328473 0.289135
Si Si5 0.602922 0.669365 0.982945
Si Si6 0.797445 0.829337 0.399205
Si Si7 0.591763 0.171775 0.089063
O O1 0.371226 0.500000 0.365807
O O2 0.385462 0.770882 0.350912
O O3 0.510193 0.664844 0.593858
O O4 0.331714 0.719276 0.382428
O O5 0.185168 0.500000 0.794987
O O6 0.182732 0.259880 0.848500
O O7 0.300442 0.287378 0.919271
O O8 0.635133 0.500000 0.819531
O O9 0.558130 0.729490 0.766623
O O10 0.518883 0.500000 0.298921
O O11 0.626814 0.266457 0.449601
O O12 0.485728 0.286661 0.180243
O O13 0.601755 0.500000 0.996496
O O14 0.590081 0.758962 0.023571
O O15 0.686760 0.776567 0.254836
O O16 0.801404 0.000000 0.409507
O O17 0.590950 0.000000 0.079656
O O18 0.500000 0.226565 0.000000
#
# Coordination Sequence:
#
# PCOD8100198 Si02
#       7
#     8   8   8   8   8   8   8
#     4   9  16  29  49  70  93 129 178 215 243 290
#     4  11  21  29  42  70 106 136 165 207 261 303
#     4   9  18  31  49  71  94 131 182 220 240 281
#     4   8  16  33  54  73  98 137 182 212 236 290
#     4  10  21  36  53  75 104 138 171 206 253 309
#     4   8  14  29  54  77  97 129 171 210 246 291
#     4  10  20  35  58  85 106 125 160 212 262 306
#
# _framework density 18.936767
#
# number of rings (size 3 to 8) (size 9 to 14) (size 15 to 20)
#    0.000    2.714    1.429    2.571    0.000    3.714 
#    0.000    1.429    0.000    1.714    0.000    0.000 
#    0.000    0.000    0.000    0.000    0.000    0.000 
#
# Total GULP energy -346995.456697 kJ/mol
# GULP energy per Si atom -12392.694882 kJ/mol
# Density = 1.889367 g / cm^3
# Si number density = 18.936767 Si / 1000 Ang^3
#
#
#
# Elastic Constant Matrix: (Units=GPa)
#
#
# Indices 1 2 3 4 5 6 
#
# 1 83.5409 31.7272 57.1012 0.0000 8.9900 0.0000
# 2 31.7272 42.3321 23.6238 0.0000 2.3099 0.0000
# 3 57.1012 23.6238 78.4173 0.0000 -4.0293 0.0000
# 4 0.0000 0.0000 0.0000 15.5537 0.0000 -0.4094
# 5 8.9900 2.3099 -4.0293 0.0000 27.1256 0.0000
# 6 0.0000 0.0000 0.0000 -0.4094 0.0000 22.1405
#
#
#
# Elastic Compliance Matrix: (Units=1/GPa)
#
#
# Indices 1 2 3 4 5 6 
#
# 1 0.031404 -0.011714 -0.019974 0.000000 -0.012377 0.000000
# 2 -0.011714 0.033143 -0.001411 0.000000 0.000850 0.000000
# 3 -0.019974 -0.001411 0.028284 0.000000 0.010941 0.000000
# 4 0.000000 0.000000 0.000000 0.064325 0.000000 0.001190
# 5 -0.012377 0.000850 0.010941 0.000000 0.042520 0.000000
# 6 0.000000 0.000000 0.000000 0.001190 0.000000 0.045188
#
#
# Mechanical properties :
#
#
# Convention : Reuss Voigt Hill
#
# Bulk Modulus (GPa) = 37.54839 47.68829 42.61834
# Shear Modulus (GPa) = 15.62792 19.08651 17.35722
#
# Velocity S-wave (km/s) = 2.87587 3.17820 3.03081
# Velocity P-wave (km/s) = 5.55867 6.22138 5.89934
#
# Compressibility (1/GPa) = 0.02663230
#
# Stress axis : x y z
#
# Youngs Moduli (GPa) = 31.84358 30.17188 35.35554
#
# Poissons Ratio (x) = 0.35344 0.70619
# Poissons Ratio (y) = 0.37302 0.04989
# Poissons Ratio (z) = 0.63605 0.04257
#
# Static dielectric constant tensor:
#      x y z
#    x 3.471730 0.000000 0.285660 
#    y 0.000000 3.135440 0.000000 
#    z 0.285660 0.000000 4.320840 
# 
# 
# High freq. dielectric constant tensor:
#      x y z
#    x 1.720890 0.000000 -0.000610 
#    y 0.000000 1.694990 0.000000 
#    z -0.000610 0.000000 1.743200 
# 
# From -- ./inp_files/329686.got.cif
#   From: 2010.06.25/outbox.cif.g09.slc.cpg/sg12_165_cif.got.tgz:329686.got - 2010.06.28 00:19:55.
