data_PCOD8100336
_publ_section_title
;
Structure prediction by ZEFSAII (Michael W. Deem and Ramdas Pophale) SiO2 
 PCOD8100336
Probable space group: C 2/M
;
_chemical_formula_sum "Si O2"
_cell_formula_units_Z 64
_cell_length_a 9.503385
_cell_length_b 27.705329
_cell_length_c 12.135469
_cell_angle_alpha 90.000000
_cell_angle_beta 90.805907
_cell_angle_gamma 90.000000
_cell_volume 3194.885055
_symmetry_space_group_name_H-M "C 2/M"
_symmetry_group_IT_number 12
_symmetry_cell_setting 'monoclinic'
loop_
_space_group_symop_operation_xyz
x,y,z
-x,y,-z
-x,-y,-z
x,-y,z
1/2+x,1/2+y,z
1/2-x,1/2+y,-z
1/2-x,1/2-y,-z
1/2+x,1/2-y,z
loop_
_atom_site_type_symbol
_atom_site_label
_atom_site_fract_x
_atom_site_fract_y
_atom_site_fract_z
Si Si1 0.338054 0.851083 0.623907
Si Si2 0.695266 0.731852 0.750423
Si Si3 0.177380 0.121090 0.183850
Si Si4 0.160721 0.329047 0.627944
Si Si5 0.682238 0.054034 0.252546
Si Si6 0.925551 0.220747 0.885776
Si Si7 0.452471 0.555089 0.121953
Si Si8 0.582066 0.054806 0.894595
O O1 0.240292 0.818181 0.697852
O O2 0.499264 0.839748 0.654346
O O3 0.303617 0.839609 0.497612
O O4 0.299457 0.906753 0.650320
O O5 0.698968 0.774030 0.658870
O O6 0.796705 0.743431 0.855631
O O7 0.536709 0.724965 0.788436
O O8 0.240747 0.135767 0.301336
O O9 0.135910 0.166827 0.108160
O O10 0.287059 0.089781 0.115866
O O11 0.041067 0.088261 0.207079
O O12 0.787945 0.063097 0.149753
O O13 0.522489 0.057973 0.209892
O O14 0.709690 0.000000 0.300894
O O15 0.000000 0.236174 0.000000
O O16 0.496549 0.500000 0.140623
O O17 0.500000 0.571793 0.000000
O O18 0.637787 0.000000 0.911610
O O19 0.500000 0.073077 0.000000
#
# Coordination Sequence:
#
# PCOD8100336 Si02
#       8
#     8   8   8   8   8   8   8   8
#     4  11  21  42  66  86 122 160 206 260 309 354
#     4  11  22  43  65  91 121 158 208 254 303 358
#     4  11  21  38  56  89 122 155 205 247 310 361
#     4  10  23  40  61  92 116 157 211 256 306 363
#     4  10  21  38  59  92 125 160 204 247 309 371
#     4  11  24  40  60  91 126 161 195 244 306 380
#     4  10  20  36  60  87 123 165 202 247 300 365
#     4  10  20  35  58  87 121 160 207 256 297 358
#
# _framework density 20.032018999999998
#
# number of rings (size 3 to 8) (size 9 to 14) (size 15 to 20)
#    0.000    1.500    2.500    3.000    0.000    3.000 
#    0.000    7.500    0.000    1.500    0.000    0.000 
#    0.000    0.000    0.000    0.000    0.000    0.000 
#
# Total GULP energy -396851.574062 kJ/mol
# GULP energy per Si atom -12401.611689 kJ/mol
# Density = 1.998643 g / cm^3
# Si number density = 20.032019 Si / 1000 Ang^3
#
#
#
# Elastic Constant Matrix: (Units=GPa)
#
#
# Indices 1 2 3 4 5 6 
#
# 1 80.1872 31.7907 11.4306 0.0000 0.9117 0.0000
# 2 31.7907 114.7748 40.3398 0.0000 -1.7423 0.0000
# 3 11.4306 40.3398 72.8076 0.0000 7.5408 0.0000
# 4 0.0000 0.0000 0.0000 18.3384 0.0000 2.3828
# 5 0.9117 -1.7423 7.5408 0.0000 28.7268 0.0000
# 6 0.0000 0.0000 0.0000 2.3828 0.0000 36.6504
#
#
#
# Elastic Compliance Matrix: (Units=1/GPa)
#
#
# Indices 1 2 3 4 5 6 
#
# 1 0.014023 -0.003907 0.000035 0.000000 -0.000691 0.000000
# 2 -0.003907 0.012057 -0.006328 0.000000 0.002516 0.000000
# 3 0.000035 -0.006328 0.017758 0.000000 -0.005046 0.000000
# 4 0.000000 0.000000 0.000000 0.054995 0.000000 -0.003575
# 5 -0.000691 0.002516 -0.005046 0.000000 0.036310 0.000000
# 6 0.000000 0.000000 0.000000 -0.003575 0.000000 0.027517
#
#
# Mechanical properties :
#
#
# Convention : Reuss Voigt Hill
#
# Bulk Modulus (GPa) = 42.66542 48.32129 45.49336
# Shear Modulus (GPa) = 26.19562 29.02367 27.60964
#
# Velocity S-wave (km/s) = 3.62012 3.81052 3.71654
# Velocity P-wave (km/s) = 6.23045 6.59807 6.41689
#
# Compressibility (1/GPa) = 0.02343818
#
# Stress axis : x y z
#
# Youngs Moduli (GPa) = 71.31363 82.93985 56.31295
#
# Poissons Ratio (x) = 0.32402 -0.00195
# Poissons Ratio (y) = 0.27860 0.35632
# Poissons Ratio (z) = -0.00247 0.52481
#
# Static dielectric constant tensor:
#      x y z
#    x 3.814130 0.000000 0.073860 
#    y 0.000000 3.746900 0.000000 
#    z 0.073860 0.000000 3.359360 
# 
# 
# High freq. dielectric constant tensor:
#      x y z
#    x 1.796570 0.000000 0.003070 
#    y 0.000000 1.790580 0.000000 
#    z 0.003070 0.000000 1.756050 
# 
# From -- ./inp_files/125758.got.cif
#   From: 2010.06.25/outbox.cif.g09.slc.cpg/sg12_63_cif.got.tgz:125758.got - 2010.06.28 00:19:55.
