data_PCOD8100364
_publ_section_title
;
Structure prediction by ZEFSAII (Michael W. Deem and Ramdas Pophale) SiO2 
 PCOD8100364
Probable space group: C 2/M
;
_chemical_formula_sum "Si O2"
_cell_formula_units_Z 32
_cell_length_a 19.838452
_cell_length_b 8.548935
_cell_length_c 24.715981
_cell_angle_alpha 90.000000
_cell_angle_beta 156.327449
_cell_angle_gamma 90.000000
_cell_volume 1683.034418
_symmetry_space_group_name_H-M "C 2/M"
_symmetry_group_IT_number 12
_symmetry_cell_setting 'monoclinic'
loop_
_space_group_symop_operation_xyz
x,y,z
-x,y,-z
-x,-y,-z
x,-y,z
1/2+x,1/2+y,z
1/2-x,1/2+y,-z
1/2-x,1/2-y,-z
1/2+x,1/2-y,z
loop_
_atom_site_type_symbol
_atom_site_label
_atom_site_fract_x
_atom_site_fract_y
_atom_site_fract_z
Si Si1 0.931204 0.681150 0.644910
Si Si2 0.525214 0.179517 0.596092
Si Si3 0.742915 0.817199 0.317290
Si Si4 0.431136 0.683749 0.145567
O O1 0.915584 0.500000 0.650476
O O2 0.750000 0.750000 0.500000
O O3 0.044275 0.702269 0.674315
O O4 0.019827 0.776724 0.757178
O O5 0.369168 0.280431 0.459365
O O6 0.696875 0.232791 0.693513
O O7 0.485768 0.000000 0.552825
O O8 0.558267 0.759332 0.196207
O O9 0.740024 0.000000 0.304218
O O10 0.433144 0.500000 0.138675
O O11 0.250000 0.750000 0.000000
#
# Coordination Sequence:
#
# PCOD8100364 Si02
#       4
#     8   8   8   8
#     4  11  22  37  61  91 122 156 199 247 296 350
#     4  10  20  35  58  88 121 155 195 245 297 347
#     4  11  21  35  58  87 120 156 198 244 296 354
#     4  12  25  42  62  86 121 160 200 247 300 361
#
# _framework density 19.013276999999999
#
# number of rings (size 3 to 8) (size 9 to 14) (size 15 to 20)
#    0.000    1.000    2.500    7.500    0.000    3.000 
#    0.000    1.250    0.000    7.500    0.000    0.000 
#    0.000    0.000    0.000    0.000    0.000    0.000 
#
# Total GULP energy -198472.823035 kJ/mol
# GULP energy per Si atom -12404.551440 kJ/mol
# Density = 1.897000 g / cm^3
# Si number density = 19.013277 Si / 1000 Ang^3
#
#
#
# Elastic Constant Matrix: (Units=GPa)
#
#
# Indices 1 2 3 4 5 6 
#
# 1 112.4008 28.3151 49.5969 0.0014 16.9498 0.0002
# 2 28.3151 93.8408 17.4586 0.0004 5.7577 0.0002
# 3 49.5969 17.4586 112.7836 0.0062 13.9717 0.0004
# 4 0.0014 0.0004 0.0062 32.7032 0.0010 2.3420
# 5 16.9498 5.7577 13.9717 0.0010 31.9034 0.0001
# 6 0.0002 0.0002 0.0004 2.3420 0.0001 35.0477
#
#
#
# Elastic Compliance Matrix: (Units=1/GPa)
#
#
# Indices 1 2 3 4 5 6 
#
# 1 0.012108 -0.002583 -0.004426 0.000001 -0.004028 0.000000
# 2 -0.002583 0.011575 -0.000600 0.000000 -0.000454 0.000000
# 3 -0.004426 -0.000600 0.011209 -0.000002 -0.002449 0.000000
# 4 0.000001 0.000000 -0.000002 0.030725 0.000000 -0.002053
# 5 -0.004028 -0.000454 -0.002449 0.000000 0.034639 0.000000
# 6 0.000000 0.000000 0.000000 -0.002053 0.000000 0.028670
#
#
# Mechanical properties :
#
#
# Convention : Reuss Voigt Hill
#
# Bulk Modulus (GPa) = 50.82447 56.64071 53.73259
# Shear Modulus (GPa) = 33.17839 34.84118 34.00979
#
# Velocity S-wave (km/s) = 4.18187 4.28538 4.23394
# Velocity P-wave (km/s) = 7.07859 7.37161 7.22659
#
# Compressibility (1/GPa) = 0.01967556
#
# Stress axis : x y z
#
# Youngs Moduli (GPa) = 82.59273 86.39233 89.21446
#
# Poissons Ratio (x) = 0.22313 0.39482
# Poissons Ratio (y) = 0.21332 0.05351
# Poissons Ratio (z) = 0.36552 0.05181
#
# Static dielectric constant tensor:
#      x y z
#    x 3.946290 0.000000 0.210660 
#    y 0.000000 3.710720 0.000000 
#    z 0.210660 0.000000 3.147480 
# 
# 
# High freq. dielectric constant tensor:
#      x y z
#    x 1.757210 0.000000 0.014440 
#    y 0.000000 1.762170 0.000000 
#    z 0.014440 0.000000 1.707550 
# 
# From -- ./inp_files/81688.got.cif
#   From: 2010.06.25/outbox.cif.g09.slc.cpg/sg12_41_cif.got.tgz:81688.got - 2010.06.28 00:19:55.
