data_PCOD8100197
_publ_section_title
;
Structure prediction by ZEFSAII (Michael W. Deem and Ramdas Pophale) SiO2 
 PCOD8100197
Probable space group: C 2/M
;
_chemical_formula_sum "Si O2"
_cell_formula_units_Z 56
_cell_length_a 29.075783
_cell_length_b 23.692528
_cell_length_c 12.316275
_cell_angle_alpha 90.000000
_cell_angle_beta 20.694202
_cell_angle_gamma 90.000000
_cell_volume 2998.226146
_symmetry_space_group_name_H-M "C 2/M"
_symmetry_group_IT_number 12
_symmetry_cell_setting 'monoclinic'
loop_
_space_group_symop_operation_xyz
x,y,z
-x,y,-z
-x,-y,-z
x,-y,z
1/2+x,1/2+y,z
1/2-x,1/2+y,-z
1/2-x,1/2-y,-z
1/2+x,1/2-y,z
loop_
_atom_site_type_symbol
_atom_site_label
_atom_site_fract_x
_atom_site_fract_y
_atom_site_fract_z
Si Si1 0.138551 0.435129 0.173014
Si Si2 0.706325 0.364481 0.785307
Si Si3 0.358863 0.066508 0.284642
Si Si4 0.246568 0.064553 0.308458
Si Si5 0.454591 0.346624 0.221405
Si Si6 0.853491 0.262918 0.368268
Si Si7 0.645547 0.566972 0.136540
O O1 0.126220 0.500000 0.233587
O O2 0.000000 0.404371 0.500000
O O3 0.159395 0.427068 0.999993
O O4 0.257612 0.412054 0.982035
O O5 0.749555 0.414817 0.610606
O O6 0.813081 0.314523 0.536773
O O7 0.574060 0.335543 0.037401
O O8 0.685922 0.392457 0.947792
O O9 0.320898 0.088655 0.249328
O O10 0.366371 0.000000 0.270302
O O11 0.500000 0.092687 0.000000
O O12 0.116259 0.098890 0.574197
O O13 0.204273 0.000000 0.417369
O O14 0.359730 0.292439 0.430728
O O15 0.500000 0.360492 0.000000
O O16 0.750000 0.250000 0.500000
O O17 0.000000 0.274152 0.000000
O O18 0.500000 0.579318 0.500000
O O19 0.659500 0.500000 0.076333
#
# Coordination Sequence:
#
# PCOD8100197 Si02
#       7
#     8   8   8   8   8   8   8
#     4   9  19  36  56  80 114 158 203 240 283 349
#     4  12  22  37  62  87 118 158 201 251 305 364
#     4  10  21  33  50  87 126 154 186 239 310 371
#     4  10  20  35  58  84 120 159 191 243 307 364
#     4  11  21  37  55  85 120 150 193 242 294 368
#     4  11  21  40  61  86 120 159 202 246 303 365
#     4  10  22  40  62  90 123 162 205 248 300 364
#
# _framework density 18.677710999999999
#
# number of rings (size 3 to 8) (size 9 to 14) (size 15 to 20)
#    0.000    1.571    4.286    1.714    2.000    2.571 
#    0.000    0.000    0.000    4.286    0.000    0.000 
#    0.000    0.000    0.000    0.000    0.000    0.000 
#
# Total GULP energy -347024.750255 kJ/mol
# GULP energy per Si atom -12393.741081 kJ/mol
# Density = 1.863520 g / cm^3
# Si number density = 18.677711 Si / 1000 Ang^3
#
#
#
# Elastic Constant Matrix: (Units=GPa)
#
#
# Indices 1 2 3 4 5 6 
#
# 1 103.7556 18.7481 56.4914 -0.0010 -5.6299 0.0010
# 2 18.7481 46.8677 45.7347 -0.0028 4.8808 -0.0020
# 3 56.4914 45.7347 116.5760 -0.0146 -10.2187 -0.0070
# 4 -0.0010 -0.0028 -0.0146 28.0192 0.0001 2.5739
# 5 -5.6299 4.8808 -10.2187 0.0001 35.1619 0.0005
# 6 0.0010 -0.0020 -0.0070 2.5739 0.0005 19.5627
#
#
#
# Elastic Compliance Matrix: (Units=1/GPa)
#
#
# Indices 1 2 3 4 5 6 
#
# 1 0.013163 0.001601 -0.007020 -0.000003 -0.000155 -0.000003
# 2 0.001601 0.037762 -0.016447 -0.000005 -0.009765 -0.000001
# 3 -0.007020 -0.016447 0.019018 0.000008 0.006686 0.000004
# 4 -0.000003 -0.000005 0.000008 0.036126 0.000002 -0.004753
# 5 -0.000155 -0.009765 0.006686 0.000002 0.031714 0.000000
# 6 -0.000003 -0.000001 0.000004 -0.004753 0.000000 0.051743
#
#
# Mechanical properties :
#
#
# Convention : Reuss Voigt Hill
#
# Bulk Modulus (GPa) = 38.15053 56.57199 47.36126
# Shear Modulus (GPa) = 20.66159 26.29707 23.47933
#
# Velocity S-wave (km/s) = 3.32959 3.75632 3.54938
# Velocity P-wave (km/s) = 5.93731 7.01196 6.49689
#
# Compressibility (1/GPa) = 0.02621195
#
# Stress axis : x y z
#
# Youngs Moduli (GPa) = 75.97302 26.48155 52.58058
#
# Poissons Ratio (x) = -0.04241 0.36913
# Poissons Ratio (y) = -0.12166 0.86478
# Poissons Ratio (z) = 0.53335 0.43553
#
# Static dielectric constant tensor:
#      x y z
#    x 3.578600 -0.000010 -0.249460 
#    y -0.000010 3.371200 0.000010 
#    z -0.249460 0.000010 3.577380 
# 
# 
# High freq. dielectric constant tensor:
#      x y z
#    x 1.722530 0.000000 -0.016020 
#    y 0.000000 1.705660 0.000000 
#    z -0.016020 0.000000 1.731800 
# 
# From -- ./inp_files/190423.got.cif
#   From: 2010.06.25/outbox.cif.g09.slc.cpg/sg12_96_cif.got.tgz:190423.got - 2010.06.28 00:19:55.
