data_PCOD8100989
_publ_section_title
;
Structure prediction by ZEFSAII (Michael W. Deem and Ramdas Pophale) SiO2 
 PCOD8100989
Probable space group: C 2/M
;
_chemical_formula_sum "Si O2"
_cell_formula_units_Z 56
_cell_length_a 18.494355
_cell_length_b 9.637414
_cell_length_c 17.878052
_cell_angle_alpha 90.000000
_cell_angle_beta 111.306243
_cell_angle_gamma 90.000000
_cell_volume 2968.748825
_symmetry_space_group_name_H-M "C 2/M"
_symmetry_group_IT_number 12
_symmetry_cell_setting 'monoclinic'
loop_
_space_group_symop_operation_xyz
x,y,z
-x,y,-z
-x,-y,-z
x,-y,z
1/2+x,1/2+y,z
1/2-x,1/2+y,-z
1/2-x,1/2-y,-z
1/2+x,1/2-y,z
loop_
_atom_site_type_symbol
_atom_site_label
_atom_site_fract_x
_atom_site_fract_y
_atom_site_fract_z
Si Si1 0.218688 0.160291 0.137492
Si Si2 0.446262 0.656457 0.543359
Si Si3 0.073595 0.839624 0.977995
Si Si4 0.111092 0.661278 0.850301
Si Si5 0.273063 0.345630 0.441495
Si Si6 0.530366 0.158122 0.304069
Si Si7 0.677945 0.839615 0.264675
O O1 0.301908 0.210237 0.137156
O O2 0.194637 0.248411 0.199374
O O3 0.222846 0.000000 0.163261
O O4 0.154159 0.185538 0.050667
O O5 0.500000 0.723766 0.500000
O O6 0.472569 0.500000 0.574337
O O7 0.364681 0.653712 0.471047
O O8 0.447810 0.745572 0.618654
O O9 0.075900 0.748803 0.904624
O O10 0.063537 0.000000 0.951371
O O11 0.000000 0.791708 0.000000
O O12 0.109918 0.500000 0.873264
O O13 0.056402 0.687966 0.757793
O O14 0.239426 0.500000 0.443506
O O15 0.250000 0.250000 0.500000
O O16 0.237587 0.289228 0.351039
O O17 0.590237 0.187304 0.259137
O O18 0.538664 0.000000 0.334663
O O19 0.691339 0.000000 0.248594
#
# Coordination Sequence:
#
# PCOD8100989 Si02
#       7
#     8   8   8   8   8   8   8
#     4  10  22  38  56  83 115 143 179 225 270 323
#     4  10  22  37  55  80 110 144 185 230 276 326
#     4  10  21  38  60  85 112 144 182 222 267 323
#     4  10  22  38  57  83 114 145 180 224 271 323
#     4  10  20  36  56  80 109 143 185 231 274 321
#     4  10  21  38  56  79 110 144 184 227 272 325
#     4  10  21  36  56  81 109 142 184 227 269 323
#
# _framework density 18.863166
#
# number of rings (size 3 to 8) (size 9 to 14) (size 15 to 20)
#    0.000    2.000    1.429    1.286    2.000    3.429 
#    0.000    0.000    0.000    0.000    0.000    0.000 
#    0.000    0.000    0.000    0.000    0.000    0.000 
#
# Total GULP energy -347243.687423 kJ/mol
# GULP energy per Si atom -12401.560265 kJ/mol
# Density = 1.882023 g / cm^3
# Si number density = 18.863166 Si / 1000 Ang^3
#
#
#
# Elastic Constant Matrix: (Units=GPa)
#
#
# Indices 1 2 3 4 5 6 
#
# 1 101.6896 23.4315 22.1139 0.0000 8.2189 0.0000
# 2 23.4315 57.1272 30.8732 0.0000 -9.6723 0.0000
# 3 22.1139 30.8732 62.5853 0.0000 3.9408 0.0000
# 4 0.0000 0.0000 0.0000 26.5884 0.0000 -3.8972
# 5 8.2189 -9.6723 3.9408 0.0000 35.7693 0.0000
# 6 0.0000 0.0000 0.0000 -3.8972 0.0000 26.5383
#
#
#
# Elastic Compliance Matrix: (Units=1/GPa)
#
#
# Indices 1 2 3 4 5 6 
#
# 1 0.011514 -0.004459 -0.001638 0.000000 -0.003671 0.000000
# 2 -0.004459 0.027975 -0.012854 0.000000 0.010005 0.000000
# 3 -0.001638 -0.012854 0.023254 0.000000 -0.005662 0.000000
# 4 0.000000 0.000000 0.000000 0.038438 0.000000 0.005645
# 5 -0.003671 0.010005 -0.005662 0.000000 0.032130 0.000000
# 6 0.000000 0.000000 0.000000 0.005645 0.000000 0.038510
#
#
# Mechanical properties :
#
#
# Convention : Reuss Voigt Hill
#
# Bulk Modulus (GPa) = 40.25591 41.58212 40.91901
# Shear Modulus (GPa) = 22.93544 27.44477 25.19011
#
# Velocity S-wave (km/s) = 3.49074 3.81851 3.65829
# Velocity P-wave (km/s) = 6.13468 6.44463 6.29157
#
# Compressibility (1/GPa) = 0.02484108
#
# Stress axis : x y z
#
# Youngs Moduli (GPa) = 86.84943 35.74662 43.00290
#
# Poissons Ratio (x) = 0.15940 0.07042
# Poissons Ratio (y) = 0.38729 0.55277
# Poissons Ratio (z) = 0.14222 0.45949
#
# Static dielectric constant tensor:
#      x y z
#    x 3.413110 0.000000 -0.237270 
#    y 0.000000 3.474590 0.000000 
#    z -0.237270 0.000000 2.620610 
# 
# 
# High freq. dielectric constant tensor:
#      x y z
#    x 1.747070 0.000000 0.013060 
#    y 0.000000 1.728630 0.000000 
#    z 0.013060 0.000000 1.733690 
# 
# From -- ./inp_files/275105.got.cif
#   From: 2010.06.25/outbox.cif.g09.slc.cpg/sg12_138_cif.got.tgz:275105.got - 2010.06.28 00:19:55.
