data_PCOD8100399
_publ_section_title
;
Structure prediction by ZEFSAII (Michael W. Deem and Ramdas Pophale) SiO2 
 PCOD8100399
Probable space group: C 2/M
;
_chemical_formula_sum "Si O2"
_cell_formula_units_Z 64
_cell_length_a 12.843051
_cell_length_b 21.692164
_cell_length_c 16.245542
_cell_angle_alpha 90.000000
_cell_angle_beta 142.279733
_cell_angle_gamma 90.000000
_cell_volume 2768.978903
_symmetry_space_group_name_H-M "C 2/M"
_symmetry_group_IT_number 12
_symmetry_cell_setting 'monoclinic'
loop_
_space_group_symop_operation_xyz
x,y,z
-x,y,-z
-x,-y,-z
x,-y,z
1/2+x,1/2+y,z
1/2-x,1/2+y,-z
1/2-x,1/2-y,-z
1/2+x,1/2-y,z
loop_
_atom_site_type_symbol
_atom_site_label
_atom_site_fract_x
_atom_site_fract_y
_atom_site_fract_z
Si Si1 0.197975 0.929041 0.323543
Si Si2 0.817841 0.428637 0.217281
Si Si3 0.905914 0.265517 0.363707
Si Si4 0.351226 0.614680 0.043671
Si Si5 0.175698 0.135150 0.620757
Si Si6 0.861761 0.353580 0.574519
Si Si7 0.497101 0.129130 0.095201
Si Si8 0.028925 0.767748 0.113541
O O1 0.290718 0.912087 0.295953
O O2 0.261213 0.881739 0.433076
O O3 0.995631 0.924377 0.180274
O O4 0.238682 0.000000 0.374810
O O5 0.816199 0.500000 0.199468
O O6 0.002081 0.403156 0.307109
O O7 0.668439 0.401419 0.065411
O O8 0.883387 0.191729 0.356146
O O9 0.718649 0.295481 0.242097
O O10 0.000000 0.294879 0.500000
O O11 0.031543 0.289417 0.370008
O O12 0.398644 0.687202 0.078940
O O13 0.174517 0.598599 0.978777
O O14 0.229589 0.160338 0.564648
O O15 0.329363 0.097412 0.760430
O O16 0.000000 0.095211 0.500000
O O17 0.507146 0.199210 0.136619
O O18 0.500000 0.123299 0.000000
O O19 0.000000 0.762249 0.000000
#
# Coordination Sequence:
#
# PCOD8100399 Si02
#       8
#     8   8   8   8   8   8   8   8
#     4  11  25  41  65 101 131 164 216 274 328 384
#     4  11  23  41  67  96 129 166 215 270 326 386
#     4  10  21  38  56  90 128 167 213 252 305 380
#     4  12  21  38  65  92 128 171 210 264 329 382
#     4  10  24  42  62  93 129 172 218 263 312 386
#     4  12  22  41  68  92 131 178 212 266 328 378
#     4  10  23  41  59  90 129 173 217 259 312 388
#     4  10  20  35  58  90 128 166 209 256 310 390
#
# _framework density 23.113215
#
# number of rings (size 3 to 8) (size 9 to 14) (size 15 to 20)
#    0.000    1.250    1.250    5.625    1.750    4.000 
#    6.750    0.000    0.000    4.500    0.000    0.000 
#    0.000    0.000    0.000    0.000    0.000    0.000 
#
# Total GULP energy -396570.347606 kJ/mol
# GULP energy per Si atom -12392.823363 kJ/mol
# Density = 2.306061 g / cm^3
# Si number density = 23.113215 Si / 1000 Ang^3
#
#
#
# Elastic Constant Matrix: (Units=GPa)
#
#
# Indices 1 2 3 4 5 6 
#
# 1 95.8276 -1.4773 25.9239 0.0003 20.6529 0.0000
# 2 -1.4773 39.3630 3.8602 0.0002 -1.8331 0.0000
# 3 25.9239 3.8602 149.2804 0.0006 21.4239 0.0004
# 4 0.0003 0.0002 0.0006 29.1570 0.0009 4.1540
# 5 20.6529 -1.8331 21.4239 0.0009 43.1418 0.0004
# 6 0.0000 0.0000 0.0004 4.1540 0.0004 14.1869
#
#
#
# Elastic Compliance Matrix: (Units=1/GPa)
#
#
# Indices 1 2 3 4 5 6 
#
# 1 0.011885 0.000346 -0.001355 0.000000 -0.005002 0.000000
# 2 0.000346 0.025572 -0.000919 0.000000 0.001377 0.000000
# 3 -0.001355 -0.000919 0.007398 0.000000 -0.003064 0.000000
# 4 0.000000 0.000000 0.000000 0.035790 -0.000001 -0.010479
# 5 -0.005002 0.001377 -0.003064 -0.000001 0.027154 0.000000
# 6 0.000000 0.000000 0.000000 -0.010479 0.000000 0.073556
#
#
# Mechanical properties :
#
#
# Convention : Reuss Voigt Hill
#
# Bulk Modulus (GPa) = 24.39105 37.89830 31.14467
# Shear Modulus (GPa) = 25.14111 34.37474 29.75793
#
# Velocity S-wave (km/s) = 3.30166 3.86065 3.59205
# Velocity P-wave (km/s) = 5.01103 6.02538 5.54146
#
# Compressibility (1/GPa) = 0.04099865
#
# Stress axis : x y z
#
# Youngs Moduli (GPa) = 84.13688 39.10559 135.17887
#
# Poissons Ratio (x) = -0.01353 0.18318
# Poissons Ratio (y) = -0.02911 0.12423
# Poissons Ratio (z) = 0.11401 0.03594
#
# Static dielectric constant tensor:
#      x y z
#    x 4.076140 0.000000 0.269140 
#    y 0.000000 3.823900 0.000000 
#    z 0.269140 0.000000 4.669310 
# 
# 
# High freq. dielectric constant tensor:
#      x y z
#    x 1.900740 0.000000 0.012900 
#    y 0.000000 1.874410 0.000000 
#    z 0.012900 0.000000 1.944430 
# 
# From -- ./inp_files/209406.got.cif
#   From: 2010.06.25/outbox.cif.g09.slc.cpg/sg12_105_cif.got.tgz:209406.got - 2010.06.28 00:19:55.
