data_PCOD8100056
_publ_section_title
;
Structure prediction by ZEFSAII (Michael W. Deem and Ramdas Pophale) SiO2 
 PCOD8100056
Probable space group: C 2/M
;
_chemical_formula_sum "Si O2"
_cell_formula_units_Z 56
_cell_length_a 28.511720
_cell_length_b 8.964243
_cell_length_c 19.398510
_cell_angle_alpha 90.000000
_cell_angle_beta 144.692046
_cell_angle_gamma 90.000000
_cell_volume 2865.572478
_symmetry_space_group_name_H-M "C 2/M"
_symmetry_group_IT_number 12
_symmetry_cell_setting 'monoclinic'
loop_
_space_group_symop_operation_xyz
x,y,z
-x,y,-z
-x,-y,-z
x,-y,z
1/2+x,1/2+y,z
1/2-x,1/2+y,-z
1/2-x,1/2-y,-z
1/2+x,1/2-y,z
loop_
_atom_site_type_symbol
_atom_site_label
_atom_site_fract_x
_atom_site_fract_y
_atom_site_fract_z
Si Si1 0.226041 0.173578 0.184685
Si Si2 0.860789 0.675583 0.453552
Si Si3 0.464314 0.170442 0.306431
Si Si4 0.787822 0.322026 0.112568
Si Si5 0.480033 0.828960 0.777553
Si Si6 0.821548 0.175982 0.544944
Si Si7 0.063062 0.675190 0.018323
O O1 0.311192 0.208733 0.324797
O O2 0.236781 0.226874 0.118582
O O3 0.152280 0.255589 0.134571
O O4 0.206270 0.000000 0.164510
O O5 0.862527 0.500000 0.474298
O O6 0.816854 0.761885 0.462157
O O7 0.953970 0.737517 0.560003
O O8 0.380041 0.241775 0.231891
O O9 0.465807 0.190723 0.225590
O O10 0.462038 0.000000 0.325786
O O11 0.788469 0.500000 0.104383
O O12 0.750000 0.250000 0.000000
O O13 0.404012 0.719796 0.682428
O O14 0.450020 0.000000 0.749078
O O15 0.532253 0.779561 0.905792
O O16 0.750000 0.250000 0.500000
O O17 0.811579 0.000000 0.531962
O O18 0.072689 0.500000 0.039240
O O19 0.000000 0.737557 0.000000
#
# Coordination Sequence:
#
# PCOD8100056 Si02
#       7
#     8   8   8   8   8   8   8
#     4  10  22  37  56  85 119 149 187 239 288 335
#     4   9  19  37  56  80 114 150 188 232 281 335
#     4   8  15  31  56  79 106 145 185 225 272 329
#     4  10  20  35  57  86 115 150 191 233 281 334
#     4   9  18  35  55  78 108 142 185 232 277 329
#     4  11  22  35  55  81 108 143 185 232 281 334
#     4  10  22  38  57  81 110 149 193 234 283 344
#
# _framework density 19.542342999999999
#
# number of rings (size 3 to 8) (size 9 to 14) (size 15 to 20)
#    0.000    2.429    0.000    3.000    2.000    3.714 
#    0.000    7.143    0.000    0.000    0.000    6.000 
#    0.000    0.000    0.000    0.000    0.000    0.000 
#
# Total GULP energy -347109.779246 kJ/mol
# GULP energy per Si atom -12396.777830 kJ/mol
# Density = 1.949786 g / cm^3
# Si number density = 19.542343 Si / 1000 Ang^3
#
#
#
# Elastic Constant Matrix: (Units=GPa)
#
#
# Indices 1 2 3 4 5 6 
#
# 1 121.7173 33.2340 57.7779 0.0000 19.8250 0.0000
# 2 33.2340 57.7677 29.6150 0.0000 4.0510 0.0000
# 3 57.7779 29.6150 115.8413 0.0000 0.3607 0.0000
# 4 0.0000 0.0000 0.0000 27.4593 0.0000 0.7975
# 5 19.8250 4.0510 0.3607 0.0000 30.0602 0.0000
# 6 0.0000 0.0000 0.0000 0.7975 0.0000 23.8044
#
#
#
# Elastic Compliance Matrix: (Units=1/GPa)
#
#
# Indices 1 2 3 4 5 6 
#
# 1 0.013336 -0.004262 -0.005536 0.000000 -0.008154 0.000000
# 2 -0.004262 0.021493 -0.003369 0.000000 -0.000045 0.000000
# 3 -0.005536 -0.003369 0.012243 0.000000 0.003958 0.000000
# 4 0.000000 0.000000 0.000000 0.036453 0.000000 -0.001221
# 5 -0.008154 -0.000045 0.003958 0.000000 0.038603 0.000000
# 6 0.000000 0.000000 0.000000 -0.001221 0.000000 0.042050
#
#
# Mechanical properties :
#
#
# Convention : Reuss Voigt Hill
#
# Bulk Modulus (GPa) = 48.22315 59.61999 53.92157
# Shear Modulus (GPa) = 25.32621 27.91142 26.61882
#
# Velocity S-wave (km/s) = 3.60386 3.78332 3.69468
# Velocity P-wave (km/s) = 6.48436 7.04692 6.77148
#
# Compressibility (1/GPa) = 0.02073693
#
# Stress axis : x y z
#
# Youngs Moduli (GPa) = 74.98670 46.52708 81.68058
#
# Poissons Ratio (x) = 0.19830 0.45222
# Poissons Ratio (y) = 0.31959 0.27517
# Poissons Ratio (z) = 0.41516 0.15674
#
# Static dielectric constant tensor:
#      x y z
#    x 3.440170 0.000000 0.197450 
#    y 0.000000 3.311100 0.000000 
#    z 0.197450 0.000000 3.461390 
# 
# 
# High freq. dielectric constant tensor:
#      x y z
#    x 1.765460 0.000000 0.006860 
#    y 0.000000 1.730340 0.000000 
#    z 0.006860 0.000000 1.770540 
# 
# From -- ./inp_files/292534.got.cif
#   From: 2010.06.25/outbox.cif.g09.slc.cpg/sg12_147_cif.got.tgz:292534.got - 2010.06.28 00:19:55.
