data_PCOD8100897
_publ_section_title
;
Structure prediction by ZEFSAII (Michael W. Deem and Ramdas Pophale) SiO2 
 PCOD8100897
Probable space group: C 2/M
;
_chemical_formula_sum "Si O2"
_cell_formula_units_Z 60
_cell_length_a 7.955962
_cell_length_b 20.493412
_cell_length_c 24.107016
_cell_angle_alpha 90.000000
_cell_angle_beta 45.079606
_cell_angle_gamma 90.000000
_cell_volume 2783.158853
_symmetry_space_group_name_H-M "C 2/M"
_symmetry_group_IT_number 12
_symmetry_cell_setting 'monoclinic'
loop_
_space_group_symop_operation_xyz
x,y,z
-x,y,-z
-x,-y,-z
x,-y,z
1/2+x,1/2+y,z
1/2-x,1/2+y,-z
1/2-x,1/2-y,-z
1/2+x,1/2-y,z
loop_
_atom_site_type_symbol
_atom_site_label
_atom_site_fract_x
_atom_site_fract_y
_atom_site_fract_z
Si Si1 0.447208 0.880336 0.251583
Si Si2 0.144018 0.779984 0.853402
Si Si3 0.643117 0.347576 0.171900
Si Si4 0.551626 0.925745 0.106592
Si Si5 0.000000 0.164491 0.000000
Si Si6 0.942349 0.809442 0.599598
Si Si7 0.182831 0.425829 0.305529
Si Si8 0.621585 0.171513 0.568245
O O1 0.613229 0.817590 0.212028
O O2 0.460223 0.920232 0.191555
O O3 0.177705 0.853588 0.324186
O O4 0.543598 0.925427 0.279268
O O5 0.210845 0.704576 0.823489
O O6 0.933251 0.806324 0.863873
O O7 0.044258 0.787763 0.938470
O O8 0.417125 0.381469 0.251787
O O9 0.837056 0.404240 0.115396
O O10 0.778323 0.882250 0.040516
O O11 0.619228 0.000000 0.077943
O O12 0.793148 0.821218 0.579864
O O13 0.219137 0.830130 0.525079
O O14 0.937428 0.732066 0.613272
O O15 0.248314 0.500000 0.305181
O O16 0.020112 0.396165 0.392491
#
# Coordination Sequence:
#
# PCOD8100897 Si02
#       8
#     8   8   8   8   4   8   8   8
#     4   9  19  35  58  81 111 148 193 239 282 335
#     4  10  21  38  60  88 112 144 185 237 292 331
#     4  11  23  38  60  85 115 147 187 234 281 336
#     4  11  23  40  59  84 114 153 190 226 277 342
#     4  10  23  42  66  88 117 144 180 234 284 336
#     4   9  17  32  51  83 111 145 192 241 290 327
#     4  10  20  36  55  82 116 154 190 231 281 341
#     4   9  18  31  53  79 114 148 188 239 287 334
#
# _framework density 21.558237999999999
#
# number of rings (size 3 to 8) (size 9 to 14) (size 15 to 20)
#    0.000    2.133    0.000    3.400    0.000    5.867 
#    0.000    8.667    0.000    0.000    0.000    9.333 
#    0.000    0.000    0.000    0.000    0.000    0.000 
#
# Total GULP energy -371862.341155 kJ/mol
# GULP energy per Si atom -12395.411372 kJ/mol
# Density = 2.150917 g / cm^3
# Si number density = 21.558238 Si / 1000 Ang^3
#
#
#
# Elastic Constant Matrix: (Units=GPa)
#
#
# Indices 1 2 3 4 5 6 
#
# 1 60.6946 26.5564 24.3041 0.0015 -22.6890 0.0005
# 2 26.5564 127.0317 51.2715 -0.0020 -9.7938 0.0018
# 3 24.3041 51.2715 103.8618 0.0068 -17.4758 -0.0053
# 4 0.0015 -0.0020 0.0068 19.1597 -0.0051 -4.8353
# 5 -22.6890 -9.7938 -17.4758 -0.0051 24.4668 0.0025
# 6 0.0005 0.0018 -0.0053 -4.8353 0.0025 24.1711
#
#
#
# Elastic Compliance Matrix: (Units=1/GPa)
#
#
# Indices 1 2 3 4 5 6 
#
# 1 0.026932 -0.003590 -0.000647 0.000003 0.023076 -0.000002
# 2 -0.003590 0.010315 -0.004680 0.000002 -0.002543 -0.000001
# 3 -0.000647 -0.004680 0.013268 -0.000003 0.007003 0.000002
# 4 0.000003 0.000002 -0.000003 0.054968 0.000012 0.010996
# 5 0.023076 -0.002543 0.007003 0.000012 0.066255 -0.000003
# 6 -0.000002 -0.000001 0.000002 0.010996 -0.000003 0.043571
#
#
# Mechanical properties :
#
#
# Convention : Reuss Voigt Hill
#
# Bulk Modulus (GPa) = 30.59837 55.09467 42.84652
# Shear Modulus (GPa) = 20.48853 26.18992 23.33922
#
# Velocity S-wave (km/s) = 3.08617 3.48924 3.29388
# Velocity P-wave (km/s) = 5.18878 6.46875 5.86380
#
# Compressibility (1/GPa) = 0.03268148
#
# Stress axis : x y z
#
# Youngs Moduli (GPa) = 37.13033 96.94242 75.36730
#
# Poissons Ratio (x) = 0.34801 0.04879
# Poissons Ratio (y) = 0.13329 0.35272
# Poissons Ratio (z) = 0.02404 0.45369
#
# Static dielectric constant tensor:
#      x y z
#    x 3.925210 0.000000 -0.193710 
#    y 0.000000 3.768130 0.000000 
#    z -0.193710 0.000000 4.327380 
# 
# 
# High freq. dielectric constant tensor:
#      x y z
#    x 1.839900 0.000000 -0.018270 
#    y 0.000000 1.836180 0.000000 
#    z -0.018270 0.000000 1.846520 
# 
# From -- ./inp_files/356907.got.cif
#   From: 2010.06.25/outbox.cif.g09.slc.cpg/sg12_179_cif.got.tgz:356907.got - 2010.06.28 00:19:55.
