data_PCOD8100513
_publ_section_title
;
Structure prediction by ZEFSAII (Michael W. Deem and Ramdas Pophale) SiO2 
 PCOD8100513
Probable space group: C 2/M
;
_chemical_formula_sum "Si O2"
_cell_formula_units_Z 56
_cell_length_a 23.031690
_cell_length_b 8.549035
_cell_length_c 14.897637
_cell_angle_alpha 90.000000
_cell_angle_beta 64.713307
_cell_angle_gamma 90.000000
_cell_volume 2652.259665
_symmetry_space_group_name_H-M "C 2/M"
_symmetry_group_IT_number 12
_symmetry_cell_setting 'monoclinic'
loop_
_space_group_symop_operation_xyz
x,y,z
-x,y,-z
-x,-y,-z
x,-y,z
1/2+x,1/2+y,z
1/2-x,1/2+y,-z
1/2-x,1/2-y,-z
1/2+x,1/2-y,z
loop_
_atom_site_type_symbol
_atom_site_label
_atom_site_fract_x
_atom_site_fract_y
_atom_site_fract_z
Si Si1 0.465618 0.680986 0.115119
Si Si2 0.990382 0.816669 0.403936
Si Si3 0.940731 0.682160 0.802647
Si Si4 0.737403 0.318458 0.649682
Si Si5 0.344802 0.317528 0.466924
Si Si6 0.161777 0.319967 0.851163
Si Si7 0.819924 0.183260 0.970408
O O1 0.445990 0.500000 0.133621
O O2 0.512048 0.718796 0.166127
O O3 0.401585 0.784102 0.165295
O O4 0.500000 0.723720 0.000000
O O5 0.919129 0.770258 0.418466
O O6 0.000000 0.765352 0.500000
O O7 0.041906 0.720863 0.311580
O O8 0.003323 0.000000 0.382808
O O9 0.948984 0.500000 0.817541
O O10 0.867768 0.732761 0.869436
O O11 0.733260 0.500000 0.675680
O O12 0.685206 0.270231 0.608853
O O13 0.808647 0.276095 0.569537
O O14 0.723108 0.222618 0.749792
O O15 0.335038 0.500000 0.492955
O O16 0.165338 0.500000 0.877497
O O17 0.158667 0.214874 0.942009
O O18 0.821396 0.000000 0.950271
O O19 0.750000 0.250000 0.000000
#
# Coordination Sequence:
#
# PCOD8100513 Si02
#       7
#     8   8   8   8   8   8   8
#     4  11  22  38  64  94 127 166 207 260 317 375
#     4  10  22  41  65  90 121 165 214 262 312 371
#     4  12  25  42  66  96 130 168 211 263 319 379
#     4  10  20  35  59  88 122 162 203 253 314 374
#     4   9  19  37  59  86 120 157 205 260 315 370
#     4  12  24  39  62  94 129 165 209 257 311 377
#     4  12  26  46  67  90 124 166 211 257 309 372
#
# _framework density 21.114070000000002
#
# number of rings (size 3 to 8) (size 9 to 14) (size 15 to 20)
#    0.000    1.143    1.429    5.571    0.000    4.286 
#    0.000    4.286    0.000    0.000    0.000    0.000 
#    0.000    0.000    0.000    0.000    0.000    0.000 
#
# Total GULP energy -347418.889666 kJ/mol
# GULP energy per Si atom -12407.817488 kJ/mol
# Density = 2.106601 g / cm^3
# Si number density = 21.114070 Si / 1000 Ang^3
#
#
#
# Elastic Constant Matrix: (Units=GPa)
#
#
# Indices 1 2 3 4 5 6 
#
# 1 82.8708 10.7251 36.6893 0.0000 -13.0032 0.0000
# 2 10.7251 78.6321 42.1929 0.0000 -5.5431 0.0000
# 3 36.6893 42.1929 142.4222 0.0000 -13.1555 0.0000
# 4 0.0000 0.0000 0.0000 37.1809 0.0000 -3.6647
# 5 -13.0032 -5.5431 -13.1555 0.0000 29.3827 0.0000
# 6 0.0000 0.0000 0.0000 -3.6647 0.0000 30.1126
#
#
#
# Elastic Compliance Matrix: (Units=1/GPa)
#
#
# Indices 1 2 3 4 5 6 
#
# 1 0.014259 0.000152 -0.003268 0.000000 0.004876 0.000000
# 2 0.000152 0.015145 -0.004439 0.000000 0.000937 0.000000
# 3 -0.003268 -0.004439 0.009354 0.000000 0.001904 0.000000
# 4 0.000000 0.000000 0.000000 0.027222 0.000000 0.003313
# 5 0.004876 0.000937 0.001904 0.000000 0.037221 0.000000
# 6 0.000000 0.000000 0.000000 0.003313 0.000000 0.033612
#
#
# Mechanical properties :
#
#
# Convention : Reuss Voigt Hill
#
# Bulk Modulus (GPa) = 42.28638 53.68221 47.98429
# Shear Modulus (GPa) = 31.28794 33.62311 32.45552
#
# Velocity S-wave (km/s) = 3.85366 3.99488 3.92491
# Velocity P-wave (km/s) = 6.31443 6.83804 6.58144
#
# Compressibility (1/GPa) = 0.02364828
#
# Stress axis : x y z
#
# Youngs Moduli (GPa) = 70.13013 66.02910 106.90192
#
# Poissons Ratio (x) = -0.01007 0.34936
# Poissons Ratio (y) = -0.01069 0.47458
# Poissons Ratio (z) = 0.22919 0.29313
#
# Static dielectric constant tensor:
#      x y z
#    x 3.776470 0.000000 -0.081600 
#    y 0.000000 3.706730 0.000000 
#    z -0.081600 0.000000 3.995360 
# 
# 
# High freq. dielectric constant tensor:
#      x y z
#    x 1.819010 0.000000 -0.009640 
#    y 0.000000 1.827760 0.000000 
#    z -0.009640 0.000000 1.840240 
# 
# From -- ./inp_files/238239.got.cif
#   From: 2010.06.25/outbox.cif.g09.slc.cpg/sg12_120_cif.got.tgz:238239.got - 2010.06.28 00:19:55.
