data_PCOD8100956
_publ_section_title
;
Structure prediction by ZEFSAII (Michael W. Deem and Ramdas Pophale) SiO2 
 PCOD8100956
Probable space group: C 2/M
;
_chemical_formula_sum "Si O2"
_cell_formula_units_Z 56
_cell_length_a 10.068248
_cell_length_b 24.808019
_cell_length_c 16.301107
_cell_angle_alpha 90.000000
_cell_angle_beta 51.337209
_cell_angle_gamma 90.000000
_cell_volume 3179.238261
_symmetry_space_group_name_H-M "C 2/M"
_symmetry_group_IT_number 12
_symmetry_cell_setting 'monoclinic'
loop_
_space_group_symop_operation_xyz
x,y,z
-x,y,-z
-x,-y,-z
x,-y,z
1/2+x,1/2+y,z
1/2-x,1/2+y,-z
1/2-x,1/2-y,-z
1/2+x,1/2-y,z
loop_
_atom_site_type_symbol
_atom_site_label
_atom_site_fract_x
_atom_site_fract_y
_atom_site_fract_z
Si Si1 0.305420 0.195592 0.074845
Si Si2 0.027949 0.060197 0.585234
Si Si3 0.809729 0.178019 0.055388
Si Si4 0.007908 0.348924 0.282789
Si Si5 0.915044 0.437184 0.446621
Si Si6 0.679994 0.658618 0.295281
Si Si7 0.451097 0.756340 0.430129
O O1 0.282550 0.259419 0.084745
O O2 0.213870 0.173478 0.189392
O O3 0.500000 0.178391 0.000000
O O4 0.220501 0.167703 0.028961
O O5 0.218523 0.078515 0.532344
O O6 0.000000 0.063956 0.500000
O O7 0.895149 0.098792 0.680755
O O8 0.993300 0.000000 0.631351
O O9 0.677514 0.145058 0.162573
O O10 0.000000 0.158082 0.000000
O O11 0.994902 0.402915 0.341759
O O12 0.848400 0.339993 0.284909
O O13 0.023962 0.297000 0.334600
O O14 0.938716 0.500000 0.414758
O O15 0.000000 0.422348 0.500000
O O16 0.539931 0.698354 0.387389
O O17 0.500000 0.780372 0.500000
O O18 0.250000 0.750000 0.500000
#
# Coordination Sequence:
#
# PCOD8100956 Si02
#       7
#     8   8   8   8   8   8   8
#     4  10  20  36  56  78 110 151 192 239 280 338
#     4  10  20  37  60  85 113 151 195 231 272 339
#     4  10  22  36  56  81 111 145 198 239 282 342
#     4  12  22  37  59  84 114 156 190 235 294 343
#     4  10  22  40  61  87 117 151 194 237 279 339
#     4  12  22  36  59  84 116 155 193 235 288 341
#     4  12  24  35  51  82 121 150 183 230 288 347
#
# _framework density 17.614281999999999
#
# number of rings (size 3 to 8) (size 9 to 14) (size 15 to 20)
#    0.000    1.143    5.714    1.714    0.000    2.286 
#    0.000    0.000    0.000    1.714    0.000    0.000 
#    0.000    0.000    0.000    0.000    0.000    0.000 
#
# Total GULP energy -347301.025962 kJ/mol
# GULP energy per Si atom -12403.608070 kJ/mol
# Density = 1.757419 g / cm^3
# Si number density = 17.614282 Si / 1000 Ang^3
#
#
#
# Elastic Constant Matrix: (Units=GPa)
#
#
# Indices 1 2 3 4 5 6 
#
# 1 154.2516 31.7747 64.1333 0.0000 1.7805 0.0000
# 2 31.7747 67.3874 42.6426 0.0000 -2.8641 0.0000
# 3 64.1333 42.6426 120.8553 0.0000 3.5975 0.0000
# 4 0.0000 0.0000 0.0000 28.5934 0.0000 3.6610
# 5 1.7805 -2.8641 3.5975 0.0000 31.9711 0.0000
# 6 0.0000 0.0000 0.0000 3.6610 0.0000 32.5073
#
#
#
# Elastic Compliance Matrix: (Units=1/GPa)
#
#
# Indices 1 2 3 4 5 6 
#
# 1 0.008431 -0.001486 -0.003945 0.000000 -0.000159 0.000000
# 2 -0.001486 0.019565 -0.006190 0.000000 0.002532 0.000000
# 3 -0.003945 -0.006190 0.012604 0.000000 -0.001753 0.000000
# 4 0.000000 0.000000 0.000000 0.035485 0.000000 -0.003996
# 5 -0.000159 0.002532 -0.001753 0.000000 0.031711 0.000000
# 6 0.000000 0.000000 0.000000 -0.003996 0.000000 0.031212
#
#
# Mechanical properties :
#
#
# Convention : Reuss Voigt Hill
#
# Bulk Modulus (GPa) = 57.61015 68.84396 63.22705
# Shear Modulus (GPa) = 29.75541 32.21060 30.98301
#
# Velocity S-wave (km/s) = 4.11454 4.28093 4.19856
# Velocity P-wave (km/s) = 7.43976 7.97522 7.71214
#
# Compressibility (1/GPa) = 0.01735805
#
# Stress axis : x y z
#
# Youngs Moduli (GPa) = 118.60927 51.11195 79.33855
#
# Poissons Ratio (x) = 0.07594 0.31300
# Poissons Ratio (y) = 0.17622 0.49112
# Poissons Ratio (z) = 0.46792 0.31639
#
# Static dielectric constant tensor:
#      x y z
#    x 3.517500 0.000000 0.100750 
#    y 0.000000 3.213170 0.000000 
#    z 0.100750 0.000000 3.209790 
# 
# 
# High freq. dielectric constant tensor:
#      x y z
#    x 1.703300 0.000000 0.003830 
#    y 0.000000 1.661010 0.000000 
#    z 0.003830 0.000000 1.678110 
# 
# From -- ./inp_files/198772.got.cif
#   From: 2010.06.25/outbox.cif.g09.slc.cpg/sg12_100_cif.got.tgz:198772.got - 2010.06.28 00:19:55.
