data_PCOD8100305
_publ_section_title
;
Structure prediction by ZEFSAII (Michael W. Deem and Ramdas Pophale) SiO2 
 PCOD8100305
Probable space group: C 2/M
;
_chemical_formula_sum "Si O2"
_cell_formula_units_Z 56
_cell_length_a 15.900624
_cell_length_b 8.919070
_cell_length_c 23.536733
_cell_angle_alpha 90.000000
_cell_angle_beta 126.177383
_cell_angle_gamma 90.000000
_cell_volume 2694.371746
_symmetry_space_group_name_H-M "C 2/M"
_symmetry_group_IT_number 12
_symmetry_cell_setting 'monoclinic'
loop_
_space_group_symop_operation_xyz
x,y,z
-x,y,-z
-x,-y,-z
x,-y,z
1/2+x,1/2+y,z
1/2-x,1/2+y,-z
1/2-x,1/2-y,-z
1/2+x,1/2-y,z
loop_
_atom_site_type_symbol
_atom_site_label
_atom_site_fract_x
_atom_site_fract_y
_atom_site_fract_z
Si Si1 0.876730 0.828859 0.182505
Si Si2 0.200078 0.322763 0.333341
Si Si3 0.076947 0.172409 0.186045
Si Si4 0.977433 0.339867 0.052211
Si Si5 0.078834 0.674632 0.581651
Si Si6 0.996424 0.324481 0.671643
Si Si7 0.282196 0.672158 0.955740
O O1 0.771931 0.748171 0.120275
O O2 0.962635 0.812972 0.167660
O O3 0.916382 0.756430 0.256324
O O4 0.849706 0.000000 0.184599
O O5 0.200712 0.500000 0.324236
O O6 0.163539 0.242246 0.261348
O O7 0.316787 0.266603 0.391362
O O8 0.120863 0.279400 0.353853
O O9 0.072984 0.269486 0.126634
O O10 0.106914 0.000000 0.185711
O O11 0.938769 0.500000 0.066790
O O12 0.904044 0.199434 0.007818
O O13 0.000000 0.402971 0.000000
O O14 0.108703 0.500000 0.595839
O O15 0.000000 0.711618 0.500000
O O16 0.019319 0.723967 0.615862
O O17 0.011676 0.500000 0.686106
O O18 0.253170 0.500000 0.943111
O O19 0.250000 0.750000 0.000000
#
# Coordination Sequence:
#
# PCOD8100305 Si02
#       7
#     8   8   8   8   8   8   8
#     4  10  20  35  58  87 115 150 198 250 297 350
#     4  10  21  38  62  90 121 157 198 247 302 359
#     4  10  20  36  59  83 112 152 195 242 296 356
#     4  11  24  39  55  79 113 152 196 247 300 355
#     4  10  22  41  64  91 125 162 200 244 298 364
#     4   9  20  39  61  88 122 161 203 247 301 365
#     4  12  23  36  57  82 112 152 195 243 297 352
#
# _framework density 20.784065999999999
#
# number of rings (size 3 to 8) (size 9 to 14) (size 15 to 20)
#    0.000    1.714    1.429    3.000    0.000    5.429 
#    0.000    0.000    0.000    0.000    0.000    0.000 
#    0.000    0.000    0.000    0.000    0.000    0.000 
#
# Total GULP energy -346901.036626 kJ/mol
# GULP energy per Si atom -12389.322737 kJ/mol
# Density = 2.073676 g / cm^3
# Si number density = 20.784066 Si / 1000 Ang^3
#
#
#
# Elastic Constant Matrix: (Units=GPa)
#
#
# Indices 1 2 3 4 5 6 
#
# 1 77.8093 42.1520 55.3425 0.0000 -1.6850 0.0000
# 2 42.1520 115.3998 68.6032 0.0000 -2.5145 0.0000
# 3 55.3425 68.6032 155.3364 0.0000 -5.2552 0.0000
# 4 0.0000 0.0000 0.0000 43.6571 0.0000 8.1361
# 5 -1.6850 -2.5145 -5.2552 0.0000 32.9633 0.0000
# 6 0.0000 0.0000 0.0000 8.1361 0.0000 26.3379
#
#
#
# Elastic Compliance Matrix: (Units=1/GPa)
#
#
# Indices 1 2 3 4 5 6 
#
# 1 0.018381 -0.003825 -0.004863 0.000000 -0.000128 0.000000
# 2 -0.003825 0.012547 -0.004175 0.000000 0.000096 0.000000
# 3 -0.004863 -0.004175 0.010049 0.000000 0.001035 0.000000
# 4 0.000000 0.000000 0.000000 0.024305 0.000000 -0.007508
# 5 -0.000128 0.000096 0.001035 0.000000 0.030503 0.000000
# 6 0.000000 0.000000 0.000000 -0.007508 0.000000 0.040287
#
#
# Mechanical properties :
#
#
# Convention : Reuss Voigt Hill
#
# Bulk Modulus (GPa) = 65.57823 75.63786 70.60804
# Shear Modulus (GPa) = 29.96113 32.75487 31.35800
#
# Velocity S-wave (km/s) = 3.80089 3.97414 3.88848
# Velocity P-wave (km/s) = 7.13323 7.58483 7.36249
#
# Compressibility (1/GPa) = 0.01524896
#
# Stress axis : x y z
#
# Youngs Moduli (GPa) = 54.40489 79.70049 99.50967
#
# Poissons Ratio (x) = 0.30489 0.48396
# Poissons Ratio (y) = 0.20812 0.41546
# Poissons Ratio (z) = 0.26459 0.33276
#
# Static dielectric constant tensor:
#      x y z
#    x 3.587110 0.000000 -0.085540 
#    y 0.000000 3.680710 0.000000 
#    z -0.085540 0.000000 3.752590 
# 
# 
# High freq. dielectric constant tensor:
#      x y z
#    x 1.799390 0.000000 -0.000970 
#    y 0.000000 1.827940 0.000000 
#    z -0.000970 0.000000 1.812140 
# 
# From -- ./inp_files/342520.got.cif
#   From: 2010.06.25/outbox.cif.g09.slc.cpg/sg12_172_cif.got.tgz:342520.got - 2010.06.28 00:19:55.
