data_PCOD8100819
_publ_section_title
;
Structure prediction by ZEFSAII (Michael W. Deem and Ramdas Pophale) SiO2 
 PCOD8100819
Probable space group: C 2/M
;
_chemical_formula_sum "Si O2"
_cell_formula_units_Z 56
_cell_length_a 21.653916
_cell_length_b 26.544032
_cell_length_c 13.443261
_cell_angle_alpha 90.000000
_cell_angle_beta 22.484601
_cell_angle_gamma 90.000000
_cell_volume 2955.056107
_symmetry_space_group_name_H-M "C 2/M"
_symmetry_group_IT_number 12
_symmetry_cell_setting 'monoclinic'
loop_
_space_group_symop_operation_xyz
x,y,z
-x,y,-z
-x,-y,-z
x,-y,z
1/2+x,1/2+y,z
1/2-x,1/2+y,-z
1/2-x,1/2-y,-z
1/2+x,1/2-y,z
loop_
_atom_site_type_symbol
_atom_site_label
_atom_site_fract_x
_atom_site_fract_y
_atom_site_fract_z
Si Si1 0.754973 0.357629 0.080132
Si Si2 0.763642 0.865374 0.292235
Si Si3 0.443761 0.324558 0.441882
Si Si4 0.362133 0.055439 0.269879
Si Si5 0.502179 0.943180 0.713168
Si Si6 0.397803 0.630265 0.305065
Si Si7 0.021645 0.707610 0.580273
O O1 0.602698 0.357356 0.231938
O O2 0.702434 0.343375 0.270748
O O3 0.831239 0.413791 0.964796
O O4 0.885143 0.316075 0.853728
O O5 0.635738 0.909666 0.456875
O O6 0.792617 0.853478 0.366019
O O7 0.697889 0.812228 0.350165
O O8 0.923192 0.882657 0.997418
O O9 0.399588 0.328722 0.390901
O O10 0.486642 0.267226 0.400247
O O11 0.429115 0.052131 0.279915
O O12 0.187900 0.081351 0.521293
O O13 0.333708 0.000000 0.266974
O O14 0.500000 0.083940 0.000000
O O15 0.482533 0.000000 0.697241
O O16 0.000000 0.689664 0.500000
#
# Coordination Sequence:
#
# PCOD8100819 Si02
#       7
#     8   8   8   8   8   8   8
#     4  10  21  36  54  88 108 143 195 228 277 336
#     4   9  21  36  56  82 111 147 190 227 283 329
#     4  11  22  34  57  79 113 146 186 233 281 330
#     4   9  17  31  54  80 107 146 186 224 276 332
#     4   9  18  35  57  78 110 148 185 231 279 330
#     4  10  20  36  54  81 117 145 182 237 275 329
#     4  11  21  37  60  79 109 148 188 233 273 332
#
# _framework density 18.950571
#
# number of rings (size 3 to 8) (size 9 to 14) (size 15 to 20)
#    0.000    2.143    1.429    2.143    2.000    1.143 
#    0.000    5.000    3.143   14.571    0.000    0.000 
#    0.000    0.000    0.000    0.000    0.000    0.000 
#
# Total GULP energy -347065.241201 kJ/mol
# GULP energy per Si atom -12395.187186 kJ/mol
# Density = 1.890744 g / cm^3
# Si number density = 18.950571 Si / 1000 Ang^3
#
#
#
# Elastic Constant Matrix: (Units=GPa)
#
#
# Indices 1 2 3 4 5 6 
#
# 1 73.5128 33.8836 38.2232 0.0427 5.0188 0.0066
# 2 33.8836 89.2310 43.3663 -0.0154 -8.6559 0.0582
# 3 38.2232 43.3663 127.6068 0.0118 -1.6511 0.0952
# 4 0.0427 -0.0154 0.0118 22.9803 -0.0353 4.9678
# 5 5.0188 -8.6559 -1.6511 -0.0353 27.2447 0.0080
# 6 0.0066 0.0582 0.0952 4.9678 0.0080 -19.4337
#
#
#
# Elastic Compliance Matrix: (Units=1/GPa)
#
#
# Indices 1 2 3 4 5 6 
#
# 1 0.018552 -0.005799 -0.003657 -0.000036 -0.005481 -0.000040
# 2 -0.005799 0.015685 -0.003518 0.000024 0.005838 0.000036
# 3 -0.003657 -0.003518 0.010130 -0.000008 0.000170 0.000036
# 4 -0.000036 0.000024 -0.000008 0.041237 0.000064 0.010541
# 5 -0.005481 0.005838 0.000170 0.000064 0.039579 0.000049
# 6 -0.000040 0.000036 0.000036 0.010541 0.000049 -0.048762
#
#
# Mechanical properties :
#
#
# Convention : Reuss Voigt Hill
#
# Bulk Modulus (GPa) = 54.29347 57.92187 56.10767
# Shear Modulus (GPa) = 46.07955 17.81678 31.94816
#
# Velocity S-wave (km/s) = 4.93644 3.06955 4.11039
# Velocity P-wave (km/s) = 7.82327 6.57221 7.22487
#
# Compressibility (1/GPa) = 0.01841842
#
# Stress axis : x y z
#
# Youngs Moduli (GPa) = 53.90332 63.75543 98.71945
#
# Poissons Ratio (x) = 0.36972 0.36103
# Poissons Ratio (y) = 0.31259 0.34728
# Poissons Ratio (z) = 0.19713 0.22428
#
# Static dielectric constant tensor:
#      x y z
#    x 3.471900 -0.000050 0.025080 
#    y -0.000050 3.603580 0.000160 
#    z 0.025080 0.000160 3.667130 
# 
# 
# High freq. dielectric constant tensor:
#      x y z
#    x 1.730830 0.000000 0.005430 
#    y 0.000000 1.720580 0.000010 
#    z 0.005430 0.000010 1.750320 
# 
# From -- ./inp_files/242121.got.cif
#   From: 2010.06.25/outbox.cif.g09.slc.cpg/sg12_122_cif.got.tgz:242121.got - 2010.06.28 00:19:55.
