data_PCOD8100929
_publ_section_title
;
Structure prediction by ZEFSAII (Michael W. Deem and Ramdas Pophale) SiO2 
 PCOD8100929
Probable space group: C 2/M
;
_chemical_formula_sum "Si O2"
_cell_formula_units_Z 48
_cell_length_a 29.307612
_cell_length_b 8.964262
_cell_length_c 16.260613
_cell_angle_alpha 90.000000
_cell_angle_beta 142.942787
_cell_angle_gamma 90.000000
_cell_volume 2574.363158
_symmetry_space_group_name_H-M "C 2/M"
_symmetry_group_IT_number 12
_symmetry_cell_setting 'monoclinic'
loop_
_space_group_symop_operation_xyz
x,y,z
-x,y,-z
-x,-y,-z
x,-y,z
1/2+x,1/2+y,z
1/2-x,1/2+y,-z
1/2-x,1/2-y,-z
1/2+x,1/2-y,z
loop_
_atom_site_type_symbol
_atom_site_label
_atom_site_fract_x
_atom_site_fract_y
_atom_site_fract_z
Si Si1 0.229116 0.822306 0.723132
Si Si2 0.047905 0.677117 0.187174
Si Si3 0.609471 0.177208 0.104952
Si Si4 0.304198 0.327385 0.141915
Si Si5 0.522206 0.328094 0.623899
Si Si6 0.596040 0.176596 0.433749
O O1 0.312391 0.760777 0.819945
O O2 0.208714 0.763757 0.784893
O O3 0.170868 0.754250 0.574807
O O4 0.223120 0.000000 0.709094
O O5 0.045397 0.500000 0.184766
O O6 0.099267 0.732666 0.184560
O O7 0.083364 0.736822 0.322791
O O8 0.961480 0.735931 0.051336
O O9 0.611208 0.000000 0.105669
O O10 0.283609 0.500000 0.112807
O O11 0.389441 0.298143 0.235614
O O12 0.250000 0.250000 0.000000
O O13 0.500000 0.284275 0.500000
O O14 0.500183 0.500000 0.609414
O O15 0.477688 0.220939 0.620781
O O16 0.606318 0.000000 0.451888
#
# Coordination Sequence:
#
# PCOD8100929 Si02
#       6
#     8   8   8   8   8   8
#     4  10  20  36  56  77 105 144 181 212 258 321
#     4   8  16  31  51  80 107 132 173 222 264 305
#     4   8  15  31  55  76 102 139 177 215 259 314
#     4  10  22  37  55  79 107 138 175 220 262 310
#     4  10  20  39  58  73 104 145 180 213 255 315
#     4  11  22  33  53  83 111 136 173 225 267 305
#
# _framework density 18.645388000000001
#
# number of rings (size 3 to 8) (size 9 to 14) (size 15 to 20)
#    0.000    2.500    1.667    1.500    2.333    2.333 
#    0.000    0.000    0.000    1.000    0.000    5.833 
#    0.000    0.000    0.000    0.000    0.000    0.000 
#
# Total GULP energy -297567.973940 kJ/mol
# GULP energy per Si atom -12398.665581 kJ/mol
# Density = 1.860295 g / cm^3
# Si number density = 18.645388 Si / 1000 Ang^3
#
#
#
# Elastic Constant Matrix: (Units=GPa)
#
#
# Indices 1 2 3 4 5 6 
#
# 1 102.3846 20.4622 58.2086 0.0000 4.4260 0.0000
# 2 20.4622 26.0938 30.7114 0.0000 -0.3935 0.0000
# 3 58.2086 30.7114 147.6849 0.0000 -12.3856 0.0000
# 4 0.0000 0.0000 0.0000 30.4405 0.0000 -1.3504
# 5 4.4260 -0.3935 -12.3856 0.0000 32.6125 0.0000
# 6 0.0000 0.0000 0.0000 -1.3504 0.0000 11.9299
#
#
#
# Elastic Compliance Matrix: (Units=1/GPa)
#
#
# Indices 1 2 3 4 5 6 
#
# 1 0.013577 -0.005356 -0.004542 0.000000 -0.003632 0.000000
# 2 -0.005356 0.053247 -0.009138 0.000000 -0.002101 0.000000
# 3 -0.004542 -0.009138 0.010850 0.000000 0.004627 0.000000
# 4 0.000000 0.000000 0.000000 0.033017 0.000000 0.003737
# 5 -0.003632 -0.002101 0.004627 0.000000 0.032888 0.000000
# 6 0.000000 0.000000 0.000000 0.003737 0.000000 0.084246
#
#
# Mechanical properties :
#
#
# Convention : Reuss Voigt Hill
#
# Bulk Modulus (GPa) = 25.25152 54.99196 40.12174
# Shear Modulus (GPa) = 17.91502 26.11534 22.01518
#
# Velocity S-wave (km/s) = 3.10309 3.74656 3.43990
# Velocity P-wave (km/s) = 5.13919 6.94790 6.11083
#
# Compressibility (1/GPa) = 0.03960158
#
# Stress axis : x y z
#
# Youngs Moduli (GPa) = 73.65543 18.78053 92.16864
#
# Poissons Ratio (x) = 0.10058 0.41863
# Poissons Ratio (y) = 0.39447 0.84225
# Poissons Ratio (z) = 0.33455 0.17162
#
# Static dielectric constant tensor:
#      x y z
#    x 3.835810 0.000000 0.006550 
#    y 0.000000 3.012000 0.000000 
#    z 0.006550 0.000000 3.622510 
# 
# 
# High freq. dielectric constant tensor:
#      x y z
#    x 1.733310 0.000000 0.001190 
#    y 0.000000 1.682150 0.000000 
#    z 0.001190 0.000000 1.736480 
# 
# From -- ./inp_files/244916.got.cif
#   From: 2010.06.25/outbox.cif.g09.slc.cpg/sg12_123_cif.got.tgz:244916.got - 2010.06.28 00:19:55.
