data_PCOD8100396
_publ_section_title
;
Structure prediction by ZEFSAII (Michael W. Deem and Ramdas Pophale) SiO2 
 PCOD8100396
Probable space group: C 2/M
;
_chemical_formula_sum "Si O2"
_cell_formula_units_Z 56
_cell_length_a 19.553601
_cell_length_b 8.188559
_cell_length_c 27.952828
_cell_angle_alpha 90.000000
_cell_angle_beta 138.362386
_cell_angle_gamma 90.000000
_cell_volume 2973.724378
_symmetry_space_group_name_H-M "C 2/M"
_symmetry_group_IT_number 12
_symmetry_cell_setting 'monoclinic'
loop_
_space_group_symop_operation_xyz
x,y,z
-x,y,-z
-x,-y,-z
x,-y,z
1/2+x,1/2+y,z
1/2-x,1/2+y,-z
1/2-x,1/2-y,-z
1/2+x,1/2-y,z
loop_
_atom_site_type_symbol
_atom_site_label
_atom_site_fract_x
_atom_site_fract_y
_atom_site_fract_z
Si Si1 0.846637 0.000000 0.443719
Si Si2 0.838521 0.685977 0.308108
Si Si3 0.901499 0.807363 0.978941
Si Si4 0.019443 0.184527 0.788501
Si Si5 0.542060 0.500000 0.597791
Si Si6 0.300241 0.179538 0.686438
Si Si7 0.197685 0.312572 0.819443
Si Si8 0.365238 0.812223 0.061255
O O1 0.773568 0.162603 0.399796
O O2 0.916085 0.000000 0.528008
O O3 0.918426 0.000000 0.434841
O O4 0.885344 0.500000 0.336234
O O5 0.746686 0.696130 0.299163
O O6 0.789021 0.712234 0.230137
O O7 0.923008 0.830215 0.358700
O O8 0.799399 0.742856 0.898586
O O9 0.895866 0.000000 0.985221
O O10 0.915882 0.714610 0.036305
O O11 0.000000 0.757870 0.000000
O O12 0.914160 0.282988 0.728341
O O13 0.096171 0.222965 0.785205
O O14 0.071745 0.212903 0.866781
O O15 0.985291 0.000000 0.766547
O O16 0.300968 0.000000 0.712079
O O17 0.184665 0.500000 0.826720
O O18 0.367647 0.000000 0.077573
O O19 0.250000 0.750000 0.000000
#
# Coordination Sequence:
#
# PCOD8100396 Si02
#       8
#     4   8   8   8   4   8   8   8
#     4   7  16  34  62  86 121 152 187 237 299 333
#     4  10  20  35  58  90 123 157 197 241 291 355
#     4  10  22  40  59  81 112 150 190 243 298 340
#     4  12  24  37  59  85 113 153 200 242 292 356
#     4   9  16  36  60  90 120 159 189 238 292 349
#     4   9  19  37  59  85 118 154 186 243 295 339
#     4  10  22  38  56  82 116 155 196 244 293 346
#     4  12  24  40  58  81 111 149 196 245 293 345
#
# _framework density 18.831603999999999
#
# number of rings (size 3 to 8) (size 9 to 14) (size 15 to 20)
#    0.429    1.429    2.143    3.000    3.000    0.286 
#    0.000    6.429    0.000    0.857    0.000    0.000 
#    0.000    0.000    0.000    0.000    0.000    0.000 
#
# Total GULP energy -346997.825039 kJ/mol
# GULP energy per Si atom -12392.779466 kJ/mol
# Density = 1.878874 g / cm^3
# Si number density = 18.831604 Si / 1000 Ang^3
#
#
#
# Elastic Constant Matrix: (Units=GPa)
#
#
# Indices 1 2 3 4 5 6 
#
# 1 81.9657 16.3310 31.0951 0.0000 11.8697 0.0000
# 2 16.3310 82.1373 24.7689 0.0000 1.3756 -0.0002
# 3 31.0951 24.7689 88.6839 0.0000 22.5160 0.0000
# 4 0.0000 0.0000 0.0000 17.8882 0.0000 -1.1276
# 5 11.8697 1.3756 22.5160 0.0000 25.0007 0.0000
# 6 0.0000 -0.0002 0.0000 -1.1276 0.0000 26.3480
#
#
#
# Elastic Compliance Matrix: (Units=1/GPa)
#
#
# Indices 1 2 3 4 5 6 
#
# 1 0.014445 -0.001691 -0.003727 0.000000 -0.003408 0.000000
# 2 -0.001691 0.013717 -0.004214 0.000000 0.003843 0.000000
# 3 -0.003727 -0.004214 0.017180 0.000000 -0.013471 0.000000
# 4 0.000000 0.000000 0.000000 0.056054 0.000000 0.002399
# 5 -0.003408 0.003843 -0.013471 0.000000 0.053538 0.000000
# 6 0.000000 0.000000 0.000000 0.002399 0.000000 0.038056
#
#
# Mechanical properties :
#
#
# Convention : Reuss Voigt Hill
#
# Bulk Modulus (GPa) = 38.34692 44.13077 41.23885
# Shear Modulus (GPa) = 22.62987 25.88684 24.25836
#
# Velocity S-wave (km/s) = 3.47031 3.71165 3.59301
# Velocity P-wave (km/s) = 6.03860 6.46945 6.25773
#
# Compressibility (1/GPa) = 0.02607771
#
# Stress axis : x y z
#
# Youngs Moduli (GPa) = 69.22991 72.90043 58.20729
#
# Poissons Ratio (x) = 0.12327 0.21694
# Poissons Ratio (y) = 0.11706 0.24529
# Poissons Ratio (z) = 0.25803 0.30721
#
# Static dielectric constant tensor:
#      x y z
#    x 3.351060 0.000000 0.021780 
#    y 0.000000 3.504560 0.000000 
#    z 0.021780 0.000000 3.866300 
# 
# 
# High freq. dielectric constant tensor:
#      x y z
#    x 1.719770 0.000000 0.007970 
#    y 0.000000 1.731290 0.000000 
#    z 0.007970 0.000000 1.723260 
# 
# From -- ./inp_files/363254.got.cif
#   From: 2010.06.25/outbox.cif.g09.slc.cpg/sg12_182_cif.got.tgz:363254.got - 2010.06.28 00:19:55.
