data_PCOD8100598
_publ_section_title
;
Structure prediction by ZEFSAII (Michael W. Deem and Ramdas Pophale) SiO2 
 PCOD8100598
Probable space group: C 2/M
;
_chemical_formula_sum "Si O2"
_cell_formula_units_Z 48
_cell_length_a 27.376458
_cell_length_b 14.789468
_cell_length_c 12.614838
_cell_angle_alpha 90.000000
_cell_angle_beta 151.842537
_cell_angle_gamma 90.000000
_cell_volume 2410.227857
_symmetry_space_group_name_H-M "C 2/M"
_symmetry_group_IT_number 12
_symmetry_cell_setting 'monoclinic'
loop_
_space_group_symop_operation_xyz
x,y,z
-x,y,-z
-x,-y,-z
x,-y,z
1/2+x,1/2+y,z
1/2-x,1/2+y,-z
1/2-x,1/2-y,-z
1/2+x,1/2-y,z
loop_
_atom_site_type_symbol
_atom_site_label
_atom_site_fract_x
_atom_site_fract_y
_atom_site_fract_z
Si Si1 0.891036 0.500000 0.848673
Si Si2 0.796175 0.192001 0.682392
Si Si3 0.895827 0.665519 0.011404
Si Si4 0.220776 0.184783 0.846764
Si Si5 0.376171 0.500000 0.256682
Si Si6 0.291018 0.500000 0.659652
Si Si7 0.234805 0.500000 0.793798
Si Si8 0.873395 0.669995 0.468667
O O1 0.816073 0.500000 0.606471
O O2 0.869713 0.585501 0.881590
O O3 0.000000 0.500000 0.000000
O O4 0.750000 0.250000 0.500000
O O5 0.847052 0.096215 0.738669
O O6 0.696024 0.168108 0.559791
O O7 0.882128 0.242666 0.917203
O O8 0.010153 0.655670 0.273496
O O9 0.822565 0.664174 0.973280
O O10 0.168695 0.090173 0.776101
O O11 0.136658 0.236258 0.613479
O O12 0.250000 0.250000 0.000000
O O13 0.500000 0.500000 0.500000
O O14 0.337103 0.500000 0.061500
O O15 0.277812 0.500000 0.759216
O O16 0.163403 0.588094 0.678643
#
# Coordination Sequence:
#
# PCOD8100598 Si02
#       8
#     4   8   8   8   4   4   4   8
#     4  12  21  37  66 100 130 171 217 276 349 410
#     4  10  20  37  59  92 129 174 213 274 328 407
#     4  11  24  39  66  97 133 171 233 279 342 413
#     4  11  25  45  65  96 136 177 228 286 349 407
#     4  12  27  44  74  98 132 181 226 276 351 424
#     4  10  20  35  60  86 131 168 208 262 329 387
#     4  10  20  42  62 102 132 165 225 274 330 408
#     4  10  22  39  66  94 131 170 222 284 342 401
#
# _framework density 19.915130000000001
#
# number of rings (size 3 to 8) (size 9 to 14) (size 15 to 20)
#    0.000    1.333    3.333    3.000    2.333    0.000 
#    0.000    0.833    0.000    1.000    0.000    0.000 
#    0.000    0.000    0.000    0.000    0.000    0.000 
#
# Total GULP energy -297454.965016 kJ/mol
# GULP energy per Si atom -12393.956876 kJ/mol
# Density = 1.986980 g / cm^3
# Si number density = 19.915130 Si / 1000 Ang^3
#
#
#
# Elastic Constant Matrix: (Units=GPa)
#
#
# Indices 1 2 3 4 5 6 
#
# 1 70.4777 41.9594 25.9642 0.0000 -14.0242 0.0000
# 2 41.9594 182.6112 46.6791 0.0000 -7.0699 0.0000
# 3 25.9642 46.6791 135.3309 0.0000 -8.7746 0.0000
# 4 0.0000 0.0000 0.0000 33.6864 0.0000 -10.2615
# 5 -14.0242 -7.0699 -8.7746 0.0000 25.6424 0.0000
# 6 0.0000 0.0000 0.0000 -10.2615 0.0000 36.1023
#
#
#
# Elastic Compliance Matrix: (Units=1/GPa)
#
#
# Indices 1 2 3 4 5 6 
#
# 1 0.018649 -0.003487 -0.001816 0.000000 0.008616 0.000000
# 2 -0.003487 0.006681 -0.001677 0.000000 -0.000639 0.000000
# 3 -0.001816 -0.001677 0.008408 0.000000 0.001422 0.000000
# 4 0.000000 0.000000 0.000000 0.032499 0.000000 0.009237
# 5 0.008616 -0.000639 0.001422 0.000000 0.044021 0.000000
# 6 0.000000 0.000000 0.000000 0.009237 0.000000 0.030325
#
#
# Mechanical properties :
#
#
# Convention : Reuss Voigt Hill
#
# Bulk Modulus (GPa) = 50.56273 68.62501 59.59387
# Shear Modulus (GPa) = 31.02959 37.34067 34.18513
#
# Velocity S-wave (km/s) = 3.95155 4.33481 4.14761
# Velocity P-wave (km/s) = 6.80175 7.71931 7.27501
#
# Compressibility (1/GPa) = 0.01977741
#
# Stress axis : x y z
#
# Youngs Moduli (GPa) = 53.62313 149.67171 118.92892
#
# Poissons Ratio (x) = 0.52192 0.21603
# Poissons Ratio (y) = 0.18699 0.19944
# Poissons Ratio (z) = 0.09740 0.25099
#
# Static dielectric constant tensor:
#      x y z
#    x 3.471960 0.000000 -0.453840 
#    y 0.000000 1.900530 0.000000 
#    z -0.453840 0.000000 2.891820 
# 
# 
# High freq. dielectric constant tensor:
#      x y z
#    x 1.759450 0.000000 -0.026050 
#    y 0.000000 1.808970 0.000000 
#    z -0.026050 0.000000 1.777400 
# 
# From -- ./inp_files/183935.got.cif
#   From: 2010.06.25/outbox.cif.g09.slc.cpg/sg12_92_cif.got.tgz:183935.got - 2010.06.28 00:19:55.
