data_PCOD8100115
_publ_section_title
;
Structure prediction by ZEFSAII (Michael W. Deem and Ramdas Pophale) SiO2 
 PCOD8100115
Probable space group: C 2/M
;
_chemical_formula_sum "Si O2"
_cell_formula_units_Z 60
_cell_length_a 9.185789
_cell_length_b 24.267762
_cell_length_c 20.926331
_cell_angle_alpha 90.000000
_cell_angle_beta 41.444814
_cell_angle_gamma 90.000000
_cell_volume 3087.667953
_symmetry_space_group_name_H-M "C 2/M"
_symmetry_group_IT_number 12
_symmetry_cell_setting 'monoclinic'
loop_
_space_group_symop_operation_xyz
x,y,z
-x,y,-z
-x,-y,-z
x,-y,z
1/2+x,1/2+y,z
1/2-x,1/2+y,-z
1/2-x,1/2-y,-z
1/2+x,1/2-y,z
loop_
_atom_site_type_symbol
_atom_site_label
_atom_site_fract_x
_atom_site_fract_y
_atom_site_fract_z
Si Si1 0.497398 0.701904 0.605296
Si Si2 0.000000 0.116916 0.500000
Si Si3 0.229349 0.786888 0.891482
Si Si4 0.380843 0.144667 0.206085
Si Si5 0.664425 0.189505 0.398882
Si Si6 0.801885 0.858483 0.220556
Si Si7 0.736375 0.157461 0.892850
Si Si8 0.073500 0.435281 0.701137
O O1 0.595031 0.655080 0.526014
O O2 0.249083 0.684642 0.703063
O O3 0.491798 0.759786 0.570974
O O4 0.624666 0.708020 0.630081
O O5 0.793392 0.079790 0.589346
O O6 0.395156 0.821793 0.881363
O O7 0.243437 0.808627 0.813958
O O8 0.286587 0.722648 0.874490
O O9 0.000000 0.799004 0.000000
O O10 0.258225 0.133031 0.180289
O O11 0.412027 0.086135 0.230728
O O12 0.500000 0.154694 0.500000
O O13 0.743256 0.156995 0.311887
O O14 0.651798 0.910809 0.254088
O O15 0.064798 0.871670 0.133285
O O16 0.500000 0.143213 0.000000
O O17 0.045695 0.500000 0.711278
#
# Coordination Sequence:
#
# PCOD8100115 Si02
#       8
#     8   4   8   8   8   8   8   8
#     4  11  22  34  53  85 126 158 191 223 274 346
#     4  10  21  40  64  88 110 152 203 242 288 348
#     4  10  20  35  57  88 125 162 197 231 278 349
#     4  10  21  35  56  84 115 152 196 234 288 347
#     4  12  23  33  53  83 129 167 188 224 275 350
#     4  11  23  36  59  88 121 159 198 247 287 341
#     4  11  20  35  58  89 126 159 187 229 291 355
#     4  10  23  43  65  80 105 148 202 259 302 341
#
# _framework density 19.432141999999999
#
# number of rings (size 3 to 8) (size 9 to 14) (size 15 to 20)
#    0.000    1.333    2.000    4.600    5.600    2.133 
#    0.000    0.667    0.000   16.400    0.000    0.000 
#    0.000    0.000    0.000    0.000    0.000    0.000 
#
# Total GULP energy -371933.559323 kJ/mol
# GULP energy per Si atom -12397.785311 kJ/mol
# Density = 1.938791 g / cm^3
# Si number density = 19.432142 Si / 1000 Ang^3
#
#
#
# Elastic Constant Matrix: (Units=GPa)
#
#
# Indices 1 2 3 4 5 6 
#
# 1 103.8965 32.2827 17.4391 0.0000 -5.6944 0.0000
# 2 32.2827 87.7718 36.4024 0.0000 -5.5599 0.0000
# 3 17.4391 36.4024 85.0087 0.0001 -8.5236 -0.0001
# 4 0.0000 0.0000 0.0001 19.8185 0.0000 -2.9408
# 5 -5.6944 -5.5599 -8.5236 0.0000 36.3408 0.0000
# 6 0.0000 0.0000 -0.0001 -2.9408 0.0000 13.4365
#
#
#
# Elastic Compliance Matrix: (Units=1/GPa)
#
#
# Indices 1 2 3 4 5 6 
#
# 1 0.010931 -0.003731 -0.000543 0.000000 0.001015 0.000000
# 2 -0.003731 0.015147 -0.005681 0.000000 0.000400 0.000000
# 3 -0.000543 -0.005681 0.014554 0.000000 0.002459 0.000000
# 4 0.000000 0.000000 0.000000 0.052152 0.000000 0.011414
# 5 0.001015 0.000400 0.002459 0.000000 0.028314 0.000000
# 6 0.000000 0.000000 0.000000 0.011414 0.000000 0.076923
#
#
# Mechanical properties :
#
#
# Convention : Reuss Voigt Hill
#
# Bulk Modulus (GPa) = 48.25647 49.88059 49.06853
# Shear Modulus (GPa) = 22.23830 26.62267 24.43049
#
# Velocity S-wave (km/s) = 3.38658 3.70541 3.54958
# Velocity P-wave (km/s) = 6.33870 6.63563 6.48886
#
# Compressibility (1/GPa) = 0.02072261
#
# Stress axis : x y z
#
# Youngs Moduli (GPa) = 91.48282 66.02070 68.70945
#
# Poissons Ratio (x) = 0.24632 0.03731
# Poissons Ratio (y) = 0.34132 0.39031
# Poissons Ratio (z) = 0.04968 0.37504
#
# Static dielectric constant tensor:
#      x y z
#    x 3.802160 0.000000 -0.074580 
#    y 0.000000 3.025000 0.000000 
#    z -0.074580 0.000000 3.789620 
# 
# 
# High freq. dielectric constant tensor:
#      x y z
#    x 1.776070 0.000000 -0.003560 
#    y 0.000000 1.691880 0.000000 
#    z -0.003560 0.000000 1.780620 
# 
# From -- ./inp_files/302749.got.cif
#   From: 2010.06.25/outbox.cif.g09.slc.cpg/sg12_152_cif.got.tgz:302749.got - 2010.06.28 00:19:55.
