data_PCOD8100046
_publ_section_title
;
Structure prediction by ZEFSAII (Michael W. Deem and Ramdas Pophale) SiO2 
 PCOD8100046
Probable space group: C 2/M
;
_chemical_formula_sum "Si O2"
_cell_formula_units_Z 64
_cell_length_a 20.551149
_cell_length_b 9.159835
_cell_length_c 24.614237
_cell_angle_alpha 90.000000
_cell_angle_beta 47.449158
_cell_angle_gamma 90.000000
_cell_volume 3413.403067
_symmetry_space_group_name_H-M "C 2/M"
_symmetry_group_IT_number 12
_symmetry_cell_setting 'monoclinic'
loop_
_space_group_symop_operation_xyz
x,y,z
-x,y,-z
-x,-y,-z
x,-y,z
1/2+x,1/2+y,z
1/2-x,1/2+y,-z
1/2-x,1/2-y,-z
1/2+x,1/2-y,z
loop_
_atom_site_type_symbol
_atom_site_label
_atom_site_fract_x
_atom_site_fract_y
_atom_site_fract_z
Si Si1 0.694434 0.826499 0.286547
Si Si2 0.096654 0.662750 0.180305
Si Si3 0.680428 0.328759 0.689089
Si Si4 0.325092 0.173999 0.423122
Si Si5 0.519333 0.827438 0.334527
Si Si6 0.936235 0.341277 0.987156
Si Si7 0.217908 0.163164 0.872824
Si Si8 0.001094 0.830512 0.147674
O O1 0.736370 0.777339 0.320383
O O2 0.591763 0.769555 0.338195
O O3 0.753364 0.770587 0.202219
O O4 0.695697 0.000000 0.282370
O O5 0.060257 0.500000 0.187937
O O6 0.045351 0.732561 0.260636
O O7 0.199494 0.655535 0.133820
O O8 0.080315 0.768694 0.139287
O O9 0.687646 0.500000 0.669874
O O10 0.679205 0.233131 0.635622
O O11 0.592935 0.294869 0.772548
O O12 0.250000 0.250000 0.500000
O O13 0.417286 0.217162 0.401733
O O14 0.312262 0.000000 0.429246
O O15 0.529226 0.000000 0.327292
O O16 0.910570 0.500000 0.976284
O O17 0.992183 0.243984 0.914205
O O18 0.849276 0.264722 0.058127
O O19 0.000000 0.370204 0.000000
O O20 0.178239 0.000000 0.887348
O O21 0.015816 0.000000 0.131060
#
# Coordination Sequence:
#
# PCOD8100046 Si02
#       8
#     8   8   8   8   8   8   8   8
#     4   8  15  31  57  84 108 139 184 230 269 317
#     4   9  17  33  56  81 106 138 180 226 273 323
#     4  10  20  35  57  86 113 138 178 229 274 323
#     4  11  22  37  59  84 113 146 179 219 269 325
#     4   8  15  31  56  82 107 142 182 219 263 317
#     4  11  24  38  51  71 104 145 185 228 279 333
#     4   9  18  34  57  80 106 141 183 231 278 320
#     4  11  22  34  54  81 108 141 180 225 277 327
#
# _framework density 18.749617000000001
#
# number of rings (size 3 to 8) (size 9 to 14) (size 15 to 20)
#    0.000    2.375    1.250    3.375    0.000    3.500 
#    0.000    1.250    0.000    6.000    0.000    0.000 
#    0.000    0.000    0.000    0.000    0.000    0.000 
#
# Total GULP energy -396578.701576 kJ/mol
# GULP energy per Si atom -12393.084424 kJ/mol
# Density = 1.870694 g / cm^3
# Si number density = 18.749617 Si / 1000 Ang^3
#
#
#
# Elastic Constant Matrix: (Units=GPa)
#
#
# Indices 1 2 3 4 5 6 
#
# 1 108.1088 44.2167 47.7821 0.0001 -1.2224 0.0002
# 2 44.2167 88.7618 55.3859 0.0002 -5.1514 0.0003
# 3 47.7821 55.3859 97.4373 0.0001 -12.8526 0.0003
# 4 0.0001 0.0002 0.0001 29.4616 0.0000 1.6988
# 5 -1.2224 -5.1514 -12.8526 0.0000 23.6230 0.0001
# 6 0.0002 0.0003 0.0003 1.6988 0.0001 24.4693
#
#
#
# Elastic Compliance Matrix: (Units=1/GPa)
#
#
# Indices 1 2 3 4 5 6 
#
# 1 0.012707 -0.003687 -0.004476 0.000000 -0.002582 0.000000
# 2 -0.003687 0.018593 -0.008889 0.000000 -0.000973 0.000000
# 3 -0.004476 -0.008889 0.018556 0.000000 0.007926 0.000000
# 4 0.000000 0.000000 0.000000 0.034079 0.000000 -0.002366
# 5 -0.002582 -0.000973 0.007926 0.000000 0.046298 0.000000
# 6 0.000000 0.000000 0.000000 -0.002366 0.000000 0.041032
#
#
# Mechanical properties :
#
#
# Convention : Reuss Voigt Hill
#
# Bulk Modulus (GPa) = 63.48340 65.45304 64.46822
# Shear Modulus (GPa) = 23.73944 25.30566 24.52255
#
# Velocity S-wave (km/s) = 3.56213 3.67776 3.62041
# Velocity P-wave (km/s) = 7.13095 7.28144 7.20658
#
# Compressibility (1/GPa) = 0.01575215
#
# Stress axis : x y z
#
# Youngs Moduli (GPa) = 78.69624 53.78435 53.88987
#
# Poissons Ratio (x) = 0.19829 0.24123
# Poissons Ratio (y) = 0.29013 0.47903
# Poissons Ratio (z) = 0.35227 0.47809
#
# Static dielectric constant tensor:
#      x y z
#    x 3.956450 0.000000 -0.160850 
#    y 0.000000 3.391480 0.000000 
#    z -0.160850 0.000000 3.415350 
# 
# 
# High freq. dielectric constant tensor:
#      x y z
#    x 1.740180 0.000000 -0.004980 
#    y 0.000000 1.705430 0.000000 
#    z -0.004980 0.000000 1.712330 
# 
# From -- ./inp_files/346086.got.cif
#   From: 2010.06.25/outbox.cif.g09.slc.cpg/sg12_174_cif.got.tgz:346086.got - 2010.06.28 00:19:55.
