data_PCOD8100534
_publ_section_title
;
Structure prediction by ZEFSAII (Michael W. Deem and Ramdas Pophale) SiO2 
 PCOD8100534
Probable space group: C 2/M
;
_chemical_formula_sum "Si O2"
_cell_formula_units_Z 64
_cell_length_a 27.844850
_cell_length_b 12.487285
_cell_length_c 16.160011
_cell_angle_alpha 90.000000
_cell_angle_beta 144.747700
_cell_angle_gamma 90.000000
_cell_volume 3243.129616
_symmetry_space_group_name_H-M "C 2/M"
_symmetry_group_IT_number 12
_symmetry_cell_setting 'monoclinic'
loop_
_space_group_symop_operation_xyz
x,y,z
-x,y,-z
-x,-y,-z
x,-y,z
1/2+x,1/2+y,z
1/2-x,1/2+y,-z
1/2-x,1/2-y,-z
1/2+x,1/2-y,z
loop_
_atom_site_type_symbol
_atom_site_label
_atom_site_fract_x
_atom_site_fract_y
_atom_site_fract_z
Si Si1 0.582787 0.382812 0.074181
Si Si2 0.843505 0.628339 0.586178
Si Si3 0.262797 0.235988 0.115792
Si Si4 0.793548 0.276595 0.681678
Si Si5 0.319719 0.374726 0.342682
Si Si6 0.095977 0.884713 0.907369
Si Si7 0.070122 0.618994 0.667508
Si Si8 0.463238 0.746982 0.633807
O O1 0.611656 0.500000 0.150259
O O2 0.648487 0.289171 0.176054
O O3 0.500000 0.341570 0.000000
O O4 0.560498 0.396502 0.948182
O O5 0.842975 0.500000 0.571563
O O6 0.846254 0.655831 0.688086
O O7 0.760156 0.683160 0.436171
O O8 0.919983 0.680933 0.643741
O O9 0.281306 0.340724 0.199047
O O10 0.341969 0.160545 0.243374
O O11 0.250000 0.250000 0.000000
O O12 0.176663 0.189112 0.025981
O O13 0.742601 0.358508 0.667663
O O14 0.343049 0.500000 0.369811
O O15 0.400408 0.301752 0.477138
O O16 0.014948 0.849891 0.743627
O O17 0.123863 0.000000 0.910340
O O18 0.086223 0.500000 0.721568
O O19 0.000000 0.623360 0.500000
O O20 0.036560 0.683610 0.697674
#
# Coordination Sequence:
#
# PCOD8100534 Si02
#       8
#     8   8   8   8   8   8   8   8
#     4  10  20  35  59  89 121 159 201 250 308 362
#     4  10  21  36  61  93 125 166 209 252 307 363
#     4  12  24  44  63  89 127 158 209 259 311 372
#     4  10  20  38  61  88 128 163 205 259 298 369
#     4  11  24  42  66  92 123 167 209 255 314 371
#     4  11  23  40  64  92 124 162 204 253 309 367
#     4  11  23  41  64  89 119 160 207 258 310 359
#     4  11  22  42  64  93 128 162 206 261 304 374
#
# _framework density 19.734024999999999
#
# number of rings (size 3 to 8) (size 9 to 14) (size 15 to 20)
#    0.000    1.250    3.750    2.625    0.000    1.000 
#    0.000    4.375    0.000    1.500    0.000    0.000 
#    0.000    0.000    0.000    0.000    0.000    0.000 
#
# Total GULP energy -396545.142999 kJ/mol
# GULP energy per Si atom -12392.035719 kJ/mol
# Density = 1.968911 g / cm^3
# Si number density = 19.734025 Si / 1000 Ang^3
#
#
#
# Elastic Constant Matrix: (Units=GPa)
#
#
# Indices 1 2 3 4 5 6 
#
# 1 85.4509 28.3815 23.8112 0.0000 -3.7225 0.0000
# 2 28.3815 113.9397 34.4993 0.0000 -3.3083 0.0000
# 3 23.8112 34.4993 86.1928 0.0000 -3.7432 0.0000
# 4 0.0000 0.0000 0.0000 28.5663 0.0000 -2.4923
# 5 -3.7225 -3.3083 -3.7432 0.0000 35.1688 0.0000
# 6 0.0000 0.0000 0.0000 -2.4923 0.0000 2.4695
#
#
#
# Elastic Compliance Matrix: (Units=1/GPa)
#
#
# Indices 1 2 3 4 5 6 
#
# 1 0.013304 -0.002488 -0.002640 0.000000 0.000893 0.000000
# 2 -0.002488 0.010462 -0.003485 0.000000 0.000350 0.000000
# 3 -0.002640 -0.003485 0.013763 0.000000 0.000858 0.000000
# 4 0.000000 0.000000 0.000000 0.038386 0.000000 0.038741
# 5 0.000893 0.000350 0.000858 0.000000 0.028653 0.000000
# 6 0.000000 0.000000 0.000000 0.038741 0.000000 0.444038
#
#
# Mechanical properties :
#
#
# Convention : Reuss Voigt Hill
#
# Bulk Modulus (GPa) = 49.25715 50.99638 50.12677
# Shear Modulus (GPa) = 8.73208 26.50034 17.61621
#
# Velocity S-wave (km/s) = 2.10582 3.66850 2.99102
# Velocity P-wave (km/s) = 5.56124 6.62132 6.11429
#
# Compressibility (1/GPa) = 0.02030162
#
# Stress axis : x y z
#
# Youngs Moduli (GPa) = 75.16640 95.58665 72.65667
#
# Poissons Ratio (x) = 0.23786 0.19185
# Poissons Ratio (y) = 0.18705 0.25319
# Poissons Ratio (z) = 0.19847 0.33309
#
# Static dielectric constant tensor:
#      x y z
#    x 3.803930 0.000000 -0.116800 
#    y 0.000000 3.716980 0.000000 
#    z -0.116800 0.000000 3.952730 
# 
# 
# High freq. dielectric constant tensor:
#      x y z
#    x 1.781490 0.000000 -0.000700 
#    y 0.000000 1.769880 0.000000 
#    z -0.000700 0.000000 1.766470 
# 
# From -- ./inp_files/245989.got.cif
#   From: 2010.06.25/outbox.cif.g09.slc.cpg/sg12_123_cif.got.tgz:245989.got - 2010.06.28 00:19:55.
