data_PCOD8100235
_publ_section_title
;
Structure prediction by ZEFSAII (Michael W. Deem and Ramdas Pophale) SiO2 
 PCOD8100235
Probable space group: C 2/M
;
_chemical_formula_sum "Si O2"
_cell_formula_units_Z 48
_cell_length_a 25.478774
_cell_length_b 19.563035
_cell_length_c 15.625996
_cell_angle_alpha 90.000000
_cell_angle_beta 162.244915
_cell_angle_gamma 90.000000
_cell_volume 2375.141176
_symmetry_space_group_name_H-M "C 2/M"
_symmetry_group_IT_number 12
_symmetry_cell_setting 'monoclinic'
loop_
_space_group_symop_operation_xyz
x,y,z
-x,y,-z
-x,-y,-z
x,-y,z
1/2+x,1/2+y,z
1/2-x,1/2+y,-z
1/2-x,1/2-y,-z
1/2+x,1/2-y,z
loop_
_atom_site_type_symbol
_atom_site_label
_atom_site_fract_x
_atom_site_fract_y
_atom_site_fract_z
Si Si1 0.495654 0.419982 0.736479
Si Si2 0.773419 0.798709 0.414271
Si Si3 0.856622 0.079692 0.213302
Si Si4 0.130043 0.080392 0.129978
Si Si5 0.986086 0.419979 0.226986
Si Si6 0.508448 0.798728 0.149395
O O1 0.444728 0.500000 0.656868
O O2 0.326955 0.373760 0.464538
O O3 0.617896 0.400475 0.846429
O O4 0.582395 0.396923 0.960253
O O5 0.673620 0.810197 0.347196
O O6 0.938384 0.749966 0.688313
O O7 0.649611 0.765375 0.149549
O O8 0.000000 0.114057 0.500000
O O9 0.880695 0.000000 0.261673
O O10 0.660780 0.099648 0.932260
O O11 0.326579 0.103005 0.448595
O O12 0.114906 0.000000 0.114666
O O13 0.000000 0.113128 0.000000
O O14 0.979516 0.500000 0.191713
O O15 0.948496 0.373804 0.086196
#
# Coordination Sequence:
#
# PCOD8100235 Si02
#       6
#     8   8   8   8   8   8
#     4  10  20  35  58  85 114 149 193 240 288 345
#     4  10  22  38  57  82 114 152 191 239 296 351
#     4   9  18  33  54  81 113 149 189 241 297 339
#     4   9  18  31  51  83 117 148 182 230 291 344
#     4  10  20  35  58  85 114 149 193 240 288 345
#     4  10  22  38  57  82 114 152 191 239 296 351
#
# _framework density 20.209325
#
# number of rings (size 3 to 8) (size 9 to 14) (size 15 to 20)
#    0.000    2.333    0.000    2.000    2.333    4.667 
#    0.000    5.833    0.000    0.000    0.000    0.000 
#    0.000    0.000    0.000    0.000    0.000    0.000 
#
# Total GULP energy -297435.707921 kJ/mol
# GULP energy per Si atom -12393.154497 kJ/mol
# Density = 2.016333 g / cm^3
# Si number density = 20.209325 Si / 1000 Ang^3
#
#
#
# Elastic Constant Matrix: (Units=GPa)
#
#
# Indices 1 2 3 4 5 6 
#
# 1 132.4422 32.1608 85.8338 0.0000 2.8548 0.0000
# 2 32.1608 68.7190 35.1512 0.0000 -1.6642 0.0000
# 3 85.8338 35.1512 132.8025 0.0000 -2.3294 0.0000
# 4 0.0000 0.0000 0.0000 23.7630 0.0000 -2.4762
# 5 2.8548 -1.6642 -2.3294 0.0000 24.2917 0.0000
# 6 0.0000 0.0000 0.0000 -2.4762 0.0000 19.5249
#
#
#
# Elastic Compliance Matrix: (Units=1/GPa)
#
#
# Indices 1 2 3 4 5 6 
#
# 1 0.013401 -0.002174 -0.008130 0.000000 -0.002504 0.000000
# 2 -0.002174 0.017196 -0.003127 0.000000 0.001134 0.000000
# 3 -0.008130 -0.003127 0.013648 0.000000 0.002050 0.000000
# 4 0.000000 0.000000 0.000000 0.042646 0.000000 0.005408
# 5 -0.002504 0.001134 0.002050 0.000000 0.041735 0.000000
# 6 0.000000 0.000000 0.000000 0.005408 0.000000 0.051903
#
#
# Mechanical properties :
#
#
# Convention : Reuss Voigt Hill
#
# Bulk Modulus (GPa) = 57.52280 71.13947 64.33114
# Shear Modulus (GPa) = 23.45379 25.57046 24.51212
#
# Velocity S-wave (km/s) = 3.41037 3.56094 3.48647
# Velocity P-wave (km/s) = 6.63572 7.22390 6.93605
#
# Compressibility (1/GPa) = 0.01738441
#
# Stress axis : x y z
#
# Youngs Moduli (GPa) = 74.61952 58.15234 73.26912
#
# Poissons Ratio (x) = 0.12641 0.59569
# Poissons Ratio (y) = 0.16220 0.22910
# Poissons Ratio (z) = 0.60667 0.18183
#
# Static dielectric constant tensor:
#      x y z
#    x 3.854910 0.000000 -0.006940 
#    y 0.000000 3.414780 0.000000 
#    z -0.006940 0.000000 3.869950 
# 
# 
# High freq. dielectric constant tensor:
#      x y z
#    x 1.782290 0.000000 -0.006490 
#    y 0.000000 1.766510 0.000000 
#    z -0.006490 0.000000 1.793500 
# 
# From -- ./inp_files/241842.got.cif
#   From: 2010.06.25/outbox.cif.g09.slc.cpg/sg12_121_cif.got.tgz:241842.got - 2010.06.28 00:19:55.
