data_PCOD8100671
_publ_section_title
;
Structure prediction by ZEFSAII (Michael W. Deem and Ramdas Pophale) SiO2 
 PCOD8100671
Probable space group: C 2/M
;
_chemical_formula_sum "Si O2"
_cell_formula_units_Z 64
_cell_length_a 27.526156
_cell_length_b 13.520377
_cell_length_c 9.873611
_cell_angle_alpha 90.000000
_cell_angle_beta 69.243388
_cell_angle_gamma 90.000000
_cell_volume 3436.100038
_symmetry_space_group_name_H-M "C 2/M"
_symmetry_group_IT_number 12
_symmetry_cell_setting 'monoclinic'
loop_
_space_group_symop_operation_xyz
x,y,z
-x,y,-z
-x,-y,-z
x,-y,z
1/2+x,1/2+y,z
1/2-x,1/2+y,-z
1/2-x,1/2-y,-z
1/2+x,1/2-y,z
loop_
_atom_site_type_symbol
_atom_site_label
_atom_site_fract_x
_atom_site_fract_y
_atom_site_fract_z
Si Si1 0.676460 0.112078 0.853123
Si Si2 0.462488 0.604426 0.911236
Si Si3 0.157510 0.618200 0.360521
Si Si4 0.900082 0.612783 0.844727
Si Si5 0.259736 0.283884 0.143218
Si Si6 0.121276 0.702085 0.673116
Si Si7 0.143016 0.114643 0.836547
Si Si8 0.497406 0.800878 0.164924
O O1 0.727682 0.180903 0.791022
O O2 0.644813 0.117146 0.745143
O O3 0.694204 0.000000 0.863843
O O4 0.638611 0.161523 0.005677
O O5 0.461610 0.500000 0.830492
O O6 0.483622 0.693439 0.798502
O O7 0.500000 0.591511 0.000000
O O8 0.405639 0.632196 0.018568
O O9 0.159777 0.500000 0.388148
O O10 0.113357 0.646114 0.294131
O O11 0.211744 0.656883 0.250504
O O12 0.144939 0.684244 0.502807
O O13 0.885163 0.500000 0.876163
O O14 0.961355 0.623317 0.813115
O O15 0.307686 0.358706 0.119464
O O16 0.250000 0.250000 0.000000
O O17 0.136151 0.812091 0.713220
O O18 0.059872 0.680293 0.724471
O O19 0.146192 0.000000 0.783351
O O20 0.500000 0.805901 0.000000
#
# Coordination Sequence:
#
# PCOD8100671 Si02
#       8
#     8   8   8   8   8   8   8   8
#     4  10  20  36  59  88 116 145 192 248 294 348
#     4   9  16  29  54  89 119 145 183 241 297 340
#     4  11  25  43  59  83 123 162 195 244 308 357
#     4  10  21  36  57  84 117 154 195 245 297 352
#     4  11  22  38  63  84 112 155 202 241 293 352
#     4  11  22  37  59  89 120 159 194 243 299 356
#     4  10  20  35  60  94 121 149 201 252 295 352
#     4  11  18  33  58  88 119 150 205 246 287 342
#
# _framework density 18.625768000000001
#
# number of rings (size 3 to 8) (size 9 to 14) (size 15 to 20)
#    0.000    1.625    5.000    1.500    0.000    4.250 
#    0.000    3.125    0.000    0.750    0.000    1.750 
#    0.000    0.000    0.000    0.000    0.000    0.000 
#
# Total GULP energy -396495.071016 kJ/mol
# GULP energy per Si atom -12390.470969 kJ/mol
# Density = 1.858337 g / cm^3
# Si number density = 18.625768 Si / 1000 Ang^3
#
#
#
# Elastic Constant Matrix: (Units=GPa)
#
#
# Indices 1 2 3 4 5 6 
#
# 1 125.1140 29.1156 35.0652 0.0000 -0.8365 0.0000
# 2 29.1156 64.7576 7.2227 0.0000 6.6045 0.0000
# 3 35.0652 7.2227 69.7931 0.0000 6.2898 0.0000
# 4 0.0000 0.0000 0.0000 22.4107 0.0000 -5.1695
# 5 -0.8365 6.6045 6.2898 0.0000 22.8421 0.0000
# 6 0.0000 0.0000 0.0000 -5.1695 0.0000 19.2744
#
#
#
# Elastic Compliance Matrix: (Units=1/GPa)
#
#
# Indices 1 2 3 4 5 6 
#
# 1 0.010473 -0.004456 -0.005077 0.000000 0.003070 0.000000
# 2 -0.004456 0.017916 0.000888 0.000000 -0.005588 0.000000
# 3 -0.005077 0.000888 0.017255 0.000000 -0.005194 0.000000
# 4 0.000000 0.000000 0.000000 0.047564 0.000000 0.012757
# 5 0.003070 -0.005588 -0.005194 0.000000 0.046937 0.000000
# 6 0.000000 0.000000 0.000000 0.012757 0.000000 0.055304
#
#
# Mechanical properties :
#
#
# Convention : Reuss Voigt Hill
#
# Bulk Modulus (GPa) = 35.26747 44.71906 39.99327
# Shear Modulus (GPa) = 22.50310 25.45618 23.97964
#
# Velocity S-wave (km/s) = 3.47965 3.70093 3.59199
# Velocity P-wave (km/s) = 5.92620 6.50568 6.22269
#
# Compressibility (1/GPa) = 0.02835474
#
# Stress axis : x y z
#
# Youngs Moduli (GPa) = 95.48225 55.81493 57.95337
#
# Poissons Ratio (x) = 0.24869 0.29426
# Poissons Ratio (y) = 0.42543 -0.05147
# Poissons Ratio (z) = 0.48481 -0.04957
#
# Static dielectric constant tensor:
#      x y z
#    x 3.600400 0.000000 0.062920 
#    y 0.000000 3.868110 0.000000 
#    z 0.062920 0.000000 3.147570 
# 
# 
# High freq. dielectric constant tensor:
#      x y z
#    x 1.737480 0.000000 -0.002100 
#    y 0.000000 1.735670 0.000000 
#    z -0.002100 0.000000 1.679150 
# 
# From -- ./inp_files/104505.got.cif
#   From: 2010.06.25/outbox.cif.g09.slc.cpg/sg12_53_cif.got.tgz:104505.got - 2010.06.28 00:19:55.
