data_PCOD8100984
_publ_section_title
;
Structure prediction by ZEFSAII (Michael W. Deem and Ramdas Pophale) SiO2 
 PCOD8100984
Probable space group: C 2/M
;
_chemical_formula_sum "Si O2"
_cell_formula_units_Z 40
_cell_length_a 19.075463
_cell_length_b 8.593747
_cell_length_c 27.250934
_cell_angle_alpha 90.000000
_cell_angle_beta 28.054125
_cell_angle_gamma 90.000000
_cell_volume 2100.966096
_symmetry_space_group_name_H-M "C 2/M"
_symmetry_group_IT_number 12
_symmetry_cell_setting 'monoclinic'
loop_
_space_group_symop_operation_xyz
x,y,z
-x,y,-z
-x,-y,-z
x,-y,z
1/2+x,1/2+y,z
1/2-x,1/2+y,-z
1/2-x,1/2-y,-z
1/2+x,1/2-y,z
loop_
_atom_site_type_symbol
_atom_site_label
_atom_site_fract_x
_atom_site_fract_y
_atom_site_fract_z
Si Si1 0.071207 0.679684 0.342305
Si Si2 0.386028 0.181634 0.886175
Si Si3 0.289239 0.821511 0.279655
Si Si4 0.218049 0.819647 0.432817
Si Si5 0.477579 0.681574 0.728365
O O1 0.027790 0.500000 0.373118
O O2 0.222012 0.711759 0.279297
O O3 0.099417 0.727245 0.268797
O O4 0.939230 0.783293 0.445989
O O5 0.535163 0.213054 0.825207
O O6 0.394741 0.266943 0.828801
O O7 0.364013 0.000000 0.889831
O O8 0.250000 0.250000 0.000000
O O9 0.210106 0.780561 0.380075
O O10 0.258906 0.000000 0.284137
O O11 0.346591 0.719337 0.379241
O O12 0.259683 0.000000 0.414630
O O13 0.454760 0.500000 0.734249
#
# Coordination Sequence:
#
# PCOD8100984 Si02
#       5
#     8   8   8   8   8
#     4  12  23  34  52  81 116 149 184 227 272 321
#     4  10  21  40  64  86 109 139 179 225 275 330
#     4   9  20  37  56  80 111 146 182 223 271 323
#     4  10  20  36  56  79 112 151 188 224 268 325
#     4  11  22  37  57  81 111 146 186 228 272 323
#
# _framework density 19.03886
#
# number of rings (size 3 to 8) (size 9 to 14) (size 15 to 20)
#    0.000    1.600    0.000    7.200    0.000    7.200 
#    0.000    1.000    0.000    6.000    0.000    0.000 
#    0.000    0.000    0.000    0.000    0.000    0.000 
#
# Total GULP energy -248121.025081 kJ/mol
# GULP energy per Si atom -12406.051254 kJ/mol
# Density = 1.899553 g / cm^3
# Si number density = 19.038860 Si / 1000 Ang^3
#
#
#
# Elastic Constant Matrix: (Units=GPa)
#
#
# Indices 1 2 3 4 5 6 
#
# 1 124.2843 40.7498 36.1873 0.0157 4.3879 -0.0258
# 2 40.7498 84.2078 20.1693 0.0178 0.5627 -0.0251
# 3 36.1873 20.1693 96.5133 0.0111 4.8159 -0.0103
# 4 0.0157 0.0178 0.0111 31.5662 -0.0067 -0.2338
# 5 4.3879 0.5627 4.8159 -0.0067 10.2977 0.0162
# 6 -0.0258 -0.0251 -0.0103 -0.2338 0.0162 34.7567
#
#
#
# Elastic Compliance Matrix: (Units=1/GPa)
#
#
# Indices 1 2 3 4 5 6 
#
# 1 0.010397 -0.004329 -0.002851 -0.000002 -0.002860 0.000005
# 2 -0.004329 0.014307 -0.001454 -0.000005 0.001743 0.000006
# 3 -0.002851 -0.001454 0.011948 -0.000003 -0.004294 0.000002
# 4 -0.000002 -0.000005 -0.000003 0.031681 0.000023 0.000213
# 5 -0.002860 0.001743 -0.004294 0.000023 0.100241 -0.000049
# 6 0.000005 0.000006 0.000002 0.000213 -0.000049 0.028773
#
#
# Mechanical properties :
#
#
# Convention : Reuss Voigt Hill
#
# Bulk Modulus (GPa) = 51.58733 55.46870 53.52801
# Shear Modulus (GPa) = 22.61675 29.18404 25.90040
#
# Velocity S-wave (km/s) = 3.45037 3.91943 3.69236
# Velocity P-wave (km/s) = 6.55958 7.04843 6.80839
#
# Compressibility (1/GPa) = 0.01938461
#
# Stress axis : x y z
#
# Youngs Moduli (GPa) = 96.18622 69.89645 83.69501
#
# Poissons Ratio (x) = 0.30259 0.23859
# Poissons Ratio (y) = 0.41641 0.12166
# Poissons Ratio (z) = 0.27420 0.10160
#
# Static dielectric constant tensor:
#      x y z
#    x 3.576510 0.000000 0.049580 
#    y 0.000000 3.494070 -0.000010 
#    z 0.049580 -0.000010 3.235430 
# 
# 
# High freq. dielectric constant tensor:
#      x y z
#    x 1.746230 0.000000 0.003590 
#    y 0.000000 1.751330 0.000000 
#    z 0.003590 0.000000 1.722230 
# 
# From -- ./inp_files/151717.got.cif
#   From: 2010.06.25/outbox.cif.g09.slc.cpg/sg12_76_cif.got.tgz:151717.got - 2010.06.28 00:19:55.
