data_PCOD8100303
_publ_section_title
;
Structure prediction by ZEFSAII (Michael W. Deem and Ramdas Pophale) SiO2 
 PCOD8100303
Probable space group: C 2/M
;
_chemical_formula_sum "Si O2"
_cell_formula_units_Z 48
_cell_length_a 24.786162
_cell_length_b 8.999344
_cell_length_c 14.426912
_cell_angle_alpha 90.000000
_cell_angle_beta 54.404629
_cell_angle_gamma 90.000000
_cell_volume 2616.754653
_symmetry_space_group_name_H-M "C 2/M"
_symmetry_group_IT_number 12
_symmetry_cell_setting 'monoclinic'
loop_
_space_group_symop_operation_xyz
x,y,z
-x,y,-z
-x,-y,-z
x,-y,z
1/2+x,1/2+y,z
1/2-x,1/2+y,-z
1/2-x,1/2-y,-z
1/2+x,1/2-y,z
loop_
_atom_site_type_symbol
_atom_site_label
_atom_site_fract_x
_atom_site_fract_y
_atom_site_fract_z
Si Si1 0.681249 0.675999 0.261765
Si Si2 0.067403 0.671471 0.483817
Si Si3 0.181248 0.176000 0.875738
Si Si4 0.067403 0.671472 0.881375
Si Si5 0.623012 0.675375 0.126988
Si Si6 0.015653 0.330922 0.734346
O O1 0.688780 0.500000 0.256873
O O2 0.626276 0.724671 0.390390
O O3 0.750000 0.750002 0.222279
O O4 0.660801 0.734874 0.180142
O O5 0.084030 0.500000 0.444953
O O6 0.060602 0.700659 0.599962
O O7 0.000000 0.719373 0.500000
O O8 0.126277 0.224673 0.857055
O O9 0.188777 0.000000 0.865571
O O10 0.160799 0.234878 0.998256
O O11 0.084029 0.500000 0.886985
O O12 0.060601 0.700661 0.778834
O O13 0.000000 0.719373 0.000000
O O14 0.621489 0.500000 0.128510
O O15 0.547782 0.727278 0.202220
O O16 0.989510 0.500000 0.760490
#
# Coordination Sequence:
#
# PCOD8100303 Si02
#       6
#     8   8   8   8   8   8
#     4  11  23  38  57  83 116 152 189 232 283 336
#     4  10  20  36  59  85 114 148 188 231 278 333
#     4  11  23  38  57  83 116 152 189 232 283 336
#     4  10  20  36  59  85 114 148 188 231 278 333
#     4  10  21  35  55  85 117 147 182 231 284 335
#     4  10  20  35  58  87 115 147 185 229 278 333
#
# _framework density 18.343333000000001
#
# number of rings (size 3 to 8) (size 9 to 14) (size 15 to 20)
#    0.000    1.667    3.333    1.500    0.000    3.333 
#    0.000    0.833    0.000    0.000    0.000    0.000 
#    0.000    0.000    0.000    0.000    0.000    0.000 
#
# Total GULP energy -297724.111901 kJ/mol
# GULP energy per Si atom -12405.171329 kJ/mol
# Density = 1.830158 g / cm^3
# Si number density = 18.343333 Si / 1000 Ang^3
#
#
#
# Elastic Constant Matrix: (Units=GPa)
#
#
# Indices 1 2 3 4 5 6 
#
# 1 100.3380 36.6727 80.1700 0.0000 -2.1530 0.0000
# 2 36.6727 45.6437 35.1900 0.0000 -6.1661 0.0000
# 3 80.1700 35.1900 100.8510 0.0000 4.3058 0.0000
# 4 0.0000 0.0000 0.0000 27.6048 0.0000 -4.0361
# 5 -2.1530 -6.1661 4.3058 0.0000 36.6063 0.0000
# 6 0.0000 0.0000 0.0000 -4.0361 0.0000 28.5777
#
#
#
# Elastic Compliance Matrix: (Units=1/GPa)
#
#
# Indices 1 2 3 4 5 6 
#
# 1 0.029437 -0.006977 -0.021096 0.000000 0.003037 0.000000
# 2 -0.006977 0.033149 -0.006273 0.000000 0.005911 0.000000
# 3 -0.021096 -0.006273 0.029119 0.000000 -0.005722 0.000000
# 4 0.000000 0.000000 0.000000 0.036989 0.000000 0.005224
# 5 0.003037 0.005911 -0.005722 0.000000 0.029165 0.000000
# 6 0.000000 0.000000 0.000000 0.005224 0.000000 0.035730
#
#
# Mechanical properties :
#
#
# Convention : Reuss Voigt Hill
#
# Bulk Modulus (GPa) = 43.45256 61.21091 52.33173
# Shear Modulus (GPa) = 18.52181 24.87776 21.69978
#
# Velocity S-wave (km/s) = 3.18107 3.68670 3.44318
# Velocity P-wave (km/s) = 6.10182 7.18083 6.66320
#
# Compressibility (1/GPa) = 0.02301361
#
# Stress axis : x y z
#
# Youngs Moduli (GPa) = 33.97095 30.16648 34.34234
#
# Poissons Ratio (x) = 0.21046 0.72448
# Poissons Ratio (y) = 0.23701 0.21544
# Poissons Ratio (z) = 0.71664 0.18924
#
# Static dielectric constant tensor:
#      x y z
#    x 3.390220 0.000000 0.196990 
#    y 0.000000 3.294860 0.000000 
#    z 0.196990 0.000000 3.437720 
# 
# 
# High freq. dielectric constant tensor:
#      x y z
#    x 1.710980 0.000000 0.006520 
#    y 0.000000 1.708870 0.000000 
#    z 0.006520 0.000000 1.712550 
# 
# From -- ./inp_files/244752.got.cif
#   From: 2010.06.25/outbox.cif.g09.slc.cpg/sg12_123_cif.got.tgz:244752.got - 2010.06.28 00:19:55.
