data_PCOD8100252
_publ_section_title
;
Structure prediction by ZEFSAII (Michael W. Deem and Ramdas Pophale) SiO2 
 PCOD8100252
Probable space group: C 2/M
;
_chemical_formula_sum "Si O2"
_cell_formula_units_Z 64
_cell_length_a 28.157587
_cell_length_b 8.876653
_cell_length_c 14.783844
_cell_angle_alpha 90.000000
_cell_angle_beta 55.254782
_cell_angle_gamma 90.000000
_cell_volume 3036.284295
_symmetry_space_group_name_H-M "C 2/M"
_symmetry_group_IT_number 12
_symmetry_cell_setting 'monoclinic'
loop_
_space_group_symop_operation_xyz
x,y,z
-x,y,-z
-x,-y,-z
x,-y,z
1/2+x,1/2+y,z
1/2-x,1/2+y,-z
1/2-x,1/2-y,-z
1/2+x,1/2-y,z
loop_
_atom_site_type_symbol
_atom_site_label
_atom_site_fract_x
_atom_site_fract_y
_atom_site_fract_z
Si Si1 0.424668 0.674944 0.502085
Si Si2 0.389979 0.823110 0.718012
Si Si3 0.740624 0.821346 0.107466
Si Si4 0.477855 0.325278 0.739388
Si Si5 0.038987 0.174712 0.041305
Si Si6 0.190079 0.170710 0.477013
Si Si7 0.306482 0.670923 0.324380
Si Si8 0.341447 0.176602 0.114380
O O1 0.435939 0.500000 0.507311
O O2 0.428193 0.758027 0.594027
O O3 0.470552 0.738191 0.379591
O O4 0.361538 0.707405 0.533135
O O5 0.322831 0.773752 0.787372
O O6 0.418584 0.761197 0.779238
O O7 0.395450 0.000000 0.710900
O O8 0.788139 0.759849 0.124814
O O9 0.746499 0.000000 0.093135
O O10 0.750000 0.750000 0.000000
O O11 0.467071 0.500000 0.731832
O O12 0.494335 0.301469 0.827238
O O13 0.054533 0.000000 0.007744
O O14 0.097427 0.268765 0.989226
O O15 0.000000 0.234671 0.000000
O O16 0.238821 0.290606 0.400387
O O17 0.167185 0.190831 0.604306
O O18 0.213571 0.000000 0.438385
O O19 0.313601 0.500000 0.281730
O O20 0.340346 0.783080 0.221752
O O21 0.334874 0.000000 0.105282
#
# Coordination Sequence:
#
# PCOD8100252 Si02
#       8
#     8   8   8   8   8   8   8   8
#     4  10  21  37  60  88 119 159 205 250 300 363
#     4  11  24  40  60  90 126 162 202 252 307 363
#     4  11  24  42  65  93 124 161 206 256 316 377
#     4  10  22  40  63  90 120 158 206 254 303 368
#     4  10  23  43  69  94 121 160 208 260 316 375
#     4   9  19  35  57  85 119 156 199 252 308 365
#     4  10  20  35  58  85 119 158 201 252 305 366
#     4  12  25  40  61  90 125 161 204 252 305 368
#
# _framework density 21.078393999999999
#
# number of rings (size 3 to 8) (size 9 to 14) (size 15 to 20)
#    0.000    1.625    0.000    4.125    1.750    9.750 
#    0.000    0.000    0.000    0.000    0.000    0.000 
#    0.000    0.000    0.000    0.000    0.000    0.000 
#
# Total GULP energy -396881.322747 kJ/mol
# GULP energy per Si atom -12402.541336 kJ/mol
# Density = 2.103042 g / cm^3
# Si number density = 21.078394 Si / 1000 Ang^3
#
#
#
# Elastic Constant Matrix: (Units=GPa)
#
#
# Indices 1 2 3 4 5 6 
#
# 1 83.7070 27.8064 34.7019 0.0000 13.5280 0.0000
# 2 27.8064 71.1867 36.6452 0.0000 -0.9837 -0.0001
# 3 34.7019 36.6452 119.1636 0.0000 5.4538 0.0000
# 4 0.0000 0.0000 0.0000 27.7975 0.0000 -0.8342
# 5 13.5280 -0.9837 5.4538 0.0000 28.7188 0.0000
# 6 0.0000 -0.0001 0.0000 -0.8342 0.0000 28.5037
#
#
#
# Elastic Compliance Matrix: (Units=1/GPa)
#
#
# Indices 1 2 3 4 5 6 
#
# 1 0.015870 -0.004854 -0.002803 0.000000 -0.007109 0.000000
# 2 -0.004854 0.018244 -0.004368 0.000000 0.003741 0.000000
# 3 -0.002803 -0.004368 0.010590 0.000000 -0.000840 0.000000
# 4 0.000000 0.000000 0.000000 0.036006 0.000000 0.001054
# 5 -0.007109 0.003741 -0.000840 0.000000 0.038457 0.000000
# 6 0.000000 0.000000 0.000000 0.001054 0.000000 0.035114
#
#
# Mechanical properties :
#
#
# Convention : Reuss Voigt Hill
#
# Bulk Modulus (GPa) = 48.41971 52.48492 50.45231
# Shear Modulus (GPa) = 26.99547 28.66427 27.82987
#
# Velocity S-wave (km/s) = 3.58259 3.69167 3.63754
# Velocity P-wave (km/s) = 6.33517 6.56697 6.45211
#
# Compressibility (1/GPa) = 0.02065275
#
# Stress axis : x y z
#
# Youngs Moduli (GPa) = 63.01161 54.81286 94.42949
#
# Poissons Ratio (x) = 0.26607 0.26473
# Poissons Ratio (y) = 0.30587 0.41247
# Poissons Ratio (z) = 0.17665 0.23942
#
# Static dielectric constant tensor:
#      x y z
#    x 3.896050 0.000000 0.101050 
#    y 0.000000 3.698600 0.000000 
#    z 0.101050 0.000000 4.043980 
# 
# 
# High freq. dielectric constant tensor:
#      x y z
#    x 1.831420 0.000000 0.009070 
#    y 0.000000 1.815880 0.000000 
#    z 0.009070 0.000000 1.836030 
# 
# From -- ./inp_files/249794.got.cif
#   From: 2010.06.25/outbox.cif.g09.slc.cpg/sg12_125_cif.got.tgz:249794.got - 2010.06.28 00:19:55.
