data_PCOD8100799
_publ_section_title
;
Structure prediction by ZEFSAII (Michael W. Deem and Ramdas Pophale) SiO2 
 PCOD8100799
Probable space group: C 2/M
;
_chemical_formula_sum "Si O2"
_cell_formula_units_Z 48
_cell_length_a 14.288275
_cell_length_b 8.840768
_cell_length_c 28.900781
_cell_angle_alpha 90.000000
_cell_angle_beta 138.560131
_cell_angle_gamma 90.000000
_cell_volume 2416.174122
_symmetry_space_group_name_H-M "C 2/M"
_symmetry_group_IT_number 12
_symmetry_cell_setting 'monoclinic'
loop_
_space_group_symop_operation_xyz
x,y,z
-x,y,-z
-x,-y,-z
x,-y,z
1/2+x,1/2+y,z
1/2-x,1/2+y,-z
1/2-x,1/2-y,-z
1/2+x,1/2-y,z
loop_
_atom_site_type_symbol
_atom_site_label
_atom_site_fract_x
_atom_site_fract_y
_atom_site_fract_z
Si Si1 0.415473 0.676984 0.865775
Si Si2 0.323838 0.322283 0.983378
Si Si3 0.399678 0.179002 0.244996
Si Si4 0.580016 0.674570 0.390112
Si Si5 0.406779 0.175104 0.509085
Si Si6 0.595194 0.320919 0.845871
O O1 0.398804 0.500000 0.852050
O O2 0.507405 0.708227 0.946872
O O3 0.259431 0.747224 0.810751
O O4 0.495375 0.741186 0.850031
O O5 0.293472 0.500000 0.969934
O O6 0.250000 0.250000 0.000000
O O7 0.255303 0.244494 0.912689
O O8 0.485507 0.223747 0.321972
O O9 0.468843 0.256393 0.225517
O O10 0.402327 0.000000 0.240066
O O11 0.538622 0.500000 0.369041
O O12 0.547577 0.724332 0.430452
O O13 0.742717 0.703368 0.436816
O O14 0.500000 0.227405 0.500000
O O15 0.434669 0.000000 0.531526
O O16 0.602156 0.500000 0.846808
#
# Coordination Sequence:
#
# PCOD8100799 Si02
#       6
#     8   8   8   8   8   8
#     4   8  18  35  54  73 101 142 182 218 264 325
#     4   9  16  31  53  76 101 135 180 228 273 317
#     4  11  22  37  55  77 107 146 183 214 259 320
#     4  10  21  37  56  83 115 139 170 220 263 301
#     4   9  19  38  63  85 107 142 179 207 250 315
#     4  10  20  36  54  76 105 139 180 227 275 318
#
# _framework density 19.866118
#
# number of rings (size 3 to 8) (size 9 to 14) (size 15 to 20)
#    0.000    2.500    0.000    3.000    0.000    3.000 
#    0.000   20.000    0.000    0.000    0.000    0.000 
#    0.000    0.000    0.000    0.000    0.000    0.000 
#
# Total GULP energy -297526.952036 kJ/mol
# GULP energy per Si atom -12396.956335 kJ/mol
# Density = 1.982090 g / cm^3
# Si number density = 19.866118 Si / 1000 Ang^3
#
#
#
# Elastic Constant Matrix: (Units=GPa)
#
#
# Indices 1 2 3 4 5 6 
#
# 1 77.9656 23.8163 32.1489 0.0000 -6.6924 0.0000
# 2 23.8163 78.5543 34.5144 0.0000 -3.1756 0.0000
# 3 32.1489 34.5144 103.1727 0.0000 -7.5257 0.0000
# 4 0.0000 0.0000 0.0000 39.1951 0.0000 -6.4518
# 5 -6.6924 -3.1756 -7.5257 0.0000 21.3924 0.0000
# 6 0.0000 0.0000 0.0000 -6.4518 0.0000 24.0481
#
#
#
# Elastic Compliance Matrix: (Units=1/GPa)
#
#
# Indices 1 2 3 4 5 6 
#
# 1 0.015492 -0.002989 -0.003599 0.000000 0.003137 0.000000
# 2 -0.002989 0.015505 -0.004265 0.000000 -0.000134 0.000000
# 3 -0.003599 -0.004265 0.012431 0.000000 0.002614 0.000000
# 4 0.000000 0.000000 0.000000 0.026692 0.000000 0.007161
# 5 0.003137 -0.000134 0.002614 0.000000 0.048627 0.000000
# 6 0.000000 0.000000 0.000000 0.007161 0.000000 0.043504
#
#
# Mechanical properties :
#
#
# Convention : Reuss Voigt Hill
#
# Bulk Modulus (GPa) = 46.03481 48.96130 47.49806
# Shear Modulus (GPa) = 26.15078 28.20802 27.17940
#
# Velocity S-wave (km/s) = 3.63209 3.77225 3.70283
# Velocity P-wave (km/s) = 6.38845 6.60850 6.49941
#
# Compressibility (1/GPa) = 0.02172269
#
# Stress axis : x y z
#
# Youngs Moduli (GPa) = 64.54767 64.49588 80.44151
#
# Poissons Ratio (x) = 0.19278 0.28949
# Poissons Ratio (y) = 0.19294 0.34310
# Poissons Ratio (z) = 0.23229 0.27509
#
# Static dielectric constant tensor:
#      x y z
#    x 3.713580 0.000000 0.106650 
#    y 0.000000 3.485010 0.000000 
#    z 0.106650 0.000000 3.748830 
# 
# 
# High freq. dielectric constant tensor:
#      x y z
#    x 1.768970 0.000000 -0.004820 
#    y 0.000000 1.765260 0.000000 
#    z -0.004820 0.000000 1.778110 
# 
# From -- ./inp_files/360239.got.cif
#   From: 2010.06.25/outbox.cif.g09.slc.cpg/sg12_181_cif.got.tgz:360239.got - 2010.06.28 00:19:55.
