data_PCOD8100906
_publ_section_title
;
Structure prediction by ZEFSAII (Michael W. Deem and Ramdas Pophale) SiO2 
 PCOD8100906
Probable space group: C 2/M
;
_chemical_formula_sum "Si O2"
_cell_formula_units_Z 40
_cell_length_a 9.957485
_cell_length_b 25.872580
_cell_length_c 17.432590
_cell_angle_alpha 90.000000
_cell_angle_beta 149.508029
_cell_angle_gamma 90.000000
_cell_volume 2278.855856
_symmetry_space_group_name_H-M "C 2/M"
_symmetry_group_IT_number 12
_symmetry_cell_setting 'monoclinic'
loop_
_space_group_symop_operation_xyz
x,y,z
-x,y,-z
-x,-y,-z
x,-y,z
1/2+x,1/2+y,z
1/2-x,1/2+y,-z
1/2-x,1/2-y,-z
1/2+x,1/2-y,z
loop_
_atom_site_type_symbol
_atom_site_label
_atom_site_fract_x
_atom_site_fract_y
_atom_site_fract_z
Si Si1 0.462097 0.318197 0.153767
Si Si2 0.672043 0.557867 0.508483
Si Si3 0.475680 0.149340 0.327692
Si Si4 0.004949 0.849987 0.659675
Si Si5 0.516200 0.197429 0.186917
O O1 0.703341 0.352249 0.240411
O O2 0.398143 0.336542 0.208043
O O3 0.537785 0.258454 0.186984
O O4 0.200945 0.328239 0.975575
O O5 0.500000 0.556138 0.500000
O O6 0.742567 0.500000 0.515527
O O7 0.505407 0.587730 0.359788
O O8 0.942878 0.590609 0.656861
O O9 0.435345 0.185318 0.233997
O O10 0.710902 0.172907 0.497055
O O11 0.199913 0.825892 0.692796
#
# Coordination Sequence:
#
# PCOD8100906 Si02
#       5
#     8   8   8   8   8
#     4  11  23  33  53  78 124 146 171 223 275 313
#     4   9  18  37  62  82 103 138 185 231 286 328
#     4  10  20  36  55  85 100 145 189 226 262 317
#     4  10  20  36  55  85 100 145 189 226 262 317
#     4  11  21  37  51  78 114 162 177 201 269 339
#
# _framework density 17.552667
#
# number of rings (size 3 to 8) (size 9 to 14) (size 15 to 20)
#    1.200    0.600    2.000    3.600    0.000    8.000 
#    0.000    2.000    0.000    7.200    0.000    0.000 
#    0.000    0.000    0.000    0.000    0.000    0.000 
#
# Total GULP energy -247909.452455 kJ/mol
# GULP energy per Si atom -12395.472623 kJ/mol
# Density = 1.751272 g / cm^3
# Si number density = 17.552667 Si / 1000 Ang^3
#
#
#
# Elastic Constant Matrix: (Units=GPa)
#
#
# Indices 1 2 3 4 5 6 
#
# 1 63.8452 8.8983 13.1323 -0.0012 -3.9646 -0.0005
# 2 8.8983 82.5791 26.5021 -0.0008 4.8438 -0.0001
# 3 13.1323 26.5021 75.4453 -0.0029 -8.1664 -0.0017
# 4 -0.0012 -0.0008 -0.0029 7.0573 -0.0012 -0.6966
# 5 -3.9646 4.8438 -8.1664 -0.0012 35.5763 -0.0007
# 6 -0.0005 -0.0001 -0.0017 -0.6966 -0.0007 12.3213
#
#
#
# Elastic Compliance Matrix: (Units=1/GPa)
#
#
# Indices 1 2 3 4 5 6 
#
# 1 0.016382 -0.001110 -0.002305 0.000002 0.001448 0.000001
# 2 -0.001110 0.014051 -0.005089 -0.000001 -0.003205 -0.000001
# 3 -0.002305 -0.005089 0.015885 0.000007 0.004082 0.000003
# 4 0.000002 -0.000001 0.000007 0.142493 0.000007 0.008056
# 5 0.001448 -0.003205 0.004082 0.000007 0.029643 0.000003
# 6 0.000001 -0.000001 0.000003 0.008056 0.000003 0.081616
#
#
# Mechanical properties :
#
#
# Convention : Reuss Voigt Hill
#
# Bulk Modulus (GPa) = 34.11942 35.43721 34.77832
# Shear Modulus (GPa) = 15.29760 22.54676 18.92218
#
# Velocity S-wave (km/s) = 2.95536 3.58791 3.28689
# Velocity P-wave (km/s) = 5.57908 6.11531 5.85334
#
# Compressibility (1/GPa) = 0.02930882
#
# Stress axis : x y z
#
# Youngs Moduli (GPa) = 61.04414 71.17164 62.95085
#
# Poissons Ratio (x) = 0.07903 0.14508
# Poissons Ratio (y) = 0.06779 0.32037
# Poissons Ratio (z) = 0.14069 0.36221
#
# Static dielectric constant tensor:
#      x y z
#    x 3.140090 0.000000 -0.010850 
#    y 0.000000 3.187890 0.000000 
#    z -0.010850 0.000000 3.204130 
# 
# 
# High freq. dielectric constant tensor:
#      x y z
#    x 1.685690 0.000000 0.003130 
#    y 0.000000 1.656030 0.000000 
#    z 0.003130 0.000000 1.673650 
# 
# From -- ./inp_files/259772.got.cif
#   From: 2010.06.25/outbox.cif.g09.slc.cpg/sg12_130_cif.got.tgz:259772.got - 2010.06.28 00:19:55.
