data_PCOD8100625
_publ_section_title
;
Structure prediction by ZEFSAII (Michael W. Deem and Ramdas Pophale) SiO2 
 PCOD8100625
Probable space group: C 2/M
;
_chemical_formula_sum "Si O2"
_cell_formula_units_Z 56
_cell_length_a 23.396569
_cell_length_b 13.774835
_cell_length_c 9.742181
_cell_angle_alpha 90.000000
_cell_angle_beta 116.114044
_cell_angle_gamma 90.000000
_cell_volume 2819.241506
_symmetry_space_group_name_H-M "C 2/M"
_symmetry_group_IT_number 12
_symmetry_cell_setting 'monoclinic'
loop_
_space_group_symop_operation_xyz
x,y,z
-x,y,-z
-x,-y,-z
x,-y,z
1/2+x,1/2+y,z
1/2-x,1/2+y,-z
1/2-x,1/2-y,-z
1/2+x,1/2-y,z
loop_
_atom_site_type_symbol
_atom_site_label
_atom_site_fract_x
_atom_site_fract_y
_atom_site_fract_z
Si Si1 0.056028 0.889044 0.336928
Si Si2 0.072827 0.790676 0.812088
Si Si3 0.873598 0.389039 0.597326
Si Si4 0.012312 0.609590 0.856934
Si Si5 0.283839 0.225984 0.676953
Si Si6 0.848236 0.217463 0.374468
Si Si7 0.375524 0.388112 0.867926
O O1 0.117207 0.858147 0.488872
O O2 0.071362 0.870722 0.193076
O O3 0.995114 0.826386 0.317208
O O4 0.040476 0.000000 0.352032
O O5 0.124899 0.790589 0.749017
O O6 0.066871 0.680264 0.858025
O O7 0.093729 0.863421 0.953784
O O8 0.855052 0.500000 0.547249
O O9 0.948376 0.377140 0.701912
O O10 0.837194 0.354784 0.698415
O O11 0.855788 0.325890 0.444843
O O12 0.038310 0.500000 0.872719
O O13 0.000000 0.638438 0.000000
O O14 0.250000 0.250000 0.500000
O O15 0.226842 0.188953 0.715807
O O16 0.314446 0.321289 0.776724
O O17 0.353100 0.500000 0.843582
#
# Coordination Sequence:
#
# PCOD8100625 Si02
#       7
#     8   8   8   8   8   8   8
#     4  11  22  39  63  90 122 167 213 250 300 370
#     4  12  23  38  61  90 136 162 198 257 317 369
#     4  10  20  37  61  88 115 158 213 256 302 364
#     4  10  20  35  60  89 121 161 207 257 306 365
#     4  10  20  40  63  87 118 157 209 257 303 358
#     4  11  24  39  58  92 127 164 204 253 316 365
#     4  11  23  41  67  94 120 162 213 257 303 367
#
# _framework density 19.863499999999998
#
# number of rings (size 3 to 8) (size 9 to 14) (size 15 to 20)
#    0.000    1.286    4.286    3.000    0.000    6.857 
#    0.000    1.429    0.000    1.714    0.000    0.000 
#    0.000    0.000    0.000    0.000    0.000    0.000 
#
# Total GULP energy -347243.799230 kJ/mol
# GULP energy per Si atom -12401.564258 kJ/mol
# Density = 1.981829 g / cm^3
# Si number density = 19.863500 Si / 1000 Ang^3
#
#
#
# Elastic Constant Matrix: (Units=GPa)
#
#
# Indices 1 2 3 4 5 6 
#
# 1 109.2805 36.0749 22.5690 0.0000 -23.1153 0.0000
# 2 36.0749 94.0247 24.7310 0.0000 -15.5623 0.0000
# 3 22.5690 24.7310 52.8534 0.0000 -13.6170 0.0000
# 4 0.0000 0.0000 0.0000 22.2407 0.0000 6.9209
# 5 -23.1153 -15.5623 -13.6170 0.0000 34.3913 0.0000
# 6 0.0000 0.0000 0.0000 6.9209 0.0000 15.7019
#
#
#
# Elastic Compliance Matrix: (Units=1/GPa)
#
#
# Indices 1 2 3 4 5 6 
#
# 1 0.011800 -0.003015 -0.002156 0.000000 0.005713 0.000000
# 2 -0.003015 0.013314 -0.004357 0.000000 0.002274 0.000000
# 3 -0.002156 -0.004357 0.023384 0.000000 0.005838 0.000000
# 4 0.000000 0.000000 0.000000 0.052110 0.000000 -0.022968
# 5 0.005713 0.002274 0.005838 0.000000 0.036257 0.000000
# 6 0.000000 0.000000 0.000000 -0.022968 0.000000 0.073810
#
#
# Mechanical properties :
#
#
# Convention : Reuss Voigt Hill
#
# Bulk Modulus (GPa) = 33.96466 46.98981 40.47723
# Shear Modulus (GPa) = 20.87296 25.98570 23.42933
#
# Velocity S-wave (km/s) = 3.24515 3.62085 3.43814
# Velocity P-wave (km/s) = 5.58368 6.41782 6.01523
#
# Compressibility (1/GPa) = 0.02944237
#
# Stress axis : x y z
#
# Youngs Moduli (GPa) = 84.74846 75.10652 42.76480
#
# Poissons Ratio (x) = 0.22641 0.09221
# Poissons Ratio (y) = 0.25548 0.18633
# Poissons Ratio (z) = 0.18273 0.32724
#
# Static dielectric constant tensor:
#      x y z
#    x 4.191560 0.000000 0.101010 
#    y 0.000000 3.778870 0.000000 
#    z 0.101010 0.000000 3.502110 
# 
# 
# High freq. dielectric constant tensor:
#      x y z
#    x 1.770250 0.000000 0.005320 
#    y 0.000000 1.780540 0.000000 
#    z 0.005320 0.000000 1.760650 
# 
# From -- ./inp_files/96453.got.cif
#   From: 2010.06.25/outbox.cif.g09.slc.cpg/sg12_49_cif.got.tgz:96453.got - 2010.06.28 00:19:55.
