data_PCOD8100103
_publ_section_title
;
Structure prediction by ZEFSAII (Michael W. Deem and Ramdas Pophale) SiO2 
 PCOD8100103
Probable space group: C 2/M
;
_chemical_formula_sum "Si O2"
_cell_formula_units_Z 64
_cell_length_a 29.271822
_cell_length_b 8.914286
_cell_length_c 15.342466
_cell_angle_alpha 90.000000
_cell_angle_beta 48.014944
_cell_angle_gamma 90.000000
_cell_volume 2975.821739
_symmetry_space_group_name_H-M "C 2/M"
_symmetry_group_IT_number 12
_symmetry_cell_setting 'monoclinic'
loop_
_space_group_symop_operation_xyz
x,y,z
-x,y,-z
-x,-y,-z
x,-y,z
1/2+x,1/2+y,z
1/2-x,1/2+y,-z
1/2-x,1/2-y,-z
1/2+x,1/2-y,z
loop_
_atom_site_type_symbol
_atom_site_label
_atom_site_fract_x
_atom_site_fract_y
_atom_site_fract_z
Si Si1 0.465257 0.328838 0.888229
Si Si2 0.890532 0.677461 0.837386
Si Si3 0.430232 0.322018 0.607340
Si Si4 0.890379 0.829070 0.284509
Si Si5 0.181489 0.674279 0.326114
Si Si6 0.783543 0.669148 0.097483
Si Si7 0.203015 0.325025 0.493021
Si Si8 0.617413 0.829460 0.879094
O O1 0.443683 0.500000 0.900583
O O2 0.442927 0.225257 0.838093
O O3 0.537444 0.316769 0.802378
O O4 0.439097 0.268188 0.012520
O O5 0.894471 0.500000 0.818671
O O6 0.903529 0.761630 0.731850
O O7 0.823175 0.722267 0.962548
O O8 0.500000 0.265573 0.500000
O O9 0.428691 0.500000 0.609948
O O10 0.384030 0.260264 0.592333
O O11 0.863538 0.747156 0.403630
O O12 0.861958 0.744456 0.237488
O O13 0.867437 0.000000 0.309818
O O14 0.167492 0.500000 0.331324
O O15 0.224856 0.725888 0.190269
O O16 0.215586 0.707011 0.374605
O O17 0.759607 0.500000 0.114247
O O18 0.826293 0.677680 0.127152
O O19 0.202211 0.500000 0.513624
O O20 0.250000 0.250000 0.500000
O O21 0.595598 0.000000 0.892088
#
# Coordination Sequence:
#
# PCOD8100103 Si02
#       8
#     8   8   8   8   8   8   8   8
#     4  10  21  36  56  86 124 164 209 259 315 380
#     4  10  22  41  66  95 127 164 209 261 318 375
#     4  11  26  46  69  96 128 168 212 260 320 384
#     4  11  23  36  55  83 119 164 211 262 318 379
#     4  11  25  43  66  97 127 166 215 263 319 379
#     4   9  20  39  63  92 125 163 205 256 316 377
#     4  11  25  43  63  91 125 165 213 262 319 381
#     4  10  20  35  57  87 123 165 211 261 319 375
#
# _framework density 21.506664000000001
#
# number of rings (size 3 to 8) (size 9 to 14) (size 15 to 20)
#    0.000    1.625    0.000    4.500    1.750   12.000 
#    0.000    0.000    0.000    0.000    0.000    0.000 
#    0.000    0.000    0.000    0.000    0.000    0.000 
#
# Total GULP energy -396829.087533 kJ/mol
# GULP energy per Si atom -12400.908985 kJ/mol
# Density = 2.145771 g / cm^3
# Si number density = 21.506664 Si / 1000 Ang^3
#
#
#
# Elastic Constant Matrix: (Units=GPa)
#
#
# Indices 1 2 3 4 5 6 
#
# 1 75.5585 42.0277 39.1901 0.0000 -4.9784 0.0000
# 2 42.0277 103.9711 56.0137 0.0000 -14.1110 -0.0002
# 3 39.1901 56.0137 120.9802 0.0000 -4.9780 0.0000
# 4 0.0000 0.0000 0.0000 37.1489 0.0000 0.0800
# 5 -4.9784 -14.1110 -4.9780 0.0000 28.3648 0.0000
# 6 0.0000 -0.0002 0.0000 0.0800 0.0000 34.4962
#
#
#
# Elastic Compliance Matrix: (Units=1/GPa)
#
#
# Indices 1 2 3 4 5 6 
#
# 1 0.018001 -0.005535 -0.003276 0.000000 -0.000169 0.000000
# 2 -0.005535 0.015384 -0.005092 0.000000 0.005788 0.000000
# 3 -0.003276 -0.005092 0.011641 0.000000 -0.001065 0.000000
# 4 0.000000 0.000000 0.000000 0.026919 0.000000 -0.000062
# 5 -0.000169 0.005788 -0.001065 0.000000 0.037918 0.000000
# 6 0.000000 0.000000 0.000000 -0.000062 0.000000 0.028989
#
#
# Mechanical properties :
#
#
# Convention : Reuss Voigt Hill
#
# Bulk Modulus (GPa) = 58.06650 63.88586 60.97618
# Shear Modulus (GPa) = 29.00295 30.88720 29.94507
#
# Velocity S-wave (km/s) = 3.67625 3.79379 3.73549
# Velocity P-wave (km/s) = 6.71399 6.99715 6.85703
#
# Compressibility (1/GPa) = 0.01722163
#
# Stress axis : x y z
#
# Youngs Moduli (GPa) = 55.55184 65.00236 85.90651
#
# Poissons Ratio (x) = 0.35977 0.28140
# Poissons Ratio (y) = 0.30746 0.43741
# Poissons Ratio (z) = 0.18197 0.33097
#
# Static dielectric constant tensor:
#      x y z
#    x 4.502420 0.000000 2.102010 
#    y 0.000000 4.038860 0.000000 
#    z 2.102010 0.000000 10.579660 
# 
# 
# High freq. dielectric constant tensor:
#      x y z
#    x 1.841510 0.000000 -0.001390 
#    y 0.000000 1.853240 0.000000 
#    z -0.001390 0.000000 1.853090 
# 
# From -- ./inp_files/249894.got.cif
#   From: 2010.06.25/outbox.cif.g09.slc.cpg/sg12_125_cif.got.tgz:249894.got - 2010.06.28 00:19:55.
