data_PCOD8100675
_publ_section_title
;
Structure prediction by ZEFSAII (Michael W. Deem and Ramdas Pophale) SiO2 
 PCOD8100675
Probable space group: C 2/M
;
_chemical_formula_sum "Si O2"
_cell_formula_units_Z 64
_cell_length_a 18.553486
_cell_length_b 18.033792
_cell_length_c 15.075981
_cell_angle_alpha 90.000000
_cell_angle_beta 137.635076
_cell_angle_gamma 90.000000
_cell_volume 3399.080973
_symmetry_space_group_name_H-M "C 2/M"
_symmetry_group_IT_number 12
_symmetry_cell_setting 'monoclinic'
loop_
_space_group_symop_operation_xyz
x,y,z
-x,y,-z
-x,-y,-z
x,-y,z
1/2+x,1/2+y,z
1/2-x,1/2+y,-z
1/2-x,1/2-y,-z
1/2+x,1/2-y,z
loop_
_atom_site_type_symbol
_atom_site_label
_atom_site_fract_x
_atom_site_fract_y
_atom_site_fract_z
Si Si1 0.197320 0.582206 0.997438
Si Si2 0.521400 0.183845 0.779260
Si Si3 0.415206 0.720823 0.996785
Si Si4 0.766283 0.342069 0.797690
Si Si5 0.090504 0.916036 0.398497
Si Si6 0.586810 0.582401 0.899188
Si Si7 0.030790 0.207935 0.621188
Si Si8 0.822737 0.586845 0.659649
O O1 0.155712 0.500000 0.941502
O O2 0.177917 0.601315 0.082815
O O3 0.323299 0.590831 0.094478
O O4 0.128266 0.634581 0.870486
O O5 0.518775 0.230892 0.686853
O O6 0.417748 0.131325 0.697548
O O7 0.531532 0.237898 0.871760
O O8 0.316184 0.761398 0.860821
O O9 0.500000 0.709022 0.000000
O O10 0.380799 0.638696 0.994363
O O11 0.643934 0.331791 0.712627
O O12 0.791660 0.374335 0.724260
O O13 0.218362 0.907487 0.501374
O O14 0.028157 0.899062 0.249826
O O15 0.053154 0.858466 0.439043
O O16 0.063542 0.000000 0.405521
O O17 0.586641 0.500000 0.940126
O O18 0.000000 0.246927 0.500000
O O19 0.854281 0.500000 0.702950
#
# Coordination Sequence:
#
# PCOD8100675 Si02
#       8
#     8   8   8   8   8   8   8   8
#     4  10  20  35  61  86 115 154 192 243 296 348
#     4  11  23  40  58  87 122 160 197 243 292 360
#     4  11  21  37  57  85 120 156 193 241 297 350
#     4  11  21  35  57  94 121 151 193 247 300 360
#     4  10  21  37  59  87 117 152 195 243 299 353
#     4  10  20  37  59  85 114 154 200 242 293 349
#     4  12  23  39  61  89 118 157 203 245 299 352
#     4  11  23  39  60  88 125 160 193 243 304 362
#
# _framework density 18.828619
#
# number of rings (size 3 to 8) (size 9 to 14) (size 15 to 20)
#    0.000    1.250    5.000    1.500    0.000    3.500 
#    2.250    1.875    0.000    1.500    0.000    0.000 
#    0.000    0.000    0.000    0.000    0.000    0.000 
#
# Total GULP energy -396638.178761 kJ/mol
# GULP energy per Si atom -12394.943086 kJ/mol
# Density = 1.878576 g / cm^3
# Si number density = 18.828619 Si / 1000 Ang^3
#
#
#
# Elastic Constant Matrix: (Units=GPa)
#
#
# Indices 1 2 3 4 5 6 
#
# 1 69.4417 43.5324 27.1411 0.0000 -3.0462 0.0000
# 2 43.5324 121.5320 46.1668 0.0000 -6.2128 0.0000
# 3 27.1411 46.1668 84.4739 0.0000 4.1469 0.0000
# 4 0.0000 0.0000 0.0000 25.8064 0.0000 -0.1830
# 5 -3.0462 -6.2128 4.1469 0.0000 30.4315 0.0000
# 6 0.0000 0.0000 0.0000 -0.1830 0.0000 37.0708
#
#
#
# Elastic Compliance Matrix: (Units=1/GPa)
#
#
# Indices 1 2 3 4 5 6 
#
# 1 0.019211 -0.005619 -0.003161 0.000000 0.001207 0.000000
# 2 -0.005619 0.012291 -0.005041 0.000000 0.002634 0.000000
# 3 -0.003161 -0.005041 0.015780 0.000000 -0.003496 0.000000
# 4 0.000000 0.000000 0.000000 0.038751 0.000000 0.000191
# 5 0.001207 0.002634 -0.003496 0.000000 0.033996 0.000000
# 6 0.000000 0.000000 0.000000 0.000191 0.000000 0.026976
#
#
# Mechanical properties :
#
#
# Convention : Reuss Voigt Hill
#
# Bulk Modulus (GPa) = 50.91545 56.56981 53.74263
# Shear Modulus (GPa) = 27.59471 29.23556 28.41513
#
# Velocity S-wave (km/s) = 3.83243 3.94473 3.88899
# Velocity P-wave (km/s) = 6.83254 7.13146 6.98360
#
# Compressibility (1/GPa) = 0.01964040
#
# Stress axis : x y z
#
# Youngs Moduli (GPa) = 52.05230 81.36309 63.37067
#
# Poissons Ratio (x) = 0.45718 0.20031
# Poissons Ratio (y) = 0.29249 0.31945
# Poissons Ratio (z) = 0.16453 0.41015
#
# Static dielectric constant tensor:
#      x y z
#    x 3.313730 0.000000 0.077370 
#    y 0.000000 3.604380 0.000000 
#    z 0.077370 0.000000 3.310190 
# 
# 
# High freq. dielectric constant tensor:
#      x y z
#    x 1.716510 0.000000 0.014390 
#    y 0.000000 1.740370 0.000000 
#    z 0.014390 0.000000 1.730520 
# 
# From -- ./inp_files/168766.got.cif
#   From: 2010.06.25/outbox.cif.g09.slc.cpg/sg12_85_cif.got.tgz:168766.got - 2010.06.28 00:19:55.
