data_PCOD8100010
_publ_section_title
;
Structure prediction by ZEFSAII (Michael W. Deem and Ramdas Pophale) SiO2 
 PCOD8100010
Probable space group: C 2/M
;
_chemical_formula_sum "Si O2"
_cell_formula_units_Z 56
_cell_length_a 21.739242
_cell_length_b 9.423193
_cell_length_c 13.546008
_cell_angle_alpha 90.000000
_cell_angle_beta 91.923549
_cell_angle_gamma 90.000000
_cell_volume 2773.377699
_symmetry_space_group_name_H-M "C 2/M"
_symmetry_group_IT_number 12
_symmetry_cell_setting 'monoclinic'
loop_
_space_group_symop_operation_xyz
x,y,z
-x,y,-z
-x,-y,-z
x,-y,z
1/2+x,1/2+y,z
1/2-x,1/2+y,-z
1/2-x,1/2-y,-z
1/2+x,1/2-y,z
loop_
_atom_site_type_symbol
_atom_site_label
_atom_site_fract_x
_atom_site_fract_y
_atom_site_fract_z
Si Si1 0.432742 0.667365 0.538508
Si Si2 0.458040 0.340573 0.083825
Si Si3 0.439415 0.341413 0.765952
Si Si4 0.761766 0.341342 0.247991
Si Si5 0.341089 0.159034 0.062145
Si Si6 0.337164 0.836791 0.841173
Si Si7 0.810393 0.330832 0.459573
O O1 0.500000 0.711902 0.500000
O O2 0.420520 0.500000 0.518305
O O3 0.436469 0.706048 0.653259
O O4 0.375203 0.758479 0.493443
O O5 0.441749 0.500000 0.050066
O O6 0.490586 0.336425 0.192334
O O7 0.395344 0.260786 0.094133
O O8 0.500000 0.271442 0.000000
O O9 0.412356 0.500000 0.777240
O O10 0.403598 0.234036 0.835137
O O11 0.735210 0.500000 0.256858
O O12 0.790894 0.318122 0.142791
O O13 0.704999 0.233170 0.245980
O O14 0.807662 0.310936 0.340818
O O15 0.367344 0.000000 0.065078
O O16 0.313245 0.190378 0.951761
O O17 0.341774 0.000000 0.814363
O O18 0.809510 0.500000 0.487501
O O19 0.750000 0.250000 0.500000
#
# Coordination Sequence:
#
# PCOD8100010 Si02
#       7
#     8   8   8   8   8   8   8
#     4  10  23  42  64  91 124 160 201 254 309 359
#     4  10  20  35  57  85 114 151 195 233 278 343
#     4  10  21  38  59  84 118 157 193 233 289 350
#     4  10  23  41  60  83 116 155 190 235 296 351
#     4  10  22  38  56  83 119 152 188 235 289 343
#     4  11  22  36  58  89 117 150 195 239 282 342
#     4  11  24  43  66  91 120 158 206 255 305 362
#
# _framework density 20.191984999999999
#
# number of rings (size 3 to 8) (size 9 to 14) (size 15 to 20)
#    0.000    1.714    1.429    2.143    2.000    7.429 
#    0.000    0.000    0.000    0.000    0.000    0.000 
#    0.000    0.000    0.000    0.000    0.000    0.000 
#
# Total GULP energy -347057.577494 kJ/mol
# GULP energy per Si atom -12394.913482 kJ/mol
# Density = 2.014603 g / cm^3
# Si number density = 20.191985 Si / 1000 Ang^3
#
#
#
# Elastic Constant Matrix: (Units=GPa)
#
#
# Indices 1 2 3 4 5 6 
#
# 1 93.4623 61.6163 27.7746 0.0000 17.9349 0.0000
# 2 61.6163 104.8170 44.0372 0.0000 7.2654 0.0000
# 3 27.7746 44.0372 97.5838 0.0000 10.9386 0.0000
# 4 0.0000 0.0000 0.0000 26.2241 0.0000 2.6752
# 5 17.9349 7.2654 10.9386 0.0000 30.6392 0.0000
# 6 0.0000 0.0000 0.0000 2.6752 0.0000 38.4710
#
#
#
# Elastic Compliance Matrix: (Units=1/GPa)
#
#
# Indices 1 2 3 4 5 6 
#
# 1 0.019604 -0.011081 0.000430 0.000000 -0.009001 0.000000
# 2 -0.011081 0.018061 -0.005462 0.000000 0.004154 0.000000
# 3 0.000430 -0.005462 0.012993 0.000000 -0.003595 0.000000
# 4 0.000000 0.000000 0.000000 0.038405 0.000000 -0.002671
# 5 -0.009001 0.004154 -0.003595 0.000000 0.038206 0.000000
# 6 0.000000 0.000000 0.000000 -0.002671 0.000000 0.026179
#
#
# Mechanical properties :
#
#
# Convention : Reuss Voigt Hill
#
# Bulk Modulus (GPa) = 54.25391 62.52437 58.38914
# Shear Modulus (GPa) = 26.06605 29.89586 27.98096
#
# Velocity S-wave (km/s) = 3.59682 3.85201 3.72660
# Velocity P-wave (km/s) = 6.64657 7.12854 6.89177
#
# Compressibility (1/GPa) = 0.01843185
#
# Stress axis : x y z
#
# Youngs Moduli (GPa) = 51.00892 55.36685 76.96277
#
# Poissons Ratio (x) = 0.61352 -0.03307
# Poissons Ratio (y) = 0.56523 0.42040
# Poissons Ratio (z) = -0.02192 0.30243
#
# Static dielectric constant tensor:
#      x y z
#    x 3.437830 0.000000 0.110320 
#    y 0.000000 3.739810 0.000000 
#    z 0.110320 0.000000 3.775540 
# 
# 
# High freq. dielectric constant tensor:
#      x y z
#    x 1.781470 0.000000 0.009180 
#    y 0.000000 1.788160 0.000000 
#    z 0.009180 0.000000 1.801250 
# 
# From -- ./inp_files/230962.got.cif
#   From: 2010.06.25/outbox.cif.g09.slc.cpg/sg12_116_cif.got.tgz:230962.got - 2010.06.28 00:19:55.
