data_PCOD8100986
_publ_section_title
;
Structure prediction by ZEFSAII (Michael W. Deem and Ramdas Pophale) SiO2 
 PCOD8100986
Probable space group: C 2/M
;
_chemical_formula_sum "Si O2"
_cell_formula_units_Z 64
_cell_length_a 11.234194
_cell_length_b 26.332223
_cell_length_c 12.190603
_cell_angle_alpha 90.000000
_cell_angle_beta 105.982430
_cell_angle_gamma 90.000000
_cell_volume 3466.845080
_symmetry_space_group_name_H-M "C 2/M"
_symmetry_group_IT_number 12
_symmetry_cell_setting 'monoclinic'
loop_
_space_group_symop_operation_xyz
x,y,z
-x,y,-z
-x,-y,-z
x,-y,z
1/2+x,1/2+y,z
1/2-x,1/2+y,-z
1/2-x,1/2-y,-z
1/2+x,1/2-y,z
loop_
_atom_site_type_symbol
_atom_site_label
_atom_site_fract_x
_atom_site_fract_y
_atom_site_fract_z
Si Si1 0.529286 0.056675 0.628015
Si Si2 0.750901 0.395941 0.206600
Si Si3 0.384879 0.388151 0.250452
Si Si4 0.325996 0.287622 0.870997
Si Si5 0.128411 0.059614 0.981098
Si Si6 0.616019 0.442082 0.369029
Si Si7 0.902850 0.784071 0.134922
Si Si8 0.740523 0.056128 0.379243
O O1 0.500000 0.078180 0.500000
O O2 0.610245 0.097322 0.714982
O O3 0.405432 0.051749 0.664939
O O4 0.592354 0.000000 0.634465
O O5 0.708037 0.337760 0.205643
O O6 0.665614 0.431403 0.260125
O O7 0.739833 0.415077 0.078620
O O8 0.364453 0.423942 0.141662
O O9 0.498226 0.406159 0.355846
O O10 0.401831 0.330273 0.219859
O O11 0.270276 0.398677 0.301864
O O12 0.199488 0.254177 0.839350
O O13 0.452743 0.263929 0.845526
O O14 0.356121 0.302291 0.004196
O O15 0.142093 0.000000 0.992348
O O16 0.000000 0.079540 0.000000
O O17 0.572596 0.500000 0.364998
O O18 0.717533 0.428782 0.486768
O O19 0.796456 0.000000 0.363118
#
# Coordination Sequence:
#
# PCOD8100986 Si02
#       8
#     8   8   8   8   8   8   8   8
#     4  10  20  36  56  79 115 161 203 236 271 339
#     4  12  20  34  59  88 113 145 199 243 287 344
#     4  12  21  35  56  86 121 153 190 239 296 354
#     4  10  21  39  61  87 114 148 200 254 302 360
#     4  11  20  30  50  83 120 151 178 224 290 354
#     4  11  20  33  58  89 121 154 193 237 281 342
#     4  10  21  39  61  85 115 153 197 251 303 358
#     4  10  22  37  54  84 123 163 201 235 279 343
#
# _framework density 18.460588000000001
#
# number of rings (size 3 to 8) (size 9 to 14) (size 15 to 20)
#    0.000    1.250    5.000    2.625    0.000    2.000 
#    0.000    0.625    0.000    4.500    0.000    0.000 
#    0.000    0.000    0.000    0.000    0.000    0.000 
#
# Total GULP energy -396561.626733 kJ/mol
# GULP energy per Si atom -12392.550835 kJ/mol
# Density = 1.841857 g / cm^3
# Si number density = 18.460588 Si / 1000 Ang^3
#
#
#
# Elastic Constant Matrix: (Units=GPa)
#
#
# Indices 1 2 3 4 5 6 
#
# 1 100.4709 41.0188 29.7329 0.0000 11.3405 0.0000
# 2 41.0188 76.6401 30.7050 0.0000 8.5419 0.0000
# 3 29.7329 30.7050 67.1767 0.0000 12.9902 0.0000
# 4 0.0000 0.0000 0.0000 21.5295 0.0000 -0.4330
# 5 11.3405 8.5419 12.9902 0.0000 30.4345 0.0000
# 6 0.0000 0.0000 0.0000 -0.4330 0.0000 27.3525
#
#
#
# Elastic Compliance Matrix: (Units=1/GPa)
#
#
# Indices 1 2 3 4 5 6 
#
# 1 0.013408 -0.005785 -0.002875 0.000000 -0.002145 0.000000
# 2 -0.005785 0.018531 -0.005799 0.000000 -0.000570 0.000000
# 3 -0.002875 -0.005799 0.019933 0.000000 -0.005809 0.000000
# 4 0.000000 0.000000 0.000000 0.046463 0.000000 0.000736
# 5 -0.002145 -0.000570 -0.005809 0.000000 0.036296 0.000000
# 6 0.000000 0.000000 0.000000 0.000736 0.000000 0.036571
#
#
# Mechanical properties :
#
#
# Convention : Reuss Voigt Hill
#
# Bulk Modulus (GPa) = 43.56883 49.68901 46.62892
# Shear Modulus (GPa) = 24.06472 25.38537 24.72505
#
# Velocity S-wave (km/s) = 3.61442 3.71227 3.66367
# Velocity P-wave (km/s) = 6.40866 6.73419 6.57344
#
# Compressibility (1/GPa) = 0.02295219
#
# Stress axis : x y z
#
# Youngs Moduli (GPa) = 74.58199 53.96280 50.16838
#
# Poissons Ratio (x) = 0.31218 0.14426
# Poissons Ratio (y) = 0.43146 0.29095
# Poissons Ratio (z) = 0.21446 0.31296
#
# Static dielectric constant tensor:
#      x y z
#    x 3.645450 0.000000 0.095740 
#    y 0.000000 3.199120 0.000000 
#    z 0.095740 0.000000 3.375700 
# 
# 
# High freq. dielectric constant tensor:
#      x y z
#    x 1.719310 0.000000 0.004830 
#    y 0.000000 1.688290 0.000000 
#    z 0.004830 0.000000 1.712180 
# 
# From -- ./inp_files/135987.got.cif
#   From: 2010.06.25/outbox.cif.g09.slc.cpg/sg12_68_cif.got.tgz:135987.got - 2010.06.28 00:19:55.
