data_PCOD8100710
_publ_section_title
;
Structure prediction by ZEFSAII (Michael W. Deem and Ramdas Pophale) SiO2 
 PCOD8100710
Probable space group: C 2/M
;
_chemical_formula_sum "Si O2"
_cell_formula_units_Z 56
_cell_length_a 14.714458
_cell_length_b 14.848048
_cell_length_c 11.592953
_cell_angle_alpha 90.000000
_cell_angle_beta 84.608721
_cell_angle_gamma 90.000000
_cell_volume 2521.635137
_symmetry_space_group_name_H-M "C 2/M"
_symmetry_group_IT_number 12
_symmetry_cell_setting 'monoclinic'
loop_
_space_group_symop_operation_xyz
x,y,z
-x,y,-z
-x,-y,-z
x,-y,z
1/2+x,1/2+y,z
1/2-x,1/2+y,-z
1/2-x,1/2-y,-z
1/2+x,1/2-y,z
loop_
_atom_site_type_symbol
_atom_site_label
_atom_site_fract_x
_atom_site_fract_y
_atom_site_fract_z
Si Si1 0.603124 0.135590 0.980896
Si Si2 0.962269 0.106852 0.385035
Si Si3 0.814844 0.596598 0.264045
Si Si4 0.730776 0.897274 0.185520
Si Si5 0.398044 0.659940 0.026376
Si Si6 0.621747 0.601924 0.209096
Si Si7 0.207643 0.223890 0.627366
O O1 0.656458 0.085326 0.872630
O O2 0.500000 0.096423 0.000000
O O3 0.655819 0.123373 0.095609
O O4 0.596847 0.237287 0.936280
O O5 0.862201 0.142976 0.377454
O O6 0.000000 0.145439 0.500000
O O7 0.030321 0.141790 0.277333
O O8 0.958161 0.000000 0.387592
O O9 0.842623 0.500000 0.320331
O O10 0.705123 0.607540 0.288528
O O11 0.849099 0.687296 0.322398
O O12 0.720592 0.820535 0.287995
O O13 0.715156 0.000000 0.232560
O O14 0.834529 0.893121 0.123886
O O15 0.351183 0.659057 0.906315
O O16 0.500000 0.617182 0.000000
O O17 0.604756 0.500000 0.171131
O O18 0.250000 0.250000 0.500000
#
# Coordination Sequence:
#
# PCOD8100710 Si02
#       7
#     8   8   8   8   8   8   8
#     4  11  24  42  67  98 138 183 228 271 330 406
#     4  10  22  42  68  99 132 169 218 275 341 407
#     4  11  23  43  67  92 127 176 226 272 333 399
#     4  12  24  42  69 101 139 175 220 283 347 410
#     4  11  21  35  60  97 134 169 210 267 344 410
#     4  10  20  35  61  94 127 163 209 269 338 406
#     4  12  26  44  65  98 133 175 226 280 334 401
#
# _framework density 22.207813000000002
#
# number of rings (size 3 to 8) (size 9 to 14) (size 15 to 20)
#    0.000    1.000    2.857    4.286    2.000    5.714 
#    0.000    0.000    0.000    0.429    0.000    0.000 
#    0.000    0.000    0.000    0.000    0.000    0.000 
#
# Total GULP energy -347008.911815 kJ/mol
# GULP energy per Si atom -12393.175422 kJ/mol
# Density = 2.215727 g / cm^3
# Si number density = 22.207813 Si / 1000 Ang^3
#
#
#
# Elastic Constant Matrix: (Units=GPa)
#
#
# Indices 1 2 3 4 5 6 
#
# 1 101.9321 7.3836 23.3871 0.0000 -6.1287 0.0000
# 2 7.3836 94.4177 35.4422 0.0000 -2.3356 0.0000
# 3 23.3871 35.4422 119.9900 0.0000 -10.3941 0.0000
# 4 0.0000 0.0000 0.0000 24.7937 0.0000 5.0668
# 5 -6.1287 -2.3356 -10.3941 0.0000 32.3899 0.0000
# 6 0.0000 0.0000 0.0000 5.0668 0.0000 22.9954
#
#
#
# Elastic Compliance Matrix: (Units=1/GPa)
#
#
# Indices 1 2 3 4 5 6 
#
# 1 0.010327 -0.000070 -0.001875 0.000000 0.001347 0.000000
# 2 -0.000070 0.011915 -0.003531 0.000000 -0.000287 0.000000
# 3 -0.001875 -0.003531 0.009967 0.000000 0.002589 0.000000
# 4 0.000000 0.000000 0.000000 0.042235 0.000000 -0.009306
# 5 0.001347 -0.000287 0.002589 0.000000 0.031939 0.000000
# 6 0.000000 0.000000 0.000000 -0.009306 0.000000 0.045537
#
#
# Mechanical properties :
#
#
# Convention : Reuss Voigt Hill
#
# Bulk Modulus (GPa) = 47.04547 49.86284 48.45416
# Shear Modulus (GPa) = 29.41921 32.71093 31.06507
#
# Velocity S-wave (km/s) = 3.64362 3.84206 3.74416
# Velocity P-wave (km/s) = 6.23951 6.49488 6.36848
#
# Compressibility (1/GPa) = 0.02125603
#
# Stress axis : x y z
#
# Youngs Moduli (GPa) = 96.83529 83.92845 100.33466
#
# Poissons Ratio (x) = 0.00590 0.18816
# Poissons Ratio (y) = 0.00681 0.35424
# Poissons Ratio (z) = 0.18160 0.29631
#
# Static dielectric constant tensor:
#      x y z
#    x 3.943900 0.000000 -0.033610 
#    y 0.000000 4.072600 0.000000 
#    z -0.033610 0.000000 4.054240 
# 
# 
# High freq. dielectric constant tensor:
#      x y z
#    x 1.860150 0.000000 -0.004520 
#    y 0.000000 1.883440 0.000000 
#    z -0.004520 0.000000 1.861910 
# 
# From -- ./inp_files/143725.got.cif
#   From: 2010.06.25/outbox.cif.g09.slc.cpg/sg12_72_cif.got.tgz:143725.got - 2010.06.28 00:19:55.
