data_PCOD8100201
_publ_section_title
;
Structure prediction by ZEFSAII (Michael W. Deem and Ramdas Pophale) SiO2 
 PCOD8100201
Probable space group: C 2/M
;
_chemical_formula_sum "Si O2"
_cell_formula_units_Z 48
_cell_length_a 20.599516
_cell_length_b 27.578167
_cell_length_c 8.920554
_cell_angle_alpha 90.000000
_cell_angle_beta 150.531886
_cell_angle_gamma 90.000000
_cell_volume 2493.019053
_symmetry_space_group_name_H-M "C 2/M"
_symmetry_group_IT_number 12
_symmetry_cell_setting 'monoclinic'
loop_
_space_group_symop_operation_xyz
x,y,z
-x,y,-z
-x,-y,-z
x,-y,z
1/2+x,1/2+y,z
1/2-x,1/2+y,-z
1/2-x,1/2-y,-z
1/2+x,1/2-y,z
loop_
_atom_site_type_symbol
_atom_site_label
_atom_site_fract_x
_atom_site_fract_y
_atom_site_fract_z
Si Si1 0.751515 0.556351 0.358465
Si Si2 0.999389 0.220707 0.676980
Si Si3 0.772099 0.723569 0.701285
Si Si4 0.505683 0.946157 0.686873
Si Si5 0.507250 0.378817 0.840506
Si Si6 0.781700 0.610779 0.718586
O O1 0.725594 0.500000 0.335783
O O2 0.859743 0.566462 0.450049
O O3 0.807057 0.580920 0.619200
O O4 0.614174 0.579566 0.028886
O O5 0.853859 0.231766 0.446025
O O6 0.045124 0.166646 0.813496
O O7 0.000000 0.227012 0.500000
O O8 0.100213 0.257920 0.954564
O O9 0.750000 0.750000 0.500000
O O10 0.796129 0.667429 0.713147
O O11 0.500000 0.944703 0.500000
O O12 0.547146 0.000000 0.827696
O O13 0.610326 0.906009 0.945852
O O14 0.364094 0.400135 0.507820
O O15 0.500000 0.361763 0.000000
#
# Coordination Sequence:
#
# PCOD8100201 Si02
#       6
#     8   8   8   8   8   8
#     4  10  20  35  58  85 110 142 185 229 274 327
#     4  11  23  39  59  85 116 148 188 236 281 331
#     4  11  23  40  60  84 114 151 190 230 283 339
#     4  10  22  38  54  78 114 149 182 225 275 327
#     4   9  20  38  58  83 112 145 183 228 281 334
#     4  10  21  36  58  84 108 142 186 227 273 329
#
# _framework density 19.253762999999999
#
# number of rings (size 3 to 8) (size 9 to 14) (size 15 to 20)
#    0.000    1.833    0.000    5.000    0.000   12.333 
#    0.000    0.000    0.000    3.500    0.000    0.000 
#    0.000    0.000    0.000    0.000    0.000    0.000 
#
# Total GULP energy -297663.487830 kJ/mol
# GULP energy per Si atom -12402.645326 kJ/mol
# Density = 1.920994 g / cm^3
# Si number density = 19.253763 Si / 1000 Ang^3
#
#
#
# Elastic Constant Matrix: (Units=GPa)
#
#
# Indices 1 2 3 4 5 6 
#
# 1 99.3989 42.2689 49.2717 0.0000 7.5856 0.0000
# 2 42.2689 106.5729 76.4125 0.0000 13.0362 0.0000
# 3 49.2717 76.4125 101.5219 0.0000 8.4054 0.0000
# 4 0.0000 0.0000 0.0000 39.3735 0.0000 3.1699
# 5 7.5856 13.0362 8.4054 0.0000 26.1082 0.0000
# 6 0.0000 0.0000 0.0000 3.1699 0.0000 24.2210
#
#
#
# Elastic Compliance Matrix: (Units=1/GPa)
#
#
# Indices 1 2 3 4 5 6 
#
# 1 0.013401 -0.001207 -0.005469 0.000000 -0.001530 0.000000
# 2 -0.001207 0.021256 -0.014962 0.000000 -0.005446 0.000000
# 3 -0.005469 -0.014962 0.023646 0.000000 0.001447 0.000000
# 4 0.000000 0.000000 0.000000 0.025668 0.000000 -0.003359
# 5 -0.001530 -0.005446 0.001447 0.000000 0.041000 0.000000
# 6 0.000000 0.000000 0.000000 -0.003359 0.000000 0.041726
#
#
# Mechanical properties :
#
#
# Convention : Reuss Voigt Hill
#
# Bulk Modulus (GPa) = 66.54471 71.48887 69.01679
# Shear Modulus (GPa) = 23.25770 27.24325 25.25047
#
# Velocity S-wave (km/s) = 3.47934 3.76567 3.62533
# Velocity P-wave (km/s) = 7.12587 7.49116 7.31080
#
# Compressibility (1/GPa) = 0.01502749
#
# Stress axis : x y z
#
# Youngs Moduli (GPa) = 74.61874 47.04624 42.29027
#
# Poissons Ratio (x) = 0.05677 0.23129
# Poissons Ratio (y) = 0.09004 0.63275
# Poissons Ratio (z) = 0.40810 0.70391
#
# Static dielectric constant tensor:
#      x y z
#    x 3.509150 0.000000 0.153170 
#    y 0.000000 3.716670 0.000000 
#    z 0.153170 0.000000 3.667890 
# 
# 
# High freq. dielectric constant tensor:
#      x y z
#    x 1.749190 0.000000 0.010720 
#    y 0.000000 1.754800 0.000000 
#    z 0.010720 0.000000 1.757920 
# 
# From -- ./inp_files/91170.got.cif
#   From: 2010.06.25/outbox.cif.g09.slc.cpg/sg12_46_cif.got.tgz:91170.got - 2010.06.28 00:19:55.
