data_PCOD8100634
_publ_section_title
;
Structure prediction by ZEFSAII (Michael W. Deem and Ramdas Pophale) SiO2 
 PCOD8100634
Probable space group: C 2/M
;
_chemical_formula_sum "Si O2"
_cell_formula_units_Z 44
_cell_length_a 27.039022
_cell_length_b 11.352457
_cell_length_c 14.275883
_cell_angle_alpha 90.000000
_cell_angle_beta 150.661991
_cell_angle_gamma 90.000000
_cell_volume 2147.065098
_symmetry_space_group_name_H-M "C 2/M"
_symmetry_group_IT_number 12
_symmetry_cell_setting 'monoclinic'
loop_
_space_group_symop_operation_xyz
x,y,z
-x,y,-z
-x,-y,-z
x,-y,z
1/2+x,1/2+y,z
1/2-x,1/2+y,-z
1/2-x,1/2-y,-z
1/2+x,1/2-y,z
loop_
_atom_site_type_symbol
_atom_site_label
_atom_site_fract_x
_atom_site_fract_y
_atom_site_fract_z
Si Si1 0.386422 0.725307 0.824583
Si Si2 0.354362 0.130920 0.956932
Si Si3 0.322041 0.130339 0.543349
Si Si4 0.500000 0.713548 0.500000
Si Si5 0.544518 0.135351 0.398366
Si Si6 0.288604 0.366300 0.118838
O O1 0.371612 0.776467 0.903290
O O2 0.365365 0.822448 0.711784
O O3 0.299883 0.628031 0.664434
O O4 0.500000 0.673508 0.000000
O O5 0.247436 0.148283 0.832685
O O6 0.362871 0.000000 0.927364
O O7 0.435274 0.150286 0.172254
O O8 0.372457 0.192515 0.536078
O O9 0.365011 0.000000 0.612288
O O10 0.450971 0.794667 0.498356
O O11 0.590108 0.632126 0.686615
O O12 0.569824 0.000000 0.463788
O O13 0.254130 0.500000 0.025953
O O14 0.250000 0.250000 0.000000
#
# Coordination Sequence:
#
# PCOD8100634 Si02
#       6
#     8   8   8   4   8   8
#     4  11  21  36  62  85 113 153 195 246 302 354
#     4  10  20  37  60  87 118 155 200 246 294 359
#     4  10  22  38  57  87 119 152 197 245 297 361
#     4  12  22  38  64  88 123 160 201 250 307 356
#     4  10  20  35  60  90 120 157 204 250 298 363
#     4  11  24  42  63  90 125 162 204 253 305 365
#
# _framework density 20.493089999999999
#
# number of rings (size 3 to 8) (size 9 to 14) (size 15 to 20)
#    0.000    1.455    3.636    2.182    0.000    1.818 
#    0.000    0.909    0.000    1.091    0.000    0.000 
#    0.000    0.000    0.000    0.000    0.000    0.000 
#
# Total GULP energy -272600.094819 kJ/mol
# GULP energy per Si atom -12390.913401 kJ/mol
# Density = 2.044645 g / cm^3
# Si number density = 20.493090 Si / 1000 Ang^3
#
#
#
# Elastic Constant Matrix: (Units=GPa)
#
#
# Indices 1 2 3 4 5 6 
#
# 1 110.4073 32.7700 17.3152 0.0000 4.5223 0.0000
# 2 32.7700 79.0422 10.1008 0.0000 -6.5919 0.0000
# 3 17.3152 10.1008 85.9473 0.0000 21.3769 0.0000
# 4 0.0000 0.0000 0.0000 6.1975 0.0000 5.3499
# 5 4.5223 -6.5919 21.3769 0.0000 40.6579 0.0000
# 6 0.0000 0.0000 0.0000 5.3499 0.0000 25.5411
#
#
#
# Elastic Compliance Matrix: (Units=1/GPa)
#
#
# Indices 1 2 3 4 5 6 
#
# 1 0.010597 -0.004321 -0.001334 0.000000 -0.001178 0.000000
# 2 -0.004321 0.015005 -0.001861 0.000000 0.003892 0.000000
# 3 -0.001334 -0.001861 0.013990 0.000000 -0.007509 0.000000
# 4 0.000000 0.000000 0.000000 0.196971 0.000000 -0.041258
# 5 -0.001178 0.003892 -0.007509 0.000000 0.029306 0.000000
# 6 0.000000 0.000000 0.000000 -0.041258 0.000000 0.047795
#
#
# Mechanical properties :
#
#
# Convention : Reuss Voigt Hill
#
# Bulk Modulus (GPa) = 40.71619 43.97431 42.34525
# Shear Modulus (GPa) = 14.84193 28.82667 21.83430
#
# Velocity S-wave (km/s) = 2.69409 3.75461 3.26766
# Velocity P-wave (km/s) = 5.43957 6.34829 5.91142
#
# Compressibility (1/GPa) = 0.02456025
#
# Stress axis : x y z
#
# Youngs Moduli (GPa) = 94.36219 66.64257 71.47878
#
# Poissons Ratio (x) = 0.28798 0.09537
# Poissons Ratio (y) = 0.40777 0.13301
# Poissons Ratio (z) = 0.12590 0.12402
#
# Static dielectric constant tensor:
#      x y z
#    x 3.881080 0.000000 0.277610 
#    y 0.000000 3.514940 0.000000 
#    z 0.277610 0.000000 3.701490 
# 
# 
# High freq. dielectric constant tensor:
#      x y z
#    x 1.817710 0.000000 0.017230 
#    y 0.000000 1.777900 0.000000 
#    z 0.017230 0.000000 1.799310 
# 
# From -- ./inp_files/245547.got.cif
#   From: 2010.06.25/outbox.cif.g09.slc.cpg/sg12_123_cif.got.tgz:245547.got - 2010.06.28 00:19:55.
