data_PCOD8100341
_publ_section_title
;
Structure prediction by ZEFSAII (Michael W. Deem and Ramdas Pophale) SiO2 
 PCOD8100341
Probable space group: C 2/M
;
_chemical_formula_sum "Si O2"
_cell_formula_units_Z 48
_cell_length_a 23.850021
_cell_length_b 14.202343
_cell_length_c 13.282800
_cell_angle_alpha 90.000000
_cell_angle_beta 148.019650
_cell_angle_gamma 90.000000
_cell_volume 2382.921042
_symmetry_space_group_name_H-M "C 2/M"
_symmetry_group_IT_number 12
_symmetry_cell_setting 'monoclinic'
loop_
_space_group_symop_operation_xyz
x,y,z
-x,y,-z
-x,-y,-z
x,-y,z
1/2+x,1/2+y,z
1/2-x,1/2+y,-z
1/2-x,1/2-y,-z
1/2+x,1/2-y,z
loop_
_atom_site_type_symbol
_atom_site_label
_atom_site_fract_x
_atom_site_fract_y
_atom_site_fract_z
Si Si1 0.921808 0.217645 0.288819
Si Si2 0.444887 0.104199 0.814160
Si Si3 0.725254 0.888533 0.912902
Si Si4 0.978968 0.786360 0.768705
Si Si5 0.707232 0.604941 0.419580
Si Si6 0.329235 0.608106 0.861551
O O1 0.878796 0.325674 0.221447
O O2 0.000000 0.197757 0.500000
O O3 0.996013 0.191698 0.307990
O O4 0.821556 0.145842 0.132143
O O5 0.482063 0.173766 0.783390
O O6 0.320121 0.109097 0.644640
O O7 0.480419 0.000000 0.834714
O O8 0.500000 0.136316 0.000000
O O9 0.751211 0.866486 0.835091
O O10 0.703060 0.000000 0.897270
O O11 0.864495 0.822740 0.628427
O O12 0.064241 0.832009 0.972623
O O13 0.658109 0.500000 0.353090
O O14 0.723969 0.631180 0.326981
O O15 0.362530 0.500000 0.921826
#
# Coordination Sequence:
#
# PCOD8100341 Si02
#       6
#     8   8   8   8   8   8
#     4  10  23  40  59  89 121 153 205 251 285 349
#     4  10  22  38  52  78 119 154 189 229 276 346
#     4   9  20  41  63  86 119 157 196 246 299 345
#     4  11  21  35  58  83 115 150 186 234 293 336
#     4  10  20  35  58  88 113 143 187 233 288 351
#     4   9  18  34  61  89 113 139 183 240 291 345
#
# _framework density 20.143343999999999
#
# number of rings (size 3 to 8) (size 9 to 14) (size 15 to 20)
#    0.000    2.167    0.000    2.500    2.333    3.333 
#    6.000    0.000    0.000    0.000    0.000    0.000 
#    0.000    0.000    0.000    0.000    0.000    0.000 
#
# Total GULP energy -297554.278307 kJ/mol
# GULP energy per Si atom -12398.094929 kJ/mol
# Density = 2.009750 g / cm^3
# Si number density = 20.143344 Si / 1000 Ang^3
#
#
#
# Elastic Constant Matrix: (Units=GPa)
#
#
# Indices 1 2 3 4 5 6 
#
# 1 67.4494 28.2942 41.9373 0.0000 -7.2459 0.0000
# 2 28.2942 92.1865 21.9298 0.0000 -8.1135 0.0000
# 3 41.9373 21.9298 118.0994 0.0000 -16.9985 0.0000
# 4 0.0000 0.0000 0.0000 12.8100 0.0000 10.9909
# 5 -7.2459 -8.1135 -16.9985 0.0000 17.7469 0.0000
# 6 0.0000 0.0000 0.0000 10.9909 0.0000 24.3949
#
#
#
# Elastic Compliance Matrix: (Units=1/GPa)
#
#
# Indices 1 2 3 4 5 6 
#
# 1 0.020927 -0.004866 -0.006516 0.000000 0.000078 0.000000
# 2 -0.004866 0.012691 -0.000092 0.000000 0.003727 0.000000
# 3 -0.006516 -0.000092 0.012074 0.000000 0.008862 0.000000
# 4 0.000000 0.000000 0.000000 0.127256 0.000000 -0.057334
# 5 0.000078 0.003727 0.008862 0.000000 0.066572 0.000000
# 6 0.000000 0.000000 0.000000 -0.057334 0.000000 0.066823
#
#
# Mechanical properties :
#
#
# Convention : Reuss Voigt Hill
#
# Bulk Modulus (GPa) = 43.96964 51.33977 47.65471
# Shear Modulus (GPa) = 14.84233 23.36196 19.10215
#
# Velocity S-wave (km/s) = 2.71742 3.40926 3.08281
# Velocity P-wave (km/s) = 5.63219 6.40624 6.03165
#
# Compressibility (1/GPa) = 0.02274296
#
# Stress axis : x y z
#
# Youngs Moduli (GPa) = 47.78463 78.79584 82.82158
#
# Poissons Ratio (x) = 0.38342 0.53971
# Poissons Ratio (y) = 0.23252 0.00764
# Poissons Ratio (z) = 0.31139 0.00727
#
# Static dielectric constant tensor:
#      x y z
#    x 3.511900 0.000000 -0.016590 
#    y 0.000000 3.862740 0.000000 
#    z -0.016590 0.000000 3.651450 
# 
# 
# High freq. dielectric constant tensor:
#      x y z
#    x 1.768850 0.000000 -0.001220 
#    y 0.000000 1.796270 0.000000 
#    z -0.001220 0.000000 1.787310 
# 
# From -- ./inp_files/142709.got.cif
#   From: 2010.06.25/outbox.cif.g09.slc.cpg/sg12_72_cif.got.tgz:142709.got - 2010.06.28 00:19:55.
