data_PCOD8100136
_publ_section_title
;
Structure prediction by ZEFSAII (Michael W. Deem and Ramdas Pophale) SiO2 
 PCOD8100136
Probable space group: C 2/M
;
_chemical_formula_sum "Si O2"
_cell_formula_units_Z 56
_cell_length_a 29.295692
_cell_length_b 8.973941
_cell_length_c 20.602767
_cell_angle_alpha 90.000000
_cell_angle_beta 147.752496
_cell_angle_gamma 90.000000
_cell_volume 2890.082035
_symmetry_space_group_name_H-M "C 2/M"
_symmetry_group_IT_number 12
_symmetry_cell_setting 'monoclinic'
loop_
_space_group_symop_operation_xyz
x,y,z
-x,y,-z
-x,-y,-z
x,-y,z
1/2+x,1/2+y,z
1/2-x,1/2+y,-z
1/2-x,1/2-y,-z
1/2+x,1/2-y,z
loop_
_atom_site_type_symbol
_atom_site_label
_atom_site_fract_x
_atom_site_fract_y
_atom_site_fract_z
Si Si1 0.420262 0.324838 0.752038
Si Si2 0.103741 0.825206 0.926476
Si Si3 0.132808 0.324940 0.438321
Si Si4 0.946705 0.675001 0.261789
Si Si5 0.296556 0.676123 0.711342
Si Si6 0.246616 0.175867 0.199739
Si Si7 0.415604 0.323893 0.359580
O O1 0.409304 0.500000 0.731162
O O2 0.519555 0.278185 0.866382
O O3 0.364557 0.251341 0.628454
O O4 0.381230 0.270148 0.774154
O O5 0.108383 0.735668 0.864936
O O6 0.101945 0.000000 0.908665
O O7 0.186073 0.779867 0.067178
O O8 0.139421 0.500000 0.434928
O O9 0.211015 0.260223 0.574408
O O10 0.045865 0.283280 0.371475
O O11 0.931055 0.500000 0.248895
O O12 0.913233 0.752126 0.286013
O O13 0.290915 0.500000 0.702450
O O14 0.300544 0.728417 0.790766
O O15 0.335049 0.263632 0.302499
O O16 0.265709 0.000000 0.223542
O O17 0.500000 0.274181 0.500000
O O18 0.410043 0.500000 0.345749
#
# Coordination Sequence:
#
# PCOD8100136 Si02
#       7
#     8   8   8   8   8   8   8
#     4   9  17  30  50  76 106 139 174 215 261 306
#     4   9  19  35  54  79 109 140 178 221 261 304
#     4   9  17  30  49  76 106 135 173 217 260 311
#     4  10  20  35  58  81 105 142 179 215 261 313
#     4   9  17  30  50  76 105 138 177 219 259 303
#     4  10  21  37  56  77 105 142 181 219 259 310
#     4  11  24  40  58  82 109 134 166 214 269 320
#
# _framework density 19.376612000000002
#
# number of rings (size 3 to 8) (size 9 to 14) (size 15 to 20)
#    0.000    2.429    0.000    2.143    0.000    4.571 
#    0.000    4.286    0.000    0.000    0.000    5.000 
#    0.000    0.000    0.000    0.000    0.000    0.000 
#
# Total GULP energy -347214.650013 kJ/mol
# GULP energy per Si atom -12400.523215 kJ/mol
# Density = 1.933251 g / cm^3
# Si number density = 19.376612 Si / 1000 Ang^3
#
#
#
# Elastic Constant Matrix: (Units=GPa)
#
#
# Indices 1 2 3 4 5 6 
#
# 1 125.3224 29.3674 36.6486 0.0000 -14.8845 0.0000
# 2 29.3674 39.8512 28.9534 0.0000 -6.8064 0.0000
# 3 36.6486 28.9534 101.7661 0.0000 -8.7191 0.0000
# 4 0.0000 0.0000 0.0000 24.4817 0.0000 -0.5724
# 5 -14.8845 -6.8064 -8.7191 0.0000 24.6000 0.0000
# 6 0.0000 0.0000 0.0000 -0.5724 0.0000 21.9600
#
#
#
# Elastic Compliance Matrix: (Units=1/GPa)
#
#
# Indices 1 2 3 4 5 6 
#
# 1 0.010291 -0.005611 -0.001763 0.000000 0.004049 0.000000
# 2 -0.005611 0.035497 -0.007764 0.000000 0.003674 0.000000
# 3 -0.001763 -0.007764 0.012783 0.000000 0.001316 0.000000
# 4 0.000000 0.000000 0.000000 0.040872 0.000000 0.001065
# 5 0.004049 0.003674 0.001316 0.000000 0.044584 0.000000
# 6 0.000000 0.000000 0.000000 0.001065 0.000000 0.045565
#
#
# Mechanical properties :
#
#
# Convention : Reuss Voigt Hill
#
# Bulk Modulus (GPa) = 35.34165 50.76427 43.05296
# Shear Modulus (GPa) = 21.80580 25.67304 23.73942
#
# Velocity S-wave (km/s) = 3.35829 3.64393 3.50402
# Velocity P-wave (km/s) = 5.77204 6.63023 6.21596
#
# Compressibility (1/GPa) = 0.02829523
#
# Stress axis : x y z
#
# Youngs Moduli (GPa) = 97.17515 28.17178 78.23040
#
# Poissons Ratio (x) = 0.15808 0.13788
# Poissons Ratio (y) = 0.54528 0.60734
# Poissons Ratio (z) = 0.17127 0.21871
#
# Static dielectric constant tensor:
#      x y z
#    x 3.781890 0.000000 -0.000580 
#    y 0.000000 3.324190 0.000000 
#    z -0.000580 0.000000 3.587120 
# 
# 
# High freq. dielectric constant tensor:
#      x y z
#    x 1.765580 0.000000 -0.000320 
#    y 0.000000 1.731650 0.000000 
#    z -0.000320 0.000000 1.752250 
# 
# From -- ./inp_files/329641.got.cif
#   From: 2010.06.25/outbox.cif.g09.slc.cpg/sg12_165_cif.got.tgz:329641.got - 2010.06.28 00:19:55.
