data_PCOD8100872
_publ_section_title
;
Structure prediction by ZEFSAII (Michael W. Deem and Ramdas Pophale) SiO2 
 PCOD8100872
Probable space group: C 2/M
;
_chemical_formula_sum "Si O2"
_cell_formula_units_Z 36
_cell_length_a 25.184075
_cell_length_b 14.229883
_cell_length_c 17.424558
_cell_angle_alpha 90.000000
_cell_angle_beta 18.841884
_cell_angle_gamma 90.000000
_cell_volume 2016.669096
_symmetry_space_group_name_H-M "C 2/M"
_symmetry_group_IT_number 12
_symmetry_cell_setting 'monoclinic'
loop_
_space_group_symop_operation_xyz
x,y,z
-x,y,-z
-x,-y,-z
x,-y,z
1/2+x,1/2+y,z
1/2-x,1/2+y,-z
1/2-x,1/2-y,-z
1/2+x,1/2-y,z
loop_
_atom_site_type_symbol
_atom_site_label
_atom_site_fract_x
_atom_site_fract_y
_atom_site_fract_z
Si Si1 0.000000 0.670577 0.500000
Si Si2 0.680352 0.606156 0.873749
Si Si3 0.874745 0.250256 0.526212
Si Si4 0.386375 0.892719 0.081763
Si Si5 0.938618 0.750190 0.266015
O O1 0.833575 0.608049 0.724759
O O2 0.008316 0.735281 0.411697
O O3 0.640766 0.500000 0.902995
O O4 0.732886 0.668383 0.727627
O O5 0.517511 0.650525 0.133757
O O6 0.960452 0.259676 0.327244
O O7 0.790802 0.148803 0.652694
O O8 0.464817 0.836421 0.903609
O O9 0.363473 0.000000 0.086978
O O10 0.500000 0.883845 0.000000
O O11 0.750000 0.750000 0.500000
#
# Coordination Sequence:
#
# PCOD8100872 Si02
#       5
#     4   8   8   8   8
#     4   8  19  38  63  72 114 148 185 222 279 314
#     4   9  20  37  59  82 110 146 184 225 276 324
#     4   9  20  36  58  78 112 144 181 227 275 323
#     4  10  20  36  55  78 111 147 180 225 277 326
#     4  11  21  35  58  84 112 141 184 228 278 327
#
# _framework density 17.851220000000001
#
# number of rings (size 3 to 8) (size 9 to 14) (size 15 to 20)
#    1.333    1.111    2.222    0.333    0.000    3.556 
#    0.000    1.667    0.000    0.000    0.000    0.000 
#    0.000    0.000    0.000    0.000    0.000    0.000 
#
# Total GULP energy -223060.658068 kJ/mol
# GULP energy per Si atom -12392.258782 kJ/mol
# Density = 1.781059 g / cm^3
# Si number density = 17.851220 Si / 1000 Ang^3
#
#
#
# Elastic Constant Matrix: (Units=GPa)
#
#
# Indices 1 2 3 4 5 6 
#
# 1 57.6508 14.7972 13.2750 -0.0060 21.7636 0.0076
# 2 14.7972 130.6448 35.0839 0.0006 12.3045 -0.0011
# 3 13.2750 35.0839 78.0760 -0.0007 11.9267 -0.0005
# 4 -0.0060 0.0006 -0.0007 35.8188 -0.0009 -28.4089
# 5 21.7636 12.3045 11.9267 -0.0009 37.7614 0.0019
# 6 0.0076 -0.0011 -0.0005 -28.4089 0.0019 59.4962
#
#
#
# Elastic Compliance Matrix: (Units=1/GPa)
#
#
# Indices 1 2 3 4 5 6 
#
# 1 0.022556 -0.000997 -0.001524 0.000002 -0.012194 -0.000001
# 2 -0.000997 0.008852 -0.003630 0.000000 -0.001163 0.000000
# 3 -0.001524 -0.003630 0.015113 0.000000 -0.002712 0.000001
# 4 0.000002 0.000000 0.000000 0.044936 -0.000001 0.021457
# 5 -0.012194 -0.001163 -0.002712 -0.000001 0.034745 0.000000
# 6 -0.000001 0.000000 0.000001 0.021457 0.000000 0.027053
#
#
# Mechanical properties :
#
#
# Convention : Reuss Voigt Hill
#
# Bulk Modulus (GPa) = 29.22534 43.63153 36.42843
# Shear Modulus (GPa) = 28.25432 40.16299 34.20866
#
# Velocity S-wave (km/s) = 3.98272 4.74843 4.38233
# Velocity P-wave (km/s) = 6.12834 7.38636 6.78656
#
# Compressibility (1/GPa) = 0.03421688
#
# Stress axis : x y z
#
# Youngs Moduli (GPa) = 44.33432 112.97240 66.16910
#
# Poissons Ratio (x) = 0.11263 0.10087
# Poissons Ratio (y) = 0.04420 0.24022
# Poissons Ratio (z) = 0.06759 0.41013
#
# Static dielectric constant tensor:
#      x y z
#    x 3.178250 0.000000 0.042020 
#    y 0.000000 3.216940 0.000000 
#    z 0.042020 0.000000 3.221570 
# 
# 
# High freq. dielectric constant tensor:
#      x y z
#    x 1.681100 0.000000 0.002530 
#    y 0.000000 1.683510 0.000000 
#    z 0.002530 0.000000 1.683700 
# 
# From -- ./inp_files/293341.got.cif
#   From: 2010.06.25/outbox.cif.g09.slc.cpg/sg12_147_cif.got.tgz:293341.got - 2010.06.28 00:19:55.
