data_PCOD8100673
_publ_section_title
;
Structure prediction by ZEFSAII (Michael W. Deem and Ramdas Pophale) SiO2 
 PCOD8100673
Probable space group: C 2/M
;
_chemical_formula_sum "Si O2"
_cell_formula_units_Z 56
_cell_length_a 9.875449
_cell_length_b 18.179407
_cell_length_c 15.960116
_cell_angle_alpha 90.000000
_cell_angle_beta 102.776816
_cell_angle_gamma 90.000000
_cell_volume 2794.368211
_symmetry_space_group_name_H-M "C 2/M"
_symmetry_group_IT_number 12
_symmetry_cell_setting 'monoclinic'
loop_
_space_group_symop_operation_xyz
x,y,z
-x,y,-z
-x,-y,-z
x,-y,z
1/2+x,1/2+y,z
1/2-x,1/2+y,-z
1/2-x,1/2-y,-z
1/2+x,1/2-y,z
loop_
_atom_site_type_symbol
_atom_site_label
_atom_site_fract_x
_atom_site_fract_y
_atom_site_fract_z
Si Si1 0.937683 0.088408 0.778498
Si Si2 0.120654 0.919487 0.951334
Si Si3 0.101516 0.587155 0.938836
Si Si4 0.255408 0.208638 0.586693
Si Si5 0.368896 0.854140 0.235066
Si Si6 0.950719 0.414881 0.587453
Si Si7 0.978222 0.214267 0.317575
O O1 0.789143 0.118131 0.788043
O O2 0.053291 0.116625 0.860413
O O3 0.993759 0.129829 0.704207
O O4 0.932356 0.000000 0.765664
O O5 0.177101 0.000000 0.932582
O O6 0.250872 0.877927 0.010958
O O7 0.000000 0.928650 0.000000
O O8 0.107181 0.500000 0.925728
O O9 0.059281 0.621139 0.842785
O O10 0.000000 0.610266 0.000000
O O11 0.250000 0.250000 0.500000
O O12 0.302883 0.124470 0.580678
O O13 0.102684 0.210874 0.605630
O O14 0.371060 0.248529 0.658601
O O15 0.438485 0.888355 0.328134
O O16 0.384762 0.765266 0.242438
O O17 0.923407 0.500000 0.596041
O O18 0.000000 0.396144 0.500000
#
# Coordination Sequence:
#
# PCOD8100673 Si02
#       7
#     8   8   8   8   8   8   8
#     4  11  22  39  66  94 125 169 216 264 321 378
#     4   9  17  32  56  85 118 161 211 256 303 371
#     4  10  20  35  60  94 127 166 216 263 314 382
#     4  11  22  42  63  87 125 170 208 255 325 386
#     4  11  21  41  64  90 131 173 207 260 331 385
#     4  10  22  38  63  97 128 162 212 266 320 389
#     4  11  24  40  63  93 124 162 217 261 312 392
#
# _framework density 20.040309000000001
#
# number of rings (size 3 to 8) (size 9 to 14) (size 15 to 20)
#    0.000    1.571    2.857    3.429    0.000    2.857 
#    0.000    2.857    0.000    1.714    0.000    0.000 
#    0.000    0.000    0.000    0.000    0.000    0.000 
#
# Total GULP energy -346922.281018 kJ/mol
# GULP energy per Si atom -12390.081465 kJ/mol
# Density = 1.999470 g / cm^3
# Si number density = 20.040309 Si / 1000 Ang^3
#
#
#
# Elastic Constant Matrix: (Units=GPa)
#
#
# Indices 1 2 3 4 5 6 
#
# 1 83.3636 27.7646 38.6363 0.0000 -10.0933 0.0000
# 2 27.7646 101.4926 32.0945 0.0000 -7.3006 0.0000
# 3 38.6363 32.0945 121.0044 0.0000 -10.1575 0.0000
# 4 0.0000 0.0000 0.0000 26.0354 0.0000 -3.9411
# 5 -10.0933 -7.3006 -10.1575 0.0000 36.7968 0.0000
# 6 0.0000 0.0000 0.0000 -3.9411 0.0000 29.4605
#
#
#
# Elastic Compliance Matrix: (Units=1/GPa)
#
#
# Indices 1 2 3 4 5 6 
#
# 1 0.014987 -0.002699 -0.003859 0.000000 0.002510 0.000000
# 2 -0.002699 0.011310 -0.002059 0.000000 0.000935 0.000000
# 3 -0.003859 -0.002059 0.010155 0.000000 0.001336 0.000000
# 4 0.000000 0.000000 0.000000 0.039203 0.000000 0.005244
# 5 0.002510 0.000935 0.001336 0.000000 0.028419 0.000000
# 6 0.000000 0.000000 0.000000 0.005244 0.000000 0.034645
#
#
# Mechanical properties :
#
#
# Convention : Reuss Voigt Hill
#
# Bulk Modulus (GPa) = 52.03749 55.87240 53.95494
# Shear Modulus (GPa) = 30.79597 32.28289 31.53943
#
# Velocity S-wave (km/s) = 3.92433 4.01795 3.97142
# Velocity P-wave (km/s) = 6.82324 7.03319 6.92901
#
# Compressibility (1/GPa) = 0.01921692
#
# Stress axis : x y z
#
# Youngs Moduli (GPa) = 66.72506 88.41872 98.47744
#
# Poissons Ratio (x) = 0.23865 0.37999
# Poissons Ratio (y) = 0.18010 0.20281
# Poissons Ratio (z) = 0.25747 0.18209
#
# Static dielectric constant tensor:
#      x y z
#    x 3.089100 0.000000 0.233520 
#    y 0.000000 3.689870 0.000000 
#    z 0.233520 0.000000 3.400870 
# 
# 
# High freq. dielectric constant tensor:
#      x y z
#    x 1.782070 0.000000 0.003490 
#    y 0.000000 1.766670 0.000000 
#    z 0.003490 0.000000 1.789070 
# 
# From -- ./inp_files/206234.got.cif
#   From: 2010.06.25/outbox.cif.g09.slc.cpg/sg12_104_cif.got.tgz:206234.got - 2010.06.28 00:19:55.
