data_PCOD8100423
_publ_section_title
;
Structure prediction by ZEFSAII (Michael W. Deem and Ramdas Pophale) SiO2 
 PCOD8100423
Probable space group: C 2/M
;
_chemical_formula_sum "Si O2"
_cell_formula_units_Z 40
_cell_length_a 6.465905
_cell_length_b 22.722057
_cell_length_c 15.837671
_cell_angle_alpha 90.000000
_cell_angle_beta 59.086102
_cell_angle_gamma 90.000000
_cell_volume 1996.297930
_symmetry_space_group_name_H-M "C 2/M"
_symmetry_group_IT_number 12
_symmetry_cell_setting 'monoclinic'
loop_
_space_group_symop_operation_xyz
x,y,z
-x,y,-z
-x,-y,-z
x,-y,z
1/2+x,1/2+y,z
1/2-x,1/2+y,-z
1/2-x,1/2-y,-z
1/2+x,1/2-y,z
loop_
_atom_site_type_symbol
_atom_site_label
_atom_site_fract_x
_atom_site_fract_y
_atom_site_fract_z
Si Si1 0.869119 0.289491 0.782857
Si Si2 0.063644 0.131208 0.729919
Si Si3 0.833792 0.832103 0.607828
Si Si4 0.890301 0.330872 0.114874
Si Si5 0.515123 0.932997 0.595245
O O1 0.680130 0.315649 0.757884
O O2 0.765436 0.228119 0.837326
O O3 0.132221 0.285213 0.681243
O O4 0.898772 0.332137 0.859103
O O5 0.013593 0.152492 0.645655
O O6 0.804116 0.116271 0.828759
O O7 0.247422 0.076532 0.690789
O O8 0.708978 0.891831 0.600223
O O9 0.000000 0.803385 0.500000
O O10 0.000000 0.335079 0.000000
O O11 0.500000 0.917581 0.500000
O O12 0.594371 0.000000 0.594497
#
# Coordination Sequence:
#
# PCOD8100423 Si02
#       5
#     8   8   8   8   8
#     4  10  21  33  54  81 110 148 185 221 271 321
#     4  10  21  36  53  82 116 143 184 231 271 324
#     4  10  20  36  53  76 116 149 181 222 266 327
#     4  11  21  36  58  81 110 146 188 231 273 323
#     4  10  20  35  59  84 107 143 185 228 279 327
#
# _framework density 20.037091
#
# number of rings (size 3 to 8) (size 9 to 14) (size 15 to 20)
#    0.000    1.800    4.000    0.600    0.000    1.200 
#    0.000    5.000    0.000    0.600    0.000   12.600 
#    0.000    0.000    0.000    0.000    0.000    0.000 
#
# Total GULP energy -247795.368333 kJ/mol
# GULP energy per Si atom -12389.768417 kJ/mol
# Density = 1.999149 g / cm^3
# Si number density = 20.037091 Si / 1000 Ang^3
#
#
#
# Elastic Constant Matrix: (Units=GPa)
#
#
# Indices 1 2 3 4 5 6 
#
# 1 112.4678 10.3677 41.0163 0.0000 17.6196 0.0000
# 2 10.3677 34.8861 21.4116 0.0000 -1.2480 0.0000
# 3 41.0163 21.4116 167.8849 0.0000 8.1198 0.0000
# 4 0.0000 0.0000 0.0000 15.0727 0.0000 -2.4463
# 5 17.6196 -1.2480 8.1198 0.0000 29.1817 0.0000
# 6 0.0000 0.0000 0.0000 -2.4463 0.0000 22.0210
#
#
#
# Elastic Compliance Matrix: (Units=1/GPa)
#
#
# Indices 1 2 3 4 5 6 
#
# 1 0.010789 -0.002152 -0.002070 0.000000 -0.006031 0.000000
# 2 -0.002152 0.031704 -0.003696 0.000000 0.003683 0.000000
# 3 -0.002070 -0.003696 0.006975 0.000000 -0.000849 0.000000
# 4 0.000000 0.000000 0.000000 0.067563 0.000000 0.007506
# 5 -0.006031 0.003683 -0.000849 0.000000 0.038303 0.000000
# 6 0.000000 0.000000 0.000000 0.007506 0.000000 0.046245
#
#
# Mechanical properties :
#
#
# Convention : Reuss Voigt Hill
#
# Bulk Modulus (GPa) = 29.73256 51.20332 40.46794
# Shear Modulus (GPa) = 21.86980 29.41797 25.64389
#
# Velocity S-wave (km/s) = 3.30732 3.83584 3.58134
# Velocity P-wave (km/s) = 5.42729 6.72517 6.11078
#
# Compressibility (1/GPa) = 0.03363316
#
# Stress axis : x y z
#
# Youngs Moduli (GPa) = 92.68308 31.54141 143.37760
#
# Poissons Ratio (x) = 0.06787 0.29678
# Poissons Ratio (y) = 0.19944 0.52991
# Poissons Ratio (z) = 0.19184 0.11657
#
# Static dielectric constant tensor:
#      x y z
#    x 4.204030 0.000000 -0.027740 
#    y 0.000000 3.228600 0.000000 
#    z -0.027740 0.000000 3.864390 
# 
# 
# High freq. dielectric constant tensor:
#      x y z
#    x 1.816880 0.000000 0.002250 
#    y 0.000000 1.721650 0.000000 
#    z 0.002250 0.000000 1.782610 
# 
# From -- ./inp_files/115924.got.cif
#   From: 2010.06.25/outbox.cif.g09.slc.cpg/sg12_58_cif.got.tgz:115924.got - 2010.06.28 00:19:55.
