data_PCOD8100130
_publ_section_title
;
Structure prediction by ZEFSAII (Michael W. Deem and Ramdas Pophale) SiO2 
 PCOD8100130
Probable space group: C 2/M
;
_chemical_formula_sum "Si O2"
_cell_formula_units_Z 52
_cell_length_a 12.625297
_cell_length_b 18.653850
_cell_length_c 22.569417
_cell_angle_alpha 90.000000
_cell_angle_beta 149.520760
_cell_angle_gamma 90.000000
_cell_volume 2696.075483
_symmetry_space_group_name_H-M "C 2/M"
_symmetry_group_IT_number 12
_symmetry_cell_setting 'monoclinic'
loop_
_space_group_symop_operation_xyz
x,y,z
-x,y,-z
-x,-y,-z
x,-y,z
1/2+x,1/2+y,z
1/2-x,1/2+y,-z
1/2-x,1/2-y,-z
1/2+x,1/2-y,z
loop_
_atom_site_type_symbol
_atom_site_label
_atom_site_fract_x
_atom_site_fract_y
_atom_site_fract_z
Si Si1 0.578011 0.418672 0.379720
Si Si2 0.027776 0.419847 0.645409
Si Si3 0.569330 0.418929 0.235385
Si Si4 0.554098 0.731370 0.866179
Si Si5 0.545501 0.189220 0.299161
Si Si6 0.111895 0.779974 0.678379
Si Si7 0.000000 0.792762 0.500000
O O1 0.522391 0.500000 0.371293
O O2 0.807255 0.396314 0.511998
O O3 0.570902 0.410020 0.306057
O O4 0.408643 0.366809 0.330167
O O5 0.024301 0.500000 0.666726
O O6 0.082304 0.374766 0.731089
O O7 0.197280 0.408064 0.676091
O O8 0.487369 0.500000 0.178831
O O9 0.431748 0.353810 0.142134
O O10 0.563049 0.782293 0.812586
O O11 0.346677 0.752282 0.803294
O O12 0.750000 0.750000 0.000000
O O13 0.545058 0.253925 0.346367
O O14 0.784524 0.162379 0.403705
O O15 0.039729 0.747421 0.579486
#
# Coordination Sequence:
#
# PCOD8100130 Si02
#       7
#     8   8   8   8   8   8   4
#     4  10  20  35  57  90 126 158 189 233 297 366
#     4  10  20  35  57  90 126 158 189 233 297 366
#     4  10  20  38  61  89 120 152 195 247 297 345
#     4  11  25  42  60  87 114 154 209 259 293 332
#     4  11  21  37  58  85 119 155 194 242 293 358
#     4  11  21  37  58  85 119 155 194 242 293 358
#     4  10  22  32  53  88 119 148 188 232 294 358
#
# _framework density 19.287293999999999
#
# number of rings (size 3 to 8) (size 9 to 14) (size 15 to 20)
#    0.000    1.538    4.615    0.923    0.000    2.462 
#    0.000    5.385    0.000    3.692    0.000    0.000 
#    0.000    0.000    0.000    0.000    0.000    0.000 
#
# Total GULP energy -322116.187174 kJ/mol
# GULP energy per Si atom -12389.084122 kJ/mol
# Density = 1.924340 g / cm^3
# Si number density = 19.287294 Si / 1000 Ang^3
#
#
#
# Elastic Constant Matrix: (Units=GPa)
#
#
# Indices 1 2 3 4 5 6 
#
# 1 90.3500 33.4979 43.1117 -0.0027 -8.1820 -0.0007
# 2 33.4979 137.9123 56.6460 -0.0019 -3.2077 -0.0004
# 3 43.1117 56.6460 108.8408 -0.0173 -9.4323 -0.0036
# 4 -0.0027 -0.0019 -0.0173 23.2317 -0.0029 -0.3637
# 5 -8.1820 -3.2077 -9.4323 -0.0029 17.1438 -0.0005
# 6 -0.0007 -0.0004 -0.0036 -0.3637 -0.0005 34.1506
#
#
#
# Elastic Compliance Matrix: (Units=1/GPa)
#
#
# Indices 1 2 3 4 5 6 
#
# 1 0.014117 -0.001503 -0.004463 -0.000001 0.004001 0.000000
# 2 -0.001503 0.009398 -0.004416 -0.000003 -0.001389 0.000000
# 3 -0.004463 -0.004416 0.013648 0.000010 0.004553 0.000001
# 4 -0.000001 -0.000003 0.000010 0.043052 0.000012 0.000458
# 5 0.004001 -0.001389 0.004553 0.000012 0.062485 0.000002
# 6 0.000000 0.000000 0.000001 0.000458 0.000002 0.029287
#
#
# Mechanical properties :
#
#
# Convention : Reuss Voigt Hill
#
# Bulk Modulus (GPa) = 60.97729 67.06825 64.02277
# Shear Modulus (GPa) = 25.22496 28.49506 26.86001
#
# Velocity S-wave (km/s) = 3.62035 3.84787 3.73584
# Velocity P-wave (km/s) = 7.01141 7.38852 7.20243
#
# Compressibility (1/GPa) = 0.01639955
#
# Stress axis : x y z
#
# Youngs Moduli (GPa) = 70.83616 106.41098 73.26892
#
# Poissons Ratio (x) = 0.15991 0.32699
# Poissons Ratio (y) = 0.10645 0.32356
# Poissons Ratio (z) = 0.31614 0.46991
#
# Static dielectric constant tensor:
#      x y z
#    x 3.752140 0.000000 -0.044010 
#    y 0.000000 3.800740 0.000000 
#    z -0.044010 0.000000 3.107270 
# 
# 
# High freq. dielectric constant tensor:
#      x y z
#    x 1.765930 0.000000 -0.005490 
#    y 0.000000 1.754000 0.000000 
#    z -0.005490 0.000000 1.704920 
# 
# From -- ./inp_files/306932.got.cif
#   From: 2010.06.25/outbox.cif.g09.slc.cpg/sg12_154_cif.got.tgz:306932.got - 2010.06.28 00:19:55.
