data_PCOD8100243
_publ_section_title
;
Structure prediction by ZEFSAII (Michael W. Deem and Ramdas Pophale) SiO2 
 PCOD8100243
Probable space group: C 2/M
;
_chemical_formula_sum "Si O2"
_cell_formula_units_Z 64
_cell_length_a 24.004840
_cell_length_b 11.207923
_cell_length_c 12.436118
_cell_angle_alpha 90.000000
_cell_angle_beta 104.478142
_cell_angle_gamma 90.000000
_cell_volume 3239.613454
_symmetry_space_group_name_H-M "C 2/M"
_symmetry_group_IT_number 12
_symmetry_cell_setting 'monoclinic'
loop_
_space_group_symop_operation_xyz
x,y,z
-x,y,-z
-x,-y,-z
x,-y,z
1/2+x,1/2+y,z
1/2-x,1/2+y,-z
1/2-x,1/2-y,-z
1/2+x,1/2-y,z
loop_
_atom_site_type_symbol
_atom_site_label
_atom_site_fract_x
_atom_site_fract_y
_atom_site_fract_z
Si Si1 0.684636 0.205043 0.359198
Si Si2 0.734031 0.364396 0.200567
Si Si3 0.525716 0.137234 0.622966
Si Si4 0.560728 0.633039 0.084154
Si Si5 0.310273 0.370656 0.443730
Si Si6 0.836590 0.135301 0.029062
Si Si7 0.648200 0.245836 0.736861
Si Si8 0.434231 0.867056 0.765096
O O1 0.694417 0.295937 0.266242
O O2 0.669074 0.273358 0.461528
O O3 0.741142 0.125793 0.401240
O O4 0.630424 0.121169 0.310789
O O5 0.714881 0.500000 0.204011
O O6 0.801871 0.352738 0.257735
O O7 0.717188 0.321341 0.071474
O O8 0.500000 0.192552 0.500000
O O9 0.584506 0.199017 0.687331
O O10 0.478850 0.156489 0.691805
O O11 0.540825 0.000000 0.610729
O O12 0.569687 0.500000 0.144078
O O13 0.562813 0.749805 0.160112
O O14 0.500000 0.633578 0.000000
O O15 0.606490 0.650558 0.012957
O O16 0.330344 0.500000 0.493829
O O17 0.339441 0.350348 0.341976
O O18 0.843697 0.214039 0.137474
O O19 0.826938 0.000000 0.062567
O O20 0.447224 0.000000 0.823959
#
# Coordination Sequence:
#
# PCOD8100243 Si02
#       8
#     8   8   8   8   8   8   8   8
#     4  10  20  36  58  84 117 153 195 243 302 364
#     4  10  20  35  58  85 115 156 202 245 296 362
#     4  10  22  40  60  83 116 157 198 243 298 359
#     4  10  21  38  60  85 116 160 203 238 290 357
#     4  10  21  35  56  86 118 153 195 248 303 353
#     4  10  20  36  57  82 118 158 196 240 296 359
#     4  11  21  36  58  84 119 153 199 246 299 359
#     4  11  22  38  62  88 117 151 196 251 299 344
#
# _framework density 19.755444000000001
#
# number of rings (size 3 to 8) (size 9 to 14) (size 15 to 20)
#    0.000    1.750    1.250    3.375    0.000    0.750 
#    0.000    5.625    0.000    2.625    0.000    0.000 
#    0.000    0.000    0.000    0.000    0.000    0.000 
#
# Total GULP energy -396557.688350 kJ/mol
# GULP energy per Si atom -12392.427761 kJ/mol
# Density = 1.971048 g / cm^3
# Si number density = 19.755444 Si / 1000 Ang^3
#
#
#
# Elastic Constant Matrix: (Units=GPa)
#
#
# Indices 1 2 3 4 5 6 
#
# 1 107.6433 26.9174 28.9232 0.0000 6.1293 0.0000
# 2 26.9174 101.4306 44.5838 0.0000 -6.2628 0.0000
# 3 28.9232 44.5838 99.1037 0.0000 -3.1590 0.0000
# 4 0.0000 0.0000 0.0000 -301.7998 0.0000 156.9079
# 5 6.1293 -6.2628 -3.1590 0.0000 28.7815 0.0000
# 6 0.0000 0.0000 0.0000 156.9079 0.0000 -58.2188
#
#
#
# Elastic Compliance Matrix: (Units=1/GPa)
#
#
# Indices 1 2 3 4 5 6 
#
# 1 0.010566 -0.001980 -0.002286 0.000000 -0.002932 0.000000
# 2 -0.001980 0.012785 -0.005089 0.000000 0.002645 0.000000
# 3 -0.002286 -0.005089 0.013073 0.000000 0.000814 0.000000
# 4 0.000000 0.000000 0.000000 0.008258 0.000000 0.022257
# 5 -0.002932 0.002645 0.000814 0.000000 0.036034 0.000000
# 6 0.000000 0.000000 0.000000 0.022257 0.000000 0.042810
#
#
# Mechanical properties :
#
#
# Convention : Reuss Voigt Hill
#
# Bulk Modulus (GPa) = 56.45673 56.55850 56.50761
# Shear Modulus (GPa) = 33.75117 -52.39722 -9.32302
#
# Velocity S-wave (km/s) = 4.13782 -5.15563 -2.17473
# Velocity P-wave (km/s) = 7.17416 2.59792 4.72861
#
# Compressibility (1/GPa) = 0.01771268
#
# Stress axis : x y z
#
# Youngs Moduli (GPa) = 94.63957 78.21831 76.49237
#
# Poissons Ratio (x) = 0.15488 0.17490
# Poissons Ratio (y) = 0.18740 0.38929
# Poissons Ratio (z) = 0.21639 0.39807
#
# Static dielectric constant tensor:
#      x y z
#    x 3.696340 0.000000 0.097400 
#    y 0.000000 3.597830 0.000000 
#    z 0.097400 0.000000 3.635870 
# 
# 
# High freq. dielectric constant tensor:
#      x y z
#    x 1.782250 0.000000 0.002330 
#    y 0.000000 1.766020 0.000000 
#    z 0.002330 0.000000 1.768580 
# 
# From -- ./inp_files/174733.got.cif
#   From: 2010.06.25/outbox.cif.g09.slc.cpg/sg12_88_cif.got.tgz:174733.got - 2010.06.28 00:19:55.
