data_PCOD8100164
_publ_section_title
;
Structure prediction by ZEFSAII (Michael W. Deem and Ramdas Pophale) SiO2 
 PCOD8100164
Probable space group: C 2/M
;
_chemical_formula_sum "Si O2"
_cell_formula_units_Z 48
_cell_length_a 29.838427
_cell_length_b 9.091793
_cell_length_c 9.425501
_cell_angle_alpha 90.000000
_cell_angle_beta 89.769507
_cell_angle_gamma 90.000000
_cell_volume 2556.974480
_symmetry_space_group_name_H-M "C 2/M"
_symmetry_group_IT_number 12
_symmetry_cell_setting 'monoclinic'
loop_
_space_group_symop_operation_xyz
x,y,z
-x,y,-z
-x,-y,-z
x,-y,z
1/2+x,1/2+y,z
1/2-x,1/2+y,-z
1/2-x,1/2-y,-z
1/2+x,1/2-y,z
loop_
_atom_site_type_symbol
_atom_site_label
_atom_site_fract_x
_atom_site_fract_y
_atom_site_fract_z
Si Si1 0.496996 0.669216 0.337191
Si Si2 0.753683 0.826684 0.349939
Si Si3 0.428255 0.170084 0.144560
Si Si4 0.919175 0.829554 0.856660
Si Si5 0.671548 0.828591 0.154143
Si Si6 0.825054 0.332341 0.168654
O O1 0.500000 0.716319 0.500000
O O2 0.482198 0.500000 0.320350
O O3 0.459792 0.770562 0.266963
O O4 0.545265 0.696913 0.267646
O O5 0.750000 0.750000 0.500000
O O6 0.711035 0.778742 0.257381
O O7 0.798709 0.776321 0.271632
O O8 0.755564 0.000000 0.371699
O O9 0.377431 0.193483 0.195875
O O10 0.438463 0.000000 0.115885
O O11 0.437876 0.254789 0.998585
O O12 0.872711 0.760654 0.803594
O O13 0.911546 0.000000 0.889716
O O14 0.659777 0.000000 0.168522
O O15 0.686656 0.792613 0.993680
O O16 0.811280 0.500000 0.203044
#
# Coordination Sequence:
#
# PCOD8100164 Si02
#       6
#     8   8   8   8   8   8
#     4  10  22  38  54  78 113 147 182 226 272 321
#     4  11  23  37  55  81 113 148 182 220 269 323
#     4  10  21  37  58  83 110 142 181 225 272 323
#     4  10  20  35  58  84 108 140 182 226 272 322
#     4   9  20  38  58  81 109 140 179 228 274 319
#     4   9  19  37  58  81 108 138 179 228 272 319
#
# _framework density 18.772186000000001
#
# number of rings (size 3 to 8) (size 9 to 14) (size 15 to 20)
#    0.000    2.167    0.000    3.500    0.000    9.667 
#    0.000    3.333    0.000    0.000    0.000    0.000 
#    0.000    0.000    0.000    0.000    0.000    0.000 
#
# Total GULP energy -297717.774674 kJ/mol
# GULP energy per Si atom -12404.907278 kJ/mol
# Density = 1.872946 g / cm^3
# Si number density = 18.772186 Si / 1000 Ang^3
#
#
#
# Elastic Constant Matrix: (Units=GPa)
#
#
# Indices 1 2 3 4 5 6 
#
# 1 94.4919 59.9720 67.8202 0.0000 -10.0897 0.0000
# 2 59.9720 95.0146 58.5722 0.0000 -9.3889 0.0000
# 3 67.8202 58.5722 119.5185 0.0000 -17.2144 0.0000
# 4 0.0000 0.0000 0.0000 31.2243 0.0000 2.6009
# 5 -10.0897 -9.3889 -17.2144 0.0000 13.1728 0.0000
# 6 0.0000 0.0000 0.0000 2.6009 0.0000 36.3048
#
#
#
# Elastic Compliance Matrix: (Units=1/GPa)
#
#
# Indices 1 2 3 4 5 6 
#
# 1 0.022110 -0.008916 -0.008195 0.000000 -0.000130 0.000000
# 2 -0.008916 0.018696 -0.003901 0.000000 0.001398 0.000000
# 3 -0.008195 -0.003901 0.016784 0.000000 0.012875 0.000000
# 4 0.000000 0.000000 0.000000 0.032219 0.000000 -0.002308
# 5 -0.000130 0.001398 0.012875 0.000000 0.093637 0.000000
# 6 0.000000 0.000000 0.000000 -0.002308 0.000000 0.027710
#
#
# Mechanical properties :
#
#
# Convention : Reuss Voigt Hill
#
# Bulk Modulus (GPa) = 64.25316 75.75043 70.00179
# Shear Modulus (GPa) = 19.35217 24.31773 21.83495
#
# Velocity S-wave (km/s) = 3.21424 3.60309 3.41421
# Velocity P-wave (km/s) = 6.93378 7.59933 7.27417
#
# Compressibility (1/GPa) = 0.01556344
#
# Stress axis : x y z
#
# Youngs Moduli (GPa) = 45.22783 53.48813 59.58169
#
# Poissons Ratio (x) = 0.47693 0.48829
# Poissons Ratio (y) = 0.40327 0.23245
# Poissons Ratio (z) = 0.37066 0.20867
#
# Static dielectric constant tensor:
#      x y z
#    x 3.451950 0.000000 0.074220 
#    y 0.000000 3.495460 0.000000 
#    z 0.074220 0.000000 3.460810 
# 
# 
# High freq. dielectric constant tensor:
#      x y z
#    x 1.736260 0.000000 0.000960 
#    y 0.000000 1.736030 0.000000 
#    z 0.000960 0.000000 1.727290 
# 
# From -- ./inp_files/108642.got.cif
#   From: 2010.06.25/outbox.cif.g09.slc.cpg/sg12_55_cif.got.tgz:108642.got - 2010.06.28 00:19:55.
