data_PCOD8100978
_publ_section_title
;
Structure prediction by ZEFSAII (Michael W. Deem and Ramdas Pophale) SiO2 
 PCOD8100978
Probable space group: C 2/M
;
_chemical_formula_sum "Si O2"
_cell_formula_units_Z 64
_cell_length_a 31.256319
_cell_length_b 18.168650
_cell_length_c 10.074572
_cell_angle_alpha 90.000000
_cell_angle_beta 142.623741
_cell_angle_gamma 90.000000
_cell_volume 3473.034809
_symmetry_space_group_name_H-M "C 2/M"
_symmetry_group_IT_number 12
_symmetry_cell_setting 'monoclinic'
loop_
_space_group_symop_operation_xyz
x,y,z
-x,y,-z
-x,-y,-z
x,-y,z
1/2+x,1/2+y,z
1/2-x,1/2+y,-z
1/2-x,1/2-y,-z
1/2+x,1/2-y,z
loop_
_atom_site_type_symbol
_atom_site_label
_atom_site_fract_x
_atom_site_fract_y
_atom_site_fract_z
Si Si1 0.158196 0.915723 0.375216
Si Si2 0.915507 0.151714 0.045967
Si Si3 0.142149 0.916282 0.839348
Si Si4 0.299745 0.915112 0.863280
Si Si5 0.728665 0.835215 0.937707
Si Si6 0.574130 0.361112 0.414603
Si Si7 0.574880 0.189005 0.844611
Si Si8 0.579829 0.201865 0.549285
O O1 0.143780 0.881202 0.196004
O O2 0.241986 0.909399 0.604940
O O3 0.114536 0.871743 0.377264
O O4 0.133418 0.000000 0.317888
O O5 0.906671 0.122966 0.173359
O O6 0.909465 0.240373 0.025202
O O7 0.991898 0.123783 0.186587
O O8 0.104938 0.914375 0.603924
O O9 0.154570 0.000000 0.911536
O O10 0.217791 0.876134 0.027347
O O11 0.315836 0.000000 0.939742
O O12 0.266917 0.873247 0.907887
O O13 0.372042 0.877338 0.990768
O O14 0.649339 0.845296 0.682740
O O15 0.750000 0.750000 0.000000
O O16 0.585995 0.278361 0.490158
O O17 0.583777 0.216531 0.716124
O O18 0.493896 0.161500 0.669331
#
# Coordination Sequence:
#
# PCOD8100978 Si02
#       8
#     8   8   8   8   8   8   8   8
#     4  11  23  37  52  77 113 150 183 223 272 327
#     4  11  23  36  53  78 112 146 184 224 270 321
#     4  12  22  33  52  81 107 141 186 224 266 327
#     4  10  20  36  56  79 110 147 184 225 280 333
#     4  11  18  33  56  79 105 143 180 223 271 322
#     4  11  20  36  56  77 106 147 184 221 272 327
#     4   9  18  35  57  82 108 138 181 231 271 325
#     4   9  17  33  57  82 105 136 181 224 276 317
#
# _framework density 18.427686999999999
#
# number of rings (size 3 to 8) (size 9 to 14) (size 15 to 20)
#    0.000    1.500    3.750    2.625    0.000    3.500 
#    0.000    5.625    0.000    0.000    0.000    0.000 
#    0.000   11.000    0.000    0.000    0.000    0.000 
#
# Total GULP energy -396791.953081 kJ/mol
# GULP energy per Si atom -12399.748534 kJ/mol
# Density = 1.838574 g / cm^3
# Si number density = 18.427687 Si / 1000 Ang^3
#
#
#
# Elastic Constant Matrix: (Units=GPa)
#
#
# Indices 1 2 3 4 5 6 
#
# 1 54.2443 25.5928 30.4868 0.0000 19.0303 0.0000
# 2 25.5928 92.7813 42.7828 0.0000 19.9390 0.0000
# 3 30.4868 42.7828 95.5705 0.0000 17.0136 0.0000
# 4 0.0000 0.0000 0.0000 24.1254 0.0000 1.2439
# 5 19.0303 19.9390 17.0136 0.0000 31.5073 0.0000
# 6 0.0000 0.0000 0.0000 1.2439 0.0000 18.3224
#
#
#
# Elastic Compliance Matrix: (Units=1/GPa)
#
#
# Indices 1 2 3 4 5 6 
#
# 1 0.026678 -0.002367 -0.005365 0.000000 -0.011719 0.000000
# 2 -0.002367 0.014852 -0.004951 0.000000 -0.005296 0.000000
# 3 -0.005365 -0.004951 0.014666 0.000000 -0.001546 0.000000
# 4 0.000000 0.000000 0.000000 0.041596 0.000000 -0.002824
# 5 -0.011719 -0.005296 -0.001546 0.000000 0.043003 0.000000
# 6 0.000000 0.000000 0.000000 -0.002824 0.000000 0.054770
#
#
# Mechanical properties :
#
#
# Convention : Reuss Voigt Hill
#
# Bulk Modulus (GPa) = 32.43375 48.92455 40.67915
# Shear Modulus (GPa) = 21.62569 24.37326 22.99947
#
# Velocity S-wave (km/s) = 3.42942 3.64076 3.53667
# Velocity P-wave (km/s) = 5.77235 6.65437 6.22899
#
# Compressibility (1/GPa) = 0.03083208
#
# Stress axis : x y z
#
# Youngs Moduli (GPa) = 37.48400 67.33161 68.18351
#
# Poissons Ratio (x) = 0.15936 0.36577
# Poissons Ratio (y) = 0.08872 0.33756
# Poissons Ratio (z) = 0.20108 0.33334
#
# Static dielectric constant tensor:
#      x y z
#    x 3.408960 0.000000 0.381140 
#    y 0.000000 3.289840 0.000000 
#    z 0.381140 0.000000 3.530880 
# 
# 
# High freq. dielectric constant tensor:
#      x y z
#    x 1.706220 0.000000 0.024750 
#    y 0.000000 1.704560 0.000000 
#    z 0.024750 0.000000 1.710430 
# 
# From -- ./inp_files/112894.got.cif
#   From: 2010.06.25/outbox.cif.g09.slc.cpg/sg12_57_cif.got.tgz:112894.got - 2010.06.28 00:19:55.
