data_PCOD8100061
_publ_section_title
;
Structure prediction by ZEFSAII (Michael W. Deem and Ramdas Pophale) SiO2 
 PCOD8100061
Probable space group: C 2/M
;
_chemical_formula_sum "Si O2"
_cell_formula_units_Z 64
_cell_length_a 15.448260
_cell_length_b 8.778837
_cell_length_c 33.000596
_cell_angle_alpha 90.000000
_cell_angle_beta 46.385290
_cell_angle_gamma 90.000000
_cell_volume 3240.214623
_symmetry_space_group_name_H-M "C 2/M"
_symmetry_group_IT_number 12
_symmetry_cell_setting 'monoclinic'
loop_
_space_group_symop_operation_xyz
x,y,z
-x,y,-z
-x,-y,-z
x,-y,z
1/2+x,1/2+y,z
1/2-x,1/2+y,-z
1/2-x,1/2-y,-z
1/2+x,1/2-y,z
loop_
_atom_site_type_symbol
_atom_site_label
_atom_site_fract_x
_atom_site_fract_y
_atom_site_fract_z
Si Si1 0.052137 0.174127 0.739529
Si Si2 0.083375 0.320570 0.935479
Si Si3 0.346709 0.323831 0.863955
Si Si4 0.865023 0.176827 0.375131
Si Si5 0.281602 0.821637 0.251428
Si Si6 0.602575 0.181183 0.437532
Si Si7 0.038159 0.819023 0.865826
Si Si8 0.559113 0.820561 0.360847
O O1 0.057249 0.205423 0.690388
O O2 0.143794 0.285059 0.732296
O O3 0.917867 0.203706 0.798905
O O4 0.091611 0.000000 0.736673
O O5 0.089367 0.500000 0.924949
O O6 0.215191 0.250071 0.902210
O O7 0.025248 0.240170 0.915468
O O8 0.000000 0.280205 0.000000
O O9 0.326860 0.500000 0.879312
O O10 0.424474 0.256806 0.876347
O O11 0.730712 0.238161 0.412194
O O12 0.924629 0.274407 0.391684
O O13 0.864686 0.000000 0.387414
O O14 0.339935 0.743339 0.193288
O O15 0.148056 0.760124 0.300610
O O16 0.276744 0.000000 0.244951
O O17 0.500000 0.247692 0.500000
O O18 0.581734 0.241672 0.398838
O O19 0.599005 0.000000 0.438289
O O20 0.042433 0.000000 0.863431
O O21 0.577174 0.000000 0.352669
#
# Coordination Sequence:
#
# PCOD8100061 Si02
#       8
#     8   8   8   8   8   8   8   8
#     4   9  17  34  57  81 113 152 188 229 288 348
#     4  10  21  37  57  83 114 152 197 240 283 341
#     4   8  17  34  55  78 111 150 184 224 286 343
#     4  10  20  35  57  86 116 153 194 234 289 347
#     4  11  21  35  58  86 117 150 188 235 293 349
#     4   9  19  38  61  81 112 158 199 237 288 346
#     4  10  21  38  58  82 112 150 191 235 291 346
#     4  11  22  37  57  86 118 151 193 238 287 343
#
# _framework density 19.751778000000002
#
# number of rings (size 3 to 8) (size 9 to 14) (size 15 to 20)
#    0.000    2.250    1.250    2.625    1.750    1.750 
#    0.000    3.125    0.000    2.625    0.000    0.000 
#    0.000    0.000    0.000    0.000    0.000    0.000 
#
# Total GULP energy -396809.779083 kJ/mol
# GULP energy per Si atom -12400.305596 kJ/mol
# Density = 1.970682 g / cm^3
# Si number density = 19.751778 Si / 1000 Ang^3
#
#
#
# Elastic Constant Matrix: (Units=GPa)
#
#
# Indices 1 2 3 4 5 6 
#
# 1 115.2316 22.3228 53.0379 -0.0006 -15.5286 0.0010
# 2 22.3228 56.3323 27.5833 0.0002 0.9133 0.0016
# 3 53.0379 27.5833 111.9065 -0.0015 -14.0224 -0.0012
# 4 -0.0006 0.0002 -0.0015 15.6374 -0.0006 0.2423
# 5 -15.5286 0.9133 -14.0224 -0.0006 28.5354 0.0003
# 6 0.0010 0.0016 -0.0012 0.2423 0.0003 28.4166
#
#
#
# Elastic Compliance Matrix: (Units=1/GPa)
#
#
# Indices 1 2 3 4 5 6 
#
# 1 0.011792 -0.002584 -0.004409 0.000000 0.004333 0.000000
# 2 -0.002584 0.021050 -0.004501 -0.000001 -0.004292 -0.000001
# 3 -0.004409 -0.004501 0.012630 0.000001 0.003951 0.000001
# 4 0.000000 -0.000001 0.000001 0.063958 0.000002 -0.000545
# 5 0.004333 -0.004292 0.003951 0.000002 0.039481 0.000000
# 6 0.000000 -0.000001 0.000001 -0.000545 0.000000 0.035195
#
#
# Mechanical properties :
#
#
# Convention : Reuss Voigt Hill
#
# Bulk Modulus (GPa) = 44.47843 54.37315 49.42579
# Shear Modulus (GPa) = 23.30027 26.55298 24.92662
#
# Velocity S-wave (km/s) = 3.43834 3.67049 3.55631
# Velocity P-wave (km/s) = 6.19116 6.74917 6.47618
#
# Compressibility (1/GPa) = 0.02248281
#
# Stress axis : x y z
#
# Youngs Moduli (GPa) = 84.80303 47.50686 79.17500
#
# Poissons Ratio (x) = 0.12277 0.34907
# Poissons Ratio (y) = 0.21915 0.35640
# Poissons Ratio (z) = 0.37388 0.21385
#
# Static dielectric constant tensor:
#      x y z
#    x 3.718920 0.000000 -0.105940 
#    y 0.000000 3.254360 0.000000 
#    z -0.105940 0.000000 3.689110 
# 
# 
# High freq. dielectric constant tensor:
#      x y z
#    x 1.775990 0.000000 -0.002950 
#    y 0.000000 1.737690 0.000000 
#    z -0.002950 0.000000 1.768950 
# 
# From -- ./inp_files/375418.got.cif
#   From: 2010.06.25/outbox.cif.g09.slc.cpg/sg12_188_cif.got.tgz:375418.got - 2010.06.28 00:19:55.
