data_PCOD8100334
_publ_section_title
;
Structure prediction by ZEFSAII (Michael W. Deem and Ramdas Pophale) SiO2 
 PCOD8100334
Probable space group: C 2/M
;
_chemical_formula_sum "Si O2"
_cell_formula_units_Z 40
_cell_length_a 8.714018
_cell_length_b 15.620231
_cell_length_c 19.490663
_cell_angle_alpha 90.000000
_cell_angle_beta 132.115804
_cell_angle_gamma 90.000000
_cell_volume 1967.949780
_symmetry_space_group_name_H-M "C 2/M"
_symmetry_group_IT_number 12
_symmetry_cell_setting 'monoclinic'
loop_
_space_group_symop_operation_xyz
x,y,z
-x,y,-z
-x,-y,-z
x,-y,z
1/2+x,1/2+y,z
1/2-x,1/2+y,-z
1/2-x,1/2-y,-z
1/2+x,1/2-y,z
loop_
_atom_site_type_symbol
_atom_site_label
_atom_site_fract_x
_atom_site_fract_y
_atom_site_fract_z
Si Si1 0.925653 0.400437 0.903599
Si Si2 0.989886 0.837712 0.281157
Si Si3 0.161141 0.000000 0.395852
Si Si4 0.285145 0.599563 0.903599
Si Si5 0.526417 0.000000 0.395853
Si Si6 0.646414 0.162288 0.718843
O O1 0.865399 0.500000 0.888606
O O2 0.724131 0.347455 0.823359
O O3 0.103906 0.381689 0.902604
O O4 0.000000 0.368175 0.000000
O O5 0.020681 0.915845 0.343492
O O6 0.174067 0.833897 0.282711
O O7 0.984317 0.750000 0.322877
O O8 0.344088 0.000000 0.396058
O O9 0.252230 0.000000 0.500000
O O10 0.300420 0.500000 0.888607
O O11 0.245944 0.652544 0.823358
O O12 0.500000 0.631826 0.000000
O O13 0.509796 0.084155 0.343492
#
# Coordination Sequence:
#
# PCOD8100334 Si02
#       6
#     8   8   4   8   4   8
#     4  10  20  35  58  87 121 158 199 242 290 347
#     4  11  22  38  61  89 121 157 199 243 294 351
#     4   9  20  40  64  87 116 155 196 243 300 357
#     4  10  20  35  58  87 121 158 199 242 290 347
#     4   9  20  40  64  87 116 155 196 243 300 357
#     4  11  22  38  61  89 121 157 199 243 294 351
#
# _framework density 20.325721999999999
#
# number of rings (size 3 to 8) (size 9 to 14) (size 15 to 20)
#    0.000    1.800    2.000    2.400    0.000    3.200 
#    0.000    4.000    0.000    8.400    0.000    0.000 
#    0.000    0.000    0.000    0.000    0.000    0.000 
#
# Total GULP energy -248096.516515 kJ/mol
# GULP energy per Si atom -12404.825826 kJ/mol
# Density = 2.027946 g / cm^3
# Si number density = 20.325722 Si / 1000 Ang^3
#
#
#
# Elastic Constant Matrix: (Units=GPa)
#
#
# Indices 1 2 3 4 5 6 
#
# 1 75.5798 43.2669 29.8890 0.0000 -0.0005 0.0000
# 2 43.2669 158.7148 77.2336 0.0000 0.0014 0.0000
# 3 29.8890 77.2336 141.5398 0.0000 0.0030 0.0000
# 4 0.0000 0.0000 0.0000 14.8904 0.0000 -0.0009
# 5 -0.0005 0.0014 0.0030 0.0000 18.6481 0.0000
# 6 0.0000 0.0000 0.0000 -0.0009 0.0000 33.4812
#
#
#
# Elastic Compliance Matrix: (Units=1/GPa)
#
#
# Indices 1 2 3 4 5 6 
#
# 1 0.015864 -0.003669 -0.001348 0.000000 0.000001 0.000000
# 2 -0.003669 0.009427 -0.004369 0.000000 0.000000 0.000000
# 3 -0.001348 -0.004369 0.009734 0.000000 -0.000001 0.000000
# 4 0.000000 0.000000 0.000000 0.067157 0.000000 0.000002
# 5 0.000001 0.000000 -0.000001 0.000000 0.053625 0.000000
# 6 0.000000 0.000000 0.000000 0.000002 0.000000 0.029867
#
#
# Mechanical properties :
#
#
# Convention : Reuss Voigt Hill
#
# Bulk Modulus (GPa) = 61.52694 75.17927 68.35311
# Shear Modulus (GPa) = 23.82487 28.43360 26.12923
#
# Velocity S-wave (km/s) = 3.42739 3.74424 3.58931
# Velocity P-wave (km/s) = 6.78224 7.46726 7.13298
#
# Compressibility (1/GPa) = 0.01625304
#
# Stress axis : x y z
#
# Youngs Moduli (GPa) = 63.03405 106.07983 102.73289
#
# Poissons Ratio (x) = 0.38918 0.13851
# Poissons Ratio (y) = 0.23125 0.44886
# Poissons Ratio (z) = 0.08498 0.46348
#
# Static dielectric constant tensor:
#      x y z
#    x 3.486240 0.000000 0.000010 
#    y 0.000000 3.864220 0.000000 
#    z 0.000010 0.000000 3.770610 
# 
# 
# High freq. dielectric constant tensor:
#      x y z
#    x 1.782840 0.000000 0.000000 
#    y 0.000000 1.802250 0.000000 
#    z 0.000000 0.000000 1.790900 
# 
# From -- ./inp_files/246668.got.cif
#   From: 2010.06.25/outbox.cif.g09.slc.cpg/sg12_124_cif.got.tgz:246668.got - 2010.06.28 00:19:55.
