data_PCOD8100837
_publ_section_title
;
Structure prediction by ZEFSAII (Michael W. Deem and Ramdas Pophale) SiO2 
 PCOD8100837
Probable space group: C 2/M
;
_chemical_formula_sum "Si O2"
_cell_formula_units_Z 40
_cell_length_a 17.488174
_cell_length_b 10.178719
_cell_length_c 12.368290
_cell_angle_alpha 90.000000
_cell_angle_beta 62.392999
_cell_angle_gamma 90.000000
_cell_volume 1950.980836
_symmetry_space_group_name_H-M "C 2/M"
_symmetry_group_IT_number 12
_symmetry_cell_setting 'monoclinic'
loop_
_space_group_symop_operation_xyz
x,y,z
-x,y,-z
-x,-y,-z
x,-y,z
1/2+x,1/2+y,z
1/2-x,1/2+y,-z
1/2-x,1/2-y,-z
1/2+x,1/2-y,z
loop_
_atom_site_type_symbol
_atom_site_label
_atom_site_fract_x
_atom_site_fract_y
_atom_site_fract_z
Si Si1 0.039185 0.147053 0.641423
Si Si2 0.676867 0.148395 0.923634
Si Si3 0.368232 0.349668 0.872804
Si Si4 0.348015 0.144429 0.516744
Si Si5 0.822465 0.255787 0.310085
O O1 0.942540 0.186256 0.738543
O O2 0.074057 0.248487 0.526547
O O3 0.100775 0.154951 0.707569
O O4 0.042379 0.000000 0.591299
O O5 0.778636 0.171838 0.870198
O O6 0.651500 0.169937 0.815985
O O7 0.651284 0.000000 0.974212
O O8 0.623985 0.251360 0.030958
O O9 0.378437 0.500000 0.907387
O O10 0.268615 0.180833 0.647496
O O11 0.311829 0.140850 0.416331
O O12 0.382831 0.000000 0.525239
#
# Coordination Sequence:
#
# PCOD8100837 Si02
#       5
#     8   8   8   8   8
#     4   9  18  33  53  76 104 135 166 209 256 299
#     4  10  20  36  55  75 100 136 174 210 252 303
#     4   9  20  37  54  74 103 135 171 211 255 300
#     4   9  18  32  53  77 103 134 168 210 252 298
#     4   9  19  30  54  76 102 130 169 207 251 297
#
# _framework density 20.502507000000001
#
# number of rings (size 3 to 8) (size 9 to 14) (size 15 to 20)
#    1.200    1.600    0.000    1.200    0.000    4.000 
#    0.000    4.000    0.000    4.800    0.000    0.000 
#    0.000    0.000    0.000    0.000    0.000    0.000 
#
# Total GULP energy -247854.241142 kJ/mol
# GULP energy per Si atom -12392.712057 kJ/mol
# Density = 2.045584 g / cm^3
# Si number density = 20.502507 Si / 1000 Ang^3
#
#
#
# Elastic Constant Matrix: (Units=GPa)
#
#
# Indices 1 2 3 4 5 6 
#
# 1 15.7824 3.0150 4.3922 0.0000 -10.4139 0.0000
# 2 3.0150 113.4916 24.4964 0.0000 -21.1397 0.0000
# 3 4.3922 24.4964 36.1947 0.0000 -18.0301 0.0000
# 4 0.0000 0.0000 0.0000 24.0509 0.0000 -5.9078
# 5 -10.4139 -21.1397 -18.0301 0.0000 37.7568 0.0000
# 6 0.0000 0.0000 0.0000 -5.9078 0.0000 18.9830
#
#
#
# Elastic Compliance Matrix: (Units=1/GPa)
#
#
# Indices 1 2 3 4 5 6 
#
# 1 0.077937 0.002080 0.000555 0.000000 0.022926 0.000000
# 2 0.002080 0.010678 -0.005531 0.000000 0.003911 0.000000
# 3 0.000555 -0.005531 0.039151 0.000000 0.015752 0.000000
# 4 0.000000 0.000000 0.000000 0.045020 0.000000 0.014011
# 5 0.022926 0.003911 0.015752 0.000000 0.042521 0.000000
# 6 0.000000 0.000000 0.000000 0.014011 0.000000 0.057039
#
#
# Mechanical properties :
#
#
# Convention : Reuss Voigt Hill
#
# Bulk Modulus (GPa) = 8.19840 25.47510 16.83675
# Shear Modulus (GPa) = 15.68395 25.06251 20.37323
#
# Velocity S-wave (km/s) = 2.76882 3.50009 3.15571
# Velocity P-wave (km/s) = 3.77217 5.36531 4.63766
#
# Compressibility (1/GPa) = 0.12197505
#
# Stress axis : x y z
#
# Youngs Moduli (GPa) = 12.83079 93.64758 25.54193
#
# Poissons Ratio (x) = -0.19479 -0.01418
# Poissons Ratio (y) = -0.02669 0.14128
# Poissons Ratio (z) = -0.00712 0.51798
#
# Static dielectric constant tensor:
#      x y z
#    x 3.343570 0.000000 -0.196830 
#    y 0.000000 3.608200 0.000000 
#    z -0.196830 0.000000 3.443830 
# 
# 
# High freq. dielectric constant tensor:
#      x y z
#    x 1.775370 0.000000 -0.016780 
#    y 0.000000 1.798570 0.000000 
#    z -0.016780 0.000000 1.784940 
# 
# From -- ./inp_files/239196.got.cif
#   From: 2010.06.25/outbox.cif.g09.slc.cpg/sg12_120_cif.got.tgz:239196.got - 2010.06.28 00:19:55.
