data_PCOD8100449
_publ_section_title
;
Structure prediction by ZEFSAII (Michael W. Deem and Ramdas Pophale) SiO2 
 PCOD8100449
Probable space group: C 2/M
;
_chemical_formula_sum "Si O2"
_cell_formula_units_Z 56
_cell_length_a 18.971478
_cell_length_b 8.997586
_cell_length_c 19.114338
_cell_angle_alpha 90.000000
_cell_angle_beta 120.314790
_cell_angle_gamma 90.000000
_cell_volume 2816.635908
_symmetry_space_group_name_H-M "C 2/M"
_symmetry_group_IT_number 12
_symmetry_cell_setting 'monoclinic'
loop_
_space_group_symop_operation_xyz
x,y,z
-x,y,-z
-x,-y,-z
x,-y,z
1/2+x,1/2+y,z
1/2-x,1/2+y,-z
1/2-x,1/2-y,-z
1/2+x,1/2-y,z
loop_
_atom_site_type_symbol
_atom_site_label
_atom_site_fract_x
_atom_site_fract_y
_atom_site_fract_z
Si Si1 0.241123 0.330598 0.184030
Si Si2 0.196031 0.670806 0.914277
Si Si3 0.490350 0.828245 0.192398
Si Si4 0.597960 0.323878 0.351191
Si Si5 0.442208 0.169903 0.914343
Si Si6 0.248865 0.323489 0.347493
Si Si7 0.580712 0.323971 0.501697
O O1 0.272789 0.500000 0.197358
O O2 0.294673 0.231423 0.159722
O O3 0.150307 0.317853 0.107299
O O4 0.243724 0.270503 0.264435
O O5 0.221774 0.500000 0.928704
O O6 0.100938 0.695048 0.881667
O O7 0.250000 0.750000 0.000000
O O8 0.515209 0.728903 0.271155
O O9 0.547548 0.765754 0.158453
O O10 0.507353 0.000000 0.220272
O O11 0.606711 0.500000 0.351194
O O12 0.678644 0.251662 0.358375
O O13 0.586716 0.268257 0.425016
O O14 0.472192 0.000000 0.923058
O O15 0.500000 0.252446 0.000000
O O16 0.236427 0.500000 0.346880
O O17 0.337256 0.270250 0.418439
O O18 0.500000 0.257517 0.500000
O O19 0.575265 0.500000 0.501134
#
# Coordination Sequence:
#
# PCOD8100449 Si02
#       7
#     8   8   8   8   8   8   8
#     4  10  20  35  59  86 112 152 197 239 290 348
#     4  11  24  40  60  85 119 158 196 245 295 348
#     4  10  21  39  60  83 115 157 198 235 286 352
#     4  11  22  36  60  90 120 151 190 248 298 341
#     4   9  16  31  56  81 105 141 192 235 271 335
#     4  10  20  38  63  85 115 159 200 238 288 358
#     4   9  20  37  59  88 117 153 199 242 288 347
#
# _framework density 19.881874
#
# number of rings (size 3 to 8) (size 9 to 14) (size 15 to 20)
#    0.000    2.000    1.429    2.143    2.000    4.000 
#    0.000    0.714    0.000    3.857    0.000    0.000 
#    0.000    0.000    0.000    0.000    0.000    0.000 
#
# Total GULP energy -347143.082642 kJ/mol
# GULP energy per Si atom -12397.967237 kJ/mol
# Density = 1.983662 g / cm^3
# Si number density = 19.881874 Si / 1000 Ang^3
#
#
#
# Elastic Constant Matrix: (Units=GPa)
#
#
# Indices 1 2 3 4 5 6 
#
# 1 94.4269 34.6674 38.9380 0.0000 -6.8010 0.0000
# 2 34.6674 57.7545 32.3696 0.0000 -4.4719 0.0000
# 3 38.9380 32.3696 131.7958 0.0000 -0.1595 0.0000
# 4 0.0000 0.0000 0.0000 27.7003 0.0000 -1.9273
# 5 -6.8010 -4.4719 -0.1595 0.0000 38.4328 0.0000
# 6 0.0000 0.0000 0.0000 -1.9273 0.0000 27.7472
#
#
#
# Elastic Compliance Matrix: (Units=1/GPa)
#
#
# Indices 1 2 3 4 5 6 
#
# 1 0.014341 -0.007077 -0.002497 0.000000 0.001704 0.000000
# 2 -0.007077 0.023779 -0.003748 0.000000 0.001499 0.000000
# 3 -0.002497 -0.003748 0.009245 0.000000 -0.000840 0.000000
# 4 0.000000 0.000000 0.000000 0.036276 0.000000 0.002520
# 5 0.001704 0.001499 -0.000840 0.000000 0.026492 0.000000
# 6 0.000000 0.000000 0.000000 0.002520 0.000000 0.036215
#
#
# Mechanical properties :
#
#
# Convention : Reuss Voigt Hill
#
# Bulk Modulus (GPa) = 48.25786 55.10302 51.68044
# Shear Modulus (GPa) = 27.79380 30.64287 29.21834
#
# Velocity S-wave (km/s) = 3.74297 3.93013 3.83769
# Velocity P-wave (km/s) = 6.55780 6.95485 6.75924
#
# Compressibility (1/GPa) = 0.02072201
#
# Stress axis : x y z
#
# Youngs Moduli (GPa) = 69.73223 42.05386 108.17207
#
# Poissons Ratio (x) = 0.29760 0.27007
# Poissons Ratio (y) = 0.49348 0.40539
# Poissons Ratio (z) = 0.17410 0.15760
#
# Static dielectric constant tensor:
#      x y z
#    x 3.705730 0.000000 -0.028770 
#    y 0.000000 3.289910 0.000000 
#    z -0.028770 0.000000 3.825090 
# 
# 
# High freq. dielectric constant tensor:
#      x y z
#    x 1.784660 0.000000 -0.000220 
#    y 0.000000 1.734720 0.000000 
#    z -0.000220 0.000000 1.794360 
# 
# From -- ./inp_files/275650.got.cif
#   From: 2010.06.25/outbox.cif.g09.slc.cpg/sg12_138_cif.got.tgz:275650.got - 2010.06.28 00:19:55.
