data_PCOD8100246
_publ_section_title
;
Structure prediction by ZEFSAII (Michael W. Deem and Ramdas Pophale) SiO2 
 PCOD8100246
Probable space group: C 2/M
;
_chemical_formula_sum "Si O2"
_cell_formula_units_Z 64
_cell_length_a 18.892705
_cell_length_b 8.720162
_cell_length_c 19.935094
_cell_angle_alpha 90.000000
_cell_angle_beta 96.058065
_cell_angle_gamma 90.000000
_cell_volume 3265.914785
_symmetry_space_group_name_H-M "C 2/M"
_symmetry_group_IT_number 12
_symmetry_cell_setting 'monoclinic'
loop_
_space_group_symop_operation_xyz
x,y,z
-x,y,-z
-x,-y,-z
x,-y,z
1/2+x,1/2+y,z
1/2-x,1/2+y,-z
1/2-x,1/2-y,-z
1/2+x,1/2-y,z
loop_
_atom_site_type_symbol
_atom_site_label
_atom_site_fract_x
_atom_site_fract_y
_atom_site_fract_z
Si Si1 0.932960 0.680252 0.310996
Si Si2 0.916421 0.824178 0.169964
Si Si3 0.538059 0.182378 0.437194
Si Si4 0.805313 0.178698 0.954801
Si Si5 0.252274 0.676689 0.178736
Si Si6 0.199389 0.680953 0.438921
Si Si7 0.430533 0.169746 0.036328
Si Si8 0.271558 0.821091 0.319362
O O1 0.937656 0.500000 0.298241
O O2 0.948471 0.765186 0.243009
O O3 0.855004 0.722996 0.332003
O O4 0.992323 0.738962 0.368939
O O5 0.831694 0.801524 0.158990
O O6 0.949844 0.727017 0.112858
O O7 0.938298 0.000000 0.163377
O O8 0.500000 0.248322 0.500000
O O9 0.618842 0.244517 0.440098
O O10 0.537981 0.000000 0.439488
O O11 0.801643 0.261790 0.882612
O O12 0.790641 0.000000 0.943844
O O13 0.750000 0.250000 0.000000
O O14 0.881934 0.206096 0.994466
O O15 0.235734 0.500000 0.193344
O O16 0.240333 0.776284 0.244046
O O17 0.199645 0.500000 0.447181
O O18 0.250000 0.750000 0.500000
O O19 0.228175 0.725393 0.369223
O O20 0.394719 0.000000 0.037441
O O21 0.500000 0.156356 0.000000
O O22 0.259862 0.000000 0.331660
#
# Coordination Sequence:
#
# PCOD8100246 Si02
#       8
#     8   8   8   8   8   8   8   8
#     4   9  18  35  60  84 109 147 193 237 279 338
#     4  10  20  35  58  85 116 152 190 240 294 348
#     4   9  18  35  59  85 111 146 192 235 276 331
#     4  12  23  37  61  89 118 154 198 249 299 352
#     4  10  20  36  59  88 118 152 195 243 291 347
#     4  11  22  37  59  86 117 152 188 234 287 343
#     4  11  24  41  60  84 115 155 199 246 300 360
#     4  10  20  36  59  86 116 150 189 236 289 344
#
# _framework density 19.596347000000002
#
# number of rings (size 3 to 8) (size 9 to 14) (size 15 to 20)
#    0.000    1.750    1.250    3.750    0.000    4.500 
#    2.250    1.250    0.000    2.625    0.000    0.000 
#    0.000    0.000    0.000    0.000    0.000    0.000 
#
# Total GULP energy -396905.535371 kJ/mol
# GULP energy per Si atom -12403.297980 kJ/mol
# Density = 1.955174 g / cm^3
# Si number density = 19.596347 Si / 1000 Ang^3
#
#
#
# Elastic Constant Matrix: (Units=GPa)
#
#
# Indices 1 2 3 4 5 6 
#
# 1 98.4638 30.2361 66.3116 0.0000 4.8145 0.0000
# 2 30.2361 71.0499 35.8799 0.0000 -3.0992 0.0000
# 3 66.3116 35.8799 146.4895 0.0000 6.0684 0.0000
# 4 0.0000 0.0000 0.0000 37.2327 0.0000 1.5024
# 5 4.8145 -3.0992 6.0684 0.0000 33.4802 0.0000
# 6 0.0000 0.0000 0.0000 1.5024 0.0000 24.0237
#
#
#
# Elastic Compliance Matrix: (Units=1/GPa)
#
#
# Indices 1 2 3 4 5 6 
#
# 1 0.015382 -0.003564 -0.006030 0.000000 -0.001449 0.000000
# 2 -0.003564 0.017052 -0.002670 0.000000 0.002575 0.000000
# 3 -0.006030 -0.002670 0.010261 0.000000 -0.001240 0.000000
# 4 0.000000 0.000000 0.000000 0.026926 0.000000 -0.001684
# 5 -0.001449 0.002575 -0.001240 0.000000 0.030540 0.000000
# 6 0.000000 0.000000 0.000000 -0.001684 0.000000 0.041731
#
#
# Mechanical properties :
#
#
# Convention : Reuss Voigt Hill
#
# Bulk Modulus (GPa) = 55.04354 64.53982 59.79168
# Shear Modulus (GPa) = 28.98942 31.18571 30.08756
#
# Velocity S-wave (km/s) = 3.85038 3.99357 3.92263
# Velocity P-wave (km/s) = 6.92220 7.36688 7.14800
#
# Compressibility (1/GPa) = 0.01816744
#
# Stress axis : x y z
#
# Youngs Moduli (GPa) = 65.00910 58.64428 97.45241
#
# Poissons Ratio (x) = 0.20902 0.58766
# Poissons Ratio (y) = 0.23170 0.26018
# Poissons Ratio (z) = 0.39202 0.15657
#
# Static dielectric constant tensor:
#      x y z
#    x 3.347260 0.000000 0.023200 
#    y 0.000000 3.857130 0.000000 
#    z 0.023200 0.000000 3.753070 
# 
# 
# High freq. dielectric constant tensor:
#      x y z
#    x 1.745930 0.000000 0.003300 
#    y 0.000000 1.760930 0.000000 
#    z 0.003300 0.000000 1.779520 
# 
# From -- ./inp_files/314109.got.cif
#   From: 2010.06.25/outbox.cif.g09.slc.cpg/sg12_158_cif.got.tgz:314109.got - 2010.06.28 00:19:55.
