data_PCOD8100140
_publ_section_title
;
Structure prediction by ZEFSAII (Michael W. Deem and Ramdas Pophale) SiO2 
 PCOD8100140
Probable space group: C 2/M
;
_chemical_formula_sum "Si O2"
_cell_formula_units_Z 48
_cell_length_a 20.005614
_cell_length_b 17.723075
_cell_length_c 11.370168
_cell_angle_alpha 90.000000
_cell_angle_beta 39.933557
_cell_angle_gamma 90.000000
_cell_volume 2587.762585
_symmetry_space_group_name_H-M "C 2/M"
_symmetry_group_IT_number 12
_symmetry_cell_setting 'monoclinic'
loop_
_space_group_symop_operation_xyz
x,y,z
-x,y,-z
-x,-y,-z
x,-y,z
1/2+x,1/2+y,z
1/2-x,1/2+y,-z
1/2-x,1/2-y,-z
1/2+x,1/2-y,z
loop_
_atom_site_type_symbol
_atom_site_label
_atom_site_fract_x
_atom_site_fract_y
_atom_site_fract_z
Si Si1 0.737284 0.261589 0.212848
Si Si2 0.467966 0.215654 0.410573
Si Si3 0.161421 0.611864 0.808370
Si Si4 0.842880 0.000000 0.605749
Si Si5 0.637152 0.665181 0.128609
Si Si6 0.426113 0.500000 0.757028
Si Si7 0.474424 0.917147 0.222941
O O1 0.654031 0.234155 0.421680
O O2 0.827612 0.301421 0.166333
O O3 0.689172 0.322455 0.186121
O O4 0.784108 0.191089 0.079388
O O5 0.500000 0.197551 0.500000
O O6 0.530635 0.286201 0.270868
O O7 0.491997 0.141319 0.303639
O O8 0.274160 0.572981 0.667536
O O9 0.121971 0.609377 0.727823
O O10 0.078351 0.573009 0.005705
O O11 0.885313 0.000000 0.679996
O O12 0.949718 0.000000 0.387694
O O13 0.617016 0.577274 0.127731
O O14 0.449514 0.000000 0.309445
#
# Coordination Sequence:
#
# PCOD8100140 Si02
#       7
#     8   8   8   4   8   4   8
#     4  10  20  35  58  81 114 160 184 230 296 343
#     4  10  22  38  56  86 119 151 195 238 287 353
#     4  11  19  37  60  85 114 147 196 241 296 339
#     4  11  20  31  56  90 109 143 190 257 291 326
#     4  10  20  36  55  83 121 150 190 240 285 345
#     4  11  22  32  56  90 116 148 190 243 298 334
#     4  11  22  37  59  85 116 153 193 244 290 343
#
# _framework density 18.548843000000002
#
# number of rings (size 3 to 8) (size 9 to 14) (size 15 to 20)
#    0.000    1.500    5.000    1.500    4.667    1.000 
#    1.500    0.000    0.000    0.000    0.000    2.333 
#    0.000    0.000    0.000    0.000    0.000    0.000 
#
# Total GULP energy -297527.572058 kJ/mol
# GULP energy per Si atom -12396.982169 kJ/mol
# Density = 1.850662 g / cm^3
# Si number density = 18.548843 Si / 1000 Ang^3
#
#
#
# Elastic Constant Matrix: (Units=GPa)
#
#
# Indices 1 2 3 4 5 6 
#
# 1 61.0399 40.9173 20.4366 0.0000 -14.4077 0.0000
# 2 40.9173 145.1162 36.8194 0.0000 -0.1533 0.0000
# 3 20.4366 36.8194 74.9732 0.0000 -16.1192 0.0000
# 4 0.0000 0.0000 0.0000 22.5443 0.0000 -6.4413
# 5 -14.4077 -0.1533 -16.1192 0.0000 26.0065 0.0000
# 6 0.0000 0.0000 0.0000 -6.4413 0.0000 26.0814
#
#
#
# Elastic Compliance Matrix: (Units=1/GPa)
#
#
# Indices 1 2 3 4 5 6 
#
# 1 0.024071 -0.006645 -0.000507 0.000000 0.012982 0.000000
# 2 -0.006645 0.009875 -0.004404 0.000000 -0.006353 0.000000
# 3 -0.000507 -0.004404 0.017968 0.000000 0.010830 0.000000
# 4 0.000000 0.000000 0.000000 0.047725 0.000000 0.011787
# 5 0.012982 -0.006353 0.010830 0.000000 0.052319 0.000000
# 6 0.000000 0.000000 0.000000 0.011787 0.000000 0.041252
#
#
# Mechanical properties :
#
#
# Convention : Reuss Voigt Hill
#
# Bulk Modulus (GPa) = 34.72024 53.05288 43.88656
# Shear Modulus (GPa) = 22.13142 27.12350 24.62746
#
# Velocity S-wave (km/s) = 3.45794 3.82812 3.64773
# Velocity P-wave (km/s) = 5.89084 6.94285 6.43837
#
# Compressibility (1/GPa) = 0.02880165
#
# Stress axis : x y z
#
# Youngs Moduli (GPa) = 41.54386 101.26193 55.65539
#
# Poissons Ratio (x) = 0.67286 0.02822
# Poissons Ratio (y) = 0.27605 0.24513
# Poissons Ratio (z) = 0.02106 0.44600
#
# Static dielectric constant tensor:
#      x y z
#    x 3.321100 0.000000 -0.268540 
#    y 0.000000 3.380520 0.000000 
#    z -0.268540 0.000000 3.429800 
# 
# 
# High freq. dielectric constant tensor:
#      x y z
#    x 1.702720 0.000000 -0.024140 
#    y 0.000000 1.721390 0.000000 
#    z -0.024140 0.000000 1.707500 
# 
# From -- ./inp_files/168366.got.cif
#   From: 2010.06.25/outbox.cif.g09.slc.cpg/sg12_85_cif.got.tgz:168366.got - 2010.06.28 00:19:55.
