data_PCOD8100829
_publ_section_title
;
Structure prediction by ZEFSAII (Michael W. Deem and Ramdas Pophale) SiO2 
 PCOD8100829
Probable space group: C 2/M
;
_chemical_formula_sum "Si O2"
_cell_formula_units_Z 48
_cell_length_a 15.493865
_cell_length_b 16.293141
_cell_length_c 11.600190
_cell_angle_alpha 90.000000
_cell_angle_beta 122.490765
_cell_angle_gamma 90.000000
_cell_volume 2470.037035
_symmetry_space_group_name_H-M "C 2/M"
_symmetry_group_IT_number 12
_symmetry_cell_setting 'monoclinic'
loop_
_space_group_symop_operation_xyz
x,y,z
-x,y,-z
-x,-y,-z
x,-y,z
1/2+x,1/2+y,z
1/2-x,1/2+y,-z
1/2-x,1/2-y,-z
1/2+x,1/2-y,z
loop_
_atom_site_type_symbol
_atom_site_label
_atom_site_fract_x
_atom_site_fract_y
_atom_site_fract_z
Si Si1 0.712597 0.094215 0.163379
Si Si2 0.385263 0.093596 0.395279
Si Si3 0.109585 0.903678 0.553522
Si Si4 0.552621 0.785514 0.151688
Si Si5 0.200591 0.823569 0.398975
Si Si6 0.394533 0.906740 0.139949
O O1 0.819217 0.128821 0.290288
O O2 0.625127 0.141458 0.166280
O O3 0.700269 0.000000 0.190493
O O4 0.701001 0.106021 0.016947
O O5 0.500000 0.130897 0.500000
O O6 0.294652 0.136652 0.398870
O O7 0.353195 0.101854 0.239151
O O8 0.387816 0.000000 0.439454
O O9 0.151718 0.884708 0.456665
O O10 0.000000 0.861450 0.500000
O O11 0.098217 0.000000 0.553825
O O12 0.610084 0.709379 0.252029
O O13 0.474994 0.833045 0.180549
O O14 0.500000 0.747611 0.000000
O O15 0.250000 0.750000 0.500000
O O16 0.439845 0.000000 0.154147
#
# Coordination Sequence:
#
# PCOD8100829 Si02
#       6
#     8   8   8   8   8   8
#     4   9  17  34  60  86 112 146 191 241 285 327
#     4  10  22  39  60  85 114 150 192 238 285 335
#     4  10  22  40  61  83 110 149 197 239 277 332
#     4  10  20  36  54  87 120 152 187 230 286 342
#     4  12  23  38  58  85 118 154 185 232 287 345
#     4   9  18  35  61  88 113 144 189 241 289 336
#
# _framework density 19.432908000000001
#
# number of rings (size 3 to 8) (size 9 to 14) (size 15 to 20)
#    0.000    2.000    1.667    2.000    0.000    4.000 
#    3.000    1.667    0.000    1.000    0.000    0.000 
#    0.000    0.000    0.000    0.000    0.000    0.000 
#
# Total GULP energy -297406.847419 kJ/mol
# GULP energy per Si atom -12391.951976 kJ/mol
# Density = 1.938868 g / cm^3
# Si number density = 19.432908 Si / 1000 Ang^3
#
#
#
# Elastic Constant Matrix: (Units=GPa)
#
#
# Indices 1 2 3 4 5 6 
#
# 1 136.0579 34.2880 75.5195 0.0000 1.4509 0.0000
# 2 34.2880 35.6326 39.4398 0.0000 2.5770 0.0000
# 3 75.5195 39.4398 163.3158 0.0000 10.4146 0.0000
# 4 0.0000 0.0000 0.0000 27.1247 0.0000 8.8626
# 5 1.4509 2.5770 10.4146 0.0000 30.7531 0.0000
# 6 0.0000 0.0000 0.0000 8.8626 0.0000 10.8043
#
#
#
# Elastic Compliance Matrix: (Units=1/GPa)
#
#
# Indices 1 2 3 4 5 6 
#
# 1 0.011003 -0.006767 -0.003533 0.000000 0.001244 0.000000
# 2 -0.006767 0.042465 -0.007072 0.000000 -0.000844 0.000000
# 3 -0.003533 -0.007072 0.009624 0.000000 -0.002500 0.000000
# 4 0.000000 0.000000 0.000000 0.050365 0.000000 -0.041314
# 5 0.001244 -0.000844 -0.002500 0.000000 0.033376 0.000000
# 6 0.000000 0.000000 0.000000 -0.041314 0.000000 0.126445
#
#
# Mechanical properties :
#
#
# Convention : Reuss Voigt Hill
#
# Bulk Modulus (GPa) = 35.27662 70.38900 52.83281
# Shear Modulus (GPa) = 15.74948 26.12035 20.93492
#
# Velocity S-wave (km/s) = 2.84994 3.67022 3.28577
# Velocity P-wave (km/s) = 5.38720 7.36619 6.45301
#
# Compressibility (1/GPa) = 0.02834739
#
# Stress axis : x y z
#
# Youngs Moduli (GPa) = 90.88436 23.54900 103.90624
#
# Poissons Ratio (x) = 0.15936 0.36710
# Poissons Ratio (y) = 0.61504 0.73481
# Poissons Ratio (z) = 0.32110 0.16653
#
# Static dielectric constant tensor:
#      x y z
#    x 3.991810 0.000000 1.014730 
#    y 0.000000 3.608890 0.000000 
#    z 1.014730 0.000000 4.400510 
# 
# 
# High freq. dielectric constant tensor:
#      x y z
#    x 1.742740 0.000000 -0.000330 
#    y 0.000000 1.742080 0.000000 
#    z -0.000330 0.000000 1.776710 
# 
# From -- ./inp_files/143565.got.cif
#   From: 2010.06.25/outbox.cif.g09.slc.cpg/sg12_72_cif.got.tgz:143565.got - 2010.06.28 00:19:55.
