data_PCOD8100773
_publ_section_title
;
Structure prediction by ZEFSAII (Michael W. Deem and Ramdas Pophale) SiO2 
 PCOD8100773
Probable space group: C 2/M
;
_chemical_formula_sum "Si O2"
_cell_formula_units_Z 64
_cell_length_a 23.067953
_cell_length_b 14.347540
_cell_length_c 15.327763
_cell_angle_alpha 90.000000
_cell_angle_beta 42.118690
_cell_angle_gamma 90.000000
_cell_volume 3402.305158
_symmetry_space_group_name_H-M "C 2/M"
_symmetry_group_IT_number 12
_symmetry_cell_setting 'monoclinic'
loop_
_space_group_symop_operation_xyz
x,y,z
-x,y,-z
-x,-y,-z
x,-y,z
1/2+x,1/2+y,z
1/2-x,1/2+y,-z
1/2-x,1/2-y,-z
1/2+x,1/2-y,z
loop_
_atom_site_type_symbol
_atom_site_label
_atom_site_fract_x
_atom_site_fract_y
_atom_site_fract_z
Si Si1 0.176862 0.318476 0.118761
Si Si2 0.960955 0.734720 0.136338
Si Si3 0.940402 0.160151 0.691750
Si Si4 0.960665 0.102403 0.859527
Si Si5 0.289505 0.212115 0.239928
Si Si6 0.217373 0.105002 0.847920
Si Si7 0.890471 0.607017 0.980691
Si Si8 0.619684 0.607244 0.422394
O O1 0.214454 0.385993 0.150157
O O2 0.139071 0.383688 0.085641
O O3 0.097137 0.262782 0.250542
O O4 0.250000 0.250000 0.000000
O O5 0.860504 0.707218 0.237661
O O6 0.967422 0.820533 0.197265
O O7 0.012316 0.645572 0.115733
O O8 0.000000 0.767200 0.000000
O O9 0.040135 0.164983 0.551287
O O10 0.933012 0.102675 0.789393
O O11 0.883944 0.110406 0.679156
O O12 0.997047 0.000000 0.841728
O O13 0.877589 0.126696 0.009741
O O14 0.264099 0.319691 0.248556
O O15 0.205655 0.155226 0.364129
O O16 0.324359 0.165495 0.112808
O O17 0.223698 0.000000 0.802866
O O18 0.889214 0.500000 0.011606
O O19 0.615767 0.500000 0.457567
#
# Coordination Sequence:
#
# PCOD8100773 Si02
#       8
#     8   8   8   8   8   8   8   8
#     4  12  18  35  56  82 113 142 174 223 287 338
#     4  10  20  36  52  81 114 145 190 226 277 333
#     4  11  20  37  60  81 117 142 178 228 281 334
#     4  11  20  34  58  84 115 146 177 232 286 332
#     4  11  21  37  54  79 114 152 186 229 275 325
#     4  11  21  33  55  86 114 143 180 227 285 343
#     4  11  21  34  55  82 113 148 183 226 283 341
#     4  11  23  37  57  87 114 146 187 229 277 331
#
# _framework density 18.810775
#
# number of rings (size 3 to 8) (size 9 to 14) (size 15 to 20)
#    0.000    1.000    7.500    2.250    0.000    3.500 
#    0.000    0.625    0.000    2.250    0.000    0.000 
#    0.000    0.000    0.000    0.000    0.000    0.000 
#
# Total GULP energy -396838.663284 kJ/mol
# GULP energy per Si atom -12401.208228 kJ/mol
# Density = 1.876796 g / cm^3
# Si number density = 18.810775 Si / 1000 Ang^3
#
#
#
# Elastic Constant Matrix: (Units=GPa)
#
#
# Indices 1 2 3 4 5 6 
#
# 1 94.9997 34.7601 13.3027 0.0000 -23.9451 0.0000
# 2 34.7601 115.5848 31.1695 0.0000 -12.9051 0.0000
# 3 13.3027 31.1695 41.2773 0.0000 -19.6106 0.0000
# 4 0.0000 0.0000 0.0000 16.1120 0.0000 -1.0079
# 5 -23.9451 -12.9051 -19.6106 0.0000 28.8651 0.0000
# 6 0.0000 0.0000 0.0000 -1.0079 0.0000 18.4981
#
#
#
# Elastic Compliance Matrix: (Units=1/GPa)
#
#
# Indices 1 2 3 4 5 6 
#
# 1 0.014877 -0.004281 0.005008 0.000000 0.013830 0.000000
# 2 -0.004281 0.012117 -0.010165 0.000000 -0.005039 0.000000
# 3 0.005008 -0.010165 0.044450 0.000000 0.029809 0.000000
# 4 0.000000 0.000000 0.000000 0.062278 0.000000 0.003393
# 5 0.013830 -0.005039 0.029809 0.000000 0.064116 0.000000
# 6 0.000000 0.000000 0.000000 0.003393 0.000000 0.054244
#
#
# Mechanical properties :
#
#
# Convention : Reuss Voigt Hill
#
# Bulk Modulus (GPa) = 19.02186 45.59184 32.30685
# Shear Modulus (GPa) = 17.33220 24.20366 20.76793
#
# Velocity S-wave (km/s) = 3.03875 3.59094 3.32632
# Velocity P-wave (km/s) = 4.73774 6.44072 5.65371
#
# Compressibility (1/GPa) = 0.05257110
#
# Stress axis : x y z
#
# Youngs Moduli (GPa) = 67.21656 82.52572 22.49718
#
# Poissons Ratio (x) = 0.35325 -0.11268
# Poissons Ratio (y) = 0.28772 0.22868
# Poissons Ratio (z) = -0.33665 0.83885
#
# Static dielectric constant tensor:
#      x y z
#    x 3.630310 0.000000 -0.085660 
#    y 0.000000 3.419900 0.000000 
#    z -0.085660 0.000000 3.162790 
# 
# 
# High freq. dielectric constant tensor:
#      x y z
#    x 1.739020 0.000000 -0.008160 
#    y 0.000000 1.731010 0.000000 
#    z -0.008160 0.000000 1.685740 
# 
# From -- ./inp_files/240695.got.cif
#   From: 2010.06.25/outbox.cif.g09.slc.cpg/sg12_121_cif.got.tgz:240695.got - 2010.06.28 00:19:55.
