data_PCOD8100916
_publ_section_title
;
Structure prediction by ZEFSAII (Michael W. Deem and Ramdas Pophale) SiO2 
 PCOD8100916
Probable space group: C 2/M
;
_chemical_formula_sum "Si O2"
_cell_formula_units_Z 64
_cell_length_a 14.216204
_cell_length_b 9.188525
_cell_length_c 27.063634
_cell_angle_alpha 90.000000
_cell_angle_beta 74.575574
_cell_angle_gamma 90.000000
_cell_volume 3407.881871
_symmetry_space_group_name_H-M "C 2/M"
_symmetry_group_IT_number 12
_symmetry_cell_setting 'monoclinic'
loop_
_space_group_symop_operation_xyz
x,y,z
-x,y,-z
-x,-y,-z
x,-y,z
1/2+x,1/2+y,z
1/2-x,1/2+y,-z
1/2-x,1/2-y,-z
1/2+x,1/2-y,z
loop_
_atom_site_type_symbol
_atom_site_label
_atom_site_fract_x
_atom_site_fract_y
_atom_site_fract_z
Si Si1 0.642157 0.170411 0.892870
Si Si2 0.528818 0.326363 0.442480
Si Si3 0.388889 0.333743 0.720556
Si Si4 0.114881 0.164595 0.992579
Si Si5 0.779092 0.168969 0.636247
Si Si6 0.915704 0.168595 0.364120
Si Si7 0.082206 0.332737 0.091088
Si Si8 0.811158 0.329541 0.823286
O O1 0.667511 0.246892 0.941532
O O2 0.532184 0.203205 0.891972
O O3 0.709923 0.241750 0.841474
O O4 0.663620 0.000000 0.894628
O O5 0.500000 0.262630 0.500000
O O6 0.529222 0.500000 0.442027
O O7 0.636996 0.271699 0.412611
O O8 0.450159 0.272234 0.412989
O O9 0.377943 0.500000 0.740415
O O10 0.312428 0.302317 0.687575
O O11 0.498448 0.304422 0.687055
O O12 0.368831 0.222608 0.767295
O O13 0.155048 0.000000 0.986659
O O14 0.138656 0.238675 0.041803
O O15 0.000000 0.169417 0.000000
O O16 0.679132 0.249301 0.640457
O O17 0.761407 0.000000 0.629218
O O18 0.889442 0.000000 0.371398
O O19 0.100047 0.500000 0.074696
O O20 0.122579 0.291880 0.138858
O O21 0.788739 0.500000 0.822130
#
# Coordination Sequence:
#
# PCOD8100916 Si02
#       8
#     8   8   8   8   8   8   8   8
#     4  10  20  36  56  76 103 138 169 201 250 311
#     4   8  15  30  51  76 110 148 179 209 252 308
#     4   9  20  38  53  69  99 136 171 208 257 315
#     4   9  17  31  53  79 104 131 167 209 248 293
#     4   9  18  33  54  77 102 137 178 215 255 306
#     4   9  18  33  54  78 103 136 178 218 256 303
#     4   9  20  37  54  74 102 134 166 202 251 310
#     4  11  23  37  54  78 103 128 167 217 261 302
#
# _framework density 18.779993999999999
#
# number of rings (size 3 to 8) (size 9 to 14) (size 15 to 20)
#    0.000    2.750    0.000    2.625    0.000    6.000 
#    0.000    5.625    0.000    0.750    0.000    0.000 
#    0.000    0.000    0.000    0.000    0.000    0.000 
#
# Total GULP energy -396821.666748 kJ/mol
# GULP energy per Si atom -12400.677086 kJ/mol
# Density = 1.873725 g / cm^3
# Si number density = 18.779994 Si / 1000 Ang^3
#
#
#
# Elastic Constant Matrix: (Units=GPa)
#
#
# Indices 1 2 3 4 5 6 
#
# 1 105.9529 42.3995 40.8121 0.0000 -1.4280 0.0000
# 2 42.3995 80.5793 48.7934 0.0000 -1.0484 0.0000
# 3 40.8121 48.7934 116.2621 0.0000 -1.4624 0.0000
# 4 0.0000 0.0000 0.0000 27.4472 0.0000 -0.6716
# 5 -1.4280 -1.0484 -1.4624 0.0000 14.9551 0.0000
# 6 0.0000 0.0000 0.0000 -0.6716 0.0000 30.1919
#
#
#
# Elastic Compliance Matrix: (Units=1/GPa)
#
#
# Indices 1 2 3 4 5 6 
#
# 1 0.012351 -0.005189 -0.002150 0.000000 0.000605 0.000000
# 2 -0.005189 0.018822 -0.006075 0.000000 0.000230 0.000000
# 3 -0.002150 -0.006075 0.011912 0.000000 0.000534 0.000000
# 4 0.000000 0.000000 0.000000 0.036453 0.000000 0.000811
# 5 0.000605 0.000230 0.000534 0.000000 0.066993 0.000000
# 6 0.000000 0.000000 0.000000 0.000811 0.000000 0.033140
#
#
# Mechanical properties :
#
#
# Convention : Reuss Voigt Hill
#
# Bulk Modulus (GPa) = 61.51172 62.97825 62.24499
# Shear Modulus (GPa) = 23.59394 25.90478 24.74936
#
# Velocity S-wave (km/s) = 3.54832 3.71803 3.63417
# Velocity P-wave (km/s) = 7.04361 7.21382 7.12922
#
# Compressibility (1/GPa) = 0.01625706
#
# Stress axis : x y z
#
# Youngs Moduli (GPa) = 80.96455 53.12928 83.94642
#
# Poissons Ratio (x) = 0.27569 0.18051
# Poissons Ratio (y) = 0.42012 0.50997
# Poissons Ratio (z) = 0.17410 0.32276
#
# Static dielectric constant tensor:
#      x y z
#    x 3.400570 0.000000 -0.021460 
#    y 0.000000 3.301710 0.000000 
#    z -0.021460 0.000000 3.526110 
# 
# 
# High freq. dielectric constant tensor:
#      x y z
#    x 1.732610 0.000000 -0.003520 
#    y 0.000000 1.716670 0.000000 
#    z -0.003520 0.000000 1.728730 
# 
# From -- ./inp_files/359753.got.cif
#   From: 2010.06.25/outbox.cif.g09.slc.cpg/sg12_180_cif.got.tgz:359753.got - 2010.06.28 00:19:55.
