data_PCOD8100750
_publ_section_title
;
Structure prediction by ZEFSAII (Michael W. Deem and Ramdas Pophale) SiO2 
 PCOD8100750
Probable space group: C 2/M
;
_chemical_formula_sum "Si O2"
_cell_formula_units_Z 36
_cell_length_a 9.010686
_cell_length_b 22.581146
_cell_length_c 6.692403
_cell_angle_alpha 90.000000
_cell_angle_beta 102.147959
_cell_angle_gamma 90.000000
_cell_volume 1331.221783
_symmetry_space_group_name_H-M "C 2/M"
_symmetry_group_IT_number 12
_symmetry_cell_setting 'monoclinic'
loop_
_space_group_symop_operation_xyz
x,y,z
-x,y,-z
-x,-y,-z
x,-y,z
1/2+x,1/2+y,z
1/2-x,1/2+y,-z
1/2-x,1/2-y,-z
1/2+x,1/2-y,z
loop_
_atom_site_type_symbol
_atom_site_label
_atom_site_fract_x
_atom_site_fract_y
_atom_site_fract_z
Si Si1 0.449033 0.299021 0.212638
Si Si2 0.712008 0.500000 0.886537
Si Si3 0.673072 0.124584 0.038057
Si Si4 0.224107 0.875276 0.386860
Si Si5 0.380141 0.500000 0.677975
Si Si6 0.500000 0.805646 0.500000
O O1 0.287847 0.332233 0.191486
O O2 0.575526 0.334895 0.373789
O O3 0.430781 0.233798 0.301289
O O4 0.500000 0.292182 0.000000
O O5 0.811780 0.558228 0.868397
O O6 0.562857 0.500000 0.700941
O O7 0.654475 0.500000 0.097257
O O8 0.500000 0.146911 0.000000
O O9 0.727518 0.124186 0.828095
O O10 0.365548 0.847377 0.550569
O O11 0.191710 0.942207 0.448239
#
# Coordination Sequence:
#
# PCOD8100750 Si02
#       6
#     8   4   8   8   4   4
#     4  10  23  44  68  95 134 182 220 267 334 394
#     4   9  15  32  64  98 131 169 214 273 339 397
#     4  10  20  35  64 102 134 169 221 276 329 399
#     4  10  22  40  65  96 131 177 222 271 336 394
#     4   9  16  35  68  94 126 173 220 269 335 405
#     4  12  26  41  66  99 134 176 232 276 314 386
#
# _framework density 27.042828
#
# number of rings (size 3 to 8) (size 9 to 14) (size 15 to 20)
#    0.000    2.000    2.222    1.000    0.000    8.444 
#    0.000    0.000    0.000    5.333    0.000    5.444 
#    0.000    0.000    0.000    0.000    0.000    0.000 
#
# Total GULP energy -223297.073242 kJ/mol
# GULP energy per Si atom -12405.392958 kJ/mol
# Density = 2.698128 g / cm^3
# Si number density = 27.042828 Si / 1000 Ang^3
#
#
#
# Elastic Constant Matrix: (Units=GPa)
#
#
# Indices 1 2 3 4 5 6 
#
# 1 186.6160 84.0491 43.9690 0.0000 45.6322 0.0000
# 2 84.0491 215.7719 33.7169 0.0000 37.6675 0.0000
# 3 43.9690 33.7169 53.4177 0.0000 36.5339 0.0000
# 4 0.0000 0.0000 0.0000 10.6819 0.0000 19.9703
# 5 45.6322 37.6675 36.5339 0.0000 53.1679 0.0000
# 6 0.0000 0.0000 0.0000 19.9703 0.0000 33.0220
#
#
#
# Elastic Compliance Matrix: (Units=1/GPa)
#
#
# Indices 1 2 3 4 5 6 
#
# 1 0.007729 -0.001994 -0.002891 0.000000 -0.003234 0.000000
# 2 -0.001994 0.005865 -0.000734 0.000000 -0.001939 0.000000
# 3 -0.002891 -0.000734 0.036810 0.000000 -0.022292 0.000000
# 4 0.000000 0.000000 0.000000 -0.716700 0.000000 0.433430
# 5 -0.003234 -0.001939 -0.022292 0.000000 0.038275 0.000000
# 6 0.000000 0.000000 0.000000 0.433430 0.000000 -0.231838
#
#
# Mechanical properties :
#
#
# Convention : Reuss Voigt Hill
#
# Bulk Modulus (GPa) = 25.53392 86.58615 56.06004
# Shear Modulus (GPa) = -5.98397 38.97909 16.49756
#
# Velocity S-wave (km/s) = -1.48915 3.80067 2.47260
# Velocity P-wave (km/s) = 2.55064 7.16574 5.37836
#
# Compressibility (1/GPa) = 0.03916359
#
# Stress axis : x y z
#
# Youngs Moduli (GPa) = 129.38764 170.51748 27.16676
#
# Poissons Ratio (x) = 0.34005 0.07854
# Poissons Ratio (y) = 0.25803 0.01995
# Poissons Ratio (z) = 0.37409 0.12520
#
# Static dielectric constant tensor:
#      x y z
#    x 5.383850 0.000000 0.254410 
#    y 0.000000 5.218240 0.000000 
#    z 0.254410 0.000000 4.883910 
# 
# 
# High freq. dielectric constant tensor:
#      x y z
#    x 2.092620 0.000000 -0.016630 
#    y 0.000000 2.093060 0.000000 
#    z -0.016630 0.000000 2.106890 
# 
# From -- ./inp_files/39558.got.cif
#   From: 2010.06.25/outbox.cif.g09.slc.cpg/sg12_20_cif.got.tgz:39558.got - 2010.06.28 00:19:55.
