data_PCOD8100966
_publ_section_title
;
Structure prediction by ZEFSAII (Michael W. Deem and Ramdas Pophale) SiO2 
 PCOD8100966
Probable space group: C 2/M
;
_chemical_formula_sum "Si O2"
_cell_formula_units_Z 64
_cell_length_a 14.661156
_cell_length_b 8.477627
_cell_length_c 26.998514
_cell_angle_alpha 90.000000
_cell_angle_beta 104.657689
_cell_angle_gamma 90.000000
_cell_volume 3246.482756
_symmetry_space_group_name_H-M "C 2/M"
_symmetry_group_IT_number 12
_symmetry_cell_setting 'monoclinic'
loop_
_space_group_symop_operation_xyz
x,y,z
-x,y,-z
-x,-y,-z
x,-y,z
1/2+x,1/2+y,z
1/2-x,1/2+y,-z
1/2-x,1/2-y,-z
1/2+x,1/2-y,z
loop_
_atom_site_type_symbol
_atom_site_label
_atom_site_fract_x
_atom_site_fract_y
_atom_site_fract_z
Si Si1 0.718237 0.314754 0.247185
Si Si2 0.314083 0.184346 0.861702
Si Si3 0.646360 0.313768 0.498577
Si Si4 0.710562 0.315384 0.944010
Si Si5 0.508405 0.684794 0.235624
Si Si6 0.899062 0.814943 0.314759
Si Si7 0.986782 0.184570 0.123219
Si Si8 0.962472 0.684479 0.426051
O O1 0.732526 0.500000 0.257182
O O2 0.731118 0.274647 0.191060
O O3 0.615691 0.254850 0.250283
O O4 0.788986 0.218601 0.291732
O O5 0.266421 0.254270 0.904685
O O6 0.425376 0.213033 0.882670
O O7 0.292432 0.000000 0.851923
O O8 0.647634 0.500000 0.492651
O O9 0.750000 0.250000 0.500000
O O10 0.568810 0.243138 0.450485
O O11 0.614982 0.269722 0.549970
O O12 0.725438 0.500000 0.946378
O O13 0.600419 0.271747 0.923932
O O14 0.750000 0.250000 0.000000
O O15 0.506836 0.500000 0.243320
O O16 0.451857 0.758276 0.273834
O O17 0.460056 0.728111 0.176436
O O18 0.937838 0.719516 0.366366
O O19 0.916430 0.000000 0.325390
O O20 0.014136 0.000000 0.124068
O O21 0.957033 0.500000 0.436411
#
# Coordination Sequence:
#
# PCOD8100966 Si02
#       8
#     8   8   8   8   8   8   8   8
#     4  10  20  36  56  81 110 145 185 226 273 334
#     4  10  20  36  56  79 105 138 177 223 272 325
#     4  11  22  41  66  90 115 152 198 244 293 345
#     4  10  22  37  54  76 106 139 176 219 272 329
#     4   8  17  34  56  77 105 143 182 219 268 328
#     4  11  21  36  57  83 116 153 188 232 282 330
#     4   9  18  36  57  77 102 139 180 221 268 326
#     4  11  23  40  59  87 122 156 196 242 288 342
#
# _framework density 19.713640999999999
#
# number of rings (size 3 to 8) (size 9 to 14) (size 15 to 20)
#    0.000    2.000    0.000    5.625    0.000    5.000 
#    0.000   15.000    0.000    0.000    0.000    0.000 
#    0.000    0.000    0.000    0.000    0.000    0.000 
#
# Total GULP energy -396815.304576 kJ/mol
# GULP energy per Si atom -12400.478268 kJ/mol
# Density = 1.966877 g / cm^3
# Si number density = 19.713641 Si / 1000 Ang^3
#
#
#
# Elastic Constant Matrix: (Units=GPa)
#
#
# Indices 1 2 3 4 5 6 
#
# 1 80.6378 18.7950 38.3912 0.0000 13.2394 0.0000
# 2 18.7950 54.3591 14.9106 0.0000 3.6939 0.0000
# 3 38.3912 14.9106 107.2019 0.0000 18.5178 0.0000
# 4 0.0000 0.0000 0.0000 32.9746 0.0000 3.8167
# 5 13.2394 3.6939 18.5178 0.0000 24.9763 0.0000
# 6 0.0000 0.0000 0.0000 3.8167 0.0000 31.4193
#
#
#
# Elastic Compliance Matrix: (Units=1/GPa)
#
#
# Indices 1 2 3 4 5 6 
#
# 1 0.016236 -0.004077 -0.004433 0.000000 -0.004717 0.000000
# 2 -0.004077 0.020171 -0.001380 0.000000 0.000201 0.000000
# 3 -0.004433 -0.001380 0.012233 0.000000 -0.006516 0.000000
# 4 0.000000 0.000000 0.000000 0.030759 0.000000 -0.003737
# 5 -0.004717 0.000201 -0.006516 0.000000 0.047340 0.000000
# 6 0.000000 0.000000 0.000000 -0.003737 0.000000 0.032282
#
#
# Mechanical properties :
#
#
# Convention : Reuss Voigt Hill
#
# Bulk Modulus (GPa) = 34.65004 42.93248 38.79126
# Shear Modulus (GPa) = 26.53636 29.21416 27.87526
#
# Velocity S-wave (km/s) = 3.67289 3.85376 3.76441
# Velocity P-wave (km/s) = 5.96672 6.45192 6.21405
#
# Compressibility (1/GPa) = 0.02886000
#
# Stress axis : x y z
#
# Youngs Moduli (GPa) = 61.59030 49.57647 81.74523
#
# Poissons Ratio (x) = 0.20214 0.36235
# Poissons Ratio (y) = 0.25113 0.11282
# Poissons Ratio (z) = 0.27301 0.06842
#
# Static dielectric constant tensor:
#      x y z
#    x 3.806350 0.000000 -0.021480 
#    y 0.000000 3.460020 0.000000 
#    z -0.021480 0.000000 3.474400 
# 
# 
# High freq. dielectric constant tensor:
#      x y z
#    x 1.776050 0.000000 0.003490 
#    y 0.000000 1.760700 0.000000 
#    z 0.003490 0.000000 1.768410 
# 
# From -- ./inp_files/359891.got.cif
#   From: 2010.06.25/outbox.cif.g09.slc.cpg/sg12_180_cif.got.tgz:359891.got - 2010.06.28 00:19:55.
