data_PCOD8100891
_publ_section_title
;
Structure prediction by ZEFSAII (Michael W. Deem and Ramdas Pophale) SiO2 
 PCOD8100891
Probable space group: C 2/M
;
_chemical_formula_sum "Si O2"
_cell_formula_units_Z 56
_cell_length_a 28.053263
_cell_length_b 16.587945
_cell_length_c 6.844938
_cell_angle_alpha 90.000000
_cell_angle_beta 71.179022
_cell_angle_gamma 90.000000
_cell_volume 3014.952154
_symmetry_space_group_name_H-M "C 2/M"
_symmetry_group_IT_number 12
_symmetry_cell_setting 'monoclinic'
loop_
_space_group_symop_operation_xyz
x,y,z
-x,y,-z
-x,-y,-z
x,-y,z
1/2+x,1/2+y,z
1/2-x,1/2+y,-z
1/2-x,1/2-y,-z
1/2+x,1/2-y,z
loop_
_atom_site_type_symbol
_atom_site_label
_atom_site_fract_x
_atom_site_fract_y
_atom_site_fract_z
Si Si1 0.555802 0.710422 0.978349
Si Si2 0.792543 0.411057 0.098373
Si Si3 0.049055 0.093793 0.327888
Si Si4 0.277525 0.327746 0.058899
Si Si5 0.122618 0.177533 0.510622
Si Si6 0.276593 0.595732 0.466873
Si Si7 0.365516 0.226295 0.862881
O O1 0.589109 0.696477 0.742743
O O2 0.581941 0.776225 0.087928
O O3 0.500000 0.742341 0.000000
O O4 0.552238 0.627860 0.104489
O O5 0.814904 0.500000 0.047167
O O6 0.775082 0.393518 0.342366
O O7 0.835435 0.353558 0.957483
O O8 0.740316 0.403776 0.045542
O O9 0.096425 0.114504 0.399849
O O10 0.000000 0.129921 0.500000
O O11 0.044448 0.000000 0.304955
O O12 0.262962 0.351144 0.296981
O O13 0.336715 0.308204 0.973365
O O14 0.250000 0.250000 0.000000
O O15 0.175863 0.138014 0.493471
O O16 0.128435 0.262066 0.379830
O O17 0.287458 0.500000 0.413030
#
# Coordination Sequence:
#
# PCOD8100891 Si02
#       7
#     8   8   8   8   8   8   8
#     4  11  22  38  57  81 112 154 199 243 289 340
#     4  10  22  40  59  86 120 151 191 241 295 351
#     4  10  21  35  52  78 114 151 193 240 287 335
#     4  10  20  36  55  81 112 151 190 230 280 343
#     4  11  21  37  54  82 115 157 197 238 281 339
#     4  11  22  35  57  86 119 157 194 235 286 345
#     4  10  22  37  59  86 112 155 195 244 287 347
#
# _framework density 18.574090999999999
#
# number of rings (size 3 to 8) (size 9 to 14) (size 15 to 20)
#    0.000    1.571    4.286    0.857    0.000    6.000 
#    0.000    0.000    0.000    0.429    0.000    1.000 
#    0.000    0.000    0.000    0.000    0.000    0.000 
#
# Total GULP energy -346919.717472 kJ/mol
# GULP energy per Si atom -12389.989910 kJ/mol
# Density = 1.853182 g / cm^3
# Si number density = 18.574091 Si / 1000 Ang^3
#
#
#
# Elastic Constant Matrix: (Units=GPa)
#
#
# Indices 1 2 3 4 5 6 
#
# 1 95.0670 47.2205 41.9267 0.0000 7.0749 0.0000
# 2 47.2205 87.0214 64.2351 0.0000 -4.9431 0.0000
# 3 41.9267 64.2351 150.3440 0.0000 -1.4914 0.0000
# 4 0.0000 0.0000 0.0000 29.3923 0.0000 -4.4887
# 5 7.0749 -4.9431 -1.4914 0.0000 33.4964 0.0000
# 6 0.0000 0.0000 0.0000 -4.4887 0.0000 18.8585
#
#
#
# Elastic Compliance Matrix: (Units=1/GPa)
#
#
# Indices 1 2 3 4 5 6 
#
# 1 0.015112 -0.007750 -0.000946 0.000000 -0.004378 0.000000
# 2 -0.007750 0.020917 -0.006732 0.000000 0.004424 0.000000
# 3 -0.000946 -0.006732 0.009788 0.000000 -0.000358 0.000000
# 4 0.000000 0.000000 0.000000 0.035306 0.000000 0.008404
# 5 -0.004378 0.004424 -0.000358 0.000000 0.031416 0.000000
# 6 0.000000 0.000000 0.000000 0.008404 0.000000 0.055027
#
#
# Mechanical properties :
#
#
# Convention : Reuss Voigt Hill
#
# Bulk Modulus (GPa) = 66.84373 71.02186 68.93280
# Shear Modulus (GPa) = 24.58108 28.28609 26.43359
#
# Velocity S-wave (km/s) = 3.64181 3.90664 3.77655
# Velocity P-wave (km/s) = 7.33140 7.65958 7.49729
#
# Compressibility (1/GPa) = 0.01496027
#
# Stress axis : x y z
#
# Youngs Moduli (GPa) = 66.17437 47.80731 102.16615
#
# Poissons Ratio (x) = 0.37051 0.09668
# Poissons Ratio (y) = 0.51286 0.68777
# Poissons Ratio (z) = 0.06262 0.32183
#
# Static dielectric constant tensor:
#      x y z
#    x 3.639530 0.000000 0.033260 
#    y 0.000000 3.170680 0.000000 
#    z 0.033260 0.000000 3.680870 
# 
# 
# High freq. dielectric constant tensor:
#      x y z
#    x 1.720920 0.000000 0.007310 
#    y 0.000000 1.686820 0.000000 
#    z 0.007310 0.000000 1.740340 
# 
# From -- ./inp_files/31862.got.cif
#   From: 2010.06.25/outbox.cif.g09.slc.cpg/sg12_16_cif.got.tgz:31862.got - 2010.06.28 00:19:55.
