data_PCOD8100183
_publ_section_title
;
Structure prediction by ZEFSAII (Michael W. Deem and Ramdas Pophale) SiO2 
 PCOD8100183
Probable space group: C 2/M
;
_chemical_formula_sum "Si O2"
_cell_formula_units_Z 48
_cell_length_a 19.110097
_cell_length_b 8.874328
_cell_length_c 27.319084
_cell_angle_alpha 90.000000
_cell_angle_beta 33.764376
_cell_angle_gamma 90.000000
_cell_volume 2574.936409
_symmetry_space_group_name_H-M "C 2/M"
_symmetry_group_IT_number 12
_symmetry_cell_setting 'monoclinic'
loop_
_space_group_symop_operation_xyz
x,y,z
-x,y,-z
-x,-y,-z
x,-y,z
1/2+x,1/2+y,z
1/2-x,1/2+y,-z
1/2-x,1/2-y,-z
1/2+x,1/2-y,z
loop_
_atom_site_type_symbol
_atom_site_label
_atom_site_fract_x
_atom_site_fract_y
_atom_site_fract_z
Si Si1 0.371482 0.324367 0.601845
Si Si2 0.541197 0.671374 0.873181
Si Si3 0.210816 0.677054 0.971950
Si Si4 0.594156 0.174919 0.212439
Si Si5 0.180528 0.674162 0.269897
Si Si6 0.620602 0.326920 0.717140
O O1 0.500000 0.284757 0.500000
O O2 0.339617 0.500000 0.618557
O O3 0.385136 0.273240 0.650155
O O4 0.261437 0.235454 0.638195
O O5 0.506873 0.500000 0.906945
O O6 0.672808 0.720500 0.821316
O O7 0.549391 0.690752 0.810026
O O8 0.432693 0.778788 0.957358
O O9 0.224506 0.500000 0.969127
O O10 0.299037 0.731984 0.877132
O O11 0.250000 0.750000 0.000000
O O12 0.607521 0.203505 0.262339
O O13 0.455830 0.231926 0.278461
O O14 0.609376 0.000000 0.190210
O O15 0.175499 0.500000 0.289533
O O16 0.626189 0.500000 0.697341
#
# Coordination Sequence:
#
# PCOD8100183 Si02
#       6
#     8   8   8   8   8   8
#     4  10  21  38  62  89 114 143 182 228 276 333
#     4   9  18  35  55  77 108 146 190 234 276 328
#     4  12  23  34  52  79 111 150 195 238 277 324
#     4  11  22  37  57  82 114 150 187 234 284 329
#     4   9  21  39  59  83 113 148 185 229 285 337
#     4  10  20  35  58  84 112 148 187 228 278 335
#
# _framework density 18.641237
#
# number of rings (size 3 to 8) (size 9 to 14) (size 15 to 20)
#    0.000    1.833    1.667    4.000    0.000    6.000 
#    0.000    4.167    0.000    0.000    0.000    0.000 
#    0.000    0.000    0.000    0.000    0.000    0.000 
#
# Total GULP energy -297708.233170 kJ/mol
# GULP energy per Si atom -12404.509715 kJ/mol
# Density = 1.859881 g / cm^3
# Si number density = 18.641237 Si / 1000 Ang^3
#
#
#
# Elastic Constant Matrix: (Units=GPa)
#
#
# Indices 1 2 3 4 5 6 
#
# 1 110.6201 47.9985 39.9541 0.0001 -6.1310 -0.0007
# 2 47.9985 120.7320 56.7587 0.0007 -5.1291 -0.0016
# 3 39.9541 56.7587 101.8180 -0.0002 -10.9597 -0.0007
# 4 0.0001 0.0007 -0.0002 31.4648 0.0000 -2.1566
# 5 -6.1310 -5.1291 -10.9597 0.0000 16.5292 0.0006
# 6 -0.0007 -0.0016 -0.0007 -2.1566 0.0006 31.0640
#
#
#
# Elastic Compliance Matrix: (Units=1/GPa)
#
#
# Indices 1 2 3 4 5 6 
#
# 1 0.011465 -0.003328 -0.002474 0.000000 0.001580 0.000000
# 2 -0.003328 0.012198 -0.005621 0.000000 -0.001176 0.000000
# 3 -0.002474 -0.005621 0.014687 0.000000 0.007077 0.000000
# 4 0.000000 0.000000 0.000000 0.031933 0.000000 0.002217
# 5 0.001580 -0.001176 0.007077 0.000000 0.065412 -0.000001
# 6 0.000000 0.000000 0.000000 0.002217 -0.000001 0.032345
#
#
# Mechanical properties :
#
#
# Convention : Reuss Voigt Hill
#
# Bulk Modulus (GPa) = 64.49220 69.17697 66.83458
# Shear Modulus (GPa) = 25.50309 28.37554 26.93932
#
# Velocity S-wave (km/s) = 3.70280 3.90576 3.80563
# Velocity P-wave (km/s) = 7.27685 7.58486 7.43245
#
# Compressibility (1/GPa) = 0.01550575
#
# Stress axis : x y z
#
# Youngs Moduli (GPa) = 87.22201 81.97853 68.08693
#
# Poissons Ratio (x) = 0.27282 0.16843
# Poissons Ratio (y) = 0.29027 0.38269
# Poissons Ratio (z) = 0.21576 0.46077
#
# Static dielectric constant tensor:
#      x y z
#    x 3.473690 0.000000 -0.131850 
#    y 0.000000 3.538950 0.000000 
#    z -0.131850 0.000000 3.284130 
# 
# 
# High freq. dielectric constant tensor:
#      x y z
#    x 1.724240 0.000000 -0.013690 
#    y 0.000000 1.732450 0.000000 
#    z -0.013690 0.000000 1.707350 
# 
# From -- ./inp_files/313612.got.cif
#   From: 2010.06.25/outbox.cif.g09.slc.cpg/sg12_157_cif.got.tgz:313612.got - 2010.06.28 00:19:55.
