data_PCOD8100800
_publ_section_title
;
Structure prediction by ZEFSAII (Michael W. Deem and Ramdas Pophale) SiO2 
 PCOD8100800
Probable space group: C 2/M
;
_chemical_formula_sum "Si O2"
_cell_formula_units_Z 56
_cell_length_a 25.117418
_cell_length_b 9.386026
_cell_length_c 15.580354
_cell_angle_alpha 90.000000
_cell_angle_beta 128.338092
_cell_angle_gamma 90.000000
_cell_volume 2881.056678
_symmetry_space_group_name_H-M "C 2/M"
_symmetry_group_IT_number 12
_symmetry_cell_setting 'monoclinic'
loop_
_space_group_symop_operation_xyz
x,y,z
-x,y,-z
-x,-y,-z
x,-y,z
1/2+x,1/2+y,z
1/2-x,1/2+y,-z
1/2-x,1/2-y,-z
1/2+x,1/2-y,z
loop_
_atom_site_type_symbol
_atom_site_label
_atom_site_fract_x
_atom_site_fract_y
_atom_site_fract_z
Si Si1 0.822217 0.828816 0.572218
Si Si2 0.308103 0.155632 0.960808
Si Si3 0.079051 0.833568 0.479026
Si Si4 0.308103 0.844368 0.155399
Si Si5 0.426739 0.667803 0.022057
Si Si6 0.073261 0.167803 0.668578
Si Si7 0.920948 0.166433 0.820923
O O1 0.750000 0.750000 0.500000
O O2 0.864858 0.774166 0.531448
O O3 0.864858 0.774166 0.698269
O O4 0.811232 0.000000 0.561232
O O5 0.250000 0.250000 0.855348
O O6 0.314371 0.000000 0.921760
O O7 0.285366 0.130224 0.035366
O O8 0.378597 0.239904 0.033563
O O9 0.097096 0.797216 0.595089
O O10 0.002603 0.777164 0.385956
O O11 0.075438 0.000000 0.461160
O O12 0.378597 0.760097 0.223631
O O13 0.314371 0.000000 0.206983
O O14 0.419083 0.500000 0.033333
O O15 0.502603 0.722834 0.119252
O O16 0.402905 0.702789 0.900898
O O17 0.080917 0.000000 0.695169
O O18 0.924560 0.000000 0.810287
#
# Coordination Sequence:
#
# PCOD8100800 Si02
#       7
#     8   8   8   8   8   8   8
#     4  10  20  36  54  76 107 144 179 216 261 314
#     4  10  21  35  50  74 106 138 172 212 258 313
#     4   8  17  33  54  79 106 135 174 216 261 317
#     4  10  21  35  50  74 106 138 172 212 258 313
#     4   9  17  33  56  80 103 134 175 219 263 314
#     4   9  17  33  56  80 103 134 175 219 263 314
#     4   8  17  33  54  79 106 135 174 216 261 317
#
# _framework density 19.437313
#
# number of rings (size 3 to 8) (size 9 to 14) (size 15 to 20)
#    0.000    2.857    0.000    2.571    2.000    2.857 
#    0.000    8.571    0.000    0.000    0.000    0.000 
#    0.000    0.000    0.000    0.000    0.000    0.000 
#
# Total GULP energy -346918.327303 kJ/mol
# GULP energy per Si atom -12389.940261 kJ/mol
# Density = 1.939307 g / cm^3
# Si number density = 19.437313 Si / 1000 Ang^3
#
#
#
# Elastic Constant Matrix: (Units=GPa)
#
#
# Indices 1 2 3 4 5 6 
#
# 1 105.6737 39.4681 46.2758 0.0000 20.5808 0.0000
# 2 39.4681 91.6422 33.9965 0.0000 18.7560 0.0000
# 3 46.2758 33.9965 93.9633 0.0000 19.5621 0.0000
# 4 0.0000 0.0000 0.0000 22.0271 0.0000 8.3729
# 5 20.5808 18.7560 19.5621 0.0000 30.1894 0.0000
# 6 0.0000 0.0000 0.0000 8.3729 0.0000 24.4700
#
#
#
# Elastic Compliance Matrix: (Units=1/GPa)
#
#
# Indices 1 2 3 4 5 6 
#
# 1 0.013512 -0.003251 -0.004602 0.000000 -0.004210 0.000000
# 2 -0.003251 0.014274 -0.002518 0.000000 -0.005020 0.000000
# 3 -0.004602 -0.002518 0.014844 0.000000 -0.004916 0.000000
# 4 0.000000 0.000000 0.000000 0.052186 0.000000 -0.017857
# 5 -0.004210 -0.005020 -0.004916 0.000000 0.042299 0.000000
# 6 0.000000 0.000000 0.000000 -0.017857 0.000000 0.046976
#
#
# Mechanical properties :
#
#
# Convention : Reuss Voigt Hill
#
# Bulk Modulus (GPa) = 45.68775 58.97332 52.33054
# Shear Modulus (GPa) = 23.57054 26.77321 25.17188
#
# Velocity S-wave (km/s) = 3.48608 3.71538 3.60255
# Velocity P-wave (km/s) = 6.30554 6.98652 6.65475
#
# Compressibility (1/GPa) = 0.02188771
#
# Stress axis : x y z
#
# Youngs Moduli (GPa) = 74.00585 70.05940 67.36895
#
# Poissons Ratio (x) = 0.22773 0.31004
# Poissons Ratio (y) = 0.24056 0.16965
# Poissons Ratio (z) = 0.34059 0.17643
#
# Static dielectric constant tensor:
#      x y z
#    x 3.704590 0.000000 -0.055010 
#    y 0.000000 3.416420 0.000000 
#    z -0.055010 0.000000 3.720690 
# 
# 
# High freq. dielectric constant tensor:
#      x y z
#    x 1.753970 0.000000 0.012640 
#    y 0.000000 1.725880 0.000000 
#    z 0.012640 0.000000 1.750280 
# 
# From -- ./inp_files/291948.got.cif
#   From: 2010.06.25/outbox.cif.g09.slc.cpg/sg12_146_cif.got.tgz:291948.got - 2010.06.28 00:19:55.
