data_PCOD8100015
_publ_section_title
;
Structure prediction by ZEFSAII (Michael W. Deem and Ramdas Pophale) SiO2 
 PCOD8100015
Probable space group: C 2/M
;
_chemical_formula_sum "Si O2"
_cell_formula_units_Z 64
_cell_length_a 20.329408
_cell_length_b 8.726404
_cell_length_c 23.156031
_cell_angle_alpha 90.000000
_cell_angle_beta 128.209464
_cell_angle_gamma 90.000000
_cell_volume 3227.833885
_symmetry_space_group_name_H-M "C 2/M"
_symmetry_group_IT_number 12
_symmetry_cell_setting 'monoclinic'
loop_
_space_group_symop_operation_xyz
x,y,z
-x,y,-z
-x,-y,-z
x,-y,z
1/2+x,1/2+y,z
1/2-x,1/2+y,-z
1/2-x,1/2-y,-z
1/2+x,1/2-y,z
loop_
_atom_site_type_symbol
_atom_site_label
_atom_site_fract_x
_atom_site_fract_y
_atom_site_fract_z
Si Si1 0.904529 0.173784 0.231818
Si Si2 0.044538 0.680816 0.944070
Si Si3 0.832355 0.822114 0.072077
Si Si4 0.077744 0.320412 0.339628
Si Si5 0.763788 0.179501 0.240785
Si Si6 0.736803 0.820143 0.354836
Si Si7 0.884918 0.179678 0.905596
Si Si8 0.330146 0.679312 0.514153
O O1 0.837422 0.201622 0.143827
O O2 0.857241 0.206326 0.266672
O O3 0.985318 0.280247 0.267516
O O4 0.937387 0.000000 0.247625
O O5 0.029261 0.500000 0.935945
O O6 0.104781 0.727340 0.029489
O O7 0.086846 0.734139 0.908125
O O8 0.956158 0.767028 0.899655
O O9 0.834659 0.000000 0.056032
O O10 0.750000 0.750000 0.000000
O O11 0.088126 0.500000 0.349494
O O12 0.149769 0.254080 0.335106
O O13 0.088977 0.253117 0.410952
O O14 0.756634 0.245490 0.302043
O O15 0.703948 0.281266 0.169074
O O16 0.739491 0.000000 0.223501
O O17 0.818091 0.783153 0.439352
O O18 0.725016 0.000000 0.342698
O O19 0.892848 0.000000 0.922667
O O20 0.333362 0.500000 0.526772
O O21 0.250000 0.750000 0.500000
#
# Coordination Sequence:
#
# PCOD8100015 Si02
#       8
#     8   8   8   8   8   8   8   8
#     4  10  23  39  57  82 115 152 190 237 289 343
#     4  11  22  38  59  82 107 147 194 237 288 344
#     4  11  23  39  58  84 115 150 195 241 292 350
#     4  10  20  35  57  85 115 149 191 238 286 342
#     4  10  20  38  59  81 113 151 193 234 284 350
#     4   8  17  33  57  86 111 144 191 235 277 337
#     4  11  22  37  57  84 115 145 182 239 295 345
#     4   9  16  31  55  84 115 148 187 234 286 338
#
# _framework density 19.827538000000001
#
# number of rings (size 3 to 8) (size 9 to 14) (size 15 to 20)
#    0.000    2.000    0.000    5.625    1.750    2.500 
#    0.000    3.750    0.000    3.750    0.000    0.000 
#    0.000    0.000    0.000    0.000    0.000    0.000 
#
# Total GULP energy -396692.080356 kJ/mol
# GULP energy per Si atom -12396.627511 kJ/mol
# Density = 1.978241 g / cm^3
# Si number density = 19.827538 Si / 1000 Ang^3
#
#
#
# Elastic Constant Matrix: (Units=GPa)
#
#
# Indices 1 2 3 4 5 6 
#
# 1 94.5056 20.7843 38.6532 0.0000 -10.8515 0.0000
# 2 20.7843 74.4502 26.2224 0.0000 -0.8725 0.0000
# 3 38.6532 26.2224 87.4156 0.0000 2.9862 0.0000
# 4 0.0000 0.0000 0.0000 32.9385 0.0000 5.7293
# 5 -10.8515 -0.8725 2.9862 0.0000 23.8066 0.0000
# 6 0.0000 0.0000 0.0000 5.7293 0.0000 26.6116
#
#
#
# Elastic Compliance Matrix: (Units=1/GPa)
#
#
# Indices 1 2 3 4 5 6 
#
# 1 0.014259 -0.001777 -0.006017 0.000000 0.007189 0.000000
# 2 -0.001777 0.015270 -0.003803 0.000000 0.000227 0.000000
# 3 -0.006017 -0.003803 0.015406 0.000000 -0.004815 0.000000
# 4 0.000000 0.000000 0.000000 0.031541 0.000000 -0.006790
# 5 0.007189 0.000227 -0.004815 0.000000 0.045894 0.000000
# 6 0.000000 0.000000 0.000000 -0.006790 0.000000 0.039040
#
#
# Mechanical properties :
#
#
# Convention : Reuss Voigt Hill
#
# Bulk Modulus (GPa) = 45.99771 47.52124 46.75947
# Shear Modulus (GPa) = 26.06209 28.05210 27.05710
#
# Velocity S-wave (km/s) = 3.62945 3.76547 3.69809
# Velocity P-wave (km/s) = 6.38852 6.55167 6.47061
#
# Compressibility (1/GPa) = 0.02174021
#
# Stress axis : x y z
#
# Youngs Moduli (GPa) = 70.13194 65.48852 64.91171
#
# Poissons Ratio (x) = 0.11637 0.39060
# Poissons Ratio (y) = 0.12462 0.24683
# Poissons Ratio (z) = 0.42202 0.24902
#
# Static dielectric constant tensor:
#      x y z
#    x 3.619040 0.000000 -0.273920 
#    y 0.000000 3.596400 0.000000 
#    z -0.273920 0.000000 3.896630 
# 
# 
# High freq. dielectric constant tensor:
#      x y z
#    x 1.760350 0.000000 -0.006340 
#    y 0.000000 1.766340 0.000000 
#    z -0.006340 0.000000 1.775000 
# 
# From -- ./inp_files/346135.got.cif
#   From: 2010.06.25/outbox.cif.g09.slc.cpg/sg12_174_cif.got.tgz:346135.got - 2010.06.28 00:19:55.
