data_PCOD8100365
_publ_section_title
;
Structure prediction by ZEFSAII (Michael W. Deem and Ramdas Pophale) SiO2 
 PCOD8100365
Probable space group: C 2/M
;
_chemical_formula_sum "Si O2"
_cell_formula_units_Z 64
_cell_length_a 11.336463
_cell_length_b 14.386231
_cell_length_c 29.356145
_cell_angle_alpha 90.000000
_cell_angle_beta 38.437727
_cell_angle_gamma 90.000000
_cell_volume 2976.316563
_symmetry_space_group_name_H-M "C 2/M"
_symmetry_group_IT_number 12
_symmetry_cell_setting 'monoclinic'
loop_
_space_group_symop_operation_xyz
x,y,z
-x,y,-z
-x,-y,-z
x,-y,z
1/2+x,1/2+y,z
1/2-x,1/2+y,-z
1/2-x,1/2-y,-z
1/2+x,1/2-y,z
loop_
_atom_site_type_symbol
_atom_site_label
_atom_site_fract_x
_atom_site_fract_y
_atom_site_fract_z
Si Si1 0.895605 0.898580 0.865960
Si Si2 0.411400 0.769754 0.655407
Si Si3 0.604657 0.809228 0.012686
Si Si4 0.560402 0.896002 0.431775
Si Si5 0.623108 0.108576 0.838446
Si Si6 0.180304 0.605058 0.233682
Si Si7 0.006330 0.280948 0.207685
Si Si8 0.016082 0.897488 0.676576
O O1 0.885036 0.816723 0.832027
O O2 0.094146 0.891097 0.832147
O O3 0.878641 0.000000 0.846369
O O4 0.730881 0.891507 0.953191
O O5 0.514459 0.820870 0.581922
O O6 0.416206 0.841864 0.695424
O O7 0.530362 0.677249 0.631451
O O8 0.198559 0.736821 0.707810
O O9 0.439420 0.856174 0.092871
O O10 0.500000 0.758647 0.000000
O O11 0.750000 0.750000 0.000000
O O12 0.500000 0.862139 0.500000
O O13 0.787021 0.898448 0.355998
O O14 0.477762 0.000000 0.447874
O O15 0.506207 0.167056 0.836856
O O16 0.847343 0.129903 0.762476
O O17 0.577425 0.000000 0.846444
O O18 0.102453 0.500000 0.257256
O O19 0.130868 0.654784 0.201894
O O20 0.977860 0.000000 0.666914
#
# Coordination Sequence:
#
# PCOD8100365 Si02
#       8
#     8   8   8   8   8   8   8   8
#     4  10  23  40  60  87 118 155 206 261 312 370
#     4  10  20  35  58  88 121 160 203 249 298 363
#     4  12  27  44  63  89 122 165 211 267 322 381
#     4  10  21  38  61  89 121 157 197 245 302 364
#     4  10  21  40  64  90 119 160 208 258 312 372
#     4  10  21  37  60  89 122 160 203 256 313 370
#     4  10  20  37  61  89 125 160 205 252 314 373
#     4   9  20  39  61  87 119 155 198 246 300 362
#
# _framework density 21.503088000000002
#
# number of rings (size 3 to 8) (size 9 to 14) (size 15 to 20)
#    0.000    1.875    1.250    1.875    1.750    4.500 
#    0.000    5.625    0.000    4.125    0.000    0.000 
#    0.000    0.000    0.000    0.000    0.000    0.000 
#
# Total GULP energy -396680.312878 kJ/mol
# GULP energy per Si atom -12396.259777 kJ/mol
# Density = 2.145415 g / cm^3
# Si number density = 21.503088 Si / 1000 Ang^3
#
#
#
# Elastic Constant Matrix: (Units=GPa)
#
#
# Indices 1 2 3 4 5 6 
#
# 1 83.8173 50.1392 26.2964 0.0003 20.7605 -0.0003
# 2 50.1392 140.7862 26.9884 0.0000 18.7172 -0.0008
# 3 26.2964 26.9884 60.1459 -0.0022 21.5191 -0.0038
# 4 0.0003 0.0000 -0.0022 25.9522 -0.0006 6.3553
# 5 20.7605 18.7172 21.5191 -0.0006 31.8894 0.0001
# 6 -0.0003 -0.0008 -0.0038 6.3553 0.0001 30.5290
#
#
#
# Elastic Compliance Matrix: (Units=1/GPa)
#
#
# Indices 1 2 3 4 5 6 
#
# 1 0.017326 -0.004714 -0.003182 -0.000001 -0.006365 0.000000
# 2 -0.004714 0.009265 -0.001646 0.000000 -0.001258 0.000000
# 3 -0.003182 -0.001646 0.023293 0.000001 -0.012680 0.000003
# 4 -0.000001 0.000000 0.000001 0.040602 0.000000 -0.008452
# 5 -0.006365 -0.001258 -0.012680 0.000000 0.044797 -0.000002
# 6 0.000000 0.000000 0.000003 -0.008452 -0.000002 0.034515
#
#
# Mechanical properties :
#
#
# Convention : Reuss Voigt Hill
#
# Bulk Modulus (GPa) = 32.46936 54.62191 43.54564
# Shear Modulus (GPa) = 25.10687 29.76249 27.43468
#
# Velocity S-wave (km/s) = 3.42071 3.72439 3.57578
# Velocity P-wave (km/s) = 5.54386 6.62962 6.11090
#
# Compressibility (1/GPa) = 0.03079826
#
# Stress axis : x y z
#
# Youngs Moduli (GPa) = 57.71817 107.93756 42.93135
#
# Poissons Ratio (x) = 0.50882 0.13663
# Poissons Ratio (y) = 0.27209 0.07067
# Poissons Ratio (z) = 0.18368 0.17767
#
# Static dielectric constant tensor:
#      x y z
#    x 3.829550 0.000000 -0.027070 
#    y 0.000000 4.277080 0.000000 
#    z -0.027070 0.000000 3.738750 
# 
# 
# High freq. dielectric constant tensor:
#      x y z
#    x 1.840290 0.000000 0.000980 
#    y 0.000000 1.853320 0.000000 
#    z 0.000980 0.000000 1.830450 
# 
# From -- ./inp_files/374094.got.cif
#   From: 2010.06.25/outbox.cif.g09.slc.cpg/sg12_188_cif.got.tgz:374094.got - 2010.06.28 00:19:55.
