data_PCOD8100495
_publ_section_title
;
Structure prediction by ZEFSAII (Michael W. Deem and Ramdas Pophale) SiO2 
 PCOD8100495
Probable space group: C 2/M
;
_chemical_formula_sum "Si O2"
_cell_formula_units_Z 40
_cell_length_a 19.216622
_cell_length_b 17.312461
_cell_length_c 14.852302
_cell_angle_alpha 90.000000
_cell_angle_beta 157.074293
_cell_angle_gamma 90.000000
_cell_volume 1924.768880
_symmetry_space_group_name_H-M "C 2/M"
_symmetry_group_IT_number 12
_symmetry_cell_setting 'monoclinic'
loop_
_space_group_symop_operation_xyz
x,y,z
-x,y,-z
-x,-y,-z
x,-y,z
1/2+x,1/2+y,z
1/2-x,1/2+y,-z
1/2-x,1/2-y,-z
1/2+x,1/2-y,z
loop_
_atom_site_type_symbol
_atom_site_label
_atom_site_fract_x
_atom_site_fract_y
_atom_site_fract_z
Si Si1 0.988973 0.649899 0.267766
Si Si2 0.603529 0.090673 0.215126
Si Si3 0.106462 0.195026 0.377527
Si Si4 0.300788 0.411909 0.754754
Si Si5 0.188527 0.912486 0.035961
O O1 0.989223 0.621469 0.164321
O O2 0.968622 0.742921 0.256905
O O3 0.182125 0.631212 0.540343
O O4 0.826309 0.608333 0.122069
O O5 0.789553 0.138602 0.429546
O O6 0.643825 0.000000 0.274172
O O7 0.500000 0.108011 0.000000
O O8 0.250000 0.250000 0.500000
O O9 0.988811 0.140126 0.173485
O O10 0.312999 0.500000 0.736666
O O11 0.500000 0.376500 0.000000
O O12 0.213868 0.404653 0.750973
O O13 0.124630 0.000000 0.944050
#
# Coordination Sequence:
#
# PCOD8100495 Si02
#       5
#     8   8   8   8   8
#     4  11  22  37  58  87 121 150 187 243 295 341
#     4  10  21  39  61  82 110 154 202 240 279 338
#     4  10  22  38  59  85 115 152 193 238 290 345
#     4  10  20  35  59  88 116 150 189 230 284 350
#     4  11  22  38  61  87 117 151 189 237 294 350
#
# _framework density 20.781714999999998
#
# number of rings (size 3 to 8) (size 9 to 14) (size 15 to 20)
#    0.000    1.600    0.000    6.000    0.000    7.200 
#    0.000    3.000    0.000    3.600    0.000    0.000 
#    0.000    0.000    0.000    0.000    0.000    0.000 
#
# Total GULP energy -247852.527322 kJ/mol
# GULP energy per Si atom -12392.626366 kJ/mol
# Density = 2.073442 g / cm^3
# Si number density = 20.781715 Si / 1000 Ang^3
#
#
#
# Elastic Constant Matrix: (Units=GPa)
#
#
# Indices 1 2 3 4 5 6 
#
# 1 103.5359 33.1884 34.8455 0.0000 -12.5932 0.0000
# 2 33.1884 138.5393 47.8348 0.0000 -10.6005 0.0000
# 3 34.8455 47.8348 98.4725 0.0000 -15.0126 0.0000
# 4 0.0000 0.0000 0.0000 41.1500 0.0000 9.6764
# 5 -12.5932 -10.6005 -15.0126 0.0000 32.9865 0.0000
# 6 0.0000 0.0000 0.0000 9.6764 0.0000 12.8063
#
#
#
# Elastic Compliance Matrix: (Units=1/GPa)
#
#
# Indices 1 2 3 4 5 6 
#
# 1 0.011442 -0.001541 -0.002912 0.000000 0.002548 0.000000
# 2 -0.001541 0.008907 -0.003691 0.000000 0.000594 0.000000
# 3 -0.002912 -0.003691 0.013570 0.000000 0.003878 0.000000
# 4 0.000000 0.000000 0.000000 0.029552 0.000000 -0.022329
# 5 0.002548 0.000594 0.003878 0.000000 0.033244 0.000000
# 6 0.000000 0.000000 0.000000 -0.022329 0.000000 0.094959
#
#
# Mechanical properties :
#
#
# Convention : Reuss Voigt Hill
#
# Bulk Modulus (GPa) = 56.71621 63.58724 60.15172
# Shear Modulus (GPa) = 23.38209 32.36716 27.87462
#
# Velocity S-wave (km/s) = 3.35793 3.95078 3.66636
# Velocity P-wave (km/s) = 6.51037 7.17465 6.85057
#
# Compressibility (1/GPa) = 0.01763164
#
# Stress axis : x y z
#
# Youngs Moduli (GPa) = 87.39466 112.26925 73.69307
#
# Poissons Ratio (x) = 0.17297 0.21461
# Poissons Ratio (y) = 0.13465 0.27200
# Poissons Ratio (z) = 0.25451 0.41439
#
# Static dielectric constant tensor:
#      x y z
#    x 3.742910 0.000000 0.005180 
#    y 0.000000 4.327000 0.000000 
#    z 0.005180 0.000000 3.734660 
# 
# 
# High freq. dielectric constant tensor:
#      x y z
#    x 1.801730 0.000000 -0.001350 
#    y 0.000000 1.831550 0.000000 
#    z -0.001350 0.000000 1.809640 
# 
# From -- ./inp_files/46943.got.cif
#   From: 2010.06.25/outbox.cif.g09.slc.cpg/sg12_24_cif.got.tgz:46943.got - 2010.06.28 00:19:55.
