data_PCOD8100195
_publ_section_title
;
Structure prediction by ZEFSAII (Michael W. Deem and Ramdas Pophale) SiO2 
 PCOD8100195
Probable space group: C 2/M
;
_chemical_formula_sum "Si O2"
_cell_formula_units_Z 64
_cell_length_a 30.496585
_cell_length_b 9.118829
_cell_length_c 11.118582
_cell_angle_alpha 90.000000
_cell_angle_beta 93.811241
_cell_angle_gamma 90.000000
_cell_volume 3085.163296
_symmetry_space_group_name_H-M "C 2/M"
_symmetry_group_IT_number 12
_symmetry_cell_setting 'monoclinic'
loop_
_space_group_symop_operation_xyz
x,y,z
-x,y,-z
-x,-y,-z
x,-y,z
1/2+x,1/2+y,z
1/2-x,1/2+y,-z
1/2-x,1/2-y,-z
1/2+x,1/2-y,z
loop_
_atom_site_type_symbol
_atom_site_label
_atom_site_fract_x
_atom_site_fract_y
_atom_site_fract_z
Si Si1 0.384385 0.169420 0.131163
Si Si2 0.182936 0.839675 0.739147
Si Si3 0.619969 0.328913 0.347167
Si Si4 0.354606 0.663627 0.901756
Si Si5 0.794676 0.838806 0.522106
Si Si6 0.524174 0.674700 0.380107
Si Si7 0.986271 0.671952 0.133004
Si Si8 0.755041 0.165025 0.878668
O O1 0.362334 0.261196 0.233354
O O2 0.435167 0.206816 0.134296
O O3 0.375378 0.000000 0.152640
O O4 0.360948 0.214626 0.003379
O O5 0.181172 0.862329 0.598755
O O6 0.225575 0.742827 0.774041
O O7 0.186130 0.000000 0.804273
O O8 0.626461 0.500000 0.374350
O O9 0.613491 0.299021 0.203717
O O10 0.666280 0.254691 0.397053
O O11 0.575299 0.275402 0.404423
O O12 0.364769 0.500000 0.954117
O O13 0.304965 0.669511 0.842678
O O14 0.750000 0.750000 0.500000
O O15 0.782514 0.000000 0.574235
O O16 0.500000 0.726618 0.500000
O O17 0.519651 0.500000 0.363971
O O18 0.507364 0.746149 0.251935
O O19 0.997409 0.500000 0.146858
O O20 0.000000 0.726926 0.000000
O O21 0.738048 0.000000 0.893652
O O22 0.750000 0.250000 0.000000
#
# Coordination Sequence:
#
# PCOD8100195 Si02
#       8
#     8   8   8   8   8   8   8   8
#     4  11  23  37  58  86 117 155 194 244 302 359
#     4  11  23  37  57  85 117 156 199 243 298 357
#     4   9  19  38  61  87 119 155 196 244 298 349
#     4  10  20  35  58  84 114 153 196 244 297 354
#     4  10  22  40  62  86 118 158 199 247 296 352
#     4  10  22  39  65  96 124 161 208 254 307 372
#     4  10  23  43  64  89 124 162 203 254 316 374
#     4  11  21  34  54  81 115 156 197 243 296 353
#
# _framework density 20.744446
#
# number of rings (size 3 to 8) (size 9 to 14) (size 15 to 20)
#    0.000    1.750    1.250    2.625    1.750    4.000 
#    0.000    1.250    0.000    0.000    0.000    0.000 
#    0.000    0.000    0.000    0.000    0.000    0.000 
#
# Total GULP energy -396550.015428 kJ/mol
# GULP energy per Si atom -12392.187982 kJ/mol
# Density = 2.069723 g / cm^3
# Si number density = 20.744446 Si / 1000 Ang^3
#
#
#
# Elastic Constant Matrix: (Units=GPa)
#
#
# Indices 1 2 3 4 5 6 
#
# 1 129.2127 45.1249 38.6348 0.0000 -8.9739 0.0000
# 2 45.1249 90.6715 29.4122 0.0000 -1.2985 0.0000
# 3 38.6348 29.4122 102.1638 0.0000 -8.5295 0.0000
# 4 0.0000 0.0000 0.0000 25.6368 0.0000 3.0965
# 5 -8.9739 -1.2985 -8.5295 0.0000 35.0873 0.0000
# 6 0.0000 0.0000 0.0000 3.0965 0.0000 25.0167
#
#
#
# Elastic Compliance Matrix: (Units=1/GPa)
#
#
# Indices 1 2 3 4 5 6 
#
# 1 0.010059 -0.004187 -0.002447 0.000000 0.001823 0.000000
# 2 -0.004187 0.013913 -0.002520 0.000000 -0.001168 0.000000
# 3 -0.002447 -0.002520 0.011615 0.000000 0.002104 0.000000
# 4 0.000000 0.000000 0.000000 0.039598 0.000000 -0.004901
# 5 0.001823 -0.001168 0.002104 0.000000 0.029435 0.000000
# 6 0.000000 0.000000 0.000000 -0.004901 0.000000 0.040580
#
#
# Mechanical properties :
#
#
# Convention : Reuss Voigt Hill
#
# Bulk Modulus (GPa) = 57.86699 60.93243 59.39971
# Shear Modulus (GPa) = 29.53920 31.07323 30.30622
#
# Velocity S-wave (km/s) = 3.77763 3.87448 3.82636
# Velocity P-wave (km/s) = 6.85442 7.03222 6.94389
#
# Compressibility (1/GPa) = 0.01728101
#
# Stress axis : x y z
#
# Youngs Moduli (GPa) = 99.40936 71.87512 86.09883
#
# Poissons Ratio (x) = 0.30091 0.21065
# Poissons Ratio (y) = 0.41618 0.21695
# Poissons Ratio (z) = 0.24322 0.18111
#
# Static dielectric constant tensor:
#      x y z
#    x 14.200500 0.000000 4.400410 
#    y 0.000000 3.132570 0.000000 
#    z 4.400410 0.000000 5.804120 
# 
# 
# High freq. dielectric constant tensor:
#      x y z
#    x 1.823660 0.000000 -0.009410 
#    y 0.000000 1.792580 0.000000 
#    z -0.009410 0.000000 1.818510 
# 
# From -- ./inp_files/187470.got.cif
#   From: 2010.06.25/outbox.cif.g09.slc.cpg/sg12_94_cif.got.tgz:187470.got - 2010.06.28 00:19:55.
