data_PCOD8100960
_publ_section_title
;
Structure prediction by ZEFSAII (Michael W. Deem and Ramdas Pophale) SiO2 
 PCOD8100960
Probable space group: C 2/M
;
_chemical_formula_sum "Si O2"
_cell_formula_units_Z 48
_cell_length_a 25.318660
_cell_length_b 20.663054
_cell_length_c 13.664710
_cell_angle_alpha 90.000000
_cell_angle_beta 158.744239
_cell_angle_gamma 90.000000
_cell_volume 2591.681879
_symmetry_space_group_name_H-M "C 2/M"
_symmetry_group_IT_number 12
_symmetry_cell_setting 'monoclinic'
loop_
_space_group_symop_operation_xyz
x,y,z
-x,y,-z
-x,-y,-z
x,-y,z
1/2+x,1/2+y,z
1/2-x,1/2+y,-z
1/2-x,1/2-y,-z
1/2+x,1/2-y,z
loop_
_atom_site_type_symbol
_atom_site_label
_atom_site_fract_x
_atom_site_fract_y
_atom_site_fract_z
Si Si1 0.168008 0.185193 0.082540
Si Si2 0.648297 0.729185 0.458361
Si Si3 0.948316 0.429197 0.298127
Si Si4 0.214162 0.572944 0.608298
Si Si5 0.357586 0.152403 0.694766
Si Si6 0.661399 0.189355 0.810282
O O1 0.252631 0.243935 0.282512
O O2 0.160106 0.122641 0.140037
O O3 0.256610 0.161098 0.141948
O O4 0.007821 0.206040 0.771427
O O5 0.613307 0.783877 0.318606
O O6 0.726260 0.667723 0.542778
O O7 0.874739 0.500000 0.152200
O O8 0.840191 0.366991 0.107375
O O9 0.000000 0.426566 0.500000
O O10 0.073748 0.418466 0.435217
O O11 0.274207 0.500000 0.716337
O O12 0.176372 0.590564 0.431363
O O13 0.500000 0.133588 0.000000
O O14 0.500000 0.211652 0.500000
O O15 0.750000 0.250000 0.000000
#
# Coordination Sequence:
#
# PCOD8100960 Si02
#       6
#     8   8   8   8   8   8
#     4  11  20  35  56  82 115 144 188 229 282 335
#     4  10  21  34  55  82 110 150 181 227 284 339
#     4   9  17  34  55  79 106 145 189 227 273 330
#     4  10  21  35  57  82 108 146 194 235 271 330
#     4  10  20  36  56  78 112 148 188 226 280 338
#     4  11  21  33  54  87 116 145 181 237 282 325
#
# _framework density 18.520792
#
# number of rings (size 3 to 8) (size 9 to 14) (size 15 to 20)
#    0.000    1.833    5.000    1.000    2.333    0.333 
#    0.000    1.667    0.000    0.500    0.000    1.167 
#    0.000    0.000    0.000    0.000    0.000    0.000 
#
# Total GULP energy -297439.322915 kJ/mol
# GULP energy per Si atom -12393.305121 kJ/mol
# Density = 1.847864 g / cm^3
# Si number density = 18.520792 Si / 1000 Ang^3
#
#
#
# Elastic Constant Matrix: (Units=GPa)
#
#
# Indices 1 2 3 4 5 6 
#
# 1 54.0515 18.7264 14.9302 0.0000 8.9818 0.0000
# 2 18.7264 126.8191 39.7551 0.0000 4.9532 0.0000
# 3 14.9302 39.7551 86.1154 0.0000 12.1068 0.0000
# 4 0.0000 0.0000 0.0000 15.0856 0.0000 3.3688
# 5 8.9818 4.9532 12.1068 0.0000 25.2717 0.0000
# 6 0.0000 0.0000 0.0000 3.3688 0.0000 21.1588
#
#
#
# Elastic Compliance Matrix: (Units=1/GPa)
#
#
# Indices 1 2 3 4 5 6 
#
# 1 0.020781 -0.002303 -0.001678 0.000000 -0.006131 0.000000
# 2 -0.002303 0.009476 -0.004106 0.000000 0.000928 0.000000
# 3 -0.001678 -0.004106 0.014584 0.000000 -0.005586 0.000000
# 4 0.000000 0.000000 0.000000 0.068732 0.000000 -0.010943
# 5 -0.006131 0.000928 -0.005586 0.000000 0.044243 0.000000
# 6 0.000000 0.000000 0.000000 -0.010943 0.000000 0.049004
#
#
# Mechanical properties :
#
#
# Convention : Reuss Voigt Hill
#
# Bulk Modulus (GPa) = 34.88265 45.97883 40.43074
# Shear Modulus (GPa) = 21.50078 25.20816 23.35447
#
# Velocity S-wave (km/s) = 3.41089 3.69328 3.55489
# Velocity P-wave (km/s) = 5.86408 6.56250 6.22310
#
# Compressibility (1/GPa) = 0.02866754
#
# Stress axis : x y z
#
# Youngs Moduli (GPa) = 48.12090 105.52770 68.56857
#
# Poissons Ratio (x) = 0.24305 0.11504
# Poissons Ratio (y) = 0.11083 0.28153
# Poissons Ratio (z) = 0.08073 0.43328
#
# Static dielectric constant tensor:
#      x y z
#    x 3.736760 0.000000 -0.032600 
#    y 0.000000 3.700940 0.000000 
#    z -0.032600 0.000000 3.143250 
# 
# 
# High freq. dielectric constant tensor:
#      x y z
#    x 1.728400 0.000000 0.007080 
#    y 0.000000 1.715860 0.000000 
#    z 0.007080 0.000000 1.682650 
# 
# From -- ./inp_files/132599.got.cif
#   From: 2010.06.25/outbox.cif.g09.slc.cpg/sg12_67_cif.got.tgz:132599.got - 2010.06.28 00:19:55.
