data_PCOD8100883
_publ_section_title
;
Structure prediction by ZEFSAII (Michael W. Deem and Ramdas Pophale) SiO2 
 PCOD8100883
Probable space group: C 2/M
;
_chemical_formula_sum "Si O2"
_cell_formula_units_Z 40
_cell_length_a 15.906028
_cell_length_b 18.655975
_cell_length_c 13.496421
_cell_angle_alpha 90.000000
_cell_angle_beta 148.049975
_cell_angle_gamma 90.000000
_cell_volume 2119.342838
_symmetry_space_group_name_H-M "C 2/M"
_symmetry_group_IT_number 12
_symmetry_cell_setting 'monoclinic'
loop_
_space_group_symop_operation_xyz
x,y,z
-x,y,-z
-x,-y,-z
x,-y,z
1/2+x,1/2+y,z
1/2-x,1/2+y,-z
1/2-x,1/2-y,-z
1/2+x,1/2-y,z
loop_
_atom_site_type_symbol
_atom_site_label
_atom_site_fract_x
_atom_site_fract_y
_atom_site_fract_z
Si Si1 0.936007 0.219851 0.331014
Si Si2 0.562302 0.000000 0.451918
Si Si3 0.436007 0.219851 0.041001
Si Si4 0.563289 0.355054 0.274457
Si Si5 0.063289 0.355054 0.352122
Si Si6 0.062302 0.000000 0.172685
O O1 0.000000 0.191929 0.500000
O O2 0.972229 0.158928 0.286184
O O3 0.025972 0.293151 0.393889
O O4 0.750000 0.235315 0.149057
O O5 0.500000 0.000000 0.500000
O O6 0.499943 0.069993 0.331972
O O7 0.750000 0.000000 0.644130
O O8 0.525972 0.293151 0.158056
O O9 0.472229 0.158928 0.158273
O O10 0.500000 0.191930 0.000000
O O11 0.750000 0.356612 0.482496
O O12 0.499943 0.430007 0.167914
O O13 0.000000 0.000000 0.000000
#
# Coordination Sequence:
#
# PCOD8100883 Si02
#       6
#     8   4   8   8   8   4
#     4  11  21  35  55  80 106 140 179 219 263 312
#     4  10  22  36  55  80 109 140 173 212 262 314
#     4  11  21  35  55  80 106 140 179 219 263 312
#     4  10  20  36  55  80 109 139 175 219 262 312
#     4  10  20  36  55  80 109 139 175 219 262 312
#     4  10  22  36  55  80 109 140 173 212 262 314
#
# _framework density 18.873774000000001
#
# number of rings (size 3 to 8) (size 9 to 14) (size 15 to 20)
#    0.000    1.600    0.000    8.400    0.000    6.400 
#    0.000    1.000    0.000    0.000    0.000    0.000 
#    0.000    0.000    0.000    0.000    0.000    0.000 
#
# Total GULP energy -248089.015182 kJ/mol
# GULP energy per Si atom -12404.450759 kJ/mol
# Density = 1.883082 g / cm^3
# Si number density = 18.873774 Si / 1000 Ang^3
#
#
#
# Elastic Constant Matrix: (Units=GPa)
#
#
# Indices 1 2 3 4 5 6 
#
# 1 134.8197 61.3949 22.8014 0.0000 -20.4199 0.0000
# 2 61.3949 140.4058 20.3128 0.0000 -21.5713 0.0000
# 3 22.8014 20.3128 65.9956 0.0000 -15.7180 0.0000
# 4 0.0000 0.0000 0.0000 20.1785 0.0000 1.2313
# 5 -20.4199 -21.5713 -15.7180 0.0000 39.0333 0.0000
# 6 0.0000 0.0000 0.0000 1.2313 0.0000 17.8335
#
#
#
# Elastic Compliance Matrix: (Units=1/GPa)
#
#
# Indices 1 2 3 4 5 6 
#
# 1 0.009721 -0.003640 -0.001666 0.000000 0.002403 0.000000
# 2 -0.003640 0.009286 -0.000920 0.000000 0.002857 0.000000
# 3 -0.001666 -0.000920 0.017346 0.000000 0.005605 0.000000
# 4 0.000000 0.000000 0.000000 0.049767 0.000000 -0.003436
# 5 0.002403 0.002857 0.005605 0.000000 0.030712 0.000000
# 6 0.000000 0.000000 0.000000 -0.003436 0.000000 0.056312
#
#
# Mechanical properties :
#
#
# Convention : Reuss Voigt Hill
#
# Bulk Modulus (GPa) = 41.83992 61.13771 51.48882
# Shear Modulus (GPa) = 25.83135 31.18985 28.51060
#
# Velocity S-wave (km/s) = 3.70352 4.06957 3.89085
# Velocity P-wave (km/s) = 6.36432 7.38547 6.89382
#
# Compressibility (1/GPa) = 0.02390062
#
# Stress axis : x y z
#
# Youngs Moduli (GPa) = 102.87260 107.68807 57.64960
#
# Poissons Ratio (x) = 0.39203 0.09603
# Poissons Ratio (y) = 0.37450 0.05304
# Poissons Ratio (z) = 0.17136 0.09907
#
# Static dielectric constant tensor:
#      x y z
#    x 3.613550 0.000000 -0.041490 
#    y 0.000000 3.576250 0.000000 
#    z -0.041490 0.000000 3.534540 
# 
# 
# High freq. dielectric constant tensor:
#      x y z
#    x 1.742870 0.000000 0.000450 
#    y 0.000000 1.719380 0.000000 
#    z 0.000450 0.000000 1.743730 
# 
# From -- ./inp_files/74990.got.cif
#   From: 2010.06.25/outbox.cif.g09.slc.cpg/sg12_38_cif.got.tgz:74990.got - 2010.06.28 00:19:55.
