data_PCOD8100460
_publ_section_title
;
Structure prediction by ZEFSAII (Michael W. Deem and Ramdas Pophale) SiO2 
 PCOD8100460
Probable space group: C 2/M
;
_chemical_formula_sum "Si O2"
_cell_formula_units_Z 64
_cell_length_a 17.833174
_cell_length_b 14.530730
_cell_length_c 15.239072
_cell_angle_alpha 90.000000
_cell_angle_beta 50.241502
_cell_angle_gamma 90.000000
_cell_volume 3035.694233
_symmetry_space_group_name_H-M "C 2/M"
_symmetry_group_IT_number 12
_symmetry_cell_setting 'monoclinic'
loop_
_space_group_symop_operation_xyz
x,y,z
-x,y,-z
-x,-y,-z
x,-y,z
1/2+x,1/2+y,z
1/2-x,1/2+y,-z
1/2-x,1/2-y,-z
1/2+x,1/2-y,z
loop_
_atom_site_type_symbol
_atom_site_label
_atom_site_fract_x
_atom_site_fract_y
_atom_site_fract_z
Si Si1 0.480790 0.755818 0.236041
Si Si2 0.613055 0.103026 0.214042
Si Si3 0.727221 0.390469 0.767849
Si Si4 0.404441 0.744832 0.023359
Si Si5 0.573254 0.399454 0.248636
Si Si6 0.737075 0.754612 0.614063
Si Si7 0.222548 0.396307 0.955873
Si Si8 0.613023 0.605183 0.410690
O O1 0.517659 0.836308 0.272124
O O2 0.481341 0.666962 0.300336
O O3 0.374320 0.785380 0.282463
O O4 0.555163 0.724441 0.104268
O O5 0.670064 0.125576 0.260440
O O6 0.574036 0.000000 0.243366
O O7 0.685669 0.123951 0.080530
O O8 0.703569 0.500000 0.775767
O O9 0.640060 0.342815 0.890144
O O10 0.744275 0.343615 0.659529
O O11 0.323815 0.825446 0.079327
O O12 0.500000 0.783739 0.000000
O O13 0.525645 0.500000 0.279474
O O14 0.661908 0.383383 0.114894
O O15 0.635315 0.386229 0.291463
O O16 0.750000 0.750000 0.500000
O O17 0.814090 0.828307 0.591987
O O18 0.196572 0.500000 0.943970
O O19 0.500000 0.635994 0.500000
O O20 0.626221 0.500000 0.435323
#
# Coordination Sequence:
#
# PCOD8100460 Si02
#       8
#     8   8   8   8   8   8   8   8
#     4  11  22  37  60  92 127 162 204 259 314 378
#     4   9  19  37  61  87 120 162 206 253 309 371
#     4  11  24  43  64  91 129 174 222 265 311 378
#     4  11  21  36  57  90 134 171 211 253 319 386
#     4  10  20  35  59  86 115 156 208 257 305 364
#     4  12  26  42  63  91 125 164 207 260 324 380
#     4   9  18  33  57  90 125 166 211 258 310 373
#     4  10  22  42  67  90 115 153 205 265 320 373
#
# _framework density 21.082491999999998
#
# number of rings (size 3 to 8) (size 9 to 14) (size 15 to 20)
#    0.000    1.625    1.250    3.750    0.000    5.500 
#    0.000    0.000    0.000    1.875    0.000    0.000 
#    0.000    0.000    0.000    0.000    0.000    0.000 
#
# Total GULP energy -396443.180103 kJ/mol
# GULP energy per Si atom -12388.849378 kJ/mol
# Density = 2.103451 g / cm^3
# Si number density = 21.082492 Si / 1000 Ang^3
#
#
#
# Elastic Constant Matrix: (Units=GPa)
#
#
# Indices 1 2 3 4 5 6 
#
# 1 125.0725 72.7296 37.0482 0.0000 -1.2447 0.0000
# 2 72.7296 126.5991 59.1201 0.0000 2.6822 0.0000
# 3 37.0482 59.1201 69.3973 0.0000 -3.4311 0.0000
# 4 0.0000 0.0000 0.0000 20.7287 0.0000 7.7765
# 5 -1.2447 2.6822 -3.4311 0.0000 24.6713 0.0000
# 6 0.0000 0.0000 0.0000 7.7765 0.0000 21.0358
#
#
#
# Elastic Compliance Matrix: (Units=1/GPa)
#
#
# Indices 1 2 3 4 5 6 
#
# 1 0.012075 -0.006611 -0.000754 0.000000 0.001223 0.000000
# 2 -0.006611 0.016961 -0.011104 0.000000 -0.003722 0.000000
# 3 -0.000754 -0.011104 0.024498 0.000000 0.004576 0.000000
# 4 0.000000 0.000000 0.000000 0.056010 0.000000 -0.020706
# 5 0.001223 -0.003722 0.004576 0.000000 0.041636 0.000000
# 6 0.000000 0.000000 0.000000 -0.020706 0.000000 0.055192
#
#
# Mechanical properties :
#
#
# Convention : Reuss Voigt Hill
#
# Bulk Modulus (GPa) = 60.25366 73.20720 66.73043
# Shear Modulus (GPa) = 20.09301 23.43188 21.76245
#
# Velocity S-wave (km/s) = 3.09053 3.33744 3.21635
# Velocity P-wave (km/s) = 6.43251 7.04634 6.74641
#
# Compressibility (1/GPa) = 0.01659650
#
# Stress axis : x y z
#
# Youngs Moduli (GPa) = 82.81543 58.95866 40.81908
#
# Poissons Ratio (x) = 0.38976 0.03078
# Poissons Ratio (y) = 0.54747 0.45326
# Poissons Ratio (z) = 0.06246 0.65468
#
# Static dielectric constant tensor:
#      x y z
#    x 3.917270 0.000000 0.128930 
#    y 0.000000 3.887460 0.000000 
#    z 0.128930 0.000000 3.880250 
# 
# 
# High freq. dielectric constant tensor:
#      x y z
#    x 1.830430 0.000000 0.005800 
#    y 0.000000 1.824560 0.000000 
#    z 0.005800 0.000000 1.818590 
# 
# From -- ./inp_files/225711.got.cif
#   From: 2010.06.25/outbox.cif.g09.slc.cpg/sg12_113_cif.got.tgz:225711.got - 2010.06.28 00:19:55.
