data_PCOD8100492
_publ_section_title
;
Structure prediction by ZEFSAII (Michael W. Deem and Ramdas Pophale) SiO2 
 PCOD8100492
Probable space group: C 2/M
;
_chemical_formula_sum "Si O2"
_cell_formula_units_Z 48
_cell_length_a 22.801445
_cell_length_b 9.131426
_cell_length_c 12.223414
_cell_angle_alpha 90.000000
_cell_angle_beta 74.264830
_cell_angle_gamma 90.000000
_cell_volume 2449.659503
_symmetry_space_group_name_H-M "C 2/M"
_symmetry_group_IT_number 12
_symmetry_cell_setting 'monoclinic'
loop_
_space_group_symop_operation_xyz
x,y,z
-x,y,-z
-x,-y,-z
x,-y,z
1/2+x,1/2+y,z
1/2-x,1/2+y,-z
1/2-x,1/2-y,-z
1/2+x,1/2-y,z
loop_
_atom_site_type_symbol
_atom_site_label
_atom_site_fract_x
_atom_site_fract_y
_atom_site_fract_z
Si Si1 0.638938 0.669746 0.310209
Si Si2 0.656635 0.672176 0.773725
Si Si3 0.536376 0.163452 0.871130
Si Si4 0.495235 0.668398 0.695514
Si Si5 0.765266 0.326263 0.877842
Si Si6 0.875379 0.827629 0.446884
O O1 0.657602 0.500000 0.282973
O O2 0.566271 0.690041 0.340615
O O3 0.670916 0.766890 0.201083
O O4 0.655066 0.730806 0.424575
O O5 0.645567 0.500000 0.786946
O O6 0.598828 0.748939 0.857243
O O7 0.715772 0.719405 0.811641
O O8 0.662433 0.720772 0.642492
O O9 0.491275 0.239317 0.808194
O O10 0.552685 0.000000 0.823446
O O11 0.500000 0.160297 0.000000
O O12 0.505068 0.500000 0.723625
O O13 0.554306 0.725326 0.598432
O O14 0.768738 0.500000 0.894142
O O15 0.750000 0.250000 0.000000
O O16 0.875506 0.000000 0.460079
#
# Coordination Sequence:
#
# PCOD8100492 Si02
#       6
#     8   8   8   8   8   8
#     4  10  20  35  59  88 115 150 189 226 278 334
#     4   9  20  39  60  80 106 146 191 233 274 331
#     4  10  21  34  52  81 112 145 183 231 287 330
#     4   9  18  33  55  84 116 150 186 224 270 333
#     4  11  25  42  58  80 112 150 194 237 280 329
#     4   8  15  33  60  87 113 142 184 233 276 328
#
# _framework density 19.594559
#
# number of rings (size 3 to 8) (size 9 to 14) (size 15 to 20)
#    0.000    2.500    0.000    2.500    2.333    6.000 
#    0.000    3.333    0.000    5.000    0.000    0.000 
#    0.000    0.000    0.000    0.000    0.000    0.000 
#
# Total GULP energy -297477.501268 kJ/mol
# GULP energy per Si atom -12394.895886 kJ/mol
# Density = 1.954996 g / cm^3
# Si number density = 19.594559 Si / 1000 Ang^3
#
#
#
# Elastic Constant Matrix: (Units=GPa)
#
#
# Indices 1 2 3 4 5 6 
#
# 1 75.7061 27.6313 41.5671 0.0000 11.5404 0.0000
# 2 27.6313 60.1787 44.2865 0.0000 5.0135 0.0000
# 3 41.5671 44.2865 143.9140 0.0000 6.4437 0.0000
# 4 0.0000 0.0000 0.0000 25.0754 0.0000 -0.6955
# 5 11.5404 5.0135 6.4437 0.0000 22.6491 0.0000
# 6 0.0000 0.0000 0.0000 -0.6955 0.0000 20.3487
#
#
#
# Elastic Compliance Matrix: (Units=1/GPa)
#
#
# Indices 1 2 3 4 5 6 
#
# 1 0.018004 -0.005279 -0.003259 0.000000 -0.007078 0.000000
# 2 -0.005279 0.023221 -0.005583 0.000000 -0.000862 0.000000
# 3 -0.003259 -0.005583 0.009600 0.000000 0.000165 0.000000
# 4 0.000000 0.000000 0.000000 0.039918 0.000000 0.001364
# 5 -0.007078 -0.000862 0.000165 0.000000 0.047902 0.000000
# 6 0.000000 0.000000 0.000000 0.001364 0.000000 0.049190
#
#
# Mechanical properties :
#
#
# Convention : Reuss Voigt Hill
#
# Bulk Modulus (GPa) = 44.27674 56.30761 50.29218
# Shear Modulus (GPa) = 22.36106 24.70223 23.53165
#
# Velocity S-wave (km/s) = 3.38181 3.55444 3.46920
# Velocity P-wave (km/s) = 6.15584 6.75604 6.46291
#
# Compressibility (1/GPa) = 0.02258522
#
# Stress axis : x y z
#
# Youngs Moduli (GPa) = 55.54391 43.06449 104.16279
#
# Poissons Ratio (x) = 0.22732 0.33944
# Poissons Ratio (y) = 0.29320 0.58149
# Poissons Ratio (z) = 0.18101 0.24041
#
# Static dielectric constant tensor:
#      x y z
#    x 3.626480 0.000000 0.228000 
#    y 0.000000 3.524170 0.000000 
#    z 0.228000 0.000000 3.750210 
# 
# 
# High freq. dielectric constant tensor:
#      x y z
#    x 1.757840 0.000000 0.008560 
#    y 0.000000 1.743420 0.000000 
#    z 0.008560 0.000000 1.772400 
# 
# From -- ./inp_files/172897.got.cif
#   From: 2010.06.25/outbox.cif.g09.slc.cpg/sg12_87_cif.got.tgz:172897.got - 2010.06.28 00:19:55.
