data_PCOD8100760
_publ_section_title
;
Structure prediction by ZEFSAII (Michael W. Deem and Ramdas Pophale) SiO2 
 PCOD8100760
Probable space group: C 2/M
;
_chemical_formula_sum "Si O2"
_cell_formula_units_Z 64
_cell_length_a 15.540930
_cell_length_b 27.793392
_cell_length_c 9.323484
_cell_angle_alpha 90.000000
_cell_angle_beta 103.135035
_cell_angle_gamma 90.000000
_cell_volume 3921.779249
_symmetry_space_group_name_H-M "C 2/M"
_symmetry_group_IT_number 12
_symmetry_cell_setting 'monoclinic'
loop_
_space_group_symop_operation_xyz
x,y,z
-x,y,-z
-x,-y,-z
x,-y,z
1/2+x,1/2+y,z
1/2-x,1/2+y,-z
1/2-x,1/2-y,-z
1/2+x,1/2-y,z
loop_
_atom_site_type_symbol
_atom_site_label
_atom_site_fract_x
_atom_site_fract_y
_atom_site_fract_z
Si Si1 0.224526 0.711525 0.801235
Si Si2 0.352785 0.553314 0.433112
Si Si3 0.008746 0.946554 0.272516
Si Si4 0.869489 0.209722 0.620602
Si Si5 0.598874 0.188574 0.510383
Si Si6 0.742538 0.145409 0.381408
Si Si7 0.012343 0.847664 0.845925
Si Si8 0.705203 0.683417 0.885639
O O1 0.307666 0.723288 0.730929
O O2 0.147335 0.686548 0.681998
O O3 0.187590 0.760184 0.856220
O O4 0.252593 0.675479 0.940518
O O5 0.313081 0.500000 0.394418
O O6 0.401303 0.555694 0.603703
O O7 0.424184 0.565005 0.338394
O O8 0.271300 0.590013 0.400243
O O9 0.014517 0.904128 0.157949
O O10 0.999925 0.000000 0.199135
O O11 0.901318 0.258039 0.555751
O O12 0.816273 0.178804 0.484225
O O13 0.954120 0.180525 0.707268
O O14 0.500000 0.170306 0.500000
O O15 0.647923 0.151680 0.421891
O O16 0.731156 0.161359 0.211726
O O17 0.113005 0.843848 0.836635
O O18 0.000000 0.825584 0.000000
#
# Coordination Sequence:
#
# PCOD8100760 Si02
#       8
#     8   8   8   8   8   8   8   8
#     4  10  20  36  47  68 104 131 166 211 246 291
#     4   9  17  30  51  76  98 126 167 214 248 287
#     4   9  18  31  47  71 103 134 168 205 242 286
#     4  11  20  33  49  73  99 139 172 201 240 300
#     4  11  22  36  51  72  98 130 171 213 254 298
#     4  11  19  33  55  73  95 136 174 203 251 301
#     4  12  22  30  47  74 104 139 173 200 246 296
#     4  11  20  32  49  72 100 134 166 206 245 290
#
# _framework density 16.319123000000001
#
# number of rings (size 3 to 8) (size 9 to 14) (size 15 to 20)
#    0.000    1.500    6.250    2.250    0.000    0.250 
#    0.000    0.625    0.000    0.375    0.000    0.000 
#    0.000    1.000    0.000    0.000    0.000    0.000 
#
# Total GULP energy -396801.172616 kJ/mol
# GULP energy per Si atom -12400.036644 kJ/mol
# Density = 1.628198 g / cm^3
# Si number density = 16.319123 Si / 1000 Ang^3
#
#
#
# Elastic Constant Matrix: (Units=GPa)
#
#
# Indices 1 2 3 4 5 6 
#
# 1 91.9562 26.5110 36.2934 0.0000 5.5284 0.0000
# 2 26.5110 78.4947 17.7781 0.0000 5.9309 0.0000
# 3 36.2934 17.7781 90.5408 0.0000 -0.3615 0.0000
# 4 0.0000 0.0000 0.0000 18.1066 0.0000 -0.3494
# 5 5.5284 5.9309 -0.3615 0.0000 16.8842 0.0000
# 6 0.0000 0.0000 0.0000 -0.3494 0.0000 21.4166
#
#
#
# Elastic Compliance Matrix: (Units=1/GPa)
#
#
# Indices 1 2 3 4 5 6 
#
# 1 0.014013 -0.003340 -0.004975 0.000000 -0.003522 0.000000
# 2 -0.003340 0.014519 -0.001528 0.000000 -0.004039 0.000000
# 3 -0.004975 -0.001528 0.013349 0.000000 0.002452 0.000000
# 4 0.000000 0.000000 0.000000 0.055246 0.000000 0.000901
# 5 -0.003522 -0.004039 0.002452 0.000000 0.061851 0.000000
# 6 0.000000 0.000000 0.000000 0.000901 0.000000 0.046707
#
#
# Mechanical properties :
#
#
# Convention : Reuss Voigt Hill
#
# Bulk Modulus (GPa) = 45.05696 46.90631 45.98163
# Shear Modulus (GPa) = 21.48037 23.30877 22.39457
#
# Velocity S-wave (km/s) = 3.63198 3.78340 3.70846
# Velocity P-wave (km/s) = 6.72742 6.92033 6.82456
#
# Compressibility (1/GPa) = 0.02219413
#
# Stress axis : x y z
#
# Youngs Moduli (GPa) = 71.36203 68.87504 74.91194
#
# Poissons Ratio (x) = 0.23003 0.37272
# Poissons Ratio (y) = 0.23834 0.11448
# Poissons Ratio (z) = 0.35506 0.10526
#
# Static dielectric constant tensor:
#      x y z
#    x 2.914930 0.000000 -0.018260 
#    y 0.000000 3.000930 0.000000 
#    z -0.018260 0.000000 3.171930 
# 
# 
# High freq. dielectric constant tensor:
#      x y z
#    x 1.603860 0.000000 -0.006980 
#    y 0.000000 1.608610 0.000000 
#    z -0.006980 0.000000 1.633350 
# 
# From -- ./inp_files/66943.got.cif
#   From: 2010.06.25/outbox.cif.g09.slc.cpg/sg12_34_cif.got.tgz:66943.got - 2010.06.28 00:19:55.
