data_PCOD8100105
_publ_section_title
;
Structure prediction by ZEFSAII (Michael W. Deem and Ramdas Pophale) SiO2 
 PCOD8100105
Probable space group: C 2/M
;
_chemical_formula_sum "Si O2"
_cell_formula_units_Z 64
_cell_length_a 27.666071
_cell_length_b 13.285126
_cell_length_c 10.093913
_cell_angle_alpha 90.000000
_cell_angle_beta 110.122350
_cell_angle_gamma 90.000000
_cell_volume 3483.532540
_symmetry_space_group_name_H-M "C 2/M"
_symmetry_group_IT_number 12
_symmetry_cell_setting 'monoclinic'
loop_
_space_group_symop_operation_xyz
x,y,z
-x,y,-z
-x,-y,-z
x,-y,z
1/2+x,1/2+y,z
1/2-x,1/2+y,-z
1/2-x,1/2-y,-z
1/2+x,1/2-y,z
loop_
_atom_site_type_symbol
_atom_site_label
_atom_site_fract_x
_atom_site_fract_y
_atom_site_fract_z
Si Si1 0.395427 0.381739 0.134511
Si Si2 0.364616 0.112524 0.577449
Si Si3 0.849506 0.882827 0.372398
Si Si4 0.608584 0.679566 0.312418
Si Si5 0.772575 0.277496 0.378230
Si Si6 0.501566 0.268610 0.849622
Si Si7 0.681040 0.386817 0.161885
Si Si8 0.477757 0.112754 0.611454
O O1 0.404150 0.500000 0.126020
O O2 0.380834 0.352358 0.270412
O O3 0.447718 0.329295 0.139507
O O4 0.348948 0.345469 0.995238
O O5 0.372055 0.203582 0.690975
O O6 0.315917 0.136347 0.437923
O O7 0.416140 0.114312 0.538132
O O8 0.357737 0.000000 0.635216
O O9 0.884994 0.854034 0.529900
O O10 0.796143 0.821843 0.332442
O O11 0.835034 0.000000 0.357510
O O12 0.548715 0.662955 0.224101
O O13 0.642351 0.610044 0.249895
O O14 0.750000 0.250000 0.500000
O O15 0.729613 0.316575 0.237047
O O16 0.498494 0.168599 0.759923
O O17 0.500000 0.234501 0.000000
O O18 0.700811 0.500000 0.156410
O O19 0.500000 0.164702 0.500000
O O20 0.499282 0.000000 0.644626
#
# Coordination Sequence:
#
# PCOD8100105 Si02
#       8
#     8   8   8   8   8   8   8   8
#     4  10  24  40  58  84 118 156 189 232 292 344
#     4   9  18  33  53  84 115 139 184 237 277 328
#     4  10  22  40  59  84 116 147 187 242 291 342
#     4  10  20  35  57  88 111 149 192 233 286 342
#     4  11  21  34  58  87 110 145 197 232 285 337
#     4  11  22  36  59  87 120 154 192 235 282 343
#     4  11  21  38  58  81 116 152 190 235 284 340
#     4   9  20  37  61  87 115 153 192 235 288 340
#
# _framework density 18.372154999999999
#
# number of rings (size 3 to 8) (size 9 to 14) (size 15 to 20)
#    0.000    1.875    3.750    0.750    5.250    2.500 
#    0.000    1.250    0.000    0.750    0.000    0.000 
#    0.000    0.000    0.000    0.000    0.000    0.000 
#
# Total GULP energy -396704.619243 kJ/mol
# GULP energy per Si atom -12397.019351 kJ/mol
# Density = 1.833034 g / cm^3
# Si number density = 18.372155 Si / 1000 Ang^3
#
#
#
# Elastic Constant Matrix: (Units=GPa)
#
#
# Indices 1 2 3 4 5 6 
#
# 1 103.7573 46.8614 62.8272 0.0000 7.8501 0.0000
# 2 46.8614 84.7884 36.5524 0.0000 2.9292 0.0000
# 3 62.8272 36.5524 140.3314 0.0000 0.9421 0.0000
# 4 0.0000 0.0000 0.0000 23.0160 0.0000 -1.0650
# 5 7.8501 2.9292 0.9421 0.0000 38.6431 0.0000
# 6 0.0000 0.0000 0.0000 -1.0650 0.0000 27.5927
#
#
#
# Elastic Compliance Matrix: (Units=1/GPa)
#
#
# Indices 1 2 3 4 5 6 
#
# 1 0.016070 -0.006417 -0.005505 0.000000 -0.002644 0.000000
# 2 -0.006417 0.015881 -0.001265 0.000000 0.000131 0.000000
# 3 -0.005505 -0.001265 0.009914 0.000000 0.000973 0.000000
# 4 0.000000 0.000000 0.000000 0.043526 0.000000 0.001680
# 5 -0.002644 0.000131 0.000973 0.000000 0.026381 0.000000
# 6 0.000000 0.000000 0.000000 0.001680 0.000000 0.036306
#
#
# Mechanical properties :
#
#
# Convention : Reuss Voigt Hill
#
# Bulk Modulus (GPa) = 64.55384 69.03991 66.79687
# Shear Modulus (GPa) = 27.83734 30.02610 28.93172
#
# Velocity S-wave (km/s) = 3.89677 4.04707 3.97263
# Velocity P-wave (km/s) = 7.44711 7.71352 7.58149
#
# Compressibility (1/GPa) = 0.01549095
#
# Stress axis : x y z
#
# Youngs Moduli (GPa) = 62.22944 62.96746 100.87124
#
# Poissons Ratio (x) = 0.40405 0.55533
# Poissons Ratio (y) = 0.39931 0.12757
# Poissons Ratio (z) = 0.34259 0.07963
#
# Static dielectric constant tensor:
#      x y z
#    x 3.508650 0.000000 0.058590 
#    y 0.000000 3.575590 0.000000 
#    z 0.058590 0.000000 3.402000 
# 
# 
# High freq. dielectric constant tensor:
#      x y z
#    x 1.718580 0.000000 0.007120 
#    y 0.000000 1.711590 0.000000 
#    z 0.007120 0.000000 1.702000 
# 
# From -- ./inp_files/104662.got.cif
#   From: 2010.06.25/outbox.cif.g09.slc.cpg/sg12_53_cif.got.tgz:104662.got - 2010.06.28 00:19:55.
