data_PCOD8100207
_publ_section_title
;
Structure prediction by ZEFSAII (Michael W. Deem and Ramdas Pophale) SiO2 
 PCOD8100207
Probable space group: C 2/M
;
_chemical_formula_sum "Si O2"
_cell_formula_units_Z 48
_cell_length_a 20.769021
_cell_length_b 8.680180
_cell_length_c 26.999190
_cell_angle_alpha 90.000000
_cell_angle_beta 29.910345
_cell_angle_gamma 90.000000
_cell_volume 2427.092400
_symmetry_space_group_name_H-M "C 2/M"
_symmetry_group_IT_number 12
_symmetry_cell_setting 'monoclinic'
loop_
_space_group_symop_operation_xyz
x,y,z
-x,y,-z
-x,-y,-z
x,-y,z
1/2+x,1/2+y,z
1/2-x,1/2+y,-z
1/2-x,1/2-y,-z
1/2+x,1/2-y,z
loop_
_atom_site_type_symbol
_atom_site_label
_atom_site_fract_x
_atom_site_fract_y
_atom_site_fract_z
Si Si1 0.380498 0.818992 0.773509
Si Si2 0.126092 0.683109 0.778221
Si Si3 0.873652 0.317718 0.891418
Si Si4 0.124957 0.816389 0.444917
Si Si5 0.374147 0.682070 0.443563
Si Si6 0.136723 0.319992 0.883949
O O1 0.379236 0.762955 0.831032
O O2 0.494847 0.731239 0.670020
O O3 0.244174 0.777404 0.840417
O O4 0.405877 0.000000 0.752602
O O5 0.125185 0.500000 0.776960
O O6 0.249470 0.749208 0.666776
O O7 0.130503 0.739618 0.831801
O O8 0.998708 0.748225 0.836459
O O9 0.867322 0.500000 0.899269
O O10 0.750000 0.250000 0.000000
O O11 0.123549 0.755071 0.501883
O O12 0.000000 0.750920 0.500000
O O13 0.124930 0.000000 0.443957
O O14 0.363044 0.500000 0.450170
O O15 0.250000 0.750000 0.500000
O O16 0.172883 0.500000 0.862813
O O17 0.000000 0.285946 0.000000
#
# Coordination Sequence:
#
# PCOD8100207 Si02
#       6
#     8   8   8   8   8   8
#     4  11  23  38  57  83 116 150 184 227 282 339
#     4   9  17  32  54  79 107 139 180 228 273 321
#     4  10  21  37  57  80 108 144 185 229 274 324
#     4   9  17  31  54  81 106 138 182 226 269 322
#     4  11  22  37  59  84 112 147 188 234 282 334
#     4  10  20  35  58  85 111 144 187 232 277 330
#
# _framework density 19.776751000000001
#
# number of rings (size 3 to 8) (size 9 to 14) (size 15 to 20)
#    0.000    2.000    0.000    4.000    0.000    8.333 
#    0.000    0.833    0.000   11.000    0.000    0.000 
#    0.000    0.000    0.000    0.000    0.000    0.000 
#
# Total GULP energy -297676.889948 kJ/mol
# GULP energy per Si atom -12403.203748 kJ/mol
# Density = 1.973174 g / cm^3
# Si number density = 19.776751 Si / 1000 Ang^3
#
#
#
# Elastic Constant Matrix: (Units=GPa)
#
#
# Indices 1 2 3 4 5 6 
#
# 1 192.2203 28.2079 84.1188 0.0048 5.4598 -0.0105
# 2 28.2079 30.2059 22.4402 0.0024 4.1084 -0.0099
# 3 84.1188 22.4402 167.9892 0.0049 8.2472 -0.0061
# 4 0.0048 0.0024 0.0049 29.5116 -0.0005 -4.6601
# 5 5.4598 4.1084 8.2472 -0.0005 47.5517 0.0020
# 6 -0.0105 -0.0099 -0.0061 -4.6601 0.0020 28.6996
#
#
#
# Elastic Compliance Matrix: (Units=1/GPa)
#
#
# Indices 1 2 3 4 5 6 
#
# 1 0.007168 -0.004480 -0.002995 0.000000 0.000083 0.000000
# 2 -0.004480 0.039815 -0.002957 0.000000 -0.002413 0.000012
# 3 -0.002995 -0.002957 0.007885 -0.000001 -0.000768 0.000000
# 4 0.000000 0.000000 -0.000001 0.034777 0.000000 0.005647
# 5 0.000083 -0.002413 -0.000768 0.000000 0.021362 -0.000002
# 6 0.000000 0.000012 0.000000 0.005647 -0.000002 0.035761
#
#
# Mechanical properties :
#
#
# Convention : Reuss Voigt Hill
#
# Bulk Modulus (GPa) = 29.40809 73.32769 51.36789
# Shear Modulus (GPa) = 27.93832 38.19581 33.06707
#
# Velocity S-wave (km/s) = 3.76265 4.39948 4.09347
# Velocity P-wave (km/s) = 5.81197 7.93508 6.95501
#
# Compressibility (1/GPa) = 0.03400425
#
# Stress axis : x y z
#
# Youngs Moduli (GPa) = 139.50651 25.11630 126.82117
#
# Poissons Ratio (x) = 0.11253 0.37983
# Poissons Ratio (y) = 0.62504 0.37495
# Poissons Ratio (z) = 0.41782 0.07426
#
# Static dielectric constant tensor:
#      x y z
#    x 3.968680 -0.000010 0.099740 
#    y -0.000010 3.222050 0.000000 
#    z 0.099740 0.000000 3.696340 
# 
# 
# High freq. dielectric constant tensor:
#      x y z
#    x 1.793360 0.000000 0.000750 
#    y 0.000000 1.732410 0.000000 
#    z 0.000750 0.000000 1.792200 
# 
# From -- ./inp_files/365362.got.cif
#   From: 2010.06.25/outbox.cif.g09.slc.cpg/sg12_183_cif.got.tgz:365362.got - 2010.06.28 00:19:55.
