data_PCOD8100470
_publ_section_title
;
Structure prediction by ZEFSAII (Michael W. Deem and Ramdas Pophale) SiO2 
 PCOD8100470
Probable space group: C 2/M
;
_chemical_formula_sum "Si O2"
_cell_formula_units_Z 64
_cell_length_a 29.746775
_cell_length_b 9.254115
_cell_length_c 11.842259
_cell_angle_alpha 90.000000
_cell_angle_beta 86.060033
_cell_angle_gamma 90.000000
_cell_volume 3252.233402
_symmetry_space_group_name_H-M "C 2/M"
_symmetry_group_IT_number 12
_symmetry_cell_setting 'monoclinic'
loop_
_space_group_symop_operation_xyz
x,y,z
-x,y,-z
-x,-y,-z
x,-y,z
1/2+x,1/2+y,z
1/2-x,1/2+y,-z
1/2-x,1/2-y,-z
1/2+x,1/2-y,z
loop_
_atom_site_type_symbol
_atom_site_label
_atom_site_fract_x
_atom_site_fract_y
_atom_site_fract_z
Si Si1 0.790924 0.665789 0.049528
Si Si2 0.382217 0.666252 0.021042
Si Si3 0.834430 0.667804 0.667578
Si Si4 0.000992 0.172153 0.370616
Si Si5 0.254863 0.838887 0.299891
Si Si6 0.086702 0.170296 0.741839
Si Si7 0.411191 0.666276 0.773850
Si Si8 0.658419 0.164615 0.589626
O O1 0.790950 0.500000 0.006984
O O2 0.785909 0.674478 0.184419
O O3 0.750000 0.750000 0.000000
O O4 0.838106 0.737876 0.007840
O O5 0.366370 0.500000 0.036527
O O6 0.415937 0.683432 0.908527
O O7 0.410162 0.715666 0.127055
O O8 0.834968 0.500000 0.696013
O O9 0.783943 0.721477 0.695529
O O10 0.866939 0.748189 0.747145
O O11 0.851297 0.700188 0.538597
O O12 0.958311 0.234383 0.308605
O O13 0.000000 0.230100 0.500000
O O14 0.045254 0.230252 0.298034
O O15 0.000484 0.000000 0.369790
O O16 0.288415 0.809326 0.398563
O O17 0.233639 0.000000 0.311957
O O18 0.130001 0.228242 0.670244
O O19 0.086616 0.000000 0.728168
O O20 0.404447 0.500000 0.740704
O O21 0.645322 0.000000 0.621918
#
# Coordination Sequence:
#
# PCOD8100470 Si02
#       8
#     8   8   8   8   8   8   8   8
#     4  11  22  36  56  79 110 152 193 235 280 331
#     4  10  21  36  55  83 114 147 190 235 281 332
#     4  11  23  36  55  83 113 145 187 238 283 333
#     4   9  18  34  58  87 114 145 188 233 281 338
#     4  10  21  37  55  77 108 148 189 226 279 342
#     4  10  20  35  59  87 113 146 192 239 279 334
#     4  10  21  38  58  80 114 152 185 228 283 339
#     4  10  21  38  56  80 114 148 185 230 285 342
#
# _framework density 19.678784
#
# number of rings (size 3 to 8) (size 9 to 14) (size 15 to 20)
#    0.000    1.875    1.250    2.625    0.000    7.500 
#    0.000    3.125    0.000    2.250    0.000    2.625 
#    0.000    0.000    0.000    0.000    0.000    0.000 
#
# Total GULP energy -396862.097673 kJ/mol
# GULP energy per Si atom -12401.940552 kJ/mol
# Density = 1.963399 g / cm^3
# Si number density = 19.678784 Si / 1000 Ang^3
#
#
#
# Elastic Constant Matrix: (Units=GPa)
#
#
# Indices 1 2 3 4 5 6 
#
# 1 108.1790 35.8079 56.1786 0.0000 3.6161 0.0000
# 2 35.8079 57.0411 34.6561 0.0000 0.6029 0.0000
# 3 56.1786 34.6561 115.3600 0.0000 3.8517 0.0000
# 4 0.0000 0.0000 0.0000 22.6449 0.0000 -1.2045
# 5 3.6161 0.6029 3.8517 0.0000 35.1481 0.0000
# 6 0.0000 0.0000 0.0000 -1.2045 0.0000 22.1170
#
#
#
# Elastic Compliance Matrix: (Units=1/GPa)
#
#
# Indices 1 2 3 4 5 6 
#
# 1 0.013694 -0.005569 -0.004970 0.000000 -0.000769 0.000000
# 2 -0.005569 0.023714 -0.004434 0.000000 0.000652 0.000000
# 3 -0.004970 -0.004434 0.012447 0.000000 -0.000777 0.000000
# 4 0.000000 0.000000 0.000000 0.044288 0.000000 0.002412
# 5 -0.000769 0.000652 -0.000777 0.000000 0.028604 0.000000
# 6 0.000000 0.000000 0.000000 0.002412 0.000000 0.045345
#
#
# Mechanical properties :
#
#
# Convention : Reuss Voigt Hill
#
# Bulk Modulus (GPa) = 50.22802 59.31838 54.77320
# Shear Modulus (GPa) = 24.42899 26.24450 25.33675
#
# Velocity S-wave (km/s) = 3.52715 3.65587 3.59209
# Velocity P-wave (km/s) = 6.49362 6.93032 6.71552
#
# Compressibility (1/GPa) = 0.01990921
#
# Stress axis : x y z
#
# Youngs Moduli (GPa) = 73.02487 42.16912 80.34127
#
# Poissons Ratio (x) = 0.23482 0.39931
# Poissons Ratio (y) = 0.40665 0.35624
# Poissons Ratio (z) = 0.36295 0.18698
#
# Static dielectric constant tensor:
#      x y z
#    x 3.521740 0.000000 0.106140 
#    y 0.000000 3.458660 0.000000 
#    z 0.106140 0.000000 3.881070 
# 
# 
# High freq. dielectric constant tensor:
#      x y z
#    x 1.759900 0.000000 0.004830 
#    y 0.000000 1.748220 0.000000 
#    z 0.004830 0.000000 1.784270 
# 
# From -- ./inp_files/187629.got.cif
#   From: 2010.06.25/outbox.cif.g09.slc.cpg/sg12_94_cif.got.tgz:187629.got - 2010.06.28 00:19:55.
