data_PCOD8100698
_publ_section_title
;
Structure prediction by ZEFSAII (Michael W. Deem and Ramdas Pophale) SiO2 
 PCOD8100698
Probable space group: C 2/M
;
_chemical_formula_sum "Si O2"
_cell_formula_units_Z 64
_cell_length_a 16.356653
_cell_length_b 13.911439
_cell_length_c 14.766479
_cell_angle_alpha 90.000000
_cell_angle_beta 67.252415
_cell_angle_gamma 90.000000
_cell_volume 3098.679788
_symmetry_space_group_name_H-M "C 2/M"
_symmetry_group_IT_number 12
_symmetry_cell_setting 'monoclinic'
loop_
_space_group_symop_operation_xyz
x,y,z
-x,y,-z
-x,-y,-z
x,-y,z
1/2+x,1/2+y,z
1/2-x,1/2+y,-z
1/2-x,1/2-y,-z
1/2+x,1/2-y,z
loop_
_atom_site_type_symbol
_atom_site_label
_atom_site_fract_x
_atom_site_fract_y
_atom_site_fract_z
Si Si1 0.858597 0.693448 0.801166
Si Si2 0.599924 0.395112 0.171660
Si Si3 0.731880 0.890775 0.328036
Si Si4 0.045878 0.610880 0.736903
Si Si5 0.591543 0.606934 0.829285
Si Si6 0.083721 0.386118 0.523023
Si Si7 0.782741 0.391523 0.007025
Si Si8 0.910179 0.698744 0.091553
O O1 0.887715 0.803733 0.768380
O O2 0.793767 0.667973 0.749061
O O3 0.940691 0.621579 0.772686
O O4 0.806084 0.683605 0.918115
O O5 0.601516 0.500000 0.221382
O O6 0.507047 0.379442 0.163111
O O7 0.677255 0.392640 0.064010
O O8 0.838997 0.881158 0.285517
O O9 0.677416 0.852234 0.438401
O O10 0.701322 0.000000 0.326791
O O11 0.070324 0.500000 0.741600
O O12 0.085577 0.652780 0.625409
O O13 0.083828 0.669441 0.805459
O O14 0.604956 0.500000 0.866139
O O15 0.607221 0.686211 0.900864
O O16 0.074002 0.500000 0.532830
O O17 0.000000 0.345587 0.500000
O O18 0.815989 0.500000 0.970235
O O19 0.828663 0.356221 0.080571
O O20 0.000000 0.671721 0.000000
#
# Coordination Sequence:
#
# PCOD8100698 Si02
#       8
#     8   8   8   8   8   8   8   8
#     4  12  20  35  58  86 117 147 194 236 285 349
#     4  10  22  40  57  78 114 161 202 240 277 329
#     4  10  20  35  61  92 118 144 183 242 300 346
#     4  11  21  34  57  86 120 151 181 229 295 356
#     4  10  22  40  58  81 114 155 202 243 282 331
#     4   9  17  32  55  87 121 147 177 230 299 358
#     4  11  23  37  56  83 118 158 196 232 282 342
#     4  12  23  38  56  85 120 155 194 236 285 337
#
# _framework density 20.653956000000001
#
# number of rings (size 3 to 8) (size 9 to 14) (size 15 to 20)
#    0.000    1.375    3.750    2.625    0.000    1.750 
#    0.000    5.000    0.000    0.000    0.000    2.625 
#    0.000    0.625    0.000    0.000    0.000    0.000 
#
# Total GULP energy -396621.050285 kJ/mol
# GULP energy per Si atom -12394.407821 kJ/mol
# Density = 2.060695 g / cm^3
# Si number density = 20.653956 Si / 1000 Ang^3
#
#
#
# Elastic Constant Matrix: (Units=GPa)
#
#
# Indices 1 2 3 4 5 6 
#
# 1 97.0767 27.9779 64.6782 0.0000 -15.8006 0.0000
# 2 27.9779 97.2581 28.2442 0.0000 1.0069 0.0000
# 3 64.6782 28.2442 130.6238 0.0000 2.4817 0.0000
# 4 0.0000 0.0000 0.0000 17.5704 0.0000 -0.7311
# 5 -15.8006 1.0069 2.4817 0.0000 34.1577 0.0000
# 6 0.0000 0.0000 0.0000 -0.7311 0.0000 11.3293
#
#
#
# Elastic Compliance Matrix: (Units=1/GPa)
#
#
# Indices 1 2 3 4 5 6 
#
# 1 0.018406 -0.002873 -0.008668 0.000000 0.009229 0.000000
# 2 -0.002873 0.011420 -0.001016 0.000000 -0.001592 0.000000
# 3 -0.008668 -0.001016 0.012260 0.000000 -0.004870 0.000000
# 4 0.000000 0.000000 0.000000 0.057067 0.000000 0.003683
# 5 0.009229 -0.001592 -0.004870 0.000000 0.033946 0.000000
# 6 0.000000 0.000000 0.000000 0.003683 0.000000 0.088505
#
#
# Mechanical properties :
#
#
# Convention : Reuss Voigt Hill
#
# Bulk Modulus (GPa) = 58.92364 62.97326 60.94845
# Shear Modulus (GPa) = 19.81169 26.21536 23.01352
#
# Velocity S-wave (km/s) = 3.10049 3.56654 3.34165
# Velocity P-wave (km/s) = 6.43493 6.89320 6.66800
#
# Compressibility (1/GPa) = 0.01697112
#
# Stress axis : x y z
#
# Youngs Moduli (GPa) = 54.32864 87.56492 81.56713
#
# Poissons Ratio (x) = 0.25159 0.70703
# Poissons Ratio (y) = 0.15610 0.08290
# Poissons Ratio (z) = 0.47092 0.08900
#
# Static dielectric constant tensor:
#      x y z
#    x 3.674290 0.000000 -0.273440 
#    y 0.000000 3.976110 0.000000 
#    z -0.273440 0.000000 3.790710 
# 
# 
# High freq. dielectric constant tensor:
#      x y z
#    x 1.802730 0.000000 -0.025810 
#    y 0.000000 1.809760 0.000000 
#    z -0.025810 0.000000 1.787590 
# 
# From -- ./inp_files/225285.got.cif
#   From: 2010.06.25/outbox.cif.g09.slc.cpg/sg12_113_cif.got.tgz:225285.got - 2010.06.28 00:19:55.
