data_PCOD8100571
_publ_section_title
;
Structure prediction by ZEFSAII (Michael W. Deem and Ramdas Pophale) SiO2 
 PCOD8100571
Probable space group: C 2/M
;
_chemical_formula_sum "Si O2"
_cell_formula_units_Z 64
_cell_length_a 30.776992
_cell_length_b 17.085501
_cell_length_c 9.637534
_cell_angle_alpha 90.000000
_cell_angle_beta 140.454762
_cell_angle_gamma 90.000000
_cell_volume 3226.606264
_symmetry_space_group_name_H-M "C 2/M"
_symmetry_group_IT_number 12
_symmetry_cell_setting 'monoclinic'
loop_
_space_group_symop_operation_xyz
x,y,z
-x,y,-z
-x,-y,-z
x,-y,z
1/2+x,1/2+y,z
1/2-x,1/2+y,-z
1/2-x,1/2-y,-z
1/2+x,1/2-y,z
loop_
_atom_site_type_symbol
_atom_site_label
_atom_site_fract_x
_atom_site_fract_y
_atom_site_fract_z
Si Si1 0.599247 0.163571 0.470537
Si Si2 0.510885 0.716070 0.878876
Si Si3 0.331049 0.586598 0.977892
Si Si4 0.697793 0.092894 0.485038
Si Si5 0.983641 0.914289 0.305584
Si Si6 0.633803 0.811654 0.082776
Si Si7 0.321540 0.255679 0.099691
Si Si8 0.515104 0.913037 0.681370
O O1 0.541586 0.212232 0.248749
O O2 0.656456 0.131393 0.509851
O O3 0.625813 0.214482 0.666368
O O4 0.557032 0.087775 0.416240
O O5 0.482237 0.651078 0.704264
O O6 0.500000 0.675996 0.000000
O O7 0.589986 0.739716 0.040393
O O8 0.315698 0.500000 0.005966
O O9 0.276093 0.604933 0.722207
O O10 0.403088 0.584217 0.078067
O O11 0.333774 0.651403 0.106942
O O12 0.685452 0.146095 0.317775
O O13 0.680503 0.000000 0.419521
O O14 0.000000 0.887581 0.500000
O O15 0.015649 0.000000 0.354511
O O16 0.674674 0.785057 0.044498
O O17 0.577278 0.875574 0.913490
O O18 0.250000 0.250000 0.000000
O O19 0.500000 0.867537 0.500000
O O20 0.539257 0.000000 0.710204
#
# Coordination Sequence:
#
# PCOD8100571 Si02
#       8
#     8   8   8   8   8   8   8   8
#     4  11  22  38  59  94 126 165 209 257 314 372
#     4  11  22  37  60  92 127 162 206 257 312 378
#     4  10  22  41  65  91 123 167 211 256 320 382
#     4  11  23  42  63  90 132 173 207 250 313 390
#     4  10  21  40  67  92 119 161 208 267 328 372
#     4  11  23  40  60  93 126 168 208 262 307 373
#     4  12  23  41  64  94 121 163 215 266 316 370
#     4  10  20  35  59  91 126 163 205 256 314 365
#
# _framework density 19.835082
#
# number of rings (size 3 to 8) (size 9 to 14) (size 15 to 20)
#    0.000    1.250    5.000    1.500    0.000    0.750 
#    2.250    3.125    0.000    0.000    0.000    0.000 
#    0.000    0.000    0.000    0.000    0.000    0.000 
#
# Total GULP energy -396425.412787 kJ/mol
# GULP energy per Si atom -12388.294150 kJ/mol
# Density = 1.978994 g / cm^3
# Si number density = 19.835082 Si / 1000 Ang^3
#
#
#
# Elastic Constant Matrix: (Units=GPa)
#
#
# Indices 1 2 3 4 5 6 
#
# 1 98.0951 32.3492 33.8558 0.0000 -14.3295 0.0000
# 2 32.3492 103.6953 31.3085 0.0000 -20.2605 0.0000
# 3 33.8558 31.3085 98.9326 0.0000 -6.4138 0.0000
# 4 0.0000 0.0000 0.0000 20.2241 0.0000 -9.4034
# 5 -14.3295 -20.2605 -6.4138 0.0000 31.4564 0.0000
# 6 0.0000 0.0000 0.0000 -9.4034 0.0000 18.8196
#
#
#
# Elastic Compliance Matrix: (Units=1/GPa)
#
#
# Indices 1 2 3 4 5 6 
#
# 1 0.012621 -0.002204 -0.003386 0.000000 0.003640 0.000000
# 2 -0.002204 0.012421 -0.002760 0.000000 0.006434 0.000000
# 3 -0.003386 -0.002760 0.012084 0.000000 -0.000856 0.000000
# 4 0.000000 0.000000 0.000000 0.064409 0.000000 0.032183
# 5 0.003640 0.006434 -0.000856 0.000000 0.037417 0.000000
# 6 0.000000 0.000000 0.000000 0.032183 0.000000 0.069216
#
#
# Mechanical properties :
#
#
# Convention : Reuss Voigt Hill
#
# Bulk Modulus (GPa) = 48.95143 55.08335 52.01739
# Shear Modulus (GPa) = 21.58167 27.64733 24.61450
#
# Velocity S-wave (km/s) = 3.30215 3.73749 3.52654
# Velocity P-wave (km/s) = 6.26671 6.81587 6.54705
#
# Compressibility (1/GPa) = 0.02042841
#
# Stress axis : x y z
#
# Youngs Moduli (GPa) = 79.23193 80.50571 82.75170
#
# Poissons Ratio (x) = 0.17744 0.28017
# Poissons Ratio (y) = 0.17463 0.22836
# Poissons Ratio (z) = 0.26825 0.22216
#
# Static dielectric constant tensor:
#      x y z
#    x 3.584670 0.000000 -0.023300 
#    y 0.000000 3.845980 0.000000 
#    z -0.023300 0.000000 3.692910 
# 
# 
# High freq. dielectric constant tensor:
#      x y z
#    x 1.759070 0.000000 0.001460 
#    y 0.000000 1.782630 0.000000 
#    z 0.001460 0.000000 1.778380 
# 
# From -- ./inp_files/112909.got.cif
#   From: 2010.06.25/outbox.cif.g09.slc.cpg/sg12_57_cif.got.tgz:112909.got - 2010.06.28 00:19:55.
