data_PCOD8100880
_publ_section_title
;
Structure prediction by ZEFSAII (Michael W. Deem and Ramdas Pophale) SiO2 
 PCOD8100880
Probable space group: C 2/M
;
_chemical_formula_sum "Si O2"
_cell_formula_units_Z 64
_cell_length_a 35.042671
_cell_length_b 8.990642
_cell_length_c 15.627356
_cell_angle_alpha 90.000000
_cell_angle_beta 42.934831
_cell_angle_gamma 90.000000
_cell_volume 3353.717036
_symmetry_space_group_name_H-M "C 2/M"
_symmetry_group_IT_number 12
_symmetry_cell_setting 'monoclinic'
loop_
_space_group_symop_operation_xyz
x,y,z
-x,y,-z
-x,-y,-z
x,-y,z
1/2+x,1/2+y,z
1/2-x,1/2+y,-z
1/2-x,1/2-y,-z
1/2+x,1/2-y,z
loop_
_atom_site_type_symbol
_atom_site_label
_atom_site_fract_x
_atom_site_fract_y
_atom_site_fract_z
Si Si1 0.508840 0.324016 0.119680
Si Si2 0.788732 0.176662 0.007809
Si Si3 0.285202 0.677668 0.367032
Si Si4 0.608140 0.828114 0.233830
Si Si5 0.766009 0.676185 0.726688
Si Si6 0.911617 0.176216 0.159101
Si Si7 0.497986 0.171229 0.313118
Si Si8 0.386347 0.823073 0.582047
O O1 0.510736 0.500000 0.124209
O O2 0.448961 0.272050 0.178789
O O3 0.518369 0.255876 0.196207
O O4 0.559075 0.266363 0.976170
O O5 0.852278 0.230923 0.892367
O O6 0.784573 0.000000 0.006217
O O7 0.750000 0.250000 0.000000
O O8 0.768902 0.231692 0.133920
O O9 0.281878 0.500000 0.379435
O O10 0.250000 0.750000 0.500000
O O11 0.261196 0.736710 0.315958
O O12 0.348767 0.738332 0.270512
O O13 0.544171 0.808311 0.310575
O O14 0.613492 0.764858 0.320975
O O15 0.627152 0.000000 0.197432
O O16 0.765829 0.500000 0.725796
O O17 0.830024 0.734094 0.628127
O O18 0.909922 0.000000 0.158135
O O19 0.439841 0.240892 0.443263
O O20 0.489855 0.000000 0.301890
O O21 0.390398 0.000000 0.577855
#
# Coordination Sequence:
#
# PCOD8100880 Si02
#       8
#     8   8   8   8   8   8   8   8
#     4   9  18  35  57  77 100 140 181 222 270 325
#     4  11  21  36  59  86 112 147 188 229 274 326
#     4  10  21  37  57  82 109 141 181 226 273 330
#     4  10  20  36  55  79 112 146 183 225 270 323
#     4   9  19  34  56  81 106 142 187 222 265 334
#     4   8  17  35  56  75 103 140 179 215 266 332
#     4  10  21  33  54  83 108 139 181 230 274 315
#     4   9  17  34  55  75 105 146 184 215 260 330
#
# _framework density 19.083303000000001
#
# number of rings (size 3 to 8) (size 9 to 14) (size 15 to 20)
#    0.000    2.500    1.250    1.500    3.500    2.000 
#    0.000    3.750    0.000    1.500    0.000    0.000 
#    0.000    0.000    0.000    0.000    0.000    0.000 
#
# Total GULP energy -396772.559517 kJ/mol
# GULP energy per Si atom -12399.142485 kJ/mol
# Density = 1.903987 g / cm^3
# Si number density = 19.083303 Si / 1000 Ang^3
#
#
#
# Elastic Constant Matrix: (Units=GPa)
#
#
# Indices 1 2 3 4 5 6 
#
# 1 118.0253 21.3592 63.6516 0.0001 -0.9002 0.0001
# 2 21.3592 30.3349 26.7711 -0.0027 0.5937 0.0009
# 3 63.6516 26.7711 140.4406 -0.0002 -7.7693 0.0003
# 4 0.0001 -0.0027 -0.0002 29.2095 0.0001 2.2060
# 5 -0.9002 0.5937 -7.7693 0.0001 40.0371 0.0001
# 6 0.0001 0.0009 0.0003 2.2060 0.0001 21.4244
#
#
#
# Elastic Compliance Matrix: (Units=1/GPa)
#
#
# Indices 1 2 3 4 5 6 
#
# 1 0.011667 -0.004220 -0.004514 0.000000 -0.000551 0.000000
# 2 -0.004220 0.041331 -0.006070 0.000004 -0.001886 -0.000002
# 3 -0.004514 -0.006070 0.010435 0.000000 0.002013 0.000000
# 4 0.000000 0.000004 0.000000 0.034504 0.000000 -0.003553
# 5 -0.000551 -0.001886 0.002013 0.000000 0.025383 0.000000
# 6 0.000000 -0.000002 0.000000 -0.003553 0.000000 0.047041
#
#
# Mechanical properties :
#
#
# Convention : Reuss Voigt Hill
#
# Bulk Modulus (GPa) = 29.56499 56.92940 43.24719
# Shear Modulus (GPa) = 23.66942 29.93548 26.80245
#
# Velocity S-wave (km/s) = 3.52564 3.96495 3.75173
# Velocity P-wave (km/s) = 5.66566 7.13147 6.44040
#
# Compressibility (1/GPa) = 0.03382379
#
# Stress axis : x y z
#
# Youngs Moduli (GPa) = 85.71538 24.19501 95.83510
#
# Poissons Ratio (x) = 0.10211 0.43256
# Poissons Ratio (y) = 0.36176 0.58173
# Poissons Ratio (z) = 0.38688 0.14687
#
# Static dielectric constant tensor:
#      x y z
#    x 3.725730 0.000000 -0.120630 
#    y 0.000000 3.060310 0.000000 
#    z -0.120630 0.000000 3.742710 
# 
# 
# High freq. dielectric constant tensor:
#      x y z
#    x 1.752890 0.000000 -0.004570 
#    y 0.000000 1.693910 0.000000 
#    z -0.004570 0.000000 1.754950 
# 
# From -- ./inp_files/249891.got.cif
#   From: 2010.06.25/outbox.cif.g09.slc.cpg/sg12_125_cif.got.tgz:249891.got - 2010.06.28 00:19:55.
