data_PCOD8100601
_publ_section_title
;
Structure prediction by ZEFSAII (Michael W. Deem and Ramdas Pophale) SiO2 
 PCOD8100601
Probable space group: C 2/M
;
_chemical_formula_sum "Si O2"
_cell_formula_units_Z 52
_cell_length_a 16.898601
_cell_length_b 14.670554
_cell_length_c 14.398214
_cell_angle_alpha 90.000000
_cell_angle_beta 48.829458
_cell_angle_gamma 90.000000
_cell_volume 2686.944246
_symmetry_space_group_name_H-M "C 2/M"
_symmetry_group_IT_number 12
_symmetry_cell_setting 'monoclinic'
loop_
_space_group_symop_operation_xyz
x,y,z
-x,y,-z
-x,-y,-z
x,-y,z
1/2+x,1/2+y,z
1/2-x,1/2+y,-z
1/2-x,1/2-y,-z
1/2+x,1/2-y,z
loop_
_atom_site_type_symbol
_atom_site_label
_atom_site_fract_x
_atom_site_fract_y
_atom_site_fract_z
Si Si1 0.811489 0.893856 0.396481
Si Si2 0.123746 0.395946 0.675980
Si Si3 0.000000 0.321637 0.500000
Si Si4 0.271867 0.261901 0.875932
Si Si5 0.714705 0.896121 0.274042
Si Si6 0.487749 0.738078 0.323125
Si Si7 0.118048 0.604517 0.894083
O O1 0.722043 0.862658 0.538183
O O2 0.777630 0.869520 0.318295
O O3 0.919016 0.842450 0.334096
O O4 0.833840 0.000000 0.391654
O O5 0.091874 0.500000 0.676681
O O6 0.025862 0.330902 0.726600
O O7 0.153802 0.385207 0.759994
O O8 0.909399 0.385632 0.611625
O O9 0.952870 0.257294 0.455979
O O10 0.247664 0.168831 0.838447
O O11 0.391781 0.293060 0.770756
O O12 0.198064 0.341259 0.895801
O O13 0.250000 0.250000 0.000000
O O14 0.737764 0.000000 0.227015
O O15 0.122315 0.500000 0.923699
O O16 0.000000 0.642439 0.000000
#
# Coordination Sequence:
#
# PCOD8100601 Si02
#       7
#     8   8   4   8   8   8   8
#     4  10  21  37  58  87 119 157 198 239 296 360
#     4  10  20  35  60  87 113 152 198 246 292 346
#     4  10  21  32  55  90 120 154 193 240 301 348
#     4  11  25  40  58  88 119 156 197 244 302 353
#     4  10  21  38  60  87 119 154 197 246 294 350
#     4  11  22  35  58  84 122 157 189 242 297 354
#     4  10  22  41  64  85 111 154 207 252 292 347
#
# _framework density 19.35284
#
# number of rings (size 3 to 8) (size 9 to 14) (size 15 to 20)
#    0.000    1.692    1.538    2.538    4.308    3.692 
#    0.000    0.385    0.000    2.308    0.000    0.000 
#    0.000    0.000    0.000    0.000    0.000    0.000 
#
# Total GULP energy -322494.047105 kJ/mol
# GULP energy per Si atom -12403.617196 kJ/mol
# Density = 1.930879 g / cm^3
# Si number density = 19.352840 Si / 1000 Ang^3
#
#
#
# Elastic Constant Matrix: (Units=GPa)
#
#
# Indices 1 2 3 4 5 6 
#
# 1 140.3324 72.2072 52.3181 0.0000 0.6504 0.0000
# 2 72.2072 88.9942 46.3777 0.0000 -3.3962 0.0000
# 3 52.3181 46.3777 95.3069 0.0000 10.4742 0.0000
# 4 0.0000 0.0000 0.0000 23.4657 0.0000 -1.0002
# 5 0.6504 -3.3962 10.4742 0.0000 40.2635 0.0000
# 6 0.0000 0.0000 0.0000 -1.0002 0.0000 31.3880
#
#
#
# Elastic Compliance Matrix: (Units=1/GPa)
#
#
# Indices 1 2 3 4 5 6 
#
# 1 0.012708 -0.008981 -0.002573 0.000000 -0.000293 0.000000
# 2 -0.008981 0.021831 -0.006086 0.000000 0.003570 0.000000
# 3 -0.002573 -0.006086 0.015357 0.000000 -0.004467 0.000000
# 4 0.000000 0.000000 0.000000 0.042673 0.000000 0.001360
# 5 -0.000293 0.003570 -0.004467 0.000000 0.026304 0.000000
# 6 0.000000 0.000000 0.000000 0.001360 0.000000 0.031903
#
#
# Mechanical properties :
#
#
# Convention : Reuss Voigt Hill
#
# Bulk Modulus (GPa) = 68.41614 74.04884 71.23249
# Shear Modulus (GPa) = 26.18786 29.27213 27.72999
#
# Velocity S-wave (km/s) = 3.68255 3.89337 3.78943
# Velocity P-wave (km/s) = 7.31507 7.65223 7.48555
#
# Compressibility (1/GPa) = 0.01461643
#
# Stress axis : x y z
#
# Youngs Moduli (GPa) = 78.69251 45.80634 65.11542
#
# Poissons Ratio (x) = 0.41137 0.16757
# Poissons Ratio (y) = 0.70672 0.39627
# Poissons Ratio (z) = 0.20251 0.27876
#
# Static dielectric constant tensor:
#      x y z
#    x 3.617860 0.000000 0.130430 
#    y 0.000000 3.514140 0.000000 
#    z 0.130430 0.000000 3.519620 
# 
# 
# High freq. dielectric constant tensor:
#      x y z
#    x 1.764620 0.000000 0.011540 
#    y 0.000000 1.750810 0.000000 
#    z 0.011540 0.000000 1.743870 
# 
# From -- ./inp_files/214734.got.cif
#   From: 2010.06.25/outbox.cif.g09.slc.cpg/sg12_108_cif.got.tgz:214734.got - 2010.06.28 00:19:55.
