data_PCOD8100574
_publ_section_title
;
Structure prediction by ZEFSAII (Michael W. Deem and Ramdas Pophale) SiO2 
 PCOD8100574
Probable space group: C 2/M
;
_chemical_formula_sum "Si O2"
_cell_formula_units_Z 44
_cell_length_a 13.837331
_cell_length_b 13.181153
_cell_length_c 21.913579
_cell_angle_alpha 90.000000
_cell_angle_beta 150.239658
_cell_angle_gamma 90.000000
_cell_volume 1983.934712
_symmetry_space_group_name_H-M "C 2/M"
_symmetry_group_IT_number 12
_symmetry_cell_setting 'monoclinic'
loop_
_space_group_symop_operation_xyz
x,y,z
-x,y,-z
-x,-y,-z
x,-y,z
1/2+x,1/2+y,z
1/2-x,1/2+y,-z
1/2-x,1/2-y,-z
1/2+x,1/2-y,z
loop_
_atom_site_type_symbol
_atom_site_label
_atom_site_fract_x
_atom_site_fract_y
_atom_site_fract_z
Si Si1 0.090567 0.280070 0.675673
Si Si2 0.813575 0.385800 0.060050
Si Si3 0.622268 0.884871 0.124125
Si Si4 0.500000 0.695252 0.500000
Si Si5 0.083571 0.118397 0.212425
Si Si6 0.094661 0.299743 0.304097
O O1 0.186158 0.180473 0.758569
O O2 0.253934 0.365415 0.751033
O O3 0.982769 0.259924 0.552826
O O4 0.927735 0.313946 0.635381
O O5 0.749293 0.500000 0.038424
O O6 0.990645 0.378826 0.111046
O O7 0.891108 0.339628 0.165546
O O8 0.618302 0.334256 0.925718
O O9 0.689428 0.000000 0.146554
O O10 0.500000 0.841508 0.000000
O O11 0.710404 0.636845 0.612659
O O12 0.130578 0.184153 0.299018
O O13 0.068252 0.000000 0.222300
#
# Coordination Sequence:
#
# PCOD8100574 Si02
#       6
#     8   8   8   4   8   8
#     4  11  23  38  65  89 124 163 209 252 313 363
#     4  10  20  37  59  89 126 157 195 253 313 372
#     4  10  20  35  59  92 124 156 199 249 305 369
#     4  10  22  44  58  88 120 164 212 258 296 362
#     4  10  22  39  61  93 131 164 200 250 312 378
#     4  11  22  39  64  87 120 164 212 253 310 361
#
# _framework density 22.178149999999999
#
# number of rings (size 3 to 8) (size 9 to 14) (size 15 to 20)
#    0.000    1.636    3.636    2.182    2.545    2.909 
#    0.000   10.909    0.000    8.727    0.000    0.000 
#    0.000    0.000    0.000    0.000    0.000    0.000 
#
# Total GULP energy -272601.476085 kJ/mol
# GULP energy per Si atom -12390.976186 kJ/mol
# Density = 2.212767 g / cm^3
# Si number density = 22.178150 Si / 1000 Ang^3
#
#
#
# Elastic Constant Matrix: (Units=GPa)
#
#
# Indices 1 2 3 4 5 6 
#
# 1 132.4801 -2.8762 28.1318 0.0009 -8.4128 0.0003
# 2 -2.8762 26.5109 7.2779 0.0018 -4.2780 0.0004
# 3 28.1318 7.2779 100.9214 0.0036 -10.6366 0.0006
# 4 0.0009 0.0018 0.0036 11.0401 0.0011 0.3546
# 5 -8.4128 -4.2780 -10.6366 0.0011 45.5483 0.0002
# 6 0.0003 0.0004 0.0006 0.3546 0.0002 17.4570
#
#
#
# Elastic Compliance Matrix: (Units=1/GPa)
#
#
# Indices 1 2 3 4 5 6 
#
# 1 0.008139 0.001689 -0.002271 0.000000 0.001132 0.000000
# 2 0.001689 0.039248 -0.002952 -0.000006 0.003309 -0.000001
# 3 -0.002271 -0.002952 0.010951 -0.000003 0.001860 0.000000
# 4 0.000000 -0.000006 -0.000003 0.090638 -0.000003 -0.001841
# 5 0.001132 0.003309 0.001860 -0.000003 0.022909 0.000000
# 6 0.000000 -0.000001 0.000000 -0.001841 0.000000 0.057321
#
#
# Mechanical properties :
#
#
# Convention : Reuss Voigt Hill
#
# Bulk Modulus (GPa) = 19.50510 36.10884 27.80697
# Shear Modulus (GPa) = 19.73438 29.96768 24.85103
#
# Velocity S-wave (km/s) = 2.98621 3.67989 3.35105
# Velocity P-wave (km/s) = 4.55014 5.86277 5.24766
#
# Compressibility (1/GPa) = 0.05126864
#
# Stress axis : x y z
#
# Youngs Moduli (GPa) = 122.86300 25.47901 91.31724
#
# Poissons Ratio (x) = -0.04304 0.20741
# Poissons Ratio (y) = -0.20754 0.26961
# Poissons Ratio (z) = 0.27906 0.07523
#
# Static dielectric constant tensor:
#      x y z
#    x 3.998260 0.000000 0.106100 
#    y 0.000000 3.788070 0.000000 
#    z 0.106100 0.000000 4.312720 
# 
# 
# High freq. dielectric constant tensor:
#      x y z
#    x 1.876380 0.000000 0.003550 
#    y 0.000000 1.834600 0.000000 
#    z 0.003550 0.000000 1.887090 
# 
# From -- ./inp_files/310893.got.cif
#   From: 2010.06.25/outbox.cif.g09.slc.cpg/sg12_156_cif.got.tgz:310893.got - 2010.06.28 00:19:55.
