data_PCOD8100488
_publ_section_title
;
Structure prediction by ZEFSAII (Michael W. Deem and Ramdas Pophale) SiO2 
 PCOD8100488
Probable space group: C 2/M
;
_chemical_formula_sum "Si O2"
_cell_formula_units_Z 56
_cell_length_a 19.450132
_cell_length_b 8.828919
_cell_length_c 18.720920
_cell_angle_alpha 90.000000
_cell_angle_beta 114.965271
_cell_angle_gamma 90.000000
_cell_volume 2914.443488
_symmetry_space_group_name_H-M "C 2/M"
_symmetry_group_IT_number 12
_symmetry_cell_setting 'monoclinic'
loop_
_space_group_symop_operation_xyz
x,y,z
-x,y,-z
-x,-y,-z
x,-y,z
1/2+x,1/2+y,z
1/2-x,1/2+y,-z
1/2-x,1/2-y,-z
1/2+x,1/2-y,z
loop_
_atom_site_type_symbol
_atom_site_label
_atom_site_fract_x
_atom_site_fract_y
_atom_site_fract_z
Si Si1 0.769936 0.326829 0.434772
Si Si2 0.326512 0.326019 0.012986
Si Si3 0.941323 0.672896 0.532981
Si Si4 0.659625 0.178964 0.276726
Si Si5 0.792335 0.178384 0.846821
Si Si6 0.971943 0.822050 0.694286
Si Si7 0.866079 0.822740 0.180949
O O1 0.741874 0.500000 0.424501
O O2 0.750000 0.250000 0.500000
O O3 0.859368 0.315587 0.460727
O O4 0.729635 0.242048 0.352678
O O5 0.307161 0.500000 0.001546
O O6 0.384262 0.290630 0.103744
O O7 0.250000 0.250000 0.000000
O O8 0.345817 0.279131 0.939551
O O9 0.959515 0.500000 0.563626
O O10 0.945346 0.778279 0.603736
O O11 0.000000 0.733343 0.500000
O O12 0.669499 0.230039 0.199962
O O13 0.579753 0.238785 0.270496
O O14 0.660437 0.000000 0.282743
O O15 0.705078 0.227811 0.821163
O O16 0.793185 0.000000 0.829625
O O17 0.059102 0.771962 0.743598
O O18 0.962127 0.000000 0.701204
O O19 0.848217 0.000000 0.185064
#
# Coordination Sequence:
#
# PCOD8100488 Si02
#       7
#     8   8   8   8   8   8   8
#     4  11  22  39  62  86 113 149 188 232 280 336
#     4   8  15  31  55  82 114 147 184 228 280 337
#     4  10  23  41  60  84 114 148 185 229 280 334
#     4  12  25  40  58  81 115 155 193 239 285 333
#     4  10  20  35  59  88 114 149 192 235 280 338
#     4  11  23  39  59  84 115 150 190 235 285 341
#     4   9  19  36  58  87 118 149 185 233 288 341
#
# _framework density 19.214645999999998
#
# number of rings (size 3 to 8) (size 9 to 14) (size 15 to 20)
#    0.000    1.857    1.429    2.571    2.000    2.571 
#    0.000    0.714    0.000    4.286    0.000    0.000 
#    0.000    0.000    0.000    0.000    0.000    0.000 
#
# Total GULP energy -347057.433371 kJ/mol
# GULP energy per Si atom -12394.908335 kJ/mol
# Density = 1.917091 g / cm^3
# Si number density = 19.214646 Si / 1000 Ang^3
#
#
#
# Elastic Constant Matrix: (Units=GPa)
#
#
# Indices 1 2 3 4 5 6 
#
# 1 84.0363 30.9043 16.6803 0.0000 -17.0521 0.0000
# 2 30.9043 94.1893 26.9195 0.0000 -10.5319 0.0000
# 3 16.6803 26.9195 67.5620 0.0000 -19.3668 0.0000
# 4 0.0000 0.0000 0.0000 29.6293 0.0000 -4.3575
# 5 -17.0521 -10.5319 -19.3668 0.0000 33.5191 0.0000
# 6 0.0000 0.0000 0.0000 -4.3575 0.0000 28.6418
#
#
#
# Elastic Compliance Matrix: (Units=1/GPa)
#
#
# Indices 1 2 3 4 5 6 
#
# 1 0.014671 -0.004061 -0.000276 0.000000 0.006028 0.000000
# 2 -0.004061 0.013146 -0.004367 0.000000 -0.000458 0.000000
# 3 -0.000276 -0.004367 0.019387 0.000000 0.009689 0.000000
# 4 0.000000 0.000000 0.000000 0.034523 0.000000 0.005252
# 5 0.006028 -0.000458 0.009689 0.000000 0.038354 0.000000
# 6 0.000000 0.000000 0.000000 0.005252 0.000000 0.035713
#
#
# Mechanical properties :
#
#
# Convention : Reuss Voigt Hill
#
# Bulk Modulus (GPa) = 33.56121 43.86621 38.71371
# Shear Modulus (GPa) = 27.30255 29.77696 28.53975
#
# Velocity S-wave (km/s) = 3.77360 3.94090 3.85816
# Velocity P-wave (km/s) = 6.04079 6.60202 6.32763
#
# Compressibility (1/GPa) = 0.02979630
#
# Stress axis : x y z
#
# Youngs Moduli (GPa) = 68.16200 76.06843 51.58203
#
# Poissons Ratio (x) = 0.30889 0.01425
# Poissons Ratio (y) = 0.27679 0.22525
# Poissons Ratio (z) = 0.01883 0.33217
#
# Static dielectric constant tensor:
#      x y z
#    x 3.503240 0.000000 0.299840 
#    y 0.000000 3.572010 0.000000 
#    z 0.299840 0.000000 4.806190 
# 
# 
# High freq. dielectric constant tensor:
#      x y z
#    x 1.730840 0.000000 -0.005660 
#    y 0.000000 1.754390 0.000000 
#    z -0.005660 0.000000 1.762260 
# 
# From -- ./inp_files/275669.got.cif
#   From: 2010.06.25/outbox.cif.g09.slc.cpg/sg12_138_cif.got.tgz:275669.got - 2010.06.28 00:19:55.
