data_PCOD8100933
_publ_section_title
;
Structure prediction by ZEFSAII (Michael W. Deem and Ramdas Pophale) SiO2 
 PCOD8100933
Probable space group: C 2/M
;
_chemical_formula_sum "Si O2"
_cell_formula_units_Z 56
_cell_length_a 23.995376
_cell_length_b 8.739463
_cell_length_c 15.710555
_cell_angle_alpha 90.000000
_cell_angle_beta 120.016502
_cell_angle_gamma 90.000000
_cell_volume 2852.740226
_symmetry_space_group_name_H-M "C 2/M"
_symmetry_group_IT_number 12
_symmetry_cell_setting 'monoclinic'
loop_
_space_group_symop_operation_xyz
x,y,z
-x,y,-z
-x,-y,-z
x,-y,z
1/2+x,1/2+y,z
1/2-x,1/2+y,-z
1/2-x,1/2-y,-z
1/2+x,1/2-y,z
loop_
_atom_site_type_symbol
_atom_site_label
_atom_site_fract_x
_atom_site_fract_y
_atom_site_fract_z
Si Si1 0.092896 0.182001 0.519186
Si Si2 0.460906 0.819917 0.888092
Si Si3 0.815214 0.318373 0.800278
Si Si4 0.565350 0.319235 0.856031
Si Si5 0.538992 0.318265 0.651843
Si Si6 0.730719 0.318535 0.574747
Si Si7 0.700996 0.317753 0.031935
O O1 0.080943 0.245241 0.605516
O O2 0.159853 0.248923 0.537507
O O3 0.035079 0.238066 0.413821
O O4 0.096522 0.000000 0.524350
O O5 0.388032 0.759539 0.840660
O O6 0.497866 0.745788 0.837666
O O7 0.461415 0.000000 0.876151
O O8 0.500000 0.766189 0.000000
O O9 0.812267 0.500000 0.810802
O O10 0.775848 0.264505 0.687189
O O11 0.784618 0.242897 0.861848
O O12 0.561263 0.500000 0.857633
O O13 0.570566 0.259264 0.763059
O O14 0.628627 0.260585 0.953720
O O15 0.538910 0.500000 0.648833
O O16 0.732255 0.500000 0.569139
O O17 0.750000 0.250000 0.500000
O O18 0.706582 0.500000 0.033525
O O19 0.750000 0.250000 0.000000
#
# Coordination Sequence:
#
# PCOD8100933 Si02
#       7
#     8   8   8   8   8   8   8
#     4   8  15  30  52  76 104 138 177 221 275 329
#     4  10  20  36  56  77 109 149 184 223 278 337
#     4  10  22  40  59  81 113 156 196 235 284 341
#     4  10  21  34  56  86 110 138 183 237 280 324
#     4   8  15  29  51  80 106 131 172 227 278 325
#     4  10  22  37  57  82 111 150 190 232 283 337
#     4  11  24  39  58  86 118 152 190 235 285 341
#
# _framework density 19.630248000000002
#
# number of rings (size 3 to 8) (size 9 to 14) (size 15 to 20)
#    0.000    2.429    1.429    1.286    4.000    2.000 
#    0.000    0.000    0.000    0.000    0.000    2.000 
#    0.000    0.000    0.000    0.000    0.000    0.000 
#
# Total GULP energy -347092.095236 kJ/mol
# GULP energy per Si atom -12396.146258 kJ/mol
# Density = 1.958557 g / cm^3
# Si number density = 19.630248 Si / 1000 Ang^3
#
#
#
# Elastic Constant Matrix: (Units=GPa)
#
#
# Indices 1 2 3 4 5 6 
#
# 1 163.1318 24.5449 72.4805 0.0000 -4.6584 0.0000
# 2 24.5449 22.4528 26.3355 0.0000 -3.2782 0.0000
# 3 72.4805 26.3355 151.9309 0.0000 -13.0724 0.0000
# 4 0.0000 0.0000 0.0000 16.9802 0.0000 -8.5946
# 5 -4.6584 -3.2782 -13.0724 0.0000 32.0343 0.0000
# 6 0.0000 0.0000 0.0000 -8.5946 0.0000 29.4644
#
#
#
# Elastic Compliance Matrix: (Units=1/GPa)
#
#
# Indices 1 2 3 4 5 6 
#
# 1 0.008308 -0.005599 -0.003045 0.000000 -0.000608 0.000000
# 2 -0.005599 0.059781 -0.007498 0.000000 0.002244 0.000000
# 3 -0.003045 -0.007498 0.009566 0.000000 0.002694 0.000000
# 4 0.000000 0.000000 0.000000 0.069093 0.000000 0.020154
# 5 -0.000608 0.002244 0.002694 0.000000 0.032457 0.000000
# 6 0.000000 0.000000 0.000000 0.020154 0.000000 0.039818
#
#
# Mechanical properties :
#
#
# Convention : Reuss Voigt Hill
#
# Bulk Modulus (GPa) = 22.04082 64.91525 43.47804
# Shear Modulus (GPa) = 18.76649 29.97276 24.36962
#
# Velocity S-wave (km/s) = 3.09528 3.91175 3.52722
# Velocity P-wave (km/s) = 4.90170 7.31732 6.22776
#
# Compressibility (1/GPa) = 0.04537036
#
# Stress axis : x y z
#
# Youngs Moduli (GPa) = 120.36425 16.72767 104.53476
#
# Poissons Ratio (x) = 0.09366 0.31833
# Poissons Ratio (y) = 0.67393 0.78383
# Poissons Ratio (z) = 0.36654 0.12543
#
# Static dielectric constant tensor:
#      x y z
#    x 3.850680 0.000000 0.055430 
#    y 0.000000 3.121500 0.000000 
#    z 0.055430 0.000000 3.897290 
# 
# 
# High freq. dielectric constant tensor:
#      x y z
#    x 1.777270 0.000000 -0.002230 
#    y 0.000000 1.722360 0.000000 
#    z -0.002230 0.000000 1.775640 
# 
# From -- ./inp_files/238931.got.cif
#   From: 2010.06.25/outbox.cif.g09.slc.cpg/sg12_120_cif.got.tgz:238931.got - 2010.06.28 00:19:55.
