data_PCOD8100540
_publ_section_title
;
Structure prediction by ZEFSAII (Michael W. Deem and Ramdas Pophale) SiO2 
 PCOD8100540
Probable space group: C 2/M
;
_chemical_formula_sum "Si O2"
_cell_formula_units_Z 56
_cell_length_a 25.090265
_cell_length_b 8.793225
_cell_length_c 14.400212
_cell_angle_alpha 90.000000
_cell_angle_beta 60.509547
_cell_angle_gamma 90.000000
_cell_volume 2765.413191
_symmetry_space_group_name_H-M "C 2/M"
_symmetry_group_IT_number 12
_symmetry_cell_setting 'monoclinic'
loop_
_space_group_symop_operation_xyz
x,y,z
-x,y,-z
-x,-y,-z
x,-y,z
1/2+x,1/2+y,z
1/2-x,1/2+y,-z
1/2-x,1/2-y,-z
1/2+x,1/2-y,z
loop_
_atom_site_type_symbol
_atom_site_label
_atom_site_fract_x
_atom_site_fract_y
_atom_site_fract_z
Si Si1 0.573566 0.322129 0.690502
Si Si2 0.728627 0.322050 0.785923
Si Si3 0.509016 0.170713 0.100513
Si Si4 0.520756 0.679820 0.383365
Si Si5 0.798449 0.679581 0.388820
Si Si6 0.852461 0.323183 0.987941
Si Si7 0.852260 0.324006 0.778899
O O1 0.588493 0.500000 0.670170
O O2 0.540179 0.287169 0.815952
O O3 0.528629 0.261815 0.648571
O O4 0.635691 0.228558 0.630085
O O5 0.721193 0.500000 0.772923
O O6 0.711775 0.233392 0.707476
O O7 0.684173 0.277556 0.907817
O O8 0.797848 0.280349 0.755482
O O9 0.497331 0.000000 0.148986
O O10 0.500000 0.174632 0.000000
O O11 0.576735 0.224944 0.068695
O O12 0.500000 0.747763 0.500000
O O13 0.520822 0.500000 0.385508
O O14 0.588625 0.730051 0.299787
O O15 0.792480 0.500000 0.396634
O O16 0.750000 0.750000 0.500000
O O17 0.843703 0.500000 0.021595
O O18 0.829924 0.286300 0.902840
O O19 0.869916 0.500000 0.757046
#
# Coordination Sequence:
#
# PCOD8100540 Si02
#       7
#     8   8   8   8   8   8   8
#     4  11  23  41  65  95 128 161 207 260 312 370
#     4  11  24  41  63  95 130 166 215 264 312 374
#     4  10  20  35  59  89 124 166 210 254 307 370
#     4  10  23  41  63  94 128 165 209 257 314 375
#     4  12  27  47  69  92 124 166 211 261 319 376
#     4  10  20  37  60  91 131 171 211 256 314 374
#     4  10  22  40  63  94 129 168 213 259 312 375
#
# _framework density 20.250138
#
# number of rings (size 3 to 8) (size 9 to 14) (size 15 to 20)
#    0.000    1.429    1.429    3.429    2.000    4.571 
#    0.000    0.000    0.000    0.000    0.000    0.000 
#    0.000    0.000    0.000    0.000    0.000    0.000 
#
# Total GULP energy -347320.557815 kJ/mol
# GULP energy per Si atom -12404.305636 kJ/mol
# Density = 2.020405 g / cm^3
# Si number density = 20.250138 Si / 1000 Ang^3
#
#
#
# Elastic Constant Matrix: (Units=GPa)
#
#
# Indices 1 2 3 4 5 6 
#
# 1 100.7668 40.4487 46.5742 0.0000 -17.6358 0.0000
# 2 40.4487 82.2730 40.9046 -0.0002 -9.9667 -0.0002
# 3 46.5742 40.9046 121.6251 0.0001 -10.9038 0.0001
# 4 0.0000 -0.0002 0.0001 104.4356 0.0000 42.5809
# 5 -17.6358 -9.9667 -10.9038 0.0000 26.3957 0.0000
# 6 0.0000 -0.0002 0.0001 42.5809 0.0000 63.2739
#
#
#
# Elastic Compliance Matrix: (Units=1/GPa)
#
#
# Indices 1 2 3 4 5 6 
#
# 1 0.014507 -0.004647 -0.003407 0.000000 0.006530 0.000000
# 2 -0.004647 0.016424 -0.003600 0.000000 0.001610 0.000000
# 3 -0.003407 -0.003600 0.010812 0.000000 0.000831 0.000000
# 4 0.000000 0.000000 0.000000 0.013196 0.000000 -0.008880
# 5 0.006530 0.001610 0.000831 0.000000 0.043199 0.000000
# 6 0.000000 0.000000 0.000000 -0.008880 0.000000 0.021781
#
#
# Mechanical properties :
#
#
# Convention : Reuss Voigt Hill
#
# Bulk Modulus (GPa) = 54.24445 62.28000 58.26222
# Shear Modulus (GPa) = 33.47363 50.60353 42.03858
#
# Velocity S-wave (km/s) = 4.07013 5.00435 4.56122
# Velocity P-wave (km/s) = 6.99523 8.01333 7.52153
#
# Compressibility (1/GPa) = 0.01843507
#
# Stress axis : x y z
#
# Youngs Moduli (GPa) = 68.93273 60.88571 92.49229
#
# Poissons Ratio (x) = 0.28295 0.31510
# Poissons Ratio (y) = 0.32035 0.33296
# Poissons Ratio (z) = 0.23484 0.21918
#
# Static dielectric constant tensor:
#      x y z
#    x 3.751070 0.000000 0.017240 
#    y 0.000000 3.656350 0.000000 
#    z 0.017240 0.000000 3.669030 
# 
# 
# High freq. dielectric constant tensor:
#      x y z
#    x 1.809380 0.000000 0.002820 
#    y 0.000000 1.786790 0.000000 
#    z 0.002820 0.000000 1.798250 
# 
# From -- ./inp_files/238415.got.cif
#   From: 2010.06.25/outbox.cif.g09.slc.cpg/sg12_120_cif.got.tgz:238415.got - 2010.06.28 00:19:55.
