data_PCOD8100842
_publ_section_title
;
Structure prediction by ZEFSAII (Michael W. Deem and Ramdas Pophale) SiO2 
 PCOD8100842
Probable space group: C 2/M
;
_chemical_formula_sum "Si O2"
_cell_formula_units_Z 64
_cell_length_a 19.181727
_cell_length_b 9.168908
_cell_length_c 19.692504
_cell_angle_alpha 90.000000
_cell_angle_beta 97.775835
_cell_angle_gamma 90.000000
_cell_volume 3431.582536
_symmetry_space_group_name_H-M "C 2/M"
_symmetry_group_IT_number 12
_symmetry_cell_setting 'monoclinic'
loop_
_space_group_symop_operation_xyz
x,y,z
-x,y,-z
-x,-y,-z
x,-y,z
1/2+x,1/2+y,z
1/2-x,1/2+y,-z
1/2-x,1/2-y,-z
1/2+x,1/2-y,z
loop_
_atom_site_type_symbol
_atom_site_label
_atom_site_fract_x
_atom_site_fract_y
_atom_site_fract_z
Si Si1 0.096576 0.172142 0.185102
Si Si2 0.073159 0.667564 0.530604
Si Si3 0.304045 0.167776 0.554002
Si Si4 0.943238 0.173133 0.204732
Si Si5 0.182065 0.828942 0.070378
Si Si6 0.371664 0.828178 0.318858
Si Si7 0.676011 0.329559 0.915524
Si Si8 0.288798 0.328789 0.690924
O O1 0.120190 0.223958 0.112949
O O2 0.156625 0.224209 0.244989
O O3 0.020154 0.236097 0.194503
O O4 0.090331 0.000000 0.185886
O O5 0.058577 0.500000 0.546231
O O6 0.120995 0.684615 0.471210
O O7 0.107946 0.733321 0.603559
O O8 0.000000 0.745871 0.500000
O O9 0.250000 0.250000 0.500000
O O10 0.309342 0.240492 0.627367
O O11 0.281058 0.000000 0.557985
O O12 0.920242 0.245579 0.271782
O O13 0.890045 0.220029 0.138052
O O14 0.944224 0.000000 0.214801
O O15 0.254773 0.752711 0.101029
O O16 0.195538 0.000000 0.080474
O O17 0.158835 0.787052 0.991191
O O18 0.289929 0.790031 0.295053
O O19 0.384548 0.000000 0.313240
O O20 0.690913 0.500000 0.910325
O O21 0.294830 0.500000 0.675350
#
# Coordination Sequence:
#
# PCOD8100842 Si02
#       8
#     8   8   8   8   8   8   8   8
#     4   9  19  34  53  76 106 140 174 214 258 308
#     4   9  19  35  54  76 103 134 170 213 257 304
#     4  11  21  36  58  81 104 134 172 217 263 309
#     4  10  21  35  50  76 111 139 167 214 267 306
#     4   9  17  33  57  79 100 138 182 211 250 308
#     4  10  20  36  56  75 100 139 179 212 252 310
#     4   9  18  32  53  80 108 135 170 218 260 301
#     4  10  20  36  55  76 103 136 175 218 257 303
#
# _framework density 18.650286999999999
#
# number of rings (size 3 to 8) (size 9 to 14) (size 15 to 20)
#    0.000    2.375    1.250    1.125    1.750    2.500 
#    0.000    3.750    0.000    1.875    0.000    4.375 
#    0.000    0.000    0.000    0.000    0.000    0.000 
#
# Total GULP energy -396767.800929 kJ/mol
# GULP energy per Si atom -12398.993779 kJ/mol
# Density = 1.860784 g / cm^3
# Si number density = 18.650287 Si / 1000 Ang^3
#
#
#
# Elastic Constant Matrix: (Units=GPa)
#
#
# Indices 1 2 3 4 5 6 
#
# 1 136.8585 24.9661 60.5605 0.0000 -5.7326 0.0000
# 2 24.9661 30.4635 25.3294 0.0000 -5.0034 0.0000
# 3 60.5605 25.3294 110.7382 0.0000 -15.8592 0.0000
# 4 0.0000 0.0000 0.0000 27.1091 0.0000 -6.1179
# 5 -5.7326 -5.0034 -15.8592 0.0000 32.8686 0.0000
# 6 0.0000 0.0000 0.0000 -6.1179 0.0000 21.2272
#
#
#
# Elastic Compliance Matrix: (Units=1/GPa)
#
#
# Indices 1 2 3 4 5 6 
#
# 1 0.010171 -0.004648 -0.004669 0.000000 -0.001186 0.000000
# 2 -0.004648 0.042762 -0.006900 0.000000 0.002370 0.000000
# 3 -0.004669 -0.006900 0.013852 0.000000 0.004819 0.000000
# 4 0.000000 0.000000 0.000000 0.039454 0.000000 0.011371
# 5 -0.001186 0.002370 0.004819 0.000000 0.032903 0.000000
# 6 0.000000 0.000000 0.000000 0.011371 0.000000 0.050387
#
#
# Mechanical properties :
#
#
# Convention : Reuss Voigt Hill
#
# Bulk Modulus (GPa) = 29.11133 55.53024 42.32078
# Shear Modulus (GPa) = 21.42125 27.38792 24.40459
#
# Velocity S-wave (km/s) = 3.39274 3.83626 3.62129
# Velocity P-wave (km/s) = 5.56691 7.03289 6.34240
#
# Compressibility (1/GPa) = 0.03435089
#
# Stress axis : x y z
#
# Youngs Moduli (GPa) = 98.31698 23.38543 72.19159
#
# Poissons Ratio (x) = 0.10870 0.33707
# Poissons Ratio (y) = 0.45701 0.49809
# Poissons Ratio (z) = 0.45905 0.16135
#
# Static dielectric constant tensor:
#      x y z
#    x -1.715520 0.000000 -1.848730 
#    y 0.000000 3.152790 0.000000 
#    z -1.848730 0.000000 2.689450 
# 
# 
# High freq. dielectric constant tensor:
#      x y z
#    x 1.731170 0.000000 -0.001190 
#    y 0.000000 1.691560 0.000000 
#    z -0.001190 0.000000 1.737020 
# 
# From -- ./inp_files/314145.got.cif
#   From: 2010.06.25/outbox.cif.g09.slc.cpg/sg12_158_cif.got.tgz:314145.got - 2010.06.28 00:19:55.
