data_PCOD8100127
_publ_section_title
;
Structure prediction by ZEFSAII (Michael W. Deem and Ramdas Pophale) SiO2 
 PCOD8100127
Probable space group: C 2/M
;
_chemical_formula_sum "Si O2"
_cell_formula_units_Z 48
_cell_length_a 16.791381
_cell_length_b 20.826910
_cell_length_c 14.617452
_cell_angle_alpha 90.000000
_cell_angle_beta 147.961690
_cell_angle_gamma 90.000000
_cell_volume 2711.795950
_symmetry_space_group_name_H-M "C 2/M"
_symmetry_group_IT_number 12
_symmetry_cell_setting 'monoclinic'
loop_
_space_group_symop_operation_xyz
x,y,z
-x,y,-z
-x,-y,-z
x,-y,z
1/2+x,1/2+y,z
1/2-x,1/2+y,-z
1/2-x,1/2-y,-z
1/2+x,1/2-y,z
loop_
_atom_site_type_symbol
_atom_site_label
_atom_site_fract_x
_atom_site_fract_y
_atom_site_fract_z
Si Si1 0.638375 0.259864 0.307027
Si Si2 0.183563 0.808670 0.992420
Si Si3 0.671095 0.768134 0.682210
Si Si4 0.702854 0.071257 0.006121
Si Si5 0.835553 0.116824 0.319384
Si Si6 0.432974 0.875132 0.833690
O O1 0.750000 0.250000 0.500000
O O2 0.498964 0.307856 0.191042
O O3 0.736528 0.285688 0.318556
O O4 0.559541 0.193065 0.207821
O O5 0.250000 0.750000 0.000000
O O6 0.247609 0.805858 0.157233
O O7 0.237901 0.876994 0.007660
O O8 0.500000 0.791362 0.500000
O O9 0.674419 0.692830 0.709501
O O10 0.525539 0.078027 0.857571
O O11 0.729542 0.000000 0.991873
O O12 0.787138 0.078150 0.183860
O O13 0.736259 0.099731 0.313158
O O14 0.000000 0.092681 0.500000
O O15 0.500000 0.866472 0.000000
#
# Coordination Sequence:
#
# PCOD8100127 Si02
#       6
#     8   8   8   8   8   8
#     4  11  21  32  58  91 114 141 184 239 288 336
#     4  12  20  36  59  83 114 152 186 236 280 333
#     4  10  20  35  57  90 115 142 184 237 288 339
#     4  11  23  36  54  80 114 156 194 229 280 339
#     4   9  18  32  55  82 118 147 183 228 283 347
#     4   9  18  34  53  79 114 149 184 223 284 341
#
# _framework density 17.700447
#
# number of rings (size 3 to 8) (size 9 to 14) (size 15 to 20)
#    0.000    1.667    3.333    3.500    4.667    3.333 
#    0.000    0.000    0.000    2.500    0.000    0.000 
#    0.000    0.000    0.000    0.000    0.000    0.000 
#
# Total GULP energy -297507.598661 kJ/mol
# GULP energy per Si atom -12396.149944 kJ/mol
# Density = 1.766016 g / cm^3
# Si number density = 17.700447 Si / 1000 Ang^3
#
#
#
# Elastic Constant Matrix: (Units=GPa)
#
#
# Indices 1 2 3 4 5 6 
#
# 1 136.2040 55.8612 69.2725 0.0000 14.1104 0.0000
# 2 55.8612 94.8709 30.3386 0.0000 0.7203 0.0000
# 3 69.2725 30.3386 89.0719 0.0000 19.5731 0.0000
# 4 0.0000 0.0000 0.0000 10.1261 0.0000 -2.8683
# 5 14.1104 0.7203 19.5731 0.0000 38.7053 0.0000
# 6 0.0000 0.0000 0.0000 -2.8683 0.0000 21.7608
#
#
#
# Elastic Compliance Matrix: (Units=1/GPa)
#
#
# Indices 1 2 3 4 5 6 
#
# 1 0.014291 -0.005489 -0.009138 0.000000 -0.000487 0.000000
# 2 -0.005489 0.014083 -0.001024 0.000000 0.002257 0.000000
# 3 -0.009138 -0.001024 0.020189 0.000000 -0.006859 0.000000
# 4 0.000000 0.000000 0.000000 0.102585 0.000000 0.013522
# 5 -0.000487 0.002257 -0.006859 0.000000 0.029441 0.000000
# 6 0.000000 0.000000 0.000000 0.013522 0.000000 0.047736
#
#
# Mechanical properties :
#
#
# Convention : Reuss Voigt Hill
#
# Bulk Modulus (GPa) = 57.92949 70.12127 64.02538
# Shear Modulus (GPa) = 18.84094 25.09676 21.96885
#
# Velocity S-wave (km/s) = 3.26610 3.76953 3.52681
# Velocity P-wave (km/s) = 6.85726 7.65816 7.26875
#
# Compressibility (1/GPa) = 0.01726236
#
# Stress axis : x y z
#
# Youngs Moduli (GPa) = 69.97480 71.00851 49.53075
#
# Poissons Ratio (x) = 0.38975 0.45260
# Poissons Ratio (y) = 0.38408 0.05071
# Poissons Ratio (z) = 0.63941 0.07270
#
# Static dielectric constant tensor:
#      x y z
#    x 3.688850 0.000000 0.343850 
#    y 0.000000 2.982600 0.000000 
#    z 0.343850 0.000000 3.540490 
# 
# 
# High freq. dielectric constant tensor:
#      x y z
#    x 1.697720 0.000000 0.017880 
#    y 0.000000 1.639380 0.000000 
#    z 0.017880 0.000000 1.687540 
# 
# From -- ./inp_files/75116.got.cif
#   From: 2010.06.25/outbox.cif.g09.slc.cpg/sg12_38_cif.got.tgz:75116.got - 2010.06.28 00:19:55.
