data_PCOD8100566
_publ_section_title
;
Structure prediction by ZEFSAII (Michael W. Deem and Ramdas Pophale) SiO2 
 PCOD8100566
Probable space group: C 2/M
;
_chemical_formula_sum "Si O2"
_cell_formula_units_Z 56
_cell_length_a 23.911036
_cell_length_b 15.275675
_cell_length_c 8.483476
_cell_angle_alpha 90.000000
_cell_angle_beta 113.771271
_cell_angle_gamma 90.000000
_cell_volume 2835.767158
_symmetry_space_group_name_H-M "C 2/M"
_symmetry_group_IT_number 12
_symmetry_cell_setting 'monoclinic'
loop_
_space_group_symop_operation_xyz
x,y,z
-x,y,-z
-x,-y,-z
x,-y,z
1/2+x,1/2+y,z
1/2-x,1/2+y,-z
1/2-x,1/2-y,-z
1/2+x,1/2-y,z
loop_
_atom_site_type_symbol
_atom_site_label
_atom_site_fract_x
_atom_site_fract_y
_atom_site_fract_z
Si Si1 0.335924 0.218921 0.456714
Si Si2 0.277829 0.702839 0.879335
Si Si3 0.834191 0.642798 0.781380
Si Si4 0.441727 0.243828 0.330373
Si Si5 0.953621 0.597952 0.081529
Si Si6 0.630362 0.595980 0.848846
Si Si7 0.198414 0.093347 0.597762
O O1 0.274870 0.180839 0.305821
O O2 0.353600 0.156751 0.621119
O O3 0.388481 0.214674 0.387514
O O4 0.321474 0.316937 0.512476
O O5 0.328870 0.764759 0.861880
O O6 0.250000 0.750000 0.000000
O O7 0.314780 0.615661 0.966502
O O8 0.770165 0.592195 0.719109
O O9 0.886383 0.589521 0.929671
O O10 0.500000 0.269505 0.500000
O O11 0.456977 0.163794 0.231996
O O12 0.422371 0.329824 0.207843
O O13 0.971907 0.500000 0.159781
O O14 0.000000 0.632064 0.000000
O O15 0.602691 0.500000 0.857858
O O16 0.660124 0.595695 0.712540
O O17 0.183725 0.000000 0.492918
#
# Coordination Sequence:
#
# PCOD8100566 Si02
#       7
#     8   8   8   8   8   8   8
#     4  10  21  34  56  87 116 156 196 238 294 356
#     4  11  16  34  57  85 119 155 195 243 294 344
#     4  11  19  35  56  81 118 156 192 235 293 364
#     4  11  22  41  63  85 116 158 199 247 300 349
#     4  11  24  41  62  85 112 152 198 246 301 359
#     4  10  20  35  59  91 120 152 199 243 287 351
#     4   9  17  30  52  81 114 149 189 234 283 342
#
# _framework density 19.747741000000001
#
# number of rings (size 3 to 8) (size 9 to 14) (size 15 to 20)
#    0.000    1.571    5.714    3.000    0.000    0.571 
#    0.000    5.000    0.000    0.429    0.000    0.000 
#    0.000    0.000    0.000    0.000    0.000    0.000 
#
# Total GULP energy -347007.183724 kJ/mol
# GULP energy per Si atom -12393.113704 kJ/mol
# Density = 1.970279 g / cm^3
# Si number density = 19.747741 Si / 1000 Ang^3
#
#
#
# Elastic Constant Matrix: (Units=GPa)
#
#
# Indices 1 2 3 4 5 6 
#
# 1 75.0416 22.7448 13.7272 0.0000 7.7684 0.0000
# 2 22.7448 108.8709 41.4627 0.0000 5.6426 0.0000
# 3 13.7272 41.4627 73.5178 0.0000 5.3858 0.0000
# 4 0.0000 0.0000 0.0000 -9.1392 0.0000 1.2486
# 5 7.7684 5.6426 5.3858 0.0000 23.6653 0.0000
# 6 0.0000 0.0000 0.0000 1.2486 0.0000 18.6355
#
#
#
# Elastic Compliance Matrix: (Units=1/GPa)
#
#
# Indices 1 2 3 4 5 6 
#
# 1 0.014678 -0.002454 -0.001064 0.000000 -0.003991 0.000000
# 2 -0.002454 0.012148 -0.006346 0.000000 -0.000647 0.000000
# 3 -0.001064 -0.006346 0.017536 0.000000 -0.002128 0.000000
# 4 0.000000 0.000000 0.000000 -0.108426 0.000000 0.007264
# 5 -0.003991 -0.000647 -0.002128 0.000000 0.044205 0.000000
# 6 0.000000 0.000000 0.000000 0.007264 0.000000 0.053174
#
#
# Mechanical properties :
#
#
# Convention : Reuss Voigt Hill
#
# Bulk Modulus (GPa) = 40.59550 45.92219 43.25884
# Shear Modulus (GPa) = 81.62840 18.59870 50.11355
#
# Velocity S-wave (km/s) = 6.43625 3.07223 5.04301
# Velocity P-wave (km/s) = 8.70835 5.99080 7.47412
#
# Compressibility (1/GPa) = 0.02463327
#
# Stress axis : x y z
#
# Youngs Moduli (GPa) = 68.13102 82.31701 57.02687
#
# Poissons Ratio (x) = 0.20203 0.06068
# Poissons Ratio (y) = 0.16721 0.36187
# Poissons Ratio (z) = 0.07249 0.52236
#
# Static dielectric constant tensor:
#      x y z
#    x 3.716690 0.000000 0.090680 
#    y 0.000000 4.131120 0.000000 
#    z 0.090680 0.000000 3.594180 
# 
# 
# High freq. dielectric constant tensor:
#      x y z
#    x 1.764200 0.000000 -0.001230 
#    y 0.000000 1.765910 0.000000 
#    z -0.001230 0.000000 1.754470 
# 
# From -- ./inp_files/96481.got.cif
#   From: 2010.06.25/outbox.cif.g09.slc.cpg/sg12_49_cif.got.tgz:96481.got - 2010.06.28 00:19:55.
