data_PCOD8100432
_publ_section_title
;
Structure prediction by ZEFSAII (Michael W. Deem and Ramdas Pophale) SiO2 
 PCOD8100432
Probable space group: C 2/M
;
_chemical_formula_sum "Si O2"
_cell_formula_units_Z 44
_cell_length_a 13.025387
_cell_length_b 13.182921
_cell_length_c 26.177779
_cell_angle_alpha 90.000000
_cell_angle_beta 31.917575
_cell_angle_gamma 90.000000
_cell_volume 2376.530241
_symmetry_space_group_name_H-M "C 2/M"
_symmetry_group_IT_number 12
_symmetry_cell_setting 'monoclinic'
loop_
_space_group_symop_operation_xyz
x,y,z
-x,y,-z
-x,-y,-z
x,-y,z
1/2+x,1/2+y,z
1/2-x,1/2+y,-z
1/2-x,1/2-y,-z
1/2+x,1/2-y,z
loop_
_atom_site_type_symbol
_atom_site_label
_atom_site_fract_x
_atom_site_fract_y
_atom_site_fract_z
Si Si1 0.298568 0.691589 0.354898
Si Si2 0.928241 0.383483 0.458957
Si Si3 0.535809 0.884656 0.671578
Si Si4 0.874790 0.116373 0.852884
Si Si5 0.500000 0.748903 0.000000
Si Si6 0.418453 0.617788 0.130759
O O1 0.109211 0.685948 0.399312
O O2 0.356065 0.810174 0.334965
O O3 0.473284 0.627942 0.257209
O O4 0.258154 0.644698 0.428096
O O5 0.990521 0.500000 0.441796
O O6 0.876732 0.365578 0.421749
O O7 0.308372 0.859812 0.766660
O O8 0.573952 0.000000 0.673529
O O9 0.973412 0.153819 0.863667
O O10 0.810456 0.000000 0.884138
O O11 0.688577 0.182147 0.918913
O O12 0.490996 0.679254 0.954024
O O13 0.456337 0.500000 0.104147
#
# Coordination Sequence:
#
# PCOD8100432 Si02
#       6
#     8   8   8   8   4   8
#     4  11  19  34  58  85 109 143 184 223 268 318
#     4  10  20  35  59  85 109 145 187 220 261 329
#     4  10  20  36  56  81 111 145 185 224 268 321
#     4  11  22  37  57  82 115 142 177 229 278 323
#     4  12  22  38  58  84 106 144 186 226 278 324
#     4  10  21  38  58  80 106 146 187 225 267 324
#
# _framework density 18.514388
#
# number of rings (size 3 to 8) (size 9 to 14) (size 15 to 20)
#    0.000    1.455    3.636    3.818    0.000    0.000 
#    0.000    1.818    0.000    6.545    0.000    0.000 
#    0.000    0.000    0.000    0.000    0.000    0.000 
#
# Total GULP energy -272873.661114 kJ/mol
# GULP energy per Si atom -12403.348232 kJ/mol
# Density = 1.847225 g / cm^3
# Si number density = 18.514388 Si / 1000 Ang^3
#
#
#
# Elastic Constant Matrix: (Units=GPa)
#
#
# Indices 1 2 3 4 5 6 
#
# 1 63.2840 40.7778 24.7480 -0.0112 -7.6803 0.0194
# 2 40.7778 71.3690 18.8696 0.0085 -3.7423 -0.0161
# 3 24.7480 18.8696 108.5599 0.0147 1.8807 -0.0270
# 4 -0.0112 0.0085 0.0147 113.8013 0.0015 -160.5780
# 5 -7.6803 -3.7423 1.8807 0.0015 25.3967 -0.0044
# 6 0.0194 -0.0161 -0.0270 -160.5780 -0.0044 346.0750
#
#
#
# Elastic Compliance Matrix: (Units=1/GPa)
#
#
# Indices 1 2 3 4 5 6 
#
# 1 0.027246 -0.014212 -0.003852 0.000002 0.006431 -0.000001
# 2 -0.014212 0.022242 -0.000609 -0.000001 -0.000975 0.000001
# 3 -0.003852 -0.000609 0.010230 -0.000001 -0.002012 0.000001
# 4 0.000002 -0.000001 -0.000001 0.025450 0.000001 0.011809
# 5 0.006431 -0.000975 -0.002012 0.000001 0.041325 0.000000
# 6 -0.000001 0.000001 0.000001 0.011809 0.000000 0.008369
#
#
# Mechanical properties :
#
#
# Convention : Reuss Voigt Hill
#
# Bulk Modulus (GPa) = 44.69965 45.77821 45.23893
# Shear Modulus (GPa) = 27.82936 107.64243 67.73589
#
# Velocity S-wave (km/s) = 3.88122 7.63322 6.05516
# Velocity P-wave (km/s) = 6.65438 10.12263 8.56587
#
# Compressibility (1/GPa) = 0.02237154
#
# Stress axis : x y z
#
# Youngs Moduli (GPa) = 36.70216 44.96035 97.74705
#
# Poissons Ratio (x) = 0.63897 0.37656
# Poissons Ratio (y) = 0.52161 0.05956
# Poissons Ratio (z) = 0.14139 0.02739
#
# Static dielectric constant tensor:
#      x y z
#    x 3.232610 0.000000 0.132540 
#    y 0.000000 3.461160 0.000000 
#    z 0.132540 0.000000 3.537860 
# 
# 
# High freq. dielectric constant tensor:
#      x y z
#    x 1.702980 0.000000 0.009240 
#    y 0.000000 1.720090 0.000000 
#    z 0.009240 0.000000 1.729700 
# 
# From -- ./inp_files/203393.got.cif
#   From: 2010.06.25/outbox.cif.g09.slc.cpg/sg12_102_cif.got.tgz:203393.got - 2010.06.28 00:19:55.
