data_PCOD8100832
_publ_section_title
;
Structure prediction by ZEFSAII (Michael W. Deem and Ramdas Pophale) SiO2 
 PCOD8100832
Probable space group: C 2/M
;
_chemical_formula_sum "Si O2"
_cell_formula_units_Z 64
_cell_length_a 25.109312
_cell_length_b 9.165873
_cell_length_c 15.384434
_cell_angle_alpha 90.000000
_cell_angle_beta 105.913849
_cell_angle_gamma 90.000000
_cell_volume 3405.011053
_symmetry_space_group_name_H-M "C 2/M"
_symmetry_group_IT_number 12
_symmetry_cell_setting 'monoclinic'
loop_
_space_group_symop_operation_xyz
x,y,z
-x,y,-z
-x,-y,-z
x,-y,z
1/2+x,1/2+y,z
1/2-x,1/2+y,-z
1/2-x,1/2-y,-z
1/2+x,1/2-y,z
loop_
_atom_site_type_symbol
_atom_site_label
_atom_site_fract_x
_atom_site_fract_y
_atom_site_fract_z
Si Si1 0.440110 0.330303 0.303864
Si Si2 0.350035 0.829218 0.931340
Si Si3 0.744382 0.662425 0.670986
Si Si4 0.878789 0.329301 0.129534
Si Si5 0.129829 0.825325 0.563935
Si Si6 0.568114 0.330234 0.365530
Si Si7 0.365660 0.825568 0.747578
Si Si8 0.771564 0.164134 0.133994
O O1 0.427773 0.500000 0.283929
O O2 0.424768 0.250647 0.207321
O O3 0.404534 0.266964 0.368228
O O4 0.503857 0.300807 0.354047
O O5 0.375584 0.771384 0.851831
O O6 0.287890 0.768348 0.921083
O O7 0.340222 0.000000 0.913669
O O8 0.389723 0.795680 0.031436
O O9 0.750801 0.500000 0.637063
O O10 0.693230 0.737086 0.595323
O O11 0.805161 0.735863 0.688693
O O12 0.724956 0.658579 0.761065
O O13 0.882338 0.500000 0.150406
O O14 0.817391 0.275201 0.121732
O O15 0.101434 0.768171 0.463341
O O16 0.128885 0.000000 0.566454
O O17 0.580351 0.500000 0.356395
O O18 0.586412 0.244082 0.288231
O O19 0.368352 0.000000 0.742006
O O20 0.782000 0.000000 0.102029
#
# Coordination Sequence:
#
# PCOD8100832 Si02
#       8
#     8   8   8   8   8   8   8   8
#     4  10  20  36  55  74 100 137 174 207 253 311
#     4   8  17  32  51  74 102 139 176 202 239 306
#     4   8  14  27  52  79 100 131 170 199 236 305
#     4  11  20  30  48  78 108 131 165 215 259 295
#     4   9  16  31  56  80 100 127 169 213 252 304
#     4  10  21  35  54  78 100 128 173 223 258 290
#     4   9  18  35  55  73 101 140 174 201 242 307
#     4   9  15  29  51  74 103 138 170 200 244 307
#
# _framework density 18.795826999999999
#
# number of rings (size 3 to 8) (size 9 to 14) (size 15 to 20)
#    0.000    2.750    1.250    2.625    0.000    2.500 
#    0.000    5.625    0.000    5.250    0.000    0.000 
#    0.000    0.000    0.000    0.000    0.000    0.000 
#
# Total GULP energy -396549.093118 kJ/mol
# GULP energy per Si atom -12392.159160 kJ/mol
# Density = 1.875305 g / cm^3
# Si number density = 18.795827 Si / 1000 Ang^3
#
#
#
# Elastic Constant Matrix: (Units=GPa)
#
#
# Indices 1 2 3 4 5 6 
#
# 1 43.5358 16.3194 15.3036 0.0000 -10.6214 0.0000
# 2 16.3194 32.9814 23.6892 0.0000 0.4523 0.0000
# 3 15.3036 23.6892 96.9365 0.0000 7.6069 0.0000
# 4 0.0000 0.0000 0.0000 23.3008 0.0000 -0.3758
# 5 -10.6214 0.4523 7.6069 0.0000 19.0064 0.0000
# 6 0.0000 0.0000 0.0000 -0.3758 0.0000 23.6054
#
#
#
# Elastic Compliance Matrix: (Units=1/GPa)
#
#
# Indices 1 2 3 4 5 6 
#
# 1 0.035095 -0.015130 -0.003521 0.000000 0.021382 0.000000
# 2 -0.015130 0.043443 -0.007726 0.000000 -0.006397 0.000000
# 3 -0.003521 -0.007726 0.013318 0.000000 -0.007114 0.000000
# 4 0.000000 0.000000 0.000000 0.042928 0.000000 0.000683
# 5 0.021382 -0.006397 -0.007114 0.000000 0.067562 0.000000
# 6 0.000000 0.000000 0.000000 0.000683 0.000000 0.042374
#
#
# Mechanical properties :
#
#
# Convention : Reuss Voigt Hill
#
# Bulk Modulus (GPa) = 25.57326 31.56423 28.56874
# Shear Modulus (GPa) = 16.10258 21.05861 18.58059
#
# Velocity S-wave (km/s) = 2.93014 3.35085 3.14753
# Velocity P-wave (km/s) = 5.00829 5.63920 5.33308
#
# Compressibility (1/GPa) = 0.03910334
#
# Stress axis : x y z
#
# Youngs Moduli (GPa) = 28.49396 23.01843 75.08467
#
# Poissons Ratio (x) = 0.34826 0.26438
# Poissons Ratio (y) = 0.43110 0.58012
# Poissons Ratio (z) = 0.10033 0.17784
#
# Static dielectric constant tensor:
#      x y z
#    x 3.361670 0.000000 0.105150 
#    y 0.000000 3.021980 0.000000 
#    z 0.105150 0.000000 3.681930 
# 
# 
# High freq. dielectric constant tensor:
#      x y z
#    x 1.718410 0.000000 0.007490 
#    y 0.000000 1.682130 0.000000 
#    z 0.007490 0.000000 1.740670 
# 
# From -- ./inp_files/244261.got.cif
#   From: 2010.06.25/outbox.cif.g09.slc.cpg/sg12_123_cif.got.tgz:244261.got - 2010.06.28 00:19:55.
