data_PCOD8100645
_publ_section_title
;
Structure prediction by ZEFSAII (Michael W. Deem and Ramdas Pophale) SiO2 
 PCOD8100645
Probable space group: C 2/M
;
_chemical_formula_sum "Si O2"
_cell_formula_units_Z 48
_cell_length_a 20.219118
_cell_length_b 8.497228
_cell_length_c 14.842588
_cell_angle_alpha 90.000000
_cell_angle_beta 112.263690
_cell_angle_gamma 90.000000
_cell_volume 2359.946040
_symmetry_space_group_name_H-M "C 2/M"
_symmetry_group_IT_number 12
_symmetry_cell_setting 'monoclinic'
loop_
_space_group_symop_operation_xyz
x,y,z
-x,y,-z
-x,-y,-z
x,-y,z
1/2+x,1/2+y,z
1/2-x,1/2+y,-z
1/2-x,1/2-y,-z
1/2+x,1/2-y,z
loop_
_atom_site_type_symbol
_atom_site_label
_atom_site_fract_x
_atom_site_fract_y
_atom_site_fract_z
Si Si1 0.658071 0.816797 0.383252
Si Si2 0.804480 0.681301 0.400259
Si Si3 0.059756 0.185378 0.191995
Si Si4 0.815197 0.818294 0.221132
Si Si5 0.333464 0.317152 0.910971
Si Si6 0.093595 0.683757 0.883753
O O1 0.720760 0.715643 0.370603
O O2 0.652078 0.777451 0.486341
O O3 0.584286 0.768052 0.297619
O O4 0.675368 0.000000 0.377793
O O5 0.812929 0.500000 0.378015
O O6 0.836197 0.785690 0.335788
O O7 0.113496 0.236581 0.140784
O O8 0.982204 0.247199 0.124716
O O9 0.058203 0.000000 0.205245
O O10 0.747338 0.712910 0.160172
O O11 0.882222 0.770300 0.194793
O O12 0.796311 0.000000 0.197477
O O13 0.343728 0.500000 0.939361
O O14 0.349628 0.216168 0.008089
O O15 0.087798 0.500000 0.861850
#
# Coordination Sequence:
#
# PCOD8100645 Si02
#       6
#     8   8   8   8   8   8
#     4  10  20  35  60  91 122 156 199 246 295 353
#     4  10  20  36  59  90 123 156 197 248 299 349
#     4  11  23  40  63  90 124 160 200 249 300 355
#     4  12  24  40  63  90 122 159 204 250 300 359
#     4  11  23  41  64  90 121 158 203 250 299 354
#     4  12  26  42  61  86 123 162 202 250 303 361
#
# _framework density 20.339448000000001
#
# number of rings (size 3 to 8) (size 9 to 14) (size 15 to 20)
#    0.000    1.000    1.667    6.000    0.000    6.000 
#    0.000    0.833    0.000    5.000    0.000    0.000 
#    0.000    0.000    0.000    0.000    0.000    0.000 
#
# Total GULP energy -297796.100701 kJ/mol
# GULP energy per Si atom -12408.170863 kJ/mol
# Density = 2.029315 g / cm^3
# Si number density = 20.339448 Si / 1000 Ang^3
#
#
#
# Elastic Constant Matrix: (Units=GPa)
#
#
# Indices 1 2 3 4 5 6 
#
# 1 65.1358 23.5291 15.2350 0.0000 -11.9726 0.0000
# 2 23.5291 73.9276 32.9089 0.0000 -13.0287 0.0000
# 3 15.2350 32.9089 96.9985 0.0000 -18.5597 0.0000
# 4 0.0000 0.0000 0.0000 36.7883 0.0000 0.6819
# 5 -11.9726 -13.0287 -18.5597 0.0000 23.2591 0.0000
# 6 0.0000 0.0000 0.0000 0.6819 0.0000 31.0855
#
#
#
# Elastic Compliance Matrix: (Units=1/GPa)
#
#
# Indices 1 2 3 4 5 6 
#
# 1 0.018273 -0.004614 0.000001 0.000000 0.006822 0.000000
# 2 -0.004614 0.017704 -0.004530 0.000000 0.003927 0.000000
# 3 0.000001 -0.004530 0.013408 0.000000 0.008162 0.000000
# 4 0.000000 0.000000 0.000000 0.027194 0.000000 -0.000597
# 5 0.006822 0.003927 0.008162 0.000000 0.055218 0.000000
# 6 0.000000 0.000000 0.000000 -0.000597 0.000000 0.032182
#
#
# Mechanical properties :
#
#
# Convention : Reuss Voigt Hill
#
# Bulk Modulus (GPa) = 32.15657 42.15645 37.15651
# Shear Modulus (GPa) = 25.95625 29.18586 27.57106
#
# Velocity S-wave (km/s) = 3.57620 3.79217 3.68577
# Velocity P-wave (km/s) = 5.73555 6.32025 6.03498
#
# Compressibility (1/GPa) = 0.03109785
#
# Stress axis : x y z
#
# Youngs Moduli (GPa) = 54.72556 56.48453 74.58225
#
# Poissons Ratio (x) = 0.26061 -0.00005
# Poissons Ratio (y) = 0.25249 0.33789
# Poissons Ratio (z) = -0.00003 0.25590
#
# Static dielectric constant tensor:
#      x y z
#    x 3.526600 0.000000 -0.125990 
#    y 0.000000 3.670700 0.000000 
#    z -0.125990 0.000000 3.872730 
# 
# 
# High freq. dielectric constant tensor:
#      x y z
#    x 1.773000 0.000000 -0.008380 
#    y 0.000000 1.807100 0.000000 
#    z -0.008380 0.000000 1.806850 
# 
# From -- ./inp_files/230407.got.cif
#   From: 2010.06.25/outbox.cif.g09.slc.cpg/sg12_116_cif.got.tgz:230407.got - 2010.06.28 00:19:55.
