data_PCOD8100036
_publ_section_title
;
Structure prediction by ZEFSAII (Michael W. Deem and Ramdas Pophale) SiO2 
 PCOD8100036
Probable space group: C 2/M
;
_chemical_formula_sum "Si O2"
_cell_formula_units_Z 48
_cell_length_a 22.020007
_cell_length_b 10.622504
_cell_length_c 11.453994
_cell_angle_alpha 90.000000
_cell_angle_beta 119.245835
_cell_angle_gamma 90.000000
_cell_volume 2337.665858
_symmetry_space_group_name_H-M "C 2/M"
_symmetry_group_IT_number 12
_symmetry_cell_setting 'monoclinic'
loop_
_space_group_symop_operation_xyz
x,y,z
-x,y,-z
-x,-y,-z
x,-y,z
1/2+x,1/2+y,z
1/2-x,1/2+y,-z
1/2-x,1/2-y,-z
1/2+x,1/2-y,z
loop_
_atom_site_type_symbol
_atom_site_label
_atom_site_fract_x
_atom_site_fract_y
_atom_site_fract_z
Si Si1 0.577597 0.142282 0.062110
Si Si2 0.794688 0.784562 0.720951
Si Si3 0.420998 0.860061 0.203163
Si Si4 0.327369 0.638168 0.501878
Si Si5 0.019640 0.855178 0.384650
Si Si6 0.730444 0.138966 0.894072
O O1 0.632030 0.214288 0.194661
O O2 0.574555 0.000000 0.107091
O O3 0.500000 0.202272 0.000000
O O4 0.603745 0.148022 0.954075
O O5 0.729992 0.693337 0.637955
O O6 0.802187 0.868987 0.612573
O O7 0.776383 0.861795 0.819683
O O8 0.471628 0.743722 0.272142
O O9 0.351194 0.845447 0.214852
O O10 0.454727 0.000000 0.258324
O O11 0.338732 0.500000 0.463332
O O12 0.403029 0.702256 0.560733
O O13 0.000000 0.852300 0.500000
O O14 0.011452 0.000000 0.328505
O O15 0.742407 0.000000 0.962843
O O16 0.750000 0.250000 0.000000
#
# Coordination Sequence:
#
# PCOD8100036 Si02
#       6
#     8   8   8   8   8   8
#     4  10  20  35  57  85 118 156 199 247 302 363
#     4  11  21  38  61  85 120 162 203 252 306 361
#     4  10  21  38  58  87 119 151 197 248 297 357
#     4  10  22  38  59  87 121 160 206 253 301 362
#     4  10  21  39  60  86 119 157 202 248 297 360
#     4  11  23  39  61  89 123 158 202 251 302 364
#
# _framework density 20.533301000000002
#
# number of rings (size 3 to 8) (size 9 to 14) (size 15 to 20)
#    0.000    1.667    1.667    3.000    0.000    1.667 
#    0.000    4.167    0.000    3.500    0.000    0.000 
#    0.000    0.000    0.000    0.000    0.000    0.000 
#
# Total GULP energy -297449.229605 kJ/mol
# GULP energy per Si atom -12393.717900 kJ/mol
# Density = 2.048657 g / cm^3
# Si number density = 20.533301 Si / 1000 Ang^3
#
#
#
# Elastic Constant Matrix: (Units=GPa)
#
#
# Indices 1 2 3 4 5 6 
#
# 1 112.9083 28.0019 24.4640 0.0000 15.8377 0.0000
# 2 28.0019 115.9454 51.8341 0.0000 26.3787 0.0000
# 3 24.4640 51.8341 75.7674 0.0000 18.5432 0.0000
# 4 0.0000 0.0000 0.0000 15.4325 0.0000 7.2715
# 5 15.8377 26.3787 18.5432 0.0000 42.4115 0.0000
# 6 0.0000 0.0000 0.0000 7.2715 0.0000 25.0243
#
#
#
# Elastic Compliance Matrix: (Units=1/GPa)
#
#
# Indices 1 2 3 4 5 6 
#
# 1 0.009837 -0.001003 -0.001952 0.000000 -0.002196 0.000000
# 2 -0.001003 0.013341 -0.007687 0.000000 -0.004563 0.000000
# 3 -0.001952 -0.007687 0.019864 0.000000 -0.003175 0.000000
# 4 0.000000 0.000000 0.000000 0.075077 0.000000 -0.021816
# 5 -0.002196 -0.004563 -0.003175 0.000000 0.028624 0.000000
# 6 0.000000 0.000000 0.000000 -0.021816 0.000000 0.046300
#
#
# Mechanical properties :
#
#
# Convention : Reuss Voigt Hill
#
# Bulk Modulus (GPa) = 45.96030 57.02456 51.49243
# Shear Modulus (GPa) = 22.56509 29.92842 26.24675
#
# Velocity S-wave (km/s) = 3.31864 3.82194 3.57915
# Velocity P-wave (km/s) = 6.09232 6.87810 6.49710
#
# Compressibility (1/GPa) = 0.02175791
#
# Stress axis : x y z
#
# Youngs Moduli (GPa) = 101.66148 74.95466 50.34164
#
# Poissons Ratio (x) = 0.07520 0.09828
# Poissons Ratio (y) = 0.10200 0.38695
# Poissons Ratio (z) = 0.19848 0.57614
#
# Static dielectric constant tensor:
#      x y z
#    x 3.970970 0.000000 0.026210 
#    y 0.000000 3.757810 0.000000 
#    z 0.026210 0.000000 3.438330 
# 
# 
# High freq. dielectric constant tensor:
#      x y z
#    x 1.826180 0.000000 0.001300 
#    y 0.000000 1.797330 0.000000 
#    z 0.001300 0.000000 1.781590 
# 
# From -- ./inp_files/164709.got.cif
#   From: 2010.06.25/outbox.cif.g09.slc.cpg/sg12_83_cif.got.tgz:164709.got - 2010.06.28 00:19:55.
