data_PCOD8100527
_publ_section_title
;
Structure prediction by ZEFSAII (Michael W. Deem and Ramdas Pophale) SiO2 
 PCOD8100527
Probable space group: C 2/M
;
_chemical_formula_sum "Si O2"
_cell_formula_units_Z 56
_cell_length_a 20.105192
_cell_length_b 12.638758
_cell_length_c 17.237355
_cell_angle_alpha 90.000000
_cell_angle_beta 31.744612
_cell_angle_gamma 90.000000
_cell_volume 2304.515218
_symmetry_space_group_name_H-M "C 2/M"
_symmetry_group_IT_number 12
_symmetry_cell_setting 'monoclinic'
loop_
_space_group_symop_operation_xyz
x,y,z
-x,y,-z
-x,-y,-z
x,-y,z
1/2+x,1/2+y,z
1/2-x,1/2+y,-z
1/2-x,1/2-y,-z
1/2+x,1/2-y,z
loop_
_atom_site_type_symbol
_atom_site_label
_atom_site_fract_x
_atom_site_fract_y
_atom_site_fract_z
Si Si1 0.834116 0.874750 0.443902
Si Si2 0.277132 0.239777 0.145120
Si Si3 0.434842 0.627317 0.893313
Si Si4 0.133448 0.122269 0.411327
Si Si5 0.449235 0.882119 0.628162
Si Si6 0.202442 0.377785 0.020000
Si Si7 0.064292 0.617666 0.670712
O O1 0.881040 0.843011 0.483962
O O2 0.694688 0.823017 0.564572
O O3 0.937461 0.836533 0.278083
O O4 0.822052 0.000000 0.447993
O O5 0.245565 0.195486 0.262503
O O6 0.266435 0.136214 0.101467
O O7 0.171797 0.322121 0.220085
O O8 0.410385 0.305800 0.998678
O O9 0.435085 0.500000 0.906607
O O10 0.315368 0.670072 0.960309
O O11 0.000000 0.138150 0.500000
O O12 0.176275 0.000000 0.364482
O O13 0.500000 0.824750 0.500000
O O14 0.560233 0.884019 0.581258
O O15 0.403726 0.000000 0.651917
O O16 0.195117 0.500000 0.050315
O O17 0.063206 0.325988 0.171933
O O18 0.069218 0.500000 0.701152
#
# Coordination Sequence:
#
# PCOD8100527 Si02
#       7
#     8   8   8   8   8   8   8
#     4   9  19  38  65  91 120 160 206 258 315 364
#     4  12  21  34  59  88 123 161 201 249 309 361
#     4  10  20  35  59  92 122 156 206 256 303 365
#     4  10  21  38  61  91 126 164 208 255 307 370
#     4  10  21  37  61  92 123 159 206 253 300 365
#     4  10  20  35  59  89 119 153 203 254 304 366
#     4   9  18  37  63  90 118 156 204 253 306 365
#
# _framework density 24.300122000000002
#
# number of rings (size 3 to 8) (size 9 to 14) (size 15 to 20)
#    0.000    2.000    1.429    2.571    0.000    2.286 
#    0.000    1.429    3.143    3.429    0.000    5.000 
#    0.000    1.143    0.000    0.000    0.000    0.000 
#
# Total GULP energy -346935.183618 kJ/mol
# GULP energy per Si atom -12390.542272 kJ/mol
# Density = 2.424481 g / cm^3
# Si number density = 24.300122 Si / 1000 Ang^3
#
#
#
# Elastic Constant Matrix: (Units=GPa)
#
#
# Indices 1 2 3 4 5 6 
#
# 1 78.8701 6.2905 58.3986 0.0000 -3.5888 0.0000
# 2 6.2905 79.4884 63.4368 0.0000 -7.7437 0.0000
# 3 58.3986 63.4368 198.6393 0.0000 3.8394 0.0000
# 4 0.0000 0.0000 0.0000 48.7097 0.0000 9.2726
# 5 -3.5888 -7.7437 3.8394 0.0000 42.4432 0.0000
# 6 0.0000 0.0000 0.0000 9.2726 0.0000 -3.0474
#
#
#
# Elastic Compliance Matrix: (Units=1/GPa)
#
#
# Indices 1 2 3 4 5 6 
#
# 1 0.017223 0.004013 -0.006398 0.000000 0.002767 0.000000
# 2 0.004013 0.018378 -0.007133 0.000000 0.004338 0.000000
# 3 -0.006398 -0.007133 0.009245 0.000000 -0.002679 0.000000
# 4 0.000000 0.000000 0.000000 0.013000 0.000000 0.039556
# 5 0.002767 0.004338 -0.002679 0.000000 0.024829 0.000000
# 6 0.000000 0.000000 0.000000 0.039556 0.000000 -0.207789
#
#
# Mechanical properties :
#
#
# Convention : Reuss Voigt Hill
#
# Bulk Modulus (GPa) = 38.74610 68.13884 53.44247
# Shear Modulus (GPa) = -51.29482 32.87923 -9.20779
#
# Velocity S-wave (km/s) = -4.59942 3.68237 -1.94870
# Velocity P-wave (km/s) = 3.49669 6.79568 4.12034
#
# Compressibility (1/GPa) = 0.02580905
#
# Stress axis : x y z
#
# Youngs Moduli (GPa) = 58.06353 54.41360 108.16706
#
# Poissons Ratio (x) = -0.21836 0.69209
# Poissons Ratio (y) = -0.23300 0.77152
# Poissons Ratio (z) = 0.37151 0.38811
#
# Static dielectric constant tensor:
#      x y z
#    x 3.953870 0.000000 -0.012960 
#    y 0.000000 4.602240 0.000000 
#    z -0.012960 0.000000 4.721720 
# 
# 
# High freq. dielectric constant tensor:
#      x y z
#    x 1.908280 0.000000 0.009020 
#    y 0.000000 2.012470 0.000000 
#    z 0.009020 0.000000 1.980760 
# 
# From -- ./inp_files/284509.got.cif
#   From: 2010.06.25/outbox.cif.g09.slc.cpg/sg12_143_cif.got.tgz:284509.got - 2010.06.28 00:19:55.
