data_PCOD8100548
_publ_section_title
;
Structure prediction by ZEFSAII (Michael W. Deem and Ramdas Pophale) SiO2 
 PCOD8100548
Probable space group: C 2/M
;
_chemical_formula_sum "Si O2"
_cell_formula_units_Z 56
_cell_length_a 16.244582
_cell_length_b 8.783279
_cell_length_c 22.944167
_cell_angle_alpha 90.000000
_cell_angle_beta 121.734380
_cell_angle_gamma 90.000000
_cell_volume 2784.258863
_symmetry_space_group_name_H-M "C 2/M"
_symmetry_group_IT_number 12
_symmetry_cell_setting 'monoclinic'
loop_
_space_group_symop_operation_xyz
x,y,z
-x,y,-z
-x,-y,-z
x,-y,z
1/2+x,1/2+y,z
1/2-x,1/2+y,-z
1/2-x,1/2-y,-z
1/2+x,1/2-y,z
loop_
_atom_site_type_symbol
_atom_site_label
_atom_site_fract_x
_atom_site_fract_y
_atom_site_fract_z
Si Si1 0.926644 0.830459 0.198469
Si Si2 0.221773 0.180075 0.343451
Si Si3 0.107618 0.168667 0.187780
Si Si4 0.897513 0.668703 0.931866
Si Si5 0.057111 0.680870 0.577708
Si Si6 0.954358 0.319989 0.657648
Si Si7 0.239346 0.674212 0.933990
O O1 0.966826 0.726943 0.265213
O O2 0.831718 0.756227 0.136980
O O3 0.001371 0.842146 0.174076
O O4 0.904001 0.000000 0.214101
O O5 0.182508 0.224821 0.264993
O O6 0.332140 0.242138 0.386546
O O7 0.152266 0.251536 0.367724
O O8 0.216060 0.000000 0.350976
O O9 0.101362 0.295146 0.135999
O O10 0.138321 0.000000 0.176179
O O11 0.850472 0.500000 0.921861
O O12 0.842684 0.806004 0.942798
O O13 0.000000 0.666831 0.000000
O O14 0.061797 0.500000 0.581805
O O15 0.997765 0.740096 0.612173
O O16 0.000000 0.740402 0.500000
O O17 0.942977 0.500000 0.652766
O O18 0.209137 0.500000 0.930571
O O19 0.250000 0.750000 0.000000
#
# Coordination Sequence:
#
# PCOD8100548 Si02
#       7
#     8   8   8   8   8   8   8
#     4  10  21  39  61  86 116 151 192 242 299 355
#     4   9  19  37  59  84 119 160 200 248 307 367
#     4   9  19  35  57  82 110 146 189 239 296 356
#     4  11  24  39  56  81 113 150 194 243 292 345
#     4   9  19  36  59  87 121 162 205 249 303 370
#     4  10  20  35  59  90 120 156 204 253 302 362
#     4  12  25  40  59  83 115 153 194 240 293 351
#
# _framework density 20.113071999999999
#
# number of rings (size 3 to 8) (size 9 to 14) (size 15 to 20)
#    0.000    2.000    0.000    4.286    2.000    6.857 
#    0.000    1.429    0.000    3.000    0.000    0.000 
#    0.000    0.000    0.000    0.000    0.000    0.000 
#
# Total GULP energy -347077.750039 kJ/mol
# GULP energy per Si atom -12395.633930 kJ/mol
# Density = 2.006729 g / cm^3
# Si number density = 20.113072 Si / 1000 Ang^3
#
#
#
# Elastic Constant Matrix: (Units=GPa)
#
#
# Indices 1 2 3 4 5 6 
#
# 1 129.2224 39.0515 75.2248 0.0000 -2.5949 0.0000
# 2 39.0515 67.8725 30.8304 0.0000 0.7396 0.0000
# 3 75.2248 30.8304 110.8503 0.0000 -3.4434 0.0000
# 4 0.0000 0.0000 0.0000 -119.4880 0.0000 -12.2864
# 5 -2.5949 0.7396 -3.4434 0.0000 34.2308 0.0000
# 6 0.0000 0.0000 0.0000 -12.2864 0.0000 31.0695
#
#
#
# Elastic Compliance Matrix: (Units=1/GPa)
#
#
# Indices 1 2 3 4 5 6 
#
# 1 0.013772 -0.004219 -0.008162 0.000000 0.000314 0.000000
# 2 -0.004219 0.018181 -0.002222 0.000000 -0.000936 0.000000
# 3 -0.008162 -0.002222 0.015208 0.000000 0.000959 0.000000
# 4 0.000000 0.000000 0.000000 -0.008042 0.000000 -0.003180
# 5 0.000314 -0.000936 0.000959 0.000000 0.029354 0.000000
# 6 0.000000 0.000000 0.000000 -0.003180 0.000000 0.030928
#
#
# Mechanical properties :
#
#
# Convention : Reuss Voigt Hill
#
# Bulk Modulus (GPa) = 55.70259 66.46208 61.08233
# Shear Modulus (GPa) = 37.14896 0.01836 18.58366
#
# Velocity S-wave (km/s) = 4.30234 0.09564 3.04297
# Velocity P-wave (km/s) = 7.24121 5.75571 6.54076
#
# Compressibility (1/GPa) = 0.01795249
#
# Stress axis : x y z
#
# Youngs Moduli (GPa) = 72.61310 55.00275 65.75429
#
# Poissons Ratio (x) = 0.23208 0.53671
# Poissons Ratio (y) = 0.30639 0.14612
# Poissons Ratio (z) = 0.59269 0.12223
#
# Static dielectric constant tensor:
#      x y z
#    x 3.745410 0.000000 0.055470 
#    y 0.000000 3.631120 0.000000 
#    z 0.055470 0.000000 3.060650 
# 
# 
# High freq. dielectric constant tensor:
#      x y z
#    x 1.790150 0.000000 0.002870 
#    y 0.000000 1.774060 0.000000 
#    z 0.002870 0.000000 1.787600 
# 
# From -- ./inp_files/342521.got.cif
#   From: 2010.06.25/outbox.cif.g09.slc.cpg/sg12_172_cif.got.tgz:342521.got - 2010.06.28 00:19:55.
