data_PCOD8100186
_publ_section_title
;
Structure prediction by ZEFSAII (Michael W. Deem and Ramdas Pophale) SiO2 
 PCOD8100186
Probable space group: C 2/M
;
_chemical_formula_sum "Si O2"
_cell_formula_units_Z 64
_cell_length_a 33.497886
_cell_length_b 10.915463
_cell_length_c 19.731412
_cell_angle_alpha 90.000000
_cell_angle_beta 152.690326
_cell_angle_gamma 90.000000
_cell_volume 3310.097173
_symmetry_space_group_name_H-M "C 2/M"
_symmetry_group_IT_number 12
_symmetry_cell_setting 'monoclinic'
loop_
_space_group_symop_operation_xyz
x,y,z
-x,y,-z
-x,-y,-z
x,-y,z
1/2+x,1/2+y,z
1/2-x,1/2+y,-z
1/2-x,1/2-y,-z
1/2+x,1/2-y,z
loop_
_atom_site_type_symbol
_atom_site_label
_atom_site_fract_x
_atom_site_fract_y
_atom_site_fract_z
Si Si1 0.793945 0.291730 0.968459
Si Si2 0.197474 0.864058 0.697081
Si Si3 0.142590 0.632701 0.798182
Si Si4 0.607581 0.357871 0.351227
Si Si5 0.458188 0.364121 0.218524
Si Si6 0.280981 0.145442 0.680033
Si Si7 0.013160 0.795152 0.445850
Si Si8 0.093271 0.860207 0.174166
O O1 0.769976 0.365997 0.865103
O O2 0.704059 0.230954 0.856188
O O3 0.833021 0.378522 0.085479
O O4 0.866938 0.193664 0.060157
O O5 0.245769 0.828781 0.701637
O O6 0.116191 0.772886 0.588779
O O7 0.156379 0.000000 0.628973
O O8 0.156379 0.500000 0.785779
O O9 0.041311 0.668373 0.634791
O O10 0.607373 0.500000 0.368069
O O11 0.537470 0.296880 0.297578
O O12 0.705684 0.313798 0.513979
O O13 0.582277 0.327495 0.236506
O O14 0.450261 0.500000 0.178292
O O15 0.472893 0.369579 0.321885
O O16 0.355743 0.246438 0.782238
O O17 0.309678 0.000000 0.714620
O O18 0.000000 0.860692 0.500000
O O19 0.133918 0.000000 0.227246
O O20 0.000000 0.861067 0.000000
#
# Coordination Sequence:
#
# PCOD8100186 Si02
#       8
#     8   8   8   8   8   8   8   8
#     4  10  21  36  54  80 107 147 194 233 289 347
#     4  11  22  38  58  83 112 144 189 245 293 336
#     4  10  21  38  53  74 111 150 191 239 291 346
#     4   9  18  36  60  85 115 154 190 236 288 338
#     4  10  20  35  58  84 113 149 192 236 282 340
#     4  10  21  39  64  88 118 153 193 243 291 344
#     4  11  21  37  55  83 110 146 194 240 285 340
#     4  10  22  39  62  91 123 155 189 234 290 351
#
# _framework density 19.334779999999999
#
# number of rings (size 3 to 8) (size 9 to 14) (size 15 to 20)
#    0.000    1.875    2.500    1.500    1.750    1.500 
#    0.000    1.250    0.000    0.750    0.000    0.000 
#    0.000    0.000    0.000    0.000    0.000    0.000 
#
# Total GULP energy -396462.637864 kJ/mol
# GULP energy per Si atom -12389.457433 kJ/mol
# Density = 1.929077 g / cm^3
# Si number density = 19.334780 Si / 1000 Ang^3
#
#
#
# Elastic Constant Matrix: (Units=GPa)
#
#
# Indices 1 2 3 4 5 6 
#
# 1 109.7778 38.7151 45.7297 0.0000 -4.0708 0.0000
# 2 38.7151 78.6578 30.6602 0.0000 12.2293 0.0000
# 3 45.7297 30.6602 106.5397 0.0000 -3.9052 0.0000
# 4 0.0000 0.0000 0.0000 18.2635 0.0000 2.7628
# 5 -4.0708 12.2293 -3.9052 0.0000 32.7787 0.0000
# 6 0.0000 0.0000 0.0000 2.7628 0.0000 10.7314
#
#
#
# Elastic Compliance Matrix: (Units=1/GPa)
#
#
# Indices 1 2 3 4 5 6 
#
# 1 0.012653 -0.005216 -0.003818 0.000000 0.003062 0.000000
# 2 -0.005216 0.017685 -0.003130 0.000000 -0.007619 0.000000
# 3 -0.003818 -0.003130 0.012003 0.000000 0.002124 0.000000
# 4 0.000000 0.000000 0.000000 0.056973 0.000000 -0.014668
# 5 0.003062 -0.007619 0.002124 0.000000 0.033983 0.000000
# 6 0.000000 0.000000 0.000000 -0.014668 0.000000 0.096961
#
#
# Mechanical properties :
#
#
# Convention : Reuss Voigt Hill
#
# Bulk Modulus (GPa) = 55.51086 58.35393 56.93239
# Shear Modulus (GPa) = 19.18729 24.34606 21.76668
#
# Velocity S-wave (km/s) = 3.15361 3.55235 3.35890
# Velocity P-wave (km/s) = 6.48329 6.86090 6.67476
#
# Compressibility (1/GPa) = 0.01801449
#
# Stress axis : x y z
#
# Youngs Moduli (GPa) = 79.03565 56.54528 83.30973
#
# Poissons Ratio (x) = 0.29492 0.31804
# Poissons Ratio (y) = 0.41222 0.26076
# Poissons Ratio (z) = 0.30173 0.17699
#
# Static dielectric constant tensor:
#      x y z
#    x 3.559500 0.000000 -0.083280 
#    y 0.000000 3.322620 0.000000 
#    z -0.083280 0.000000 3.673310 
# 
# 
# High freq. dielectric constant tensor:
#      x y z
#    x 1.751290 0.000000 -0.010110 
#    y 0.000000 1.720650 0.000000 
#    z -0.010110 0.000000 1.766830 
# 
# From -- ./inp_files/296497.got.cif
#   From: 2010.06.25/outbox.cif.g09.slc.cpg/sg12_149_cif.got.tgz:296497.got - 2010.06.28 00:19:55.
