data_PCOD8100012
_publ_section_title
;
Structure prediction by ZEFSAII (Michael W. Deem and Ramdas Pophale) SiO2 
 PCOD8100012
Probable space group: C 2/M
;
_chemical_formula_sum "Si O2"
_cell_formula_units_Z 64
_cell_length_a 9.358961
_cell_length_b 24.356936
_cell_length_c 14.445581
_cell_angle_alpha 90.000000
_cell_angle_beta 89.665167
_cell_angle_gamma 90.000000
_cell_volume 3292.895058
_symmetry_space_group_name_H-M "C 2/M"
_symmetry_group_IT_number 12
_symmetry_cell_setting 'monoclinic'
loop_
_space_group_symop_operation_xyz
x,y,z
-x,y,-z
-x,-y,-z
x,-y,z
1/2+x,1/2+y,z
1/2-x,1/2+y,-z
1/2-x,1/2-y,-z
1/2+x,1/2-y,z
loop_
_atom_site_type_symbol
_atom_site_label
_atom_site_fract_x
_atom_site_fract_y
_atom_site_fract_z
Si Si1 0.661026 0.605723 0.007248
Si Si2 0.858324 0.659996 0.294570
Si Si3 0.322566 0.936988 0.834891
Si Si4 0.102848 0.226824 0.075447
Si Si5 0.652315 0.061360 0.832029
Si Si6 0.166766 0.306948 0.505549
Si Si7 0.836294 0.231507 0.190059
Si Si8 0.814068 0.646642 0.686264
O O1 0.660038 0.668697 0.038755
O O2 0.749581 0.569427 0.078864
O O3 0.500000 0.582777 0.000000
O O4 0.732087 0.600217 0.905859
O O5 0.806018 0.602878 0.250395
O O6 0.796270 0.662631 0.398635
O O7 0.799653 0.709313 0.233097
O O8 0.027857 0.667644 0.292773
O O9 0.487985 0.930669 0.862734
O O10 0.296751 0.914338 0.729992
O O11 0.271909 0.000000 0.838073
O O12 0.234326 0.267978 0.098270
O O13 0.000919 0.219736 0.165677
O O14 0.000000 0.255860 0.000000
O O15 0.676401 0.000000 0.793427
O O16 0.250000 0.250000 0.500000
O O17 0.213187 0.349513 0.424001
O O18 0.000000 0.292491 0.500000
O O19 0.798368 0.185876 0.264195
#
# Coordination Sequence:
#
# PCOD8100012 Si02
#       8
#     8   8   8   8   8   8   8   8
#     4  11  22  38  56  86 115 146 191 237 282 329
#     4  10  20  36  56  84 114 145 183 233 280 333
#     4  10  22  40  60  81 109 152 198 235 275 332
#     4  11  24  36  51  81 115 155 188 225 278 334
#     4  10  21  39  61  81 108 151 197 234 277 333
#     4  10  20  35  57  85 115 146 180 227 284 342
#     4  12  20  37  56  80 115 152 186 230 277 337
#     4  10  20  36  59  84 113 146 186 232 284 334
#
# _framework density 19.435786
#
# number of rings (size 3 to 8) (size 9 to 14) (size 15 to 20)
#    0.000    1.500    3.750    2.625    0.000    2.000 
#    0.000    0.625    0.000    3.750    0.000    0.000 
#    0.000    4.000    0.000    0.000    0.000    0.000 
#
# Total GULP energy -396765.053917 kJ/mol
# GULP energy per Si atom -12398.907935 kJ/mol
# Density = 1.939155 g / cm^3
# Si number density = 19.435786 Si / 1000 Ang^3
#
#
#
# Elastic Constant Matrix: (Units=GPa)
#
#
# Indices 1 2 3 4 5 6 
#
# 1 71.9354 35.6539 31.9258 0.0000 -8.2194 0.0000
# 2 35.6539 91.9308 59.4278 0.0000 -14.6881 0.0000
# 3 31.9258 59.4278 123.3109 0.0000 -8.3938 0.0000
# 4 0.0000 0.0000 0.0000 25.0004 0.0000 0.2174
# 5 -8.2194 -14.6881 -8.3938 0.0000 21.3307 0.0000
# 6 0.0000 0.0000 0.0000 0.2174 0.0000 22.1626
#
#
#
# Elastic Compliance Matrix: (Units=1/GPa)
#
#
# Indices 1 2 3 4 5 6 
#
# 1 0.017602 -0.005225 -0.001872 0.000000 0.002448 0.000000
# 2 -0.005225 0.018842 -0.007174 0.000000 0.008138 0.000000
# 3 -0.001872 -0.007174 0.011987 0.000000 -0.000944 0.000000
# 4 0.000000 0.000000 0.000000 0.040003 0.000000 -0.000392
# 5 0.002448 0.008138 -0.000944 0.000000 0.053056 0.000000
# 6 0.000000 0.000000 0.000000 -0.000392 0.000000 0.045125
#
#
# Mechanical properties :
#
#
# Convention : Reuss Voigt Hill
#
# Bulk Modulus (GPa) = 50.28042 60.13248 55.20645
# Shear Modulus (GPa) = 22.54414 24.37671 23.46043
#
# Velocity S-wave (km/s) = 3.40947 3.54534 3.47807
# Velocity P-wave (km/s) = 6.43626 6.91125 6.67798
#
# Compressibility (1/GPa) = 0.01988846
#
# Stress axis : x y z
#
# Youngs Moduli (GPa) = 56.81239 53.07316 83.42087
#
# Poissons Ratio (x) = 0.27731 0.15620
# Poissons Ratio (y) = 0.29685 0.59845
# Poissons Ratio (z) = 0.10638 0.38074
#
# Static dielectric constant tensor:
#      x y z
#    x 3.620570 0.000000 -0.007760 
#    y 0.000000 3.400920 0.000000 
#    z -0.007760 0.000000 3.829110 
# 
# 
# High freq. dielectric constant tensor:
#      x y z
#    x 1.756240 0.000000 -0.005700 
#    y 0.000000 1.740640 0.000000 
#    z -0.005700 0.000000 1.757590 
# 
# From -- ./inp_files/198904.got.cif
#   From: 2010.06.25/outbox.cif.g09.slc.cpg/sg12_100_cif.got.tgz:198904.got - 2010.06.28 00:19:55.
