data_PCOD8100806
_publ_section_title
;
Structure prediction by ZEFSAII (Michael W. Deem and Ramdas Pophale) SiO2 
 PCOD8100806
Probable space group: C 2/M
;
_chemical_formula_sum "Si O2"
_cell_formula_units_Z 44
_cell_length_a 14.723188
_cell_length_b 30.325243
_cell_length_c 5.290420
_cell_angle_alpha 90.000000
_cell_angle_beta 101.719394
_cell_angle_gamma 90.000000
_cell_volume 2312.849382
_symmetry_space_group_name_H-M "C 2/M"
_symmetry_group_IT_number 12
_symmetry_cell_setting 'monoclinic'
loop_
_space_group_symop_operation_xyz
x,y,z
-x,y,-z
-x,-y,-z
x,-y,z
1/2+x,1/2+y,z
1/2-x,1/2+y,-z
1/2-x,1/2-y,-z
1/2+x,1/2-y,z
loop_
_atom_site_type_symbol
_atom_site_label
_atom_site_fract_x
_atom_site_fract_y
_atom_site_fract_z
Si Si1 0.890329 0.339655 0.961686
Si Si2 0.259175 0.611418 0.380781
Si Si3 0.061346 0.500000 0.784340
Si Si4 0.194931 0.417381 0.847786
Si Si5 0.610309 0.690568 0.552814
Si Si6 0.890137 0.239482 0.949209
O O1 0.859603 0.370183 0.181367
O O2 0.835514 0.358991 0.686458
O O3 0.856741 0.289424 0.974785
O O4 0.000000 0.343063 0.000000
O O5 0.254604 0.580370 0.624855
O O6 0.350328 0.641415 0.448356
O O7 0.263452 0.580622 0.131237
O O8 0.123399 0.456860 0.820238
O O9 0.000000 0.500000 0.500000
O O10 0.000000 0.500000 0.000000
O O11 0.500000 0.687383 0.500000
O O12 0.646786 0.719407 0.335647
O O13 0.648335 0.711890 0.834207
O O14 0.000000 0.237926 0.000000
#
# Coordination Sequence:
#
# PCOD8100806 Si02
#       6
#     8   8   4   8   8   8
#     4   9  21  35  52  74 114 146 182 222 272 321
#     4  10  22  36  54  80 108 143 185 229 271 320
#     4  12  24  40  64  86 113 152 183 218 274 336
#     4  10  23  37  54  83 108 139 182 219 269 334
#     4  10  20  36  54  77 108 143 192 228 272 316
#     4   9  19  32  51  76 105 149 186 227 266 319
#
# _framework density 19.024153999999999
#
# number of rings (size 3 to 8) (size 9 to 14) (size 15 to 20)
#    1.091    1.091    0.000    2.727    5.091    1.455 
#    0.000    0.000    0.000    0.000    0.000    3.818 
#    0.000    0.000    0.000    0.000    0.000    0.000 
#
# Total GULP energy -272610.705152 kJ/mol
# GULP energy per Si atom -12391.395689 kJ/mol
# Density = 1.898085 g / cm^3
# Si number density = 19.024154 Si / 1000 Ang^3
#
#
#
# Elastic Constant Matrix: (Units=GPa)
#
#
# Indices 1 2 3 4 5 6 
#
# 1 34.1630 23.0749 27.6448 0.0000 -5.7269 0.0000
# 2 23.0749 99.6249 53.5270 0.0000 -8.6281 0.0000
# 3 27.6448 53.5270 159.6939 0.0000 -25.7107 0.0000
# 4 0.0000 0.0000 0.0000 -24.5754 0.0000 46.0402
# 5 -5.7269 -8.6281 -25.7107 0.0000 25.0901 0.0000
# 6 0.0000 0.0000 0.0000 46.0402 0.0000 -4.4345
#
#
#
# Elastic Compliance Matrix: (Units=1/GPa)
#
#
# Indices 1 2 3 4 5 6 
#
# 1 0.037084 -0.006269 -0.003955 0.000000 0.002256 0.000000
# 2 -0.006269 0.013302 -0.003434 0.000000 -0.000375 0.000000
# 3 -0.003955 -0.003434 0.009296 0.000000 0.007442 0.000000
# 4 0.000000 0.000000 0.000000 0.002205 0.000000 0.022897
# 5 0.002256 -0.000375 0.007442 0.000000 0.047868 0.000000
# 6 0.000000 0.000000 0.000000 0.022897 0.000000 0.012222
#
#
# Mechanical properties :
#
#
# Convention : Reuss Voigt Hill
#
# Bulk Modulus (GPa) = 30.89644 55.77502 43.33573
# Shear Modulus (GPa) = 31.23374 11.83171 21.53273
#
# Velocity S-wave (km/s) = 4.05630 2.49656 3.36797
# Velocity P-wave (km/s) = 6.18175 6.13939 6.16060
#
# Compressibility (1/GPa) = 0.03236618
#
# Stress axis : x y z
#
# Youngs Moduli (GPa) = 26.96547 75.17602 107.57484
#
# Poissons Ratio (x) = 0.47127 0.42549
# Poissons Ratio (y) = 0.16904 0.36940
# Poissons Ratio (z) = 0.10666 0.25815
#
# Static dielectric constant tensor:
#      x y z
#    x 3.150950 0.000000 -0.046310 
#    y 0.000000 3.340020 0.000000 
#    z -0.046310 0.000000 3.730550 
# 
# 
# High freq. dielectric constant tensor:
#      x y z
#    x 1.715820 0.000000 -0.003800 
#    y 0.000000 1.719260 0.000000 
#    z -0.003800 0.000000 1.752740 
# 
# From -- ./inp_files/12160.got.cif
#   From: 2010.06.25/outbox.cif.g09.slc.cpg/sg12_7_cif.got.tgz:12160.got - 2010.06.28 00:19:55.
