data_PCOD8100085
_publ_section_title
;
Structure prediction by ZEFSAII (Michael W. Deem and Ramdas Pophale) SiO2 
 PCOD8100085
Probable space group: C 2/M
;
_chemical_formula_sum "Si O2"
_cell_formula_units_Z 40
_cell_length_a 15.701116
_cell_length_b 8.925881
_cell_length_c 30.950234
_cell_angle_alpha 90.000000
_cell_angle_beta 152.218090
_cell_angle_gamma 90.000000
_cell_volume 2021.768765
_symmetry_space_group_name_H-M "C 2/M"
_symmetry_group_IT_number 12
_symmetry_cell_setting 'monoclinic'
loop_
_space_group_symop_operation_xyz
x,y,z
-x,y,-z
-x,-y,-z
x,-y,z
1/2+x,1/2+y,z
1/2-x,1/2+y,-z
1/2-x,1/2-y,-z
1/2+x,1/2-y,z
loop_
_atom_site_type_symbol
_atom_site_label
_atom_site_fract_x
_atom_site_fract_y
_atom_site_fract_z
Si Si1 0.428728 0.322330 0.599801
Si Si2 0.056244 0.675696 0.906995
Si Si3 0.709092 0.822427 0.284641
Si Si4 0.967353 0.328678 0.708180
Si Si5 0.881281 0.829847 0.905897
O O1 0.413843 0.500000 0.590536
O O2 0.250000 0.250000 0.500000
O O3 0.599073 0.260683 0.647828
O O4 0.450933 0.276415 0.659494
O O5 0.085826 0.500000 0.918266
O O6 0.958477 0.737228 0.819836
O O7 0.923402 0.716384 0.886503
O O8 0.250000 0.750000 0.000000
O O9 0.676808 0.773321 0.319908
O O10 0.711270 0.000000 0.282303
O O11 0.925920 0.500000 0.675692
O O12 0.166585 0.317653 0.819651
O O13 0.934428 0.000000 0.916700
O O14 0.000000 0.778418 0.000000
#
# Coordination Sequence:
#
# PCOD8100085 Si02
#       5
#     8   8   8   8   8
#     4  11  23  42  64  89 120 156 201 253 307 358
#     4  11  21  36  57  85 121 161 205 248 298 356
#     4   9  20  39  62  85 119 161 198 241 299 367
#     4  10  20  38  63  88 117 158 203 245 297 359
#     4  10  20  35  57  86 122 160 202 248 299 358
#
# _framework density 19.784655000000001
#
# number of rings (size 3 to 8) (size 9 to 14) (size 15 to 20)
#    0.000    1.800    2.000    2.400    0.000    4.400 
#    0.000   10.000    0.000    0.000    0.000    0.000 
#    0.000    0.000    0.000    0.000    0.000    0.000 
#
# Total GULP energy -248003.325111 kJ/mol
# GULP energy per Si atom -12400.166256 kJ/mol
# Density = 1.973962 g / cm^3
# Si number density = 19.784655 Si / 1000 Ang^3
#
#
#
# Elastic Constant Matrix: (Units=GPa)
#
#
# Indices 1 2 3 4 5 6 
#
# 1 151.2944 32.3696 59.2518 0.0000 9.1068 0.0000
# 2 32.3696 57.7933 33.8017 -0.0001 3.1170 0.0000
# 3 59.2518 33.8017 125.3459 -0.0003 6.5852 0.0000
# 4 0.0000 -0.0001 -0.0003 30.9476 0.0000 -1.8765
# 5 9.1068 3.1170 6.5852 0.0000 30.5818 0.0000
# 6 0.0000 0.0000 0.0000 -1.8765 0.0000 32.8831
#
#
#
# Elastic Compliance Matrix: (Units=1/GPa)
#
#
# Indices 1 2 3 4 5 6 
#
# 1 0.008565 -0.002841 -0.003200 0.000000 -0.001572 0.000000
# 2 -0.002841 0.021510 -0.004437 0.000000 -0.000391 0.000000
# 3 -0.003200 -0.004437 0.010735 0.000000 -0.000906 0.000000
# 4 0.000000 0.000000 0.000000 0.032425 0.000000 0.001850
# 5 -0.001572 -0.000391 -0.000906 0.000000 0.033402 0.000000
# 6 0.000000 0.000000 0.000000 0.001850 0.000000 0.030516
#
#
# Mechanical properties :
#
#
# Convention : Reuss Voigt Hill
#
# Bulk Modulus (GPa) = 50.36754 65.03108 57.69931
# Shear Modulus (GPa) = 30.35287 32.81653 31.58470
#
# Velocity S-wave (km/s) = 3.92109 4.07712 3.99986
# Velocity P-wave (km/s) = 6.78329 7.42325 7.11047
#
# Compressibility (1/GPa) = 0.01985406
#
# Stress axis : x y z
#
# Youngs Moduli (GPa) = 116.74916 46.48896 93.15435
#
# Poissons Ratio (x) = 0.13207 0.29811
# Poissons Ratio (y) = 0.33167 0.41335
# Poissons Ratio (z) = 0.37362 0.20628
#
# Static dielectric constant tensor:
#      x y z
#    x 3.920640 0.000000 0.216440 
#    y 0.000000 3.553280 0.000000 
#    z 0.216440 0.000000 3.910900 
# 
# 
# High freq. dielectric constant tensor:
#      x y z
#    x 1.781690 0.000000 0.003730 
#    y 0.000000 1.747980 0.000000 
#    z 0.003730 0.000000 1.778300 
# 
# From -- ./inp_files/211195.got.cif
#   From: 2010.06.25/outbox.cif.g09.slc.cpg/sg12_106_cif.got.tgz:211195.got - 2010.06.28 00:19:55.
