data_PCOD8100391
_publ_section_title
;
Structure prediction by ZEFSAII (Michael W. Deem and Ramdas Pophale) SiO2 
 PCOD8100391
Probable space group: C 2/M
;
_chemical_formula_sum "Si O2"
_cell_formula_units_Z 48
_cell_length_a 18.698507
_cell_length_b 18.846596
_cell_length_c 9.149856
_cell_angle_alpha 90.000000
_cell_angle_beta 45.096309
_cell_angle_gamma 90.000000
_cell_volume 2283.851687
_symmetry_space_group_name_H-M "C 2/M"
_symmetry_group_IT_number 12
_symmetry_cell_setting 'monoclinic'
loop_
_space_group_symop_operation_xyz
x,y,z
-x,y,-z
-x,-y,-z
x,-y,z
1/2+x,1/2+y,z
1/2-x,1/2+y,-z
1/2-x,1/2-y,-z
1/2+x,1/2-y,z
loop_
_atom_site_type_symbol
_atom_site_label
_atom_site_fract_x
_atom_site_fract_y
_atom_site_fract_z
Si Si1 0.845626 0.081892 0.066561
Si Si2 0.722629 0.180806 0.447884
Si Si3 0.760177 0.418617 0.335231
Si Si4 0.272891 0.859754 0.021507
Si Si5 0.615098 0.760099 0.332001
Si Si6 0.965500 0.916873 0.392735
O O1 0.816135 0.139996 0.231693
O O2 0.842600 0.000000 0.129783
O O3 0.770461 0.086739 0.037094
O O4 0.957247 0.102673 0.848638
O O5 0.750000 0.250000 0.500000
O O6 0.679325 0.124557 0.627819
O O7 0.639034 0.202000 0.451137
O O8 0.765849 0.500000 0.370818
O O9 0.811192 0.405638 0.103766
O O10 0.644661 0.388506 0.494524
O O11 0.186327 0.806408 0.201030
O O12 0.368135 0.816747 0.821885
O O13 0.500000 0.735022 0.500000
O O14 0.000000 0.884561 0.500000
O O15 0.956662 0.000000 0.426327
#
# Coordination Sequence:
#
# PCOD8100391 Si02
#       6
#     8   8   8   8   8   8
#     4  10  20  35  58  89 128 164 202 249 302 372
#     4  11  23  40  57  85 126 163 205 246 303 365
#     4  11  21  36  61  90 128 163 197 255 316 363
#     4  10  20  36  64  92 119 156 212 248 304 372
#     4  10  23  42  63  87 122 163 207 257 301 361
#     4   9  17  30  53  91 127 158 194 234 300 385
#
# _framework density 21.017126000000001
#
# number of rings (size 3 to 8) (size 9 to 14) (size 15 to 20)
#    0.000    1.833    3.333    1.000    2.333    0.667 
#    0.000    6.667    0.000   19.000    0.000    0.000 
#    0.000    0.000    0.000    0.000    0.000    0.000 
#
# Total GULP energy -297444.539859 kJ/mol
# GULP energy per Si atom -12393.522494 kJ/mol
# Density = 2.096929 g / cm^3
# Si number density = 21.017126 Si / 1000 Ang^3
#
#
#
# Elastic Constant Matrix: (Units=GPa)
#
#
# Indices 1 2 3 4 5 6 
#
# 1 61.9959 31.4750 31.8696 0.0000 19.5501 0.0000
# 2 31.4750 108.8838 44.5894 0.0000 16.9737 0.0000
# 3 31.8696 44.5894 92.8881 0.0000 19.0133 0.0000
# 4 0.0000 0.0000 0.0000 41.6841 0.0000 13.6250
# 5 19.5501 16.9737 19.0133 0.0000 35.2151 0.0000
# 6 0.0000 0.0000 0.0000 13.6250 0.0000 21.7825
#
#
#
# Elastic Compliance Matrix: (Units=1/GPa)
#
#
# Indices 1 2 3 4 5 6 
#
# 1 0.022886 -0.003456 -0.004422 0.000000 -0.008652 0.000000
# 2 -0.003456 0.012216 -0.004346 0.000000 -0.001623 0.000000
# 3 -0.004422 -0.004346 0.015107 0.000000 -0.003607 0.000000
# 4 0.000000 0.000000 0.000000 0.030155 0.000000 -0.018862
# 5 -0.008652 -0.001623 -0.003607 0.000000 0.035930 0.000000
# 6 0.000000 0.000000 0.000000 -0.018862 0.000000 0.057707
#
#
# Mechanical properties :
#
#
# Convention : Reuss Voigt Hill
#
# Bulk Modulus (GPa) = 38.81824 53.29288 46.05556
# Shear Modulus (GPa) = 24.15019 30.12523 27.13771
#
# Velocity S-wave (km/s) = 3.39347 3.79009 3.59725
# Velocity P-wave (km/s) = 5.81929 6.67570 6.26215
#
# Compressibility (1/GPa) = 0.02576109
#
# Stress axis : x y z
#
# Youngs Moduli (GPa) = 43.69400 81.86036 66.19240
#
# Poissons Ratio (x) = 0.28291 0.29272
# Poissons Ratio (y) = 0.15101 0.28768
# Poissons Ratio (z) = 0.19322 0.35577
#
# Static dielectric constant tensor:
#      x y z
#    x 3.659870 0.000000 0.325130 
#    y 0.000000 3.889220 0.000000 
#    z 0.325130 0.000000 3.994120 
# 
# 
# High freq. dielectric constant tensor:
#      x y z
#    x 1.790220 0.000000 0.036710 
#    y 0.000000 1.836450 0.000000 
#    z 0.036710 0.000000 1.815150 
# 
# From -- ./inp_files/89430.got.cif
#   From: 2010.06.25/outbox.cif.g09.slc.cpg/sg12_45_cif.got.tgz:89430.got - 2010.06.28 00:19:55.
