data_PCOD8100543
_publ_section_title
;
Structure prediction by ZEFSAII (Michael W. Deem and Ramdas Pophale) SiO2 
 PCOD8100543
Probable space group: C 2/M
;
_chemical_formula_sum "Si O2"
_cell_formula_units_Z 56
_cell_length_a 12.534026
_cell_length_b 13.745197
_cell_length_c 19.243271
_cell_angle_alpha 90.000000
_cell_angle_beta 57.523962
_cell_angle_gamma 90.000000
_cell_volume 2796.825075
_symmetry_space_group_name_H-M "C 2/M"
_symmetry_group_IT_number 12
_symmetry_cell_setting 'monoclinic'
loop_
_space_group_symop_operation_xyz
x,y,z
-x,y,-z
-x,-y,-z
x,-y,z
1/2+x,1/2+y,z
1/2-x,1/2+y,-z
1/2-x,1/2-y,-z
1/2+x,1/2-y,z
loop_
_atom_site_type_symbol
_atom_site_label
_atom_site_fract_x
_atom_site_fract_y
_atom_site_fract_z
Si Si1 0.418347 0.203378 0.378515
Si Si2 0.415473 0.264793 0.229430
Si Si3 0.853253 0.894640 0.037802
Si Si4 0.175846 0.387704 0.339873
Si Si5 0.273783 0.390374 0.456373
Si Si6 0.380679 0.203840 0.092546
Si Si7 0.148093 0.109708 0.120215
O O1 0.405300 0.194584 0.299678
O O2 0.555778 0.173128 0.356391
O O3 0.391242 0.315443 0.410992
O O4 0.312433 0.132291 0.446907
O O5 0.299723 0.339953 0.262762
O O6 0.423540 0.198751 0.157526
O O7 0.543624 0.325138 0.193833
O O8 0.806937 0.806953 0.103435
O O9 0.786177 0.000000 0.076294
O O10 0.830860 0.860111 0.966947
O O11 0.000000 0.908695 0.000000
O O12 0.165206 0.500000 0.319504
O O13 0.184122 0.380216 0.420323
O O14 0.328297 0.500000 0.443347
O O15 0.281045 0.118609 0.113766
O O16 0.500000 0.191783 0.000000
O O17 0.099424 0.000000 0.141806
#
# Coordination Sequence:
#
# PCOD8100543 Si02
#       7
#     8   8   8   8   8   8   8
#     4  10  20  35  59  90 119 147 188 236 282 330
#     4  11  22  37  56  82 117 153 191 237 283 335
#     4   9  17  32  57  86 104 130 185 243 284 325
#     4  10  20  36  61  89 116 149 188 234 284 335
#     4   9  19  37  63  89 116 151 189 228 278 341
#     4  11  22  38  60  80 113 151 196 237 288 342
#     4  11  22  38  59  81 110 149 191 239 290 340
#
# _framework density 20.022704000000001
#
# number of rings (size 3 to 8) (size 9 to 14) (size 15 to 20)
#    0.000    1.857    2.857    2.571    0.000    2.571 
#    0.000    1.429    0.000   18.857    0.000    0.000 
#    0.000    0.000    0.000    0.000    0.000    0.000 
#
# Total GULP energy -347146.346336 kJ/mol
# GULP energy per Si atom -12398.083798 kJ/mol
# Density = 1.997713 g / cm^3
# Si number density = 20.022704 Si / 1000 Ang^3
#
#
#
# Elastic Constant Matrix: (Units=GPa)
#
#
# Indices 1 2 3 4 5 6 
#
# 1 109.4769 43.6991 49.8431 0.0000 -5.7410 0.0000
# 2 43.6991 72.6448 21.8438 0.0000 2.1867 0.0000
# 3 49.8431 21.8438 111.5792 0.0000 15.2788 0.0000
# 4 0.0000 0.0000 0.0000 22.6119 0.0000 -0.1464
# 5 -5.7410 2.1867 15.2788 0.0000 29.7347 0.0000
# 6 0.0000 0.0000 0.0000 -0.1464 0.0000 33.2475
#
#
#
# Elastic Compliance Matrix: (Units=1/GPa)
#
#
# Indices 1 2 3 4 5 6 
#
# 1 0.015384 -0.007557 -0.006320 0.000000 0.006773 0.000000
# 2 -0.007557 0.018344 0.000182 0.000000 -0.002902 0.000000
# 3 -0.006320 0.000182 0.012821 0.000000 -0.007821 0.000000
# 4 0.000000 0.000000 0.000000 0.044226 0.000000 0.000195
# 5 0.006773 -0.002902 -0.007821 0.000000 0.039171 0.000000
# 6 0.000000 0.000000 0.000000 0.000195 0.000000 0.030078
#
#
# Mechanical properties :
#
#
# Convention : Reuss Voigt Hill
#
# Bulk Modulus (GPa) = 52.19741 58.27477 55.23609
# Shear Modulus (GPa) = 25.79979 29.00648 27.40313
#
# Velocity S-wave (km/s) = 3.59350 3.81028 3.70348
# Velocity P-wave (km/s) = 6.58357 6.96600 6.77748
#
# Compressibility (1/GPa) = 0.01915804
#
# Stress axis : x y z
#
# Youngs Moduli (GPa) = 65.00464 54.51273 77.99867
#
# Poissons Ratio (x) = 0.41198 0.49294
# Poissons Ratio (y) = 0.49127 -0.01420
# Poissons Ratio (z) = 0.41082 -0.00992
#
# Static dielectric constant tensor:
#      x y z
#    x 3.552610 0.000000 0.120080 
#    y 0.000000 3.935100 0.000000 
#    z 0.120080 0.000000 3.625070 
# 
# 
# High freq. dielectric constant tensor:
#      x y z
#    x 1.768870 0.000000 0.008150 
#    y 0.000000 1.774100 0.000000 
#    z 0.008150 0.000000 1.778610 
# 
# From -- ./inp_files/263213.got.cif
#   From: 2010.06.25/outbox.cif.g09.slc.cpg/sg12_132_cif.got.tgz:263213.got - 2010.06.28 00:19:55.
