data_PCOD8100770
_publ_section_title
;
Structure prediction by ZEFSAII (Michael W. Deem and Ramdas Pophale) SiO2 
 PCOD8100770
Probable space group: C 2/M
;
_chemical_formula_sum "Si O2"
_cell_formula_units_Z 40
_cell_length_a 16.742919
_cell_length_b 26.078761
_cell_length_c 18.065180
_cell_angle_alpha 90.000000
_cell_angle_beta 163.437928
_cell_angle_gamma 90.000000
_cell_volume 2248.471824
_symmetry_space_group_name_H-M "C 2/M"
_symmetry_group_IT_number 12
_symmetry_cell_setting 'monoclinic'
loop_
_space_group_symop_operation_xyz
x,y,z
-x,y,-z
-x,-y,-z
x,-y,z
1/2+x,1/2+y,z
1/2-x,1/2+y,-z
1/2-x,1/2-y,-z
1/2+x,1/2-y,z
loop_
_atom_site_type_symbol
_atom_site_label
_atom_site_fract_x
_atom_site_fract_y
_atom_site_fract_z
Si Si1 0.609914 0.391765 0.871554
Si Si2 0.651005 0.211992 0.975185
Si Si3 0.962115 0.753422 0.553346
Si Si4 0.931705 0.558918 0.638402
Si Si5 0.885398 0.363705 0.479779
O O1 0.749045 0.345105 0.952329
O O2 0.379340 0.420777 0.615323
O O3 0.449603 0.373276 0.805153
O O4 0.852364 0.433082 0.103026
O O5 0.774005 0.226162 0.165254
O O6 0.750000 0.250000 0.000000
O O7 0.315304 0.214477 0.674012
O O8 0.940218 0.693874 0.556111
O O9 0.000000 0.759810 0.500000
O O10 0.921116 0.500000 0.604323
O O11 0.047983 0.594547 0.674518
O O12 0.000000 0.372437 0.500000
#
# Coordination Sequence:
#
# PCOD8100770 Si02
#       5
#     8   8   8   8   8
#     4  10  21  34  53  77  99 143 181 225 261 316
#     4  12  20  36  57  80 110 146 187 219 274 325
#     4  11  23  36  55  82 116 148 182 221 266 327
#     4  10  20  36  52  74 106 140 186 228 266 304
#     4   9  21  35  50  75 110 148 184 217 260 309
#
# _framework density 17.789860000000001
#
# number of rings (size 3 to 8) (size 9 to 14) (size 15 to 20)
#    1.200    0.400    2.000    4.200    0.000    1.200 
#    0.000    1.000    0.000    0.000    0.000    0.000 
#    0.000   56.000    0.000    0.000    0.000    0.000 
#
# Total GULP energy -247765.951358 kJ/mol
# GULP energy per Si atom -12388.297568 kJ/mol
# Density = 1.774937 g / cm^3
# Si number density = 17.789860 Si / 1000 Ang^3
#
#
#
# Elastic Constant Matrix: (Units=GPa)
#
#
# Indices 1 2 3 4 5 6 
#
# 1 44.4546 31.7570 9.5016 0.0029 0.3727 0.0068
# 2 31.7570 111.9987 32.7110 -0.0017 2.3183 0.0022
# 3 9.5016 32.7110 93.4592 0.0049 -1.8465 0.0154
# 4 0.0029 -0.0017 0.0049 28.3701 0.0062 -4.1070
# 5 0.3727 2.3183 -1.8465 0.0062 24.5115 0.0109
# 6 0.0068 0.0022 0.0154 -4.1070 0.0109 15.7431
#
#
#
# Elastic Compliance Matrix: (Units=1/GPa)
#
#
# Indices 1 2 3 4 5 6 
#
# 1 0.028212 -0.007987 -0.000066 -0.000005 0.000321 -0.000013
# 2 -0.007987 0.012242 -0.003498 0.000003 -0.001300 0.000007
# 3 -0.000066 -0.003498 0.011955 -0.000004 0.001233 -0.000013
# 4 -0.000005 0.000003 -0.000004 0.036632 -0.000014 0.009556
# 5 0.000321 -0.001300 0.001233 -0.000014 0.041008 -0.000033
# 6 -0.000013 0.000007 -0.000013 0.009556 -0.000033 0.066013
#
#
# Mechanical properties :
#
#
# Convention : Reuss Voigt Hill
#
# Bulk Modulus (GPa) = 34.12261 44.20574 39.16418
# Shear Modulus (GPa) = 21.84036 25.45447 23.64742
#
# Velocity S-wave (km/s) = 3.50764 3.78675 3.64986
# Velocity P-wave (km/s) = 5.96886 6.63491 6.31068
#
# Compressibility (1/GPa) = 0.02930608
#
# Stress axis : x y z
#
# Youngs Moduli (GPa) = 35.44623 81.68639 83.64394
#
# Poissons Ratio (x) = 0.65240 0.00556
# Poissons Ratio (y) = 0.28310 0.29262
# Poissons Ratio (z) = 0.00236 0.28578
#
# Static dielectric constant tensor:
#      x y z
#    x 0.202060 -0.002400 -1.271870 
#    y -0.002400 3.241960 -0.001150 
#    z -1.271870 -0.001150 2.854190 
# 
# 
# High freq. dielectric constant tensor:
#      x y z
#    x 1.650830 0.000000 0.007300 
#    y 0.000000 1.683060 0.000000 
#    z 0.007300 0.000000 1.702620 
# 
# From -- ./inp_files/219193.got.cif
#   From: 2010.06.25/outbox.cif.g09.slc.cpg/sg12_110_cif.got.tgz:219193.got - 2010.06.28 00:19:55.
