data_PCOD8100896
_publ_section_title
;
Structure prediction by ZEFSAII (Michael W. Deem and Ramdas Pophale) SiO2 
 PCOD8100896
Probable space group: C 2/M
;
_chemical_formula_sum "Si O2"
_cell_formula_units_Z 64
_cell_length_a 29.756498
_cell_length_b 18.323078
_cell_length_c 12.313942
_cell_angle_alpha 90.000000
_cell_angle_beta 151.308604
_cell_angle_gamma 90.000000
_cell_volume 3223.306589
_symmetry_space_group_name_H-M "C 2/M"
_symmetry_group_IT_number 12
_symmetry_cell_setting 'monoclinic'
loop_
_space_group_symop_operation_xyz
x,y,z
-x,y,-z
-x,-y,-z
x,-y,z
1/2+x,1/2+y,z
1/2-x,1/2+y,-z
1/2-x,1/2-y,-z
1/2+x,1/2-y,z
loop_
_atom_site_type_symbol
_atom_site_label
_atom_site_fract_x
_atom_site_fract_y
_atom_site_fract_z
Si Si1 0.026908 0.326456 0.178351
Si Si2 0.640948 0.084501 0.122781
Si Si3 0.964616 0.815095 0.685155
Si Si4 0.861955 0.917704 0.984779
Si Si5 0.303294 0.583793 0.310101
Si Si6 0.097824 0.728540 0.654925
Si Si7 0.806415 0.583258 0.522965
Si Si8 0.278381 0.358064 0.019354
O O1 0.021567 0.239305 0.184206
O O2 0.129376 0.361691 0.411955
O O3 0.000000 0.346378 0.000000
O O4 0.951335 0.367267 0.093741
O O5 0.707143 0.107368 0.163382
O O6 0.692133 0.102413 0.345809
O O7 0.612487 0.000000 0.057080
O O8 0.885554 0.873523 0.545990
O O9 0.927517 0.762933 0.512916
O O10 0.057427 0.857648 0.847745
O O11 0.798519 0.906417 0.743660
O O12 0.903678 0.000000 0.074151
O O13 0.800740 0.908698 0.964121
O O14 0.324289 0.500000 0.376436
O O15 0.301508 0.598797 0.178332
O O16 0.154602 0.786988 0.848507
O O17 0.000000 0.702264 0.500000
O O18 0.167885 0.660917 0.783951
O O19 0.840854 0.500000 0.577344
#
# Coordination Sequence:
#
# PCOD8100896 Si02
#       8
#     8   8   8   8   8   8   8   8
#     4  10  21  36  59  87 115 146 185 236 285 338
#     4   9  19  37  60  84 113 150 189 229 281 341
#     4  11  23  36  56  83 115 149 190 233 286 340
#     4  11  22  38  58  81 112 152 197 240 279 331
#     4  10  22  39  58  81 112 150 192 238 282 331
#     4  10  20  36  55  82 115 147 180 227 288 337
#     4   9  19  37  60  85 113 150 190 229 278 338
#     4  10  21  36  59  83 112 150 192 230 277 336
#
# _framework density 19.855385999999999
#
# number of rings (size 3 to 8) (size 9 to 14) (size 15 to 20)
#    0.000    2.000    1.250    1.875    1.750    4.500 
#    0.000    4.375    0.000    4.500    0.000    0.000 
#    0.000    0.000    0.000    0.000    0.000    0.000 
#
# Total GULP energy -396781.138313 kJ/mol
# GULP energy per Si atom -12399.410572 kJ/mol
# Density = 1.981019 g / cm^3
# Si number density = 19.855386 Si / 1000 Ang^3
#
#
#
# Elastic Constant Matrix: (Units=GPa)
#
#
# Indices 1 2 3 4 5 6 
#
# 1 57.3884 34.4679 11.1019 0.0000 18.0387 0.0000
# 2 34.4679 85.2448 25.2554 0.0000 18.8006 0.0000
# 3 11.1019 25.2554 61.9599 0.0000 16.4866 0.0000
# 4 0.0000 0.0000 0.0000 29.0759 0.0000 2.6715
# 5 18.0387 18.8006 16.4866 0.0000 32.6142 0.0000
# 6 0.0000 0.0000 0.0000 2.6715 0.0000 31.9381
#
#
#
# Elastic Compliance Matrix: (Units=1/GPa)
#
#
# Indices 1 2 3 4 5 6 
#
# 1 0.025360 -0.008536 0.001569 0.000000 -0.009899 0.000000
# 2 -0.008536 0.017204 -0.004738 0.000000 -0.002801 0.000000
# 3 0.001569 -0.004738 0.019981 0.000000 -0.008238 0.000000
# 4 0.000000 0.000000 0.000000 0.034659 0.000000 -0.002899
# 5 -0.009899 -0.002801 -0.008238 0.000000 0.041916 0.000000
# 6 0.000000 0.000000 0.000000 -0.002899 0.000000 0.031553
#
#
# Mechanical properties :
#
#
# Convention : Reuss Voigt Hill
#
# Bulk Modulus (GPa) = 25.55142 38.47148 32.01145
# Shear Modulus (GPa) = 24.13994 27.64350 25.89172
#
# Velocity S-wave (km/s) = 3.49060 3.73532 3.61503
# Velocity P-wave (km/s) = 5.39837 6.16615 5.79499
#
# Compressibility (1/GPa) = 0.03913677
#
# Stress axis : x y z
#
# Youngs Moduli (GPa) = 39.43275 58.12727 50.04683
#
# Poissons Ratio (x) = 0.49615 -0.07854
# Poissons Ratio (y) = 0.33658 0.23710
# Poissons Ratio (z) = -0.06188 0.27538
#
# Static dielectric constant tensor:
#      x y z
#    x 3.548790 0.000000 0.105680 
#    y 0.000000 3.590140 0.000000 
#    z 0.105680 0.000000 3.626640 
# 
# 
# High freq. dielectric constant tensor:
#      x y z
#    x 1.770090 0.000000 0.005490 
#    y 0.000000 1.771250 0.000000 
#    z 0.005490 0.000000 1.773540 
# 
# From -- ./inp_files/190098.got.cif
#   From: 2010.06.25/outbox.cif.g09.slc.cpg/sg12_96_cif.got.tgz:190098.got - 2010.06.28 00:19:55.
