data_PCOD8100530
_publ_section_title
;
Structure prediction by ZEFSAII (Michael W. Deem and Ramdas Pophale) SiO2 
 PCOD8100530
Probable space group: C 2/M
;
_chemical_formula_sum "Si O2"
_cell_formula_units_Z 64
_cell_length_a 15.385191
_cell_length_b 8.790701
_cell_length_c 23.678386
_cell_angle_alpha 90.000000
_cell_angle_beta 89.850093
_cell_angle_gamma 90.000000
_cell_volume 3202.410568
_symmetry_space_group_name_H-M "C 2/M"
_symmetry_group_IT_number 12
_symmetry_cell_setting 'monoclinic'
loop_
_space_group_symop_operation_xyz
x,y,z
-x,y,-z
-x,-y,-z
x,-y,z
1/2+x,1/2+y,z
1/2-x,1/2+y,-z
1/2-x,1/2-y,-z
1/2+x,1/2-y,z
loop_
_atom_site_type_symbol
_atom_site_label
_atom_site_fract_x
_atom_site_fract_y
_atom_site_fract_z
Si Si1 0.411132 0.819919 0.069818
Si Si2 0.089973 0.678410 0.670244
Si Si3 0.416399 0.678110 0.668960
Si Si4 0.104913 0.319614 0.056816
Si Si5 0.752648 0.822362 0.744862
Si Si6 0.853515 0.323019 0.558166
Si Si7 0.348623 0.322924 0.442666
Si Si8 0.257919 0.679556 0.135310
O O1 0.510618 0.766025 0.079996
O O2 0.351106 0.743383 0.116820
O O3 0.402809 0.000000 0.075770
O O4 0.381301 0.764335 0.007609
O O5 0.093304 0.500000 0.657866
O O6 0.163733 0.725694 0.714458
O O7 0.100016 0.768134 0.611937
O O8 0.997514 0.730635 0.695963
O O9 0.435087 0.500000 0.672042
O O10 0.331438 0.723896 0.704112
O O11 0.405607 0.727352 0.604199
O O12 0.106202 0.500000 0.057644
O O13 0.181597 0.251898 0.095518
O O14 0.762765 0.726586 0.801280
O O15 0.753410 0.000000 0.759770
O O16 0.874596 0.500000 0.565946
O O17 0.752309 0.285997 0.566445
O O18 0.884609 0.269000 0.496477
O O19 0.364889 0.500000 0.453201
O O20 0.260065 0.500000 0.130560
#
# Coordination Sequence:
#
# PCOD8100530 Si02
#       8
#     8   8   8   8   8   8   8   8
#     4   9  17  35  60  83 115 155 194 228 277 341
#     4  11  23  41  63  86 113 149 194 240 292 351
#     4  11  23  41  63  87 115 149 193 242 293 347
#     4   8  17  34  57  85 116 154 191 230 278 339
#     4  10  24  44  61  79 112 155 196 237 286 344
#     4  10  20  35  59  89 120 153 189 232 288 349
#     4  10  20  35  59  89 120 152 188 234 289 345
#     4  11  22  35  56  86 117 147 190 241 287 332
#
# _framework density 19.984945
#
# number of rings (size 3 to 8) (size 9 to 14) (size 15 to 20)
#    0.000    2.000    1.250    3.000    0.000    4.500 
#    0.000    9.375    0.000    0.000    0.000    0.000 
#    0.000    0.000    0.000    0.000    0.000    0.000 
#
# Total GULP energy -396910.583317 kJ/mol
# GULP energy per Si atom -12403.455729 kJ/mol
# Density = 1.993946 g / cm^3
# Si number density = 19.984945 Si / 1000 Ang^3
#
#
#
# Elastic Constant Matrix: (Units=GPa)
#
#
# Indices 1 2 3 4 5 6 
#
# 1 100.4569 26.5203 31.2882 0.0000 10.8208 0.0000
# 2 26.5203 46.1163 21.0603 0.0000 0.4621 0.0000
# 3 31.2882 21.0603 82.4348 0.0000 6.2587 0.0000
# 4 0.0000 0.0000 0.0000 32.8363 0.0000 -1.0549
# 5 10.8208 0.4621 6.2587 0.0000 11.6362 0.0000
# 6 0.0000 0.0000 0.0000 -1.0549 0.0000 30.3378
#
#
#
# Elastic Compliance Matrix: (Units=1/GPa)
#
#
# Indices 1 2 3 4 5 6 
#
# 1 0.013710 -0.006544 -0.002694 0.000000 -0.011041 0.000000
# 2 -0.006544 0.027742 -0.005194 0.000000 0.007777 0.000000
# 3 -0.002694 -0.005194 0.014882 0.000000 -0.005293 0.000000
# 4 0.000000 0.000000 0.000000 0.030488 0.000000 0.001060
# 5 -0.011041 0.007777 -0.005293 0.000000 0.098744 0.000000
# 6 0.000000 0.000000 0.000000 0.001060 0.000000 0.032999
#
#
# Mechanical properties :
#
#
# Convention : Reuss Voigt Hill
#
# Bulk Modulus (GPa) = 36.40229 42.97171 39.68700
# Shear Modulus (GPa) = 19.48669 24.97133 22.22901
#
# Velocity S-wave (km/s) = 3.12600 3.53867 3.33872
# Velocity P-wave (km/s) = 5.59317 6.18425 5.89612
#
# Compressibility (1/GPa) = 0.02747080
#
# Stress axis : x y z
#
# Youngs Moduli (GPa) = 72.93807 36.04704 67.19481
#
# Poissons Ratio (x) = 0.23588 0.18101
# Poissons Ratio (y) = 0.47728 0.34902
# Poissons Ratio (z) = 0.19648 0.18723
#
# Static dielectric constant tensor:
#      x y z
#    x 3.896510 0.000000 0.093020 
#    y 0.000000 3.427180 0.000000 
#    z 0.093020 0.000000 3.576200 
# 
# 
# High freq. dielectric constant tensor:
#      x y z
#    x 1.791420 0.000000 0.000540 
#    y 0.000000 1.768840 0.000000 
#    z 0.000540 0.000000 1.773630 
# 
# From -- ./inp_files/338763.got.cif
#   From: 2010.06.25/outbox.cif.g09.slc.cpg/sg12_170_cif.got.tgz:338763.got - 2010.06.28 00:19:55.
