data_PCOD8100190
_publ_section_title
;
Structure prediction by ZEFSAII (Michael W. Deem and Ramdas Pophale) SiO2 
 PCOD8100190
Probable space group: C 2/M
;
_chemical_formula_sum "Si O2"
_cell_formula_units_Z 64
_cell_length_a 20.593544
_cell_length_b 8.639832
_cell_length_c 18.588072
_cell_angle_alpha 90.000000
_cell_angle_beta 97.150169
_cell_angle_gamma 90.000000
_cell_volume 3281.558647
_symmetry_space_group_name_H-M "C 2/M"
_symmetry_group_IT_number 12
_symmetry_cell_setting 'monoclinic'
loop_
_space_group_symop_operation_xyz
x,y,z
-x,y,-z
-x,-y,-z
x,-y,z
1/2+x,1/2+y,z
1/2-x,1/2+y,-z
1/2-x,1/2-y,-z
1/2+x,1/2-y,z
loop_
_atom_site_type_symbol
_atom_site_label
_atom_site_fract_x
_atom_site_fract_y
_atom_site_fract_z
Si Si1 0.978494 0.318924 0.809046
Si Si2 0.137067 0.316271 0.596844
Si Si3 0.993921 0.317000 0.348364
Si Si4 0.947588 0.818778 0.053972
Si Si5 0.187925 0.182448 0.030905
Si Si6 0.627514 0.184386 0.433766
Si Si7 0.768606 0.317971 0.667492
Si Si8 0.661335 0.681536 0.187834
O O1 0.960514 0.500000 0.808540
O O2 0.915178 0.218828 0.819232
O O3 0.004616 0.268791 0.734621
O O4 0.035587 0.279019 0.872869
O O5 0.135796 0.500000 0.597391
O O6 0.071267 0.248086 0.623946
O O7 0.141759 0.253551 0.515806
O O8 0.198172 0.259541 0.651339
O O9 0.993657 0.500000 0.356949
O O10 0.057806 0.249140 0.397394
O O11 0.947163 0.000000 0.072864
O O12 0.877537 0.757645 0.017262
O O13 0.000000 0.781486 0.000000
O O14 0.188075 0.234682 0.113934
O O15 0.189746 0.000000 0.026488
O O16 0.250000 0.250000 0.000000
O O17 0.684036 0.247302 0.388715
O O18 0.625975 0.000000 0.431187
O O19 0.760610 0.500000 0.659523
O O20 0.798549 0.277971 0.748556
O O21 0.671610 0.500000 0.202466
#
# Coordination Sequence:
#
# PCOD8100190 Si02
#       8
#     8   8   8   8   8   8   8   8
#     4  11  21  35  59  90 118 146 189 243 289 330
#     4  10  20  35  58  84 113 152 195 236 287 347
#     4   9  18  34  56  84 115 147 190 240 285 334
#     4  10  20  39  61  83 115 152 191 231 278 336
#     4  10  23  41  62  87 118 153 188 235 285 338
#     4   9  17  33  58  84 110 149 196 240 284 337
#     4  11  22  37  57  84 119 151 189 241 290 337
#     4  11  22  40  62  84 113 153 195 232 280 345
#
# _framework density 19.502927
#
# number of rings (size 3 to 8) (size 9 to 14) (size 15 to 20)
#    0.000    1.875    2.500    1.875    0.000    4.250 
#    0.000    5.625    0.000    0.750    0.000    0.000 
#    0.000    0.000    0.000    0.000    0.000    0.000 
#
# Total GULP energy -396897.965329 kJ/mol
# GULP energy per Si atom -12403.061417 kJ/mol
# Density = 1.945854 g / cm^3
# Si number density = 19.502927 Si / 1000 Ang^3
#
#
#
# Elastic Constant Matrix: (Units=GPa)
#
#
# Indices 1 2 3 4 5 6 
#
# 1 143.5070 10.7489 52.6802 0.0000 -6.1152 0.0000
# 2 10.7489 15.7632 15.8258 0.0000 -5.8435 0.0000
# 3 52.6802 15.8258 129.2571 0.0000 -2.7710 0.0000
# 4 0.0000 0.0000 0.0000 22.5860 0.0000 -0.0108
# 5 -6.1152 -5.8435 -2.7710 0.0000 33.4825 0.0000
# 6 0.0000 0.0000 0.0000 -0.0108 0.0000 25.9903
#
#
#
# Elastic Compliance Matrix: (Units=1/GPa)
#
#
# Indices 1 2 3 4 5 6 
#
# 1 0.008309 -0.002237 -0.003094 0.000000 0.000871 0.000000
# 2 -0.002237 0.078007 -0.008371 0.000000 0.012513 0.000000
# 3 -0.003094 -0.008371 0.009997 0.000000 -0.001199 0.000000
# 4 0.000000 0.000000 0.000000 0.044275 0.000000 0.000018
# 5 0.000871 0.012513 -0.001199 0.000000 0.032110 0.000000
# 6 0.000000 0.000000 0.000000 0.000018 0.000000 0.038476
#
#
# Mechanical properties :
#
#
# Convention : Reuss Voigt Hill
#
# Bulk Modulus (GPa) = 14.51189 49.67079 32.09134
# Shear Modulus (GPa) = 19.11710 30.36323 24.74017
#
# Velocity S-wave (km/s) = 3.13424 3.94998 3.56552
# Velocity P-wave (km/s) = 4.53376 6.80638 5.78281
#
# Compressibility (1/GPa) = 0.06890902
#
# Stress axis : x y z
#
# Youngs Moduli (GPa) = 120.35656 12.81941 100.03353
#
# Poissons Ratio (x) = 0.02867 0.30948
# Poissons Ratio (y) = 0.26920 0.83739
# Poissons Ratio (z) = 0.37235 0.10731
#
# Static dielectric constant tensor:
#      x y z
#    x 3.654820 0.000000 0.065680 
#    y 0.000000 3.210200 0.000000 
#    z 0.065680 0.000000 3.817590 
# 
# 
# High freq. dielectric constant tensor:
#      x y z
#    x 1.767080 0.000000 0.003970 
#    y 0.000000 1.730080 0.000000 
#    z 0.003970 0.000000 1.774530 
# 
# From -- ./inp_files/281358.got.cif
#   From: 2010.06.25/outbox.cif.g09.slc.cpg/sg12_141_cif.got.tgz:281358.got - 2010.06.28 00:19:55.
