data_PCOD8100030
_publ_section_title
;
Structure prediction by ZEFSAII (Michael W. Deem and Ramdas Pophale) SiO2 
 PCOD8100030
Probable space group: C 2/M
;
_chemical_formula_sum "Si O2"
_cell_formula_units_Z 56
_cell_length_a 23.202683
_cell_length_b 9.073678
_cell_length_c 14.482353
_cell_angle_alpha 90.000000
_cell_angle_beta 69.989283
_cell_angle_gamma 90.000000
_cell_volume 2864.949296
_symmetry_space_group_name_H-M "C 2/M"
_symmetry_group_IT_number 12
_symmetry_cell_setting 'monoclinic'
loop_
_space_group_symop_operation_xyz
x,y,z
-x,y,-z
-x,-y,-z
x,-y,z
1/2+x,1/2+y,z
1/2-x,1/2+y,-z
1/2-x,1/2-y,-z
1/2+x,1/2-y,z
loop_
_atom_site_type_symbol
_atom_site_label
_atom_site_fract_x
_atom_site_fract_y
_atom_site_fract_z
Si Si1 0.195240 0.673452 0.082760
Si Si2 0.909845 0.830667 0.346309
Si Si3 0.058857 0.326059 0.847929
Si Si4 0.807555 0.325919 0.515847
Si Si5 0.470526 0.331520 0.608892
Si Si6 0.076682 0.673465 0.043831
Si Si7 0.655517 0.829057 0.302420
O O1 0.200514 0.500000 0.062575
O O2 0.131705 0.737029 0.075516
O O3 0.197016 0.712847 0.190798
O O4 0.250000 0.750000 0.000000
O O5 0.901854 0.761566 0.249402
O O6 0.869671 0.739402 0.440475
O O7 0.980789 0.816392 0.335470
O O8 0.887599 0.000000 0.357877
O O9 0.062403 0.500000 0.825383
O O10 0.988803 0.265856 0.885428
O O11 0.088568 0.285980 0.930333
O O12 0.804790 0.500000 0.499836
O O13 0.750000 0.250000 0.500000
O O14 0.807398 0.287382 0.625167
O O15 0.500000 0.262226 0.500000
O O16 0.452576 0.500000 0.598679
O O17 0.409384 0.249472 0.671098
O O18 0.072616 0.500000 0.055831
O O19 0.639312 0.000000 0.310083
#
# Coordination Sequence:
#
# PCOD8100030 Si02
#       7
#     8   8   8   8   8   8   8
#     4  10  21  38  57  81 111 145 186 232 279 332
#     4  11  22  36  55  84 118 151 186 229 279 336
#     4   9  17  33  58  84 109 143 184 230 281 336
#     4  11  24  41  59  81 111 150 190 231 279 335
#     4  10  20  35  57  85 118 151 184 227 281 340
#     4   8  16  33  57  82 110 142 182 230 283 338
#     4  10  22  39  61  87 114 145 189 241 286 332
#
# _framework density 19.546593999999999
#
# number of rings (size 3 to 8) (size 9 to 14) (size 15 to 20)
#    0.000    2.143    1.429    2.571    0.000    4.857 
#    0.000    5.714    0.000    0.000    0.000    0.000 
#    0.000    0.000    0.000    0.000    0.000    0.000 
#
# Total GULP energy -347197.475893 kJ/mol
# GULP energy per Si atom -12399.909853 kJ/mol
# Density = 1.950211 g / cm^3
# Si number density = 19.546594 Si / 1000 Ang^3
#
#
#
# Elastic Constant Matrix: (Units=GPa)
#
#
# Indices 1 2 3 4 5 6 
#
# 1 100.1874 41.6874 52.0654 0.0000 7.0199 0.0000
# 2 41.6874 69.7137 55.2395 0.0000 1.8197 0.0000
# 3 52.0654 55.2395 155.8223 0.0000 6.7447 0.0000
# 4 0.0000 0.0000 0.0000 28.3078 0.0000 -7.0796
# 5 7.0199 1.8197 6.7447 0.0000 29.6793 0.0000
# 6 0.0000 0.0000 0.0000 -7.0796 0.0000 30.1394
#
#
#
# Elastic Compliance Matrix: (Units=1/GPa)
#
#
# Indices 1 2 3 4 5 6 
#
# 1 0.014052 -0.006539 -0.002273 0.000000 -0.002406 0.000000
# 2 -0.006539 0.022995 -0.006032 0.000000 0.001508 0.000000
# 3 -0.002273 -0.006032 0.009368 0.000000 -0.001222 0.000000
# 4 0.000000 0.000000 0.000000 0.037531 0.000000 0.008816
# 5 -0.002406 0.001508 -0.001222 0.000000 0.034448 0.000000
# 6 0.000000 0.000000 0.000000 0.008816 0.000000 0.035250
#
#
# Mechanical properties :
#
#
# Convention : Reuss Voigt Hill
#
# Bulk Modulus (GPa) = 59.78336 69.30088 64.54212
# Shear Modulus (GPa) = 26.46800 29.40738 27.93769
#
# Velocity S-wave (km/s) = 3.68380 3.88297 3.78469
# Velocity P-wave (km/s) = 6.98178 7.45885 7.22425
#
# Compressibility (1/GPa) = 0.01672706
#
# Stress axis : x y z
#
# Youngs Moduli (GPa) = 71.16466 43.48792 106.74248
#
# Poissons Ratio (x) = 0.28436 0.24263
# Poissons Ratio (y) = 0.46534 0.64389
# Poissons Ratio (z) = 0.16176 0.26233
#
# Static dielectric constant tensor:
#      x y z
#    x 3.690760 0.000000 0.201930 
#    y 0.000000 3.378830 0.000000 
#    z 0.201930 0.000000 3.739290 
# 
# 
# High freq. dielectric constant tensor:
#      x y z
#    x 1.754150 0.000000 0.009430 
#    y 0.000000 1.741950 0.000000 
#    z 0.009430 0.000000 1.775130 
# 
# From -- ./inp_files/242987.got.cif
#   From: 2010.06.25/outbox.cif.g09.slc.cpg/sg12_122_cif.got.tgz:242987.got - 2010.06.28 00:19:55.
