data_PCOD8100147
_publ_section_title
;
Structure prediction by ZEFSAII (Michael W. Deem and Ramdas Pophale) SiO2 
 PCOD8100147
Probable space group: C 2/M
;
_chemical_formula_sum "Si O2"
_cell_formula_units_Z 48
_cell_length_a 20.556931
_cell_length_b 8.933721
_cell_length_c 31.768627
_cell_angle_alpha 90.000000
_cell_angle_beta 153.162533
_cell_angle_gamma 90.000000
_cell_volume 2633.961785
_symmetry_space_group_name_H-M "C 2/M"
_symmetry_group_IT_number 12
_symmetry_cell_setting 'monoclinic'
loop_
_space_group_symop_operation_xyz
x,y,z
-x,y,-z
-x,-y,-z
x,-y,z
1/2+x,1/2+y,z
1/2-x,1/2+y,-z
1/2-x,1/2-y,-z
1/2+x,1/2-y,z
loop_
_atom_site_type_symbol
_atom_site_label
_atom_site_fract_x
_atom_site_fract_y
_atom_site_fract_z
Si Si1 0.940408 0.330579 0.272177
Si Si2 0.144568 0.174588 0.061403
Si Si3 0.373079 0.172381 0.544332
Si Si4 0.922744 0.825138 0.723717
Si Si5 0.634652 0.324860 0.548944
Si Si6 0.282512 0.323230 0.063135
O O1 0.973334 0.500000 0.275908
O O2 0.772869 0.292528 0.168473
O O3 0.978289 0.312486 0.343240
O O4 0.041078 0.220258 0.303313
O O5 0.170346 0.262352 0.032891
O O6 0.130868 0.000000 0.042334
O O7 0.000000 0.234919 0.000000
O O8 0.250000 0.250000 0.500000
O O9 0.396143 0.252400 0.513716
O O10 0.332125 0.000000 0.512780
O O11 0.777448 0.740972 0.653797
O O12 0.054743 0.777760 0.830044
O O13 0.893387 0.000000 0.708737
O O14 0.500000 0.284367 0.500000
O O15 0.655484 0.500000 0.554786
O O16 0.264080 0.500000 0.049421
O O17 0.250000 0.250000 0.000000
#
# Coordination Sequence:
#
# PCOD8100147 Si02
#       6
#     8   8   8   8   8   8
#     4   9  18  33  55  82 109 143 181 222 273 327
#     4   9  18  35  58  82 113 146 178 224 278 327
#     4  11  21  34  57  84 111 143 185 228 268 325
#     4  10  20  35  58  83 107 142 186 231 274 325
#     4  11  24  40  56  78 113 151 185 226 280 330
#     4  10  21  37  58  84 111 144 186 228 273 328
#
# _framework density 18.223500000000001
#
# number of rings (size 3 to 8) (size 9 to 14) (size 15 to 20)
#    0.000    2.000    1.667    2.000    0.000    4.333 
#    3.000    0.000    0.000    0.000    0.000    0.000 
#    0.000    0.000    0.000    0.000    0.000    0.000 
#
# Total GULP energy -297637.076792 kJ/mol
# GULP energy per Si atom -12401.544866 kJ/mol
# Density = 1.818202 g / cm^3
# Si number density = 18.223500 Si / 1000 Ang^3
#
#
#
# Elastic Constant Matrix: (Units=GPa)
#
#
# Indices 1 2 3 4 5 6 
#
# 1 136.3619 73.0322 83.9157 -0.0003 0.5279 0.0001
# 2 73.0322 92.5800 55.5728 0.0002 7.2768 0.0000
# 3 83.9157 55.5728 119.4208 0.0012 5.5541 0.0003
# 4 -0.0003 0.0002 0.0012 26.9609 0.0002 -1.3528
# 5 0.5279 7.2768 5.5541 0.0002 34.2447 -0.0001
# 6 0.0001 0.0000 0.0003 -1.3528 -0.0001 30.9696
#
#
#
# Elastic Compliance Matrix: (Units=1/GPa)
#
#
# Indices 1 2 3 4 5 6 
#
# 1 0.016920 -0.008822 -0.007919 0.000001 0.002898 0.000000
# 2 -0.008822 0.019735 -0.002817 0.000000 -0.003601 0.000000
# 3 -0.007919 -0.002817 0.015332 -0.000001 -0.001766 0.000000
# 4 0.000001 0.000000 -0.000001 0.037172 0.000000 0.001624
# 5 0.002898 -0.003601 -0.001766 0.000000 0.030208 0.000000
# 6 0.000000 0.000000 0.000000 0.001624 0.000000 0.032361
#
#
# Mechanical properties :
#
#
# Convention : Reuss Voigt Hill
#
# Bulk Modulus (GPa) = 77.69895 85.93380 81.81638
# Shear Modulus (GPa) = 25.62330 27.49115 26.55723
#
# Velocity S-wave (km/s) = 3.75381 3.88823 3.82161
# Velocity P-wave (km/s) = 7.84330 8.21070 8.02910
#
# Compressibility (1/GPa) = 0.01287019
#
# Stress axis : x y z
#
# Youngs Moduli (GPa) = 59.09997 50.67227 65.22450
#
# Poissons Ratio (x) = 0.44702 0.51654
# Poissons Ratio (y) = 0.52137 0.18374
# Poissons Ratio (z) = 0.46803 0.14275
#
# Static dielectric constant tensor:
#      x y z
#    x 3.133570 0.000000 -0.016840 
#    y 0.000000 3.475100 0.000000 
#    z -0.016840 0.000000 3.680500 
# 
# 
# High freq. dielectric constant tensor:
#      x y z
#    x 1.686150 0.000000 -0.004950 
#    y 0.000000 1.716270 0.000000 
#    z -0.004950 0.000000 1.718660 
# 
# From -- ./inp_files/319370.got.cif
#   From: 2010.06.25/outbox.cif.g09.slc.cpg/sg12_160_cif.got.tgz:319370.got - 2010.06.28 00:19:55.
