data_PCOD8100348
_publ_section_title
;
Structure prediction by ZEFSAII (Michael W. Deem and Ramdas Pophale) SiO2 
 PCOD8100348
Probable space group: C 2/M
;
_chemical_formula_sum "Si O2"
_cell_formula_units_Z 56
_cell_length_a 15.022242
_cell_length_b 8.820785
_cell_length_c 24.315597
_cell_angle_alpha 90.000000
_cell_angle_beta 62.851228
_cell_angle_gamma 90.000000
_cell_volume 2867.024393
_symmetry_space_group_name_H-M "C 2/M"
_symmetry_group_IT_number 12
_symmetry_cell_setting 'monoclinic'
loop_
_space_group_symop_operation_xyz
x,y,z
-x,y,-z
-x,-y,-z
x,-y,z
1/2+x,1/2+y,z
1/2-x,1/2+y,-z
1/2-x,1/2-y,-z
1/2+x,1/2-y,z
loop_
_atom_site_type_symbol
_atom_site_label
_atom_site_fract_x
_atom_site_fract_y
_atom_site_fract_z
Si Si1 0.708403 0.680354 0.376502
Si Si2 0.007596 0.178816 0.152299
Si Si3 0.577489 0.319901 0.707014
Si Si4 0.976987 0.321228 0.633723
Si Si5 0.594985 0.666602 0.512100
Si Si6 0.226698 0.177761 0.064439
Si Si7 0.924922 0.677909 0.068128
O O1 0.708760 0.500000 0.368040
O O2 0.813789 0.750763 0.332177
O O3 0.625238 0.750875 0.360030
O O4 0.685860 0.721311 0.447131
O O5 0.959319 0.232522 0.222807
O O6 0.943409 0.244889 0.120903
O O7 0.121509 0.239339 0.117250
O O8 0.005369 0.000000 0.148032
O O9 0.581234 0.500000 0.699470
O O10 0.498158 0.251155 0.686814
O O11 0.965454 0.500000 0.642180
O O12 0.071978 0.284442 0.567313
O O13 0.500000 0.652499 0.500000
O O14 0.617552 0.500000 0.531341
O O15 0.312130 0.221597 0.083791
O O16 0.223687 0.000000 0.055638
O O17 0.250000 0.250000 0.000000
O O18 0.941199 0.500000 0.070547
O O19 0.000000 0.740599 0.000000
#
# Coordination Sequence:
#
# PCOD8100348 Si02
#       7
#     8   8   8   8   8   8   8
#     4  10  21  39  62  87 117 155 199 248 303 355
#     4  10  23  40  58  83 115 151 193 237 286 343
#     4  11  24  41  58  82 118 159 205 250 292 350
#     4  11  22  37  60  89 120 156 198 244 299 357
#     4   8  16  33  57  85 116 151 194 245 298 353
#     4  10  20  36  58  85 115 146 181 225 280 336
#     4  10  20  35  58  88 117 146 184 229 282 342
#
# _framework density 19.532447000000001
#
# number of rings (size 3 to 8) (size 9 to 14) (size 15 to 20)
#    0.000    2.000    1.429    3.000    0.000    6.857 
#    0.000    1.429    0.000    0.000    0.000    0.000 
#    0.000    0.000    0.000    0.000    0.000    0.000 
#
# Total GULP energy -347205.991122 kJ/mol
# GULP energy per Si atom -12400.213969 kJ/mol
# Density = 1.948799 g / cm^3
# Si number density = 19.532447 Si / 1000 Ang^3
#
#
#
# Elastic Constant Matrix: (Units=GPa)
#
#
# Indices 1 2 3 4 5 6 
#
# 1 69.9984 10.8945 15.4613 0.0000 -0.1845 0.0000
# 2 10.8945 58.8124 18.6431 0.0000 3.7865 0.0000
# 3 15.4613 18.6431 80.4645 0.0000 3.7902 0.0000
# 4 0.0000 0.0000 0.0000 28.4107 0.0000 3.3461
# 5 -0.1845 3.7865 3.7902 0.0000 37.8045 0.0000
# 6 0.0000 0.0000 0.0000 3.3461 0.0000 33.0037
#
#
#
# Elastic Compliance Matrix: (Units=1/GPa)
#
#
# Indices 1 2 3 4 5 6 
#
# 1 0.015151 -0.002061 -0.002459 0.000000 0.000527 0.000000
# 2 -0.002061 0.018707 -0.003868 0.000000 -0.001496 0.000000
# 3 -0.002459 -0.003868 0.013844 0.000000 -0.001013 0.000000
# 4 0.000000 0.000000 0.000000 0.035623 0.000000 -0.003612
# 5 0.000527 -0.001496 -0.001013 0.000000 0.026706 0.000000
# 6 0.000000 0.000000 0.000000 -0.003612 0.000000 0.030666
#
#
# Mechanical properties :
#
#
# Convention : Reuss Voigt Hill
#
# Bulk Modulus (GPa) = 32.33364 33.25256 32.79310
# Shear Modulus (GPa) = 29.80052 30.79555 30.29804
#
# Velocity S-wave (km/s) = 3.91025 3.97499 3.94276
# Velocity P-wave (km/s) = 6.08083 6.17484 6.12802
#
# Compressibility (1/GPa) = 0.03092754
#
# Stress axis : x y z
#
# Youngs Moduli (GPa) = 66.00095 53.45473 72.23292
#
# Poissons Ratio (x) = 0.11018 0.17759
# Poissons Ratio (y) = 0.13604 0.27939
# Poissons Ratio (z) = 0.16227 0.20675
#
# Static dielectric constant tensor:
#      x y z
#    x 3.579960 0.000000 -0.136830 
#    y 0.000000 3.513850 0.000000 
#    z -0.136830 0.000000 3.810640 
# 
# 
# High freq. dielectric constant tensor:
#      x y z
#    x 1.766010 0.000000 -0.002090 
#    y 0.000000 1.757960 0.000000 
#    z -0.002090 0.000000 1.762860 
# 
# From -- ./inp_files/338511.got.cif
#   From: 2010.06.25/outbox.cif.g09.slc.cpg/sg12_170_cif.got.tgz:338511.got - 2010.06.28 00:19:55.
