data_PCOD8100440
_publ_section_title
;
Structure prediction by ZEFSAII (Michael W. Deem and Ramdas Pophale) SiO2 
 PCOD8100440
Probable space group: C 2/M
;
_chemical_formula_sum "Si O2"
_cell_formula_units_Z 64
_cell_length_a 8.246243
_cell_length_b 20.770159
_cell_length_c 21.006409
_cell_angle_alpha 90.000000
_cell_angle_beta 114.301250
_cell_angle_gamma 90.000000
_cell_volume 3279.095567
_symmetry_space_group_name_H-M "C 2/M"
_symmetry_group_IT_number 12
_symmetry_cell_setting 'monoclinic'
loop_
_space_group_symop_operation_xyz
x,y,z
-x,y,-z
-x,-y,-z
x,-y,z
1/2+x,1/2+y,z
1/2-x,1/2+y,-z
1/2-x,1/2-y,-z
1/2+x,1/2-y,z
loop_
_atom_site_type_symbol
_atom_site_label
_atom_site_fract_x
_atom_site_fract_y
_atom_site_fract_z
Si Si1 0.585574 0.077134 0.200731
Si Si2 0.598881 0.158742 0.077377
Si Si3 0.343871 0.181282 0.214941
Si Si4 0.035027 0.775597 0.868931
Si Si5 0.304769 0.657336 0.586549
Si Si6 0.526612 0.221679 0.630060
Si Si7 0.098650 0.074525 0.658304
Si Si8 0.685706 0.648949 0.550740
O O1 0.600637 0.103810 0.131573
O O2 0.421074 0.110686 0.211143
O O3 0.760768 0.100507 0.267165
O O4 0.557620 0.000000 0.195787
O O5 0.799036 0.178211 0.090364
O O6 0.489749 0.222540 0.079881
O O7 0.500000 0.129176 0.000000
O O8 0.445713 0.237421 0.193849
O O9 0.361268 0.202242 0.290561
O O10 0.136956 0.178793 0.162937
O O11 0.488146 0.702758 0.612583
O O12 0.134177 0.690058 0.589641
O O13 0.397023 0.599341 0.640799
O O14 0.238050 0.630259 0.507206
O O15 0.324706 0.196709 0.605640
O O16 0.154272 0.089679 0.593751
O O17 0.093759 0.000000 0.665958
O O18 0.500000 0.683429 0.500000
#
# Coordination Sequence:
#
# PCOD8100440 Si02
#       8
#     8   8   8   8   8   8   8   8
#     4  10  22  40  60  82 114 153 199 234 274 337
#     4  10  20  36  62  90 124 153 182 228 283 338
#     4  10  20  35  59  85 117 152 188 237 283 337
#     4   9  20  34  58  92 121 147 189 228 282 340
#     4  11  24  34  58  84 116 147 189 239 292 347
#     4  12  22  36  57  86 121 146 185 238 299 345
#     4  10  22  42  61  79 108 154 199 236 280 338
#     4  10  21  38  57  81 111 149 190 234 290 345
#
# _framework density 19.517576999999999
#
# number of rings (size 3 to 8) (size 9 to 14) (size 15 to 20)
#    0.000    1.750    1.250    3.375    7.000    3.500 
#    0.000    1.875    0.000    4.500    0.000    0.000 
#    0.000    0.000    0.000    0.000    0.000    0.000 
#
# Total GULP energy -396501.053247 kJ/mol
# GULP energy per Si atom -12390.657914 kJ/mol
# Density = 1.947315 g / cm^3
# Si number density = 19.517577 Si / 1000 Ang^3
#
#
#
# Elastic Constant Matrix: (Units=GPa)
#
#
# Indices 1 2 3 4 5 6 
#
# 1 66.1677 16.2208 15.9818 0.0000 6.6238 0.0000
# 2 16.2208 54.5853 32.3309 0.0000 11.1781 0.0000
# 3 15.9818 32.3309 114.2594 0.0000 1.6994 0.0000
# 4 0.0000 0.0000 0.0000 20.2846 0.0000 -2.7831
# 5 6.6238 11.1781 1.6994 0.0000 23.7538 0.0000
# 6 0.0000 0.0000 0.0000 -2.7831 0.0000 15.5133
#
#
#
# Elastic Compliance Matrix: (Units=1/GPa)
#
#
# Indices 1 2 3 4 5 6 
#
# 1 0.016584 -0.003601 -0.001258 0.000000 -0.002840 0.000000
# 2 -0.003601 0.025404 -0.006529 0.000000 -0.010483 0.000000
# 3 -0.001258 -0.006529 0.010736 0.000000 0.002655 0.000000
# 4 0.000000 0.000000 0.000000 0.050543 0.000000 0.009067
# 5 -0.002840 -0.010483 0.002655 0.000000 0.047634 0.000000
# 6 0.000000 0.000000 0.000000 0.009067 0.000000 0.066088
#
#
# Mechanical properties :
#
#
# Convention : Reuss Voigt Hill
#
# Bulk Modulus (GPa) = 33.39214 40.45329 36.92271
# Shear Modulus (GPa) = 20.02026 23.27559 21.64792
#
# Velocity S-wave (km/s) = 3.20622 3.45707 3.33400
# Velocity P-wave (km/s) = 5.55449 6.05861 5.81201
#
# Compressibility (1/GPa) = 0.02994716
#
# Stress axis : x y z
#
# Youngs Moduli (GPa) = 60.29838 39.36410 93.14549
#
# Poissons Ratio (x) = 0.14176 0.11722
# Poissons Ratio (y) = 0.21715 0.60811
# Poissons Ratio (z) = 0.07588 0.25699
#
# Static dielectric constant tensor:
#      x y z
#    x 3.734800 0.000000 -0.028300 
#    y 0.000000 3.270640 0.000000 
#    z -0.028300 0.000000 3.676760 
# 
# 
# High freq. dielectric constant tensor:
#      x y z
#    x 1.766300 0.000000 0.003790 
#    y 0.000000 1.727680 0.000000 
#    z 0.003790 0.000000 1.770140 
# 
# From -- ./inp_files/301769.got.cif
#   From: 2010.06.25/outbox.cif.g09.slc.cpg/sg12_151_cif.got.tgz:301769.got - 2010.06.28 00:19:55.
