data_PCOD8100196
_publ_section_title
;
Structure prediction by ZEFSAII (Michael W. Deem and Ramdas Pophale) SiO2 
 PCOD8100196
Probable space group: C 2/M
;
_chemical_formula_sum "Si O2"
_cell_formula_units_Z 56
_cell_length_a 14.095892
_cell_length_b 13.706332
_cell_length_c 19.353135
_cell_angle_alpha 90.000000
_cell_angle_beta 131.195996
_cell_angle_gamma 90.000000
_cell_volume 2813.514105
_symmetry_space_group_name_H-M "C 2/M"
_symmetry_group_IT_number 12
_symmetry_cell_setting 'monoclinic'
loop_
_space_group_symop_operation_xyz
x,y,z
-x,y,-z
-x,-y,-z
x,-y,z
1/2+x,1/2+y,z
1/2-x,1/2+y,-z
1/2-x,1/2-y,-z
1/2+x,1/2-y,z
loop_
_atom_site_type_symbol
_atom_site_label
_atom_site_fract_x
_atom_site_fract_y
_atom_site_fract_z
Si Si1 0.559541 0.794981 0.953027
Si Si2 0.116406 0.392403 0.606410
Si Si3 0.267865 0.280978 0.403563
Si Si4 0.830892 0.386389 0.774115
Si Si5 0.951416 0.746429 0.604091
Si Si6 0.821767 0.111273 0.050587
Si Si7 0.107348 0.890459 0.762832
O O1 0.455659 0.820821 0.844572
O O2 0.611343 0.683986 0.971764
O O3 0.500000 0.812023 0.000000
O O4 0.674650 0.867713 0.992795
O O5 0.167645 0.500000 0.653022
O O6 0.229936 0.330319 0.625799
O O7 0.000000 0.407629 0.500000
O O8 0.063284 0.332069 0.646648
O O9 0.248896 0.356540 0.332129
O O10 0.162516 0.304558 0.409915
O O11 0.402759 0.292629 0.507859
O O12 0.868084 0.500000 0.786367
O O13 0.744843 0.364376 0.799216
O O14 0.997526 0.829772 0.676215
O O15 0.894885 0.127932 0.156986
O O16 0.835681 0.000000 0.030608
O O17 0.074215 0.000000 0.727442
#
# Coordination Sequence:
#
# PCOD8100196 Si02
#       7
#     8   8   8   8   8   8   8
#     4  11  22  39  65  89 117 155 192 238 292 348
#     4   9  18  34  54  76 106 146 191 236 282 335
#     4  10  21  36  56  82 113 154 194 241 288 337
#     4  11  22  36  58  86 117 153 193 236 288 351
#     4  10  20  36  57  80 114 153 196 239 287 340
#     4  10  22  40  63  91 119 151 192 239 291 346
#     4  10  20  35  58  84 115 152 189 235 288 346
#
# _framework density 19.903932999999999
#
# number of rings (size 3 to 8) (size 9 to 14) (size 15 to 20)
#    0.000    1.857    2.857    1.286    0.000    2.571 
#    0.000    5.000    0.000    0.857    0.000    0.000 
#    0.000    0.000    0.000    0.000    0.000    0.000 
#
# Total GULP energy -347057.663766 kJ/mol
# GULP energy per Si atom -12394.916563 kJ/mol
# Density = 1.985863 g / cm^3
# Si number density = 19.903933 Si / 1000 Ang^3
#
#
#
# Elastic Constant Matrix: (Units=GPa)
#
#
# Indices 1 2 3 4 5 6 
#
# 1 51.9905 17.3264 -3.9956 0.0000 -8.0028 0.0000
# 2 17.3264 79.0880 22.2487 0.0000 9.0360 0.0000
# 3 -3.9956 22.2487 57.1230 0.0000 6.1301 0.0000
# 4 0.0000 0.0000 0.0000 28.8999 0.0000 2.0532
# 5 -8.0028 9.0360 6.1301 0.0000 19.7427 0.0000
# 6 0.0000 0.0000 0.0000 2.0532 0.0000 19.9054
#
#
#
# Elastic Compliance Matrix: (Units=1/GPa)
#
#
# Indices 1 2 3 4 5 6 
#
# 1 0.023864 -0.007541 0.003308 0.000000 0.012098 0.000000
# 2 -0.007541 0.017066 -0.006215 0.000000 -0.008938 0.000000
# 3 0.003308 -0.006215 0.020388 0.000000 -0.002145 0.000000
# 4 0.000000 0.000000 0.000000 0.034858 0.000000 -0.003596
# 5 0.012098 -0.008938 -0.002145 0.000000 0.060312 0.000000
# 6 0.000000 0.000000 0.000000 -0.003596 0.000000 0.050608
#
#
# Mechanical properties :
#
#
# Convention : Reuss Voigt Hill
#
# Bulk Modulus (GPa) = 24.73907 28.81784 26.77846
# Shear Modulus (GPa) = 20.70683 23.88439 22.29561
#
# Velocity S-wave (km/s) = 3.22893 3.46784 3.35051
# Velocity P-wave (km/s) = 5.13396 5.52670 5.33394
#
# Compressibility (1/GPa) = 0.04042189
#
# Stress axis : x y z
#
# Youngs Moduli (GPa) = 41.90462 58.59685 49.04747
#
# Poissons Ratio (x) = 0.44187 -0.16225
# Poissons Ratio (y) = 0.31599 0.30484
# Poissons Ratio (z) = -0.13862 0.36419
#
# Static dielectric constant tensor:
#      x y z
#    x 3.622850 0.000000 -0.042050 
#    y 0.000000 3.645260 0.000000 
#    z -0.042050 0.000000 3.544220 
# 
# 
# High freq. dielectric constant tensor:
#      x y z
#    x 1.776620 0.000000 0.001720 
#    y 0.000000 1.767700 0.000000 
#    z 0.001720 0.000000 1.765960 
# 
# From -- ./inp_files/270406.got.cif
#   From: 2010.06.25/outbox.cif.g09.slc.cpg/sg12_136_cif.got.tgz:270406.got - 2010.06.28 00:19:55.
