data_PCOD8100796
_publ_section_title
;
Structure prediction by ZEFSAII (Michael W. Deem and Ramdas Pophale) SiO2 
 PCOD8100796
Probable space group: C 2/M
;
_chemical_formula_sum "Si O2"
_cell_formula_units_Z 56
_cell_length_a 25.164247
_cell_length_b 9.137340
_cell_length_c 13.694874
_cell_angle_alpha 90.000000
_cell_angle_beta 74.255998
_cell_angle_gamma 90.000000
_cell_volume 3030.784970
_symmetry_space_group_name_H-M "C 2/M"
_symmetry_group_IT_number 12
_symmetry_cell_setting 'monoclinic'
loop_
_space_group_symop_operation_xyz
x,y,z
-x,y,-z
-x,-y,-z
x,-y,z
1/2+x,1/2+y,z
1/2-x,1/2+y,-z
1/2-x,1/2-y,-z
1/2+x,1/2-y,z
loop_
_atom_site_type_symbol
_atom_site_label
_atom_site_fract_x
_atom_site_fract_y
_atom_site_fract_z
Si Si1 0.944584 0.172257 0.909816
Si Si2 0.777654 0.672713 0.714634
Si Si3 0.829685 0.670682 0.278780
Si Si4 0.938741 0.169601 0.538313
Si Si5 0.873781 0.171219 0.765973
Si Si6 0.844403 0.332236 0.492329
Si Si7 0.568533 0.673129 0.863501
O O1 0.903055 0.234774 0.848677
O O2 0.007352 0.228042 0.863376
O O3 0.947423 0.000000 0.896693
O O4 0.921748 0.213788 0.027760
O O5 0.772121 0.500000 0.732431
O O6 0.717892 0.746022 0.757264
O O7 0.817723 0.738185 0.777559
O O8 0.800335 0.716285 0.596199
O O9 0.828199 0.500000 0.252937
O O10 0.819005 0.697459 0.398916
O O11 0.888682 0.736762 0.222063
O O12 0.916060 0.200862 0.657266
O O13 0.900794 0.242929 0.475345
O O14 0.000000 0.236475 0.500000
O O15 0.939761 0.000000 0.511720
O O16 0.858796 0.000000 0.781848
O O17 0.860252 0.500000 0.499663
O O18 0.576204 0.500000 0.842160
#
# Coordination Sequence:
#
# PCOD8100796 Si02
#       7
#     8   8   8   8   8   8   8
#     4   8  16  33  57  80 104 135 172 210 256 307
#     4  10  20  36  54  75 101 136 178 215 252 305
#     4  11  22  35  52  77 106 136 172 215 263 307
#     4   9  18  29  46  76 107 134 170 209 246 299
#     4   9  17  32  53  75 104 138 168 208 259 305
#     4   9  20  35  50  71 103 139 173 208 254 305
#     4   9  18  34  56  81 104 133 173 215 254 304
#
# _framework density 18.477060999999999
#
# number of rings (size 3 to 8) (size 9 to 14) (size 15 to 20)
#    0.000    2.714    0.000    2.143    2.000    2.000 
#    0.000    3.571    0.000    0.000    0.000    0.000 
#    0.000    0.000    0.000    0.000    0.000    0.000 
#
# Total GULP energy -347197.348366 kJ/mol
# GULP energy per Si atom -12399.905299 kJ/mol
# Density = 1.843501 g / cm^3
# Si number density = 18.477061 Si / 1000 Ang^3
#
#
#
# Elastic Constant Matrix: (Units=GPa)
#
#
# Indices 1 2 3 4 5 6 
#
# 1 109.6959 44.0635 33.7626 0.0000 12.1445 0.0000
# 2 44.0635 60.4915 24.4971 0.0000 3.7096 0.0000
# 3 33.7626 24.4971 53.3158 0.0000 10.4750 0.0000
# 4 0.0000 0.0000 0.0000 20.2958 0.0000 -1.2294
# 5 12.1445 3.7096 10.4750 0.0000 29.8951 0.0000
# 6 0.0000 0.0000 0.0000 -1.2294 0.0000 31.8678
#
#
#
# Elastic Compliance Matrix: (Units=1/GPa)
#
#
# Indices 1 2 3 4 5 6 
#
# 1 0.014205 -0.008307 -0.004561 0.000000 -0.003141 0.000000
# 2 -0.008307 0.025187 -0.006831 0.000000 0.002643 0.000000
# 3 -0.004561 -0.006831 0.026046 0.000000 -0.006426 0.000000
# 4 0.000000 0.000000 0.000000 0.049387 0.000000 0.001905
# 5 -0.003141 0.002643 -0.006426 0.000000 0.036650 0.000000
# 6 0.000000 0.000000 0.000000 0.001905 0.000000 0.031453
#
#
# Mechanical properties :
#
#
# Convention : Reuss Voigt Hill
#
# Bulk Modulus (GPa) = 38.40535 47.57219 42.98877
# Shear Modulus (GPa) = 21.64450 24.49039 23.06745
#
# Velocity S-wave (km/s) = 3.42632 3.64462 3.53716
# Velocity P-wave (km/s) = 6.04015 6.59648 6.32444
#
# Compressibility (1/GPa) = 0.02603804
#
# Stress axis : x y z
#
# Youngs Moduli (GPa) = 70.39946 39.70332 38.39408
#
# Poissons Ratio (x) = 0.32983 0.17512
# Poissons Ratio (y) = 0.58483 0.26228
# Poissons Ratio (z) = 0.32109 0.27122
#
# Static dielectric constant tensor:
#      x y z
#    x 3.598250 0.000000 0.202370 
#    y 0.000000 3.195740 0.000000 
#    z 0.202370 0.000000 3.380220 
# 
# 
# High freq. dielectric constant tensor:
#      x y z
#    x 1.725600 0.000000 0.003750 
#    y 0.000000 1.698510 0.000000 
#    z 0.003750 0.000000 1.701130 
# 
# From -- ./inp_files/237303.got.cif
#   From: 2010.06.25/outbox.cif.g09.slc.cpg/sg12_119_cif.got.tgz:237303.got - 2010.06.28 00:19:55.
