data_PCOD8100360
_publ_section_title
;
Structure prediction by ZEFSAII (Michael W. Deem and Ramdas Pophale) SiO2 
 PCOD8100360
Probable space group: C 2/M
;
_chemical_formula_sum "Si O2"
_cell_formula_units_Z 48
_cell_length_a 24.154814
_cell_length_b 8.957459
_cell_length_c 18.718372
_cell_angle_alpha 90.000000
_cell_angle_beta 144.253265
_cell_angle_gamma 90.000000
_cell_volume 2366.032433
_symmetry_space_group_name_H-M "C 2/M"
_symmetry_group_IT_number 12
_symmetry_cell_setting 'monoclinic'
loop_
_space_group_symop_operation_xyz
x,y,z
-x,y,-z
-x,-y,-z
x,-y,z
1/2+x,1/2+y,z
1/2-x,1/2+y,-z
1/2-x,1/2-y,-z
1/2+x,1/2-y,z
loop_
_atom_site_type_symbol
_atom_site_label
_atom_site_fract_x
_atom_site_fract_y
_atom_site_fract_z
Si Si1 0.176500 0.831292 0.512471
Si Si2 0.146847 0.827225 0.238119
Si Si3 0.097063 0.168815 0.579217
Si Si4 0.831670 0.323307 0.038016
Si Si5 0.705235 0.822935 0.162105
Si Si6 0.474022 0.673584 0.758502
O O1 0.265274 0.726726 0.621586
O O2 0.102787 0.826324 0.500286
O O3 0.117597 0.773059 0.382696
O O4 0.214092 0.000000 0.540185
O O5 0.136083 0.743499 0.150845
O O6 0.051406 0.799745 0.184585
O O7 0.161917 0.000000 0.237602
O O8 0.189736 0.243062 0.712166
O O9 0.000000 0.253442 0.500000
O O10 0.092695 0.000000 0.604208
O O11 0.823817 0.500000 0.038088
O O12 0.934832 0.267796 0.170704
O O13 0.750000 0.250000 0.000000
O O14 0.822408 0.271795 0.945947
O O15 0.702166 0.000000 0.168341
O O16 0.495072 0.500000 0.764839
#
# Coordination Sequence:
#
# PCOD8100360 Si02
#       6
#     8   8   8   8   8   8
#     4   9  18  33  55  83 117 154 190 233 284 348
#     4  10  20  35  58  88 120 150 187 243 297 338
#     4   8  14  26  51  80 101 135 186 231 270 322
#     4  11  25  42  61  84 114 153 194 242 289 340
#     4   9  20  38  58  81 111 150 195 236 282 346
#     4  10  22  38  58  85 117 158 198 233 286 348
#
# _framework density 20.287127000000002
#
# number of rings (size 3 to 8) (size 9 to 14) (size 15 to 20)
#    0.000    2.500    0.000    2.500    2.333    4.000 
#    0.000    3.333    0.000    2.000    0.000    0.000 
#    0.000    0.000    0.000    0.000    0.000    0.000 
#
# Total GULP energy -297514.755837 kJ/mol
# GULP energy per Si atom -12396.448160 kJ/mol
# Density = 2.024095 g / cm^3
# Si number density = 20.287127 Si / 1000 Ang^3
#
#
#
# Elastic Constant Matrix: (Units=GPa)
#
#
# Indices 1 2 3 4 5 6 
#
# 1 103.8605 43.2468 37.4648 0.0000 2.3248 0.0000
# 2 43.2468 63.4121 27.0308 0.0000 -0.7118 0.0000
# 3 37.4648 27.0308 54.2869 0.0000 -11.5084 0.0000
# 4 0.0000 0.0000 0.0000 28.0541 0.0000 -0.0561
# 5 2.3248 -0.7118 -11.5084 0.0000 33.7720 0.0000
# 6 0.0000 0.0000 0.0000 -0.0561 0.0000 31.8078
#
#
#
# Elastic Compliance Matrix: (Units=1/GPa)
#
#
# Indices 1 2 3 4 5 6 
#
# 1 0.015643 -0.007304 -0.007998 0.000000 -0.003956 0.000000
# 2 -0.007304 0.023756 -0.007088 0.000000 -0.001412 0.000000
# 3 -0.007998 -0.007088 0.029700 0.000000 0.010522 0.000000
# 4 0.000000 0.000000 0.000000 0.035646 0.000000 0.000063
# 5 -0.003956 -0.001412 0.010522 0.000000 0.033438 0.000000
# 6 0.000000 0.000000 0.000000 0.000063 0.000000 0.031439
#
#
# Mechanical properties :
#
#
# Convention : Reuss Voigt Hill
#
# Bulk Modulus (GPa) = 41.11661 48.56047 44.83854
# Shear Modulus (GPa) = 22.47119 26.31459 24.39289
#
# Velocity S-wave (km/s) = 3.33176 3.60545 3.47130
# Velocity P-wave (km/s) = 5.92555 6.42813 6.18195
#
# Compressibility (1/GPa) = 0.02432107
#
# Stress axis : x y z
#
# Youngs Moduli (GPa) = 63.92637 42.09392 33.67034
#
# Poissons Ratio (x) = 0.30744 0.26928
# Poissons Ratio (y) = 0.46690 0.23865
# Poissons Ratio (z) = 0.51126 0.29835
#
# Static dielectric constant tensor:
#      x y z
#    x 3.827340 0.000000 -0.018390 
#    y 0.000000 3.386000 0.000000 
#    z -0.018390 0.000000 3.679750 
# 
# 
# High freq. dielectric constant tensor:
#      x y z
#    x 1.804480 0.000000 -0.001400 
#    y 0.000000 1.763910 0.000000 
#    z -0.001400 0.000000 1.786850 
# 
# From -- ./inp_files/327306.got.cif
#   From: 2010.06.25/outbox.cif.g09.slc.cpg/sg12_164_cif.got.tgz:327306.got - 2010.06.28 00:19:55.
