data_PCOD8100172
_publ_section_title
;
Structure prediction by ZEFSAII (Michael W. Deem and Ramdas Pophale) SiO2 
 PCOD8100172
Probable space group: C 2/M
;
_chemical_formula_sum "Si O2"
_cell_formula_units_Z 64
_cell_length_a 26.962476
_cell_length_b 9.269734
_cell_length_c 17.639249
_cell_angle_alpha 90.000000
_cell_angle_beta 48.932154
_cell_angle_gamma 90.000000
_cell_volume 3323.834718
_symmetry_space_group_name_H-M "C 2/M"
_symmetry_group_IT_number 12
_symmetry_cell_setting 'monoclinic'
loop_
_space_group_symop_operation_xyz
x,y,z
-x,y,-z
-x,-y,-z
x,-y,z
1/2+x,1/2+y,z
1/2-x,1/2+y,-z
1/2-x,1/2-y,-z
1/2+x,1/2-y,z
loop_
_atom_site_type_symbol
_atom_site_label
_atom_site_fract_x
_atom_site_fract_y
_atom_site_fract_z
Si Si1 0.135864 0.830744 0.690125
Si Si2 0.264319 0.831826 0.156896
Si Si3 0.131125 0.167264 0.205513
Si Si4 0.884873 0.334145 0.442454
Si Si5 0.758924 0.665253 0.667660
Si Si6 0.122132 0.169012 0.041784
Si Si7 0.488919 0.669793 0.094450
Si Si8 0.985641 0.329789 0.599424
O O1 0.133939 0.759730 0.610345
O O2 0.205125 0.792782 0.658774
O O3 0.077490 0.767299 0.801525
O O4 0.126544 0.000000 0.687091
O O5 0.204157 0.801613 0.161085
O O6 0.247535 0.770684 0.255655
O O7 0.328058 0.754268 0.060782
O O8 0.279413 0.000000 0.149516
O O9 0.080757 0.256322 0.306400
O O10 0.111850 0.000000 0.231026
O O11 0.128564 0.220805 0.121625
O O12 0.887527 0.500000 0.414328
O O13 0.830913 0.311141 0.561527
O O14 0.954478 0.282916 0.406428
O O15 0.748490 0.500000 0.704718
O O16 0.137153 0.000000 0.017712
O O17 0.049099 0.209245 0.088526
O O18 0.480613 0.500000 0.093241
O O19 0.500000 0.739081 0.000000
O O20 0.974632 0.500000 0.611936
O O21 0.000000 0.276336 0.500000
#
# Coordination Sequence:
#
# PCOD8100172 Si02
#       8
#     8   8   8   8   8   8   8   8
#     4  10  20  35  58  84 109 144 187 226 268 322
#     4  11  23  37  55  82 112 140 179 232 281 324
#     4  10  22  38  56  81 110 143 185 230 276 326
#     4  10  21  36  55  82 114 145 181 227 275 323
#     4  10  21  38  59  81 108 147 188 221 266 330
#     4  10  20  36  57  78 107 146 182 221 272 331
#     4   9  17  31  53  80 106 135 178 224 261 310
#     4  10  21  37  57  81 111 149 188 225 271 327
#
# _framework density 19.254868999999999
#
# number of rings (size 3 to 8) (size 9 to 14) (size 15 to 20)
#    0.000    2.000    0.000    3.375    0.000    7.250 
#    0.000    0.625    0.000    1.500    0.000    0.000 
#    0.000    0.000    0.000    0.000    0.000    0.000 
#
# Total GULP energy -396946.519088 kJ/mol
# GULP energy per Si atom -12404.578721 kJ/mol
# Density = 1.921104 g / cm^3
# Si number density = 19.254869 Si / 1000 Ang^3
#
#
#
# Elastic Constant Matrix: (Units=GPa)
#
#
# Indices 1 2 3 4 5 6 
#
# 1 57.4860 21.8958 -2.8401 -0.0081 11.2835 -0.0005
# 2 21.8958 39.5901 20.5167 0.0041 3.5363 0.0030
# 3 -2.8401 20.5167 62.3948 -0.0106 3.0040 -0.0068
# 4 -0.0081 0.0041 -0.0106 27.5357 -0.0030 5.6656
# 5 11.2835 3.5363 3.0040 -0.0030 40.0009 -0.0004
# 6 -0.0005 0.0030 -0.0068 5.6656 -0.0004 17.9667
#
#
#
# Elastic Compliance Matrix: (Units=1/GPa)
#
#
# Indices 1 2 3 4 5 6 
#
# 1 0.025549 -0.017277 0.007143 0.000012 -0.006216 0.000002
# 2 -0.017277 0.042282 -0.014798 -0.000015 0.002247 -0.000008
# 3 0.007143 -0.014798 0.021329 0.000011 -0.002309 0.000007
# 4 0.000012 -0.000015 0.000011 0.038836 0.000000 -0.012246
# 5 -0.006216 0.002247 -0.002309 0.000000 0.026728 -0.000001
# 6 0.000002 -0.000008 0.000007 -0.012246 -0.000001 0.059520
#
#
# Mechanical properties :
#
#
# Convention : Reuss Voigt Hill
#
# Bulk Modulus (GPa) = 25.44702 26.51287 25.97995
# Shear Modulus (GPa) = 18.03713 25.09389 21.56551
#
# Velocity S-wave (km/s) = 3.06397 3.61397 3.35028
# Velocity P-wave (km/s) = 5.07561 5.58692 5.33739
#
# Compressibility (1/GPa) = 0.03929733
#
# Stress axis : x y z
#
# Youngs Moduli (GPa) = 39.14033 23.65077 46.88432
#
# Poissons Ratio (x) = 0.40861 -0.33490
# Poissons Ratio (y) = 0.67622 0.69378
# Poissons Ratio (z) = -0.27959 0.34998
#
# Static dielectric constant tensor:
#      x y z
#    x 3.692390 0.000000 -0.034360 
#    y 0.000000 3.325360 0.000010 
#    z -0.034360 0.000010 3.619740 
# 
# 
# High freq. dielectric constant tensor:
#      x y z
#    x 1.767410 0.000000 -0.001450 
#    y 0.000000 1.726320 0.000000 
#    z -0.001450 0.000000 1.762760 
# 
# From -- ./inp_files/295467.got.cif
#   From: 2010.06.25/outbox.cif.g09.slc.cpg/sg12_148_cif.got.tgz:295467.got - 2010.06.28 00:19:55.
