data_PCOD8100215
_publ_section_title
;
Structure prediction by ZEFSAII (Michael W. Deem and Ramdas Pophale) SiO2 
 PCOD8100215
Probable space group: C 2/M
;
_chemical_formula_sum "Si O2"
_cell_formula_units_Z 48
_cell_length_a 30.189868
_cell_length_b 8.612574
_cell_length_c 17.565695
_cell_angle_alpha 90.000000
_cell_angle_beta 148.004999
_cell_angle_gamma 90.000000
_cell_volume 2419.962191
_symmetry_space_group_name_H-M "C 2/M"
_symmetry_group_IT_number 12
_symmetry_cell_setting 'monoclinic'
loop_
_space_group_symop_operation_xyz
x,y,z
-x,y,-z
-x,-y,-z
x,-y,z
1/2+x,1/2+y,z
1/2-x,1/2+y,-z
1/2-x,1/2-y,-z
1/2+x,1/2-y,z
loop_
_atom_site_type_symbol
_atom_site_label
_atom_site_fract_x
_atom_site_fract_y
_atom_site_fract_z
Si Si1 0.713417 0.681159 0.660536
Si Si2 0.038324 0.820485 0.329832
Si Si3 0.876978 0.181068 0.840902
Si Si4 0.882351 0.320532 0.176231
Si Si5 0.279126 0.680875 0.154695
Si Si6 0.976894 0.680718 0.855145
O O1 0.734238 0.500000 0.684355
O O2 0.622998 0.722383 0.496531
O O3 0.780278 0.775495 0.708451
O O4 0.717844 0.736826 0.754129
O O5 0.031533 0.715085 0.245692
O O6 0.962824 0.783506 0.276689
O O7 0.035733 0.000000 0.302281
O O8 0.906696 0.225450 0.799454
O O9 0.890833 0.000000 0.874133
O O10 0.930735 0.272853 0.982175
O O11 0.907956 0.500000 0.211541
O O12 0.848418 0.277843 0.210116
O O13 0.812657 0.281968 0.011298
O O14 0.300958 0.500000 0.177892
O O15 0.963072 0.500000 0.849902
#
# Coordination Sequence:
#
# PCOD8100215 Si02
#       6
#     8   8   8   8   8   8
#     4  10  22  39  58  82 115 155 193 232 283 339
#     4  11  23  38  57  83 116 152 192 236 283 337
#     4  11  22  38  62  89 115 145 188 237 282 333
#     4  10  20  35  58  85 112 145 188 238 289 340
#     4   9  19  37  59  81 108 146 190 234 283 339
#     4  11  22  39  62  85 114 150 189 233 283 338
#
# _framework density 19.83502
#
# number of rings (size 3 to 8) (size 9 to 14) (size 15 to 20)
#    0.000    1.667    0.000    6.000    0.000    5.333 
#    0.000    3.333    0.000    0.000    0.000    0.000 
#    0.000    0.000    0.000    0.000    0.000    0.000 
#
# Total GULP energy -297767.986612 kJ/mol
# GULP energy per Si atom -12406.999442 kJ/mol
# Density = 1.978987 g / cm^3
# Si number density = 19.835020 Si / 1000 Ang^3
#
#
#
# Elastic Constant Matrix: (Units=GPa)
#
#
# Indices 1 2 3 4 5 6 
#
# 1 93.1777 24.7596 47.8639 0.0000 21.6741 0.0000
# 2 24.7596 67.4068 31.7699 0.0000 9.4099 0.0000
# 3 47.8639 31.7699 83.5074 0.0000 26.3540 0.0000
# 4 0.0000 0.0000 0.0000 25.9473 0.0000 2.0786
# 5 21.6741 9.4099 26.3540 0.0000 20.1148 0.0000
# 6 0.0000 0.0000 0.0000 2.0786 0.0000 37.2394
#
#
#
# Elastic Compliance Matrix: (Units=1/GPa)
#
#
# Indices 1 2 3 4 5 6 
#
# 1 0.016333 -0.002036 -0.005683 0.000000 -0.009200 0.000000
# 2 -0.002036 0.018341 -0.006471 0.000000 0.002092 0.000000
# 3 -0.005683 -0.006471 0.025244 0.000000 -0.023923 0.000000
# 4 0.000000 0.000000 0.000000 0.038713 0.000000 -0.002161
# 5 -0.009200 0.002092 -0.023923 0.000000 0.089993 0.000000
# 6 0.000000 0.000000 0.000000 -0.002161 0.000000 0.026974
#
#
# Mechanical properties :
#
#
# Convention : Reuss Voigt Hill
#
# Bulk Modulus (GPa) = 31.70852 50.31985 41.01419
# Shear Modulus (GPa) = 19.64706 25.97354 22.81030
#
# Velocity S-wave (km/s) = 3.15067 3.62260 3.39485
# Velocity P-wave (km/s) = 5.40893 6.55148 6.00743
#
# Compressibility (1/GPa) = 0.03153726
#
# Stress axis : x y z
#
# Youngs Moduli (GPa) = 61.22672 54.52263 39.61306
#
# Poissons Ratio (x) = 0.11103 0.22513
# Poissons Ratio (y) = 0.12468 0.25633
# Poissons Ratio (z) = 0.34797 0.35280
#
# Static dielectric constant tensor:
#      x y z
#    x 3.602400 0.000000 0.015040 
#    y 0.000000 3.594430 0.000000 
#    z 0.015040 0.000000 3.537700 
# 
# 
# High freq. dielectric constant tensor:
#      x y z
#    x 1.783150 0.000000 0.004600 
#    y 0.000000 1.778420 0.000000 
#    z 0.004600 0.000000 1.765840 
# 
# From -- ./inp_files/295892.got.cif
#   From: 2010.06.25/outbox.cif.g09.slc.cpg/sg12_148_cif.got.tgz:295892.got - 2010.06.28 00:19:55.
