data_PCOD8100267
_publ_section_title
;
Structure prediction by ZEFSAII (Michael W. Deem and Ramdas Pophale) SiO2 
 PCOD8100267
Probable space group: C 2/M
;
_chemical_formula_sum "Si O2"
_cell_formula_units_Z 48
_cell_length_a 18.543607
_cell_length_b 8.823675
_cell_length_c 15.370713
_cell_angle_alpha 90.000000
_cell_angle_beta 90.213562
_cell_angle_gamma 90.000000
_cell_volume 2514.981037
_symmetry_space_group_name_H-M "C 2/M"
_symmetry_group_IT_number 12
_symmetry_cell_setting 'monoclinic'
loop_
_space_group_symop_operation_xyz
x,y,z
-x,y,-z
-x,-y,-z
x,-y,z
1/2+x,1/2+y,z
1/2-x,1/2+y,-z
1/2-x,1/2-y,-z
1/2+x,1/2-y,z
loop_
_atom_site_type_symbol
_atom_site_label
_atom_site_fract_x
_atom_site_fract_y
_atom_site_fract_z
Si Si1 0.949899 0.176895 0.760195
Si Si2 0.795165 0.674855 0.574792
Si Si3 0.457052 0.820655 0.584044
Si Si4 0.704920 0.822089 0.229825
Si Si5 0.448543 0.324229 0.078770
Si Si6 0.206139 0.321011 0.921029
O O1 0.985188 0.236213 0.670472
O O2 0.876604 0.264698 0.783664
O O3 0.009618 0.211325 0.832515
O O4 0.931489 0.000000 0.754424
O O5 0.793012 0.500000 0.554284
O O6 0.750000 0.750000 0.500000
O O7 0.876149 0.734875 0.567780
O O8 0.766937 0.709879 0.671943
O O9 0.500000 0.765875 0.500000
O O10 0.463295 0.000000 0.599601
O O11 0.760285 0.735459 0.168919
O O12 0.705604 0.000000 0.208492
O O13 0.426291 0.500000 0.071818
O O14 0.377090 0.224415 0.073941
O O15 0.500000 0.276856 0.000000
O O16 0.213130 0.500000 0.926621
O O17 0.250000 0.250000 0.000000
#
# Coordination Sequence:
#
# PCOD8100267 Si02
#       6
#     8   8   8   8   8   8
#     4  10  20  35  58  86 114 147 188 234 283 333
#     4   9  19  34  54  80 110 146 184 229 280 328
#     4   9  19  36  55  76 107 148 191 234 282 333
#     4  10  21  39  60  83 115 151 189 234 283 335
#     4  10  22  40  60  84 116 149 183 227 277 331
#     4  12  25  40  61  87 115 149 188 230 279 335
#
# _framework density 19.085630999999999
#
# number of rings (size 3 to 8) (size 9 to 14) (size 15 to 20)
#    0.000    2.000    0.000    4.500    0.000    8.000 
#    0.000    3.333    0.000    0.000    0.000    0.000 
#    0.000    0.000    0.000    0.000    0.000    0.000 
#
# Total GULP energy -297636.765848 kJ/mol
# GULP energy per Si atom -12401.531910 kJ/mol
# Density = 1.904219 g / cm^3
# Si number density = 19.085631 Si / 1000 Ang^3
#
#
#
# Elastic Constant Matrix: (Units=GPa)
#
#
# Indices 1 2 3 4 5 6 
#
# 1 102.3134 57.8546 77.2708 0.0000 -3.6670 0.0000
# 2 57.8546 107.4921 65.3538 0.0000 2.4273 0.0000
# 3 77.2708 65.3538 156.1321 0.0000 -2.6591 0.0000
# 4 0.0000 0.0000 0.0000 29.4365 0.0000 6.0169
# 5 -3.6670 2.4273 -2.6591 0.0000 36.7909 0.0000
# 6 0.0000 0.0000 0.0000 6.0169 0.0000 28.9821
#
#
#
# Elastic Compliance Matrix: (Units=1/GPa)
#
#
# Indices 1 2 3 4 5 6 
#
# 1 0.017979 -0.005799 -0.006442 0.000000 0.001709 0.000000
# 2 -0.005799 0.014402 -0.003189 0.000000 -0.001759 0.000000
# 3 -0.006442 -0.003189 0.010934 0.000000 0.000359 0.000000
# 4 0.000000 0.000000 0.000000 0.035477 0.000000 -0.007365
# 5 0.001709 -0.001759 0.000359 0.000000 0.027493 0.000000
# 6 0.000000 0.000000 0.000000 -0.007365 0.000000 0.036033
#
#
# Mechanical properties :
#
#
# Convention : Reuss Voigt Hill
#
# Bulk Modulus (GPa) = 80.27635 85.21065 82.74350
# Shear Modulus (GPa) = 28.19620 30.07246 29.13433
#
# Velocity S-wave (km/s) = 3.84780 3.97376 3.91129
# Velocity P-wave (km/s) = 7.86723 8.11159 7.99034
#
# Compressibility (1/GPa) = 0.01245697
#
# Stress axis : x y z
#
# Youngs Moduli (GPa) = 55.61993 69.43241 91.46136
#
# Poissons Ratio (x) = 0.40264 0.58915
# Poissons Ratio (y) = 0.32254 0.29163
# Poissons Ratio (z) = 0.35828 0.22139
#
# Static dielectric constant tensor:
#      x y z
#    x 3.327280 0.000000 -0.143420 
#    y 0.000000 3.462680 0.000000 
#    z -0.143420 0.000000 3.706320 
# 
# 
# High freq. dielectric constant tensor:
#      x y z
#    x 1.737970 0.000000 -0.001840 
#    y 0.000000 1.744950 0.000000 
#    z -0.001840 0.000000 1.760620 
# 
# From -- ./inp_files/221631.got.cif
#   From: 2010.06.25/outbox.cif.g09.slc.cpg/sg12_111_cif.got.tgz:221631.got - 2010.06.28 00:19:55.
