data_PCOD8100595
_publ_section_title
;
Structure prediction by ZEFSAII (Michael W. Deem and Ramdas Pophale) SiO2 
 PCOD8100595
Probable space group: C 2/M
;
_chemical_formula_sum "Si O2"
_cell_formula_units_Z 48
_cell_length_a 17.966235
_cell_length_b 11.819650
_cell_length_c 10.774228
_cell_angle_alpha 90.000000
_cell_angle_beta 100.620923
_cell_angle_gamma 90.000000
_cell_volume 2248.759951
_symmetry_space_group_name_H-M "C 2/M"
_symmetry_group_IT_number 12
_symmetry_cell_setting 'monoclinic'
loop_
_space_group_symop_operation_xyz
x,y,z
-x,y,-z
-x,-y,-z
x,-y,z
1/2+x,1/2+y,z
1/2-x,1/2+y,-z
1/2-x,1/2-y,-z
1/2+x,1/2-y,z
loop_
_atom_site_type_symbol
_atom_site_label
_atom_site_fract_x
_atom_site_fract_y
_atom_site_fract_z
Si Si1 0.564557 0.257428 0.620182
Si Si2 0.007949 0.628980 0.185457
Si Si3 0.029890 0.000000 0.650630
Si Si4 0.150099 0.626669 0.958379
Si Si5 0.795645 0.631674 0.304740
Si Si6 0.437845 0.500000 0.875257
Si Si7 0.649077 0.720680 0.171502
O O1 0.500000 0.271950 0.500000
O O2 0.536613 0.162042 0.704927
O O3 0.577957 0.383456 0.683568
O O4 0.644571 0.205626 0.595161
O O5 0.034873 0.500000 0.201759
O O6 0.082037 0.705314 0.207462
O O7 0.942505 0.644037 0.059353
O O8 0.000000 0.000000 0.500000
O O9 0.966586 0.000000 0.740640
O O10 0.169300 0.500000 0.008032
O O11 0.182581 0.646487 0.832480
O O12 0.186965 0.713693 0.066885
O O13 0.794594 0.500000 0.346105
O O14 0.712949 0.689631 0.293978
O O15 0.385308 0.605355 0.888715
O O16 0.500000 0.500000 0.000000
#
# Coordination Sequence:
#
# PCOD8100595 Si02
#       7
#     8   8   4   8   8   4   8
#     4  10  21  41  67  84 109 154 208 251 299 373
#     4  10  20  35  60  86 115 151 204 254 298 358
#     4  10  22  44  68  90 124 166 207 249 310 378
#     4   9  19  36  56  81 117 167 204 238 305 379
#     4  10  22  39  56  85 121 159 201 255 320 366
#     4  12  24  36  64 100 123 164 213 257 308 369
#     4  12  21  36  55  85 131 157 195 258 314 367
#
# _framework density 21.345098
#
# number of rings (size 3 to 8) (size 9 to 14) (size 15 to 20)
#    0.000    1.667    2.500    4.000    2.333    2.667 
#    3.000    0.833    0.000    0.000    0.000    0.000 
#    0.000    0.000    0.000    0.000    0.000    0.000 
#
# Total GULP energy -297356.715315 kJ/mol
# GULP energy per Si atom -12389.863138 kJ/mol
# Density = 2.129652 g / cm^3
# Si number density = 21.345098 Si / 1000 Ang^3
#
#
#
# Elastic Constant Matrix: (Units=GPa)
#
#
# Indices 1 2 3 4 5 6 
#
# 1 76.1503 43.5297 11.1692 0.0000 34.1155 0.0000
# 2 43.5297 146.2143 20.5501 0.0000 29.1851 0.0000
# 3 11.1692 20.5501 47.8755 0.0000 14.8097 0.0000
# 4 0.0000 0.0000 0.0000 21.3148 0.0000 15.9238
# 5 34.1155 29.1851 14.8097 0.0000 33.8936 0.0000
# 6 0.0000 0.0000 0.0000 15.9238 0.0000 -6.7951
#
#
#
# Elastic Compliance Matrix: (Units=1/GPa)
#
#
# Indices 1 2 3 4 5 6 
#
# 1 0.025234 -0.003134 0.002868 0.000000 -0.023954 0.000000
# 2 -0.003134 0.008749 -0.001931 0.000000 -0.003536 0.000000
# 3 0.002868 -0.001931 0.024775 0.000000 -0.012050 0.000000
# 4 0.000000 0.000000 0.000000 0.017056 0.000000 0.039969
# 5 -0.023954 -0.003536 -0.012050 0.000000 0.061924 0.000000
# 6 0.000000 0.000000 0.000000 0.039969 0.000000 -0.053501
#
#
# Mechanical properties :
#
#
# Convention : Reuss Voigt Hill
#
# Bulk Modulus (GPa) = 18.39437 46.74866 32.57151
# Shear Modulus (GPa) = 46.83704 22.68206 34.75955
#
# Velocity S-wave (km/s) = 4.68939 3.26335 4.03979
# Velocity P-wave (km/s) = 6.16091 6.01233 6.08708
#
# Compressibility (1/GPa) = 0.05436447
#
# Stress axis : x y z
#
# Youngs Moduli (GPa) = 39.62855 114.29265 40.36406
#
# Poissons Ratio (x) = 0.35823 -0.11577
# Poissons Ratio (y) = 0.12421 0.07793
# Poissons Ratio (z) = -0.11366 0.22067
#
# Static dielectric constant tensor:
#      x y z
#    x 4.027770 0.000000 0.267250 
#    y 0.000000 4.299990 0.000000 
#    z 0.267250 0.000000 3.704570 
# 
# 
# High freq. dielectric constant tensor:
#      x y z
#    x 1.834000 0.000000 0.005860 
#    y 0.000000 1.861030 0.000000 
#    z 0.005860 0.000000 1.798950 
# 
# From -- ./inp_files/154223.got.cif
#   From: 2010.06.25/outbox.cif.g09.slc.cpg/sg12_78_cif.got.tgz:154223.got - 2010.06.28 00:19:55.
