data_PCOD8100633
_publ_section_title
;
Structure prediction by ZEFSAII (Michael W. Deem and Ramdas Pophale) SiO2 
 PCOD8100633
Probable space group: C 2/M
;
_chemical_formula_sum "Si O2"
_cell_formula_units_Z 64
_cell_length_a 22.851948
_cell_length_b 8.523757
_cell_length_c 29.642325
_cell_angle_alpha 90.000000
_cell_angle_beta 34.395115
_cell_angle_gamma 90.000000
_cell_volume 3261.636460
_symmetry_space_group_name_H-M "C 2/M"
_symmetry_group_IT_number 12
_symmetry_cell_setting 'monoclinic'
loop_
_space_group_symop_operation_xyz
x,y,z
-x,y,-z
-x,-y,-z
x,-y,z
1/2+x,1/2+y,z
1/2-x,1/2+y,-z
1/2-x,1/2-y,-z
1/2+x,1/2-y,z
loop_
_atom_site_type_symbol
_atom_site_label
_atom_site_fract_x
_atom_site_fract_y
_atom_site_fract_z
Si Si1 0.642139 0.683394 0.553140
Si Si2 0.639572 0.682453 0.377192
Si Si3 0.656603 0.816176 0.119338
Si Si4 0.077548 0.318907 0.503154
Si Si5 0.044619 0.685195 0.925179
Si Si6 0.267678 0.183513 0.769247
Si Si7 0.123377 0.685372 0.038798
Si Si8 0.430462 0.681427 0.735296
O O1 0.648829 0.500000 0.536463
O O2 0.750000 0.750000 0.500000
O O3 0.625333 0.790936 0.520773
O O4 0.551184 0.713963 0.647401
O O5 0.666258 0.500000 0.364135
O O6 0.659682 0.768832 0.412207
O O7 0.520964 0.705961 0.438390
O O8 0.711949 0.760200 0.294184
O O9 0.610751 0.767062 0.099477
O O10 0.589845 0.731612 0.200374
O O11 0.647081 0.000000 0.133513
O O12 0.776436 0.767569 0.046563
O O13 0.044628 0.500000 0.518344
O O14 0.039428 0.500000 0.928620
O O15 0.162069 0.736819 0.850436
O O16 0.977058 0.745186 0.925190
O O17 0.000000 0.754800 0.000000
O O18 0.359300 0.226163 0.745277
O O19 0.252993 0.000000 0.779112
O O20 0.140194 0.500000 0.023578
O O21 0.403008 0.500000 0.746764
#
# Coordination Sequence:
#
# PCOD8100633 Si02
#       8
#     8   8   8   8   8   8   8   8
#     4  11  24  42  63  87 118 159 201 250 304 361
#     4  11  21  37  61  88 119 157 198 240 294 357
#     4  10  20  35  60  90 119 156 200 248 294 345
#     4  11  21  37  62  90 120 152 194 246 298 355
#     4  10  21  38  60  86 121 163 201 241 295 359
#     4  12  24  38  60  90 121 155 198 252 304 353
#     4   9  19  37  59  86 122 161 200 240 292 354
#     4  11  23  40  62  86 116 154 199 246 297 361
#
# _framework density 19.622052
#
# number of rings (size 3 to 8) (size 9 to 14) (size 15 to 20)
#    0.000    1.375    1.250    6.000    0.000    3.750 
#    2.250    0.000    0.000    0.000    0.000    0.000 
#    0.000    0.000    0.000    0.000    0.000    0.000 
#
# Total GULP energy -396813.176722 kJ/mol
# GULP energy per Si atom -12400.411773 kJ/mol
# Density = 1.957739 g / cm^3
# Si number density = 19.622052 Si / 1000 Ang^3
#
#
#
# Elastic Constant Matrix: (Units=GPa)
#
#
# Indices 1 2 3 4 5 6 
#
# 1 81.1012 14.9402 43.7501 -0.0003 8.5577 -0.0264
# 2 14.9402 134.9039 51.6331 -0.0178 5.4078 -0.0858
# 3 43.7501 51.6331 145.4461 0.0183 14.8553 -0.0350
# 4 -0.0003 -0.0178 0.0183 37.1716 -0.0037 0.8539
# 5 8.5577 5.4078 14.8553 -0.0037 36.7008 0.0027
# 6 -0.0264 -0.0858 -0.0350 0.8539 0.0027 30.0665
#
#
#
# Elastic Compliance Matrix: (Units=1/GPa)
#
#
# Indices 1 2 3 4 5 6 
#
# 1 0.014823 0.000077 -0.004310 0.000002 -0.001723 0.000008
# 2 0.000077 0.008579 -0.003064 0.000005 -0.000042 0.000021
# 3 -0.004310 -0.003064 0.009504 -0.000006 -0.002390 -0.000001
# 4 0.000002 0.000005 -0.000006 0.026920 0.000004 -0.000765
# 5 -0.001723 -0.000042 -0.002390 0.000004 0.028623 -0.000007
# 6 0.000008 0.000021 -0.000001 -0.000765 -0.000007 0.033281
#
#
# Mechanical properties :
#
#
# Convention : Reuss Voigt Hill
#
# Bulk Modulus (GPa) = 54.61250 64.67754 59.64502
# Shear Modulus (GPa) = 35.10548 37.52963 36.31756
#
# Velocity S-wave (km/s) = 4.23434 4.37810 4.30682
# Velocity P-wave (km/s) = 7.19714 7.65443 7.42930
#
# Compressibility (1/GPa) = 0.01831083
#
# Stress axis : x y z
#
# Youngs Moduli (GPa) = 67.46277 116.56805 105.22032
#
# Poissons Ratio (x) = -0.00899 0.45351
# Poissons Ratio (y) = -0.00520 0.32243
# Poissons Ratio (z) = 0.29077 0.35721
#
# Static dielectric constant tensor:
#      x y z
#    x 3.462970 -0.000450 0.172300 
#    y -0.000450 3.611990 -0.000330 
#    z 0.172300 -0.000330 3.684840 
# 
# 
# High freq. dielectric constant tensor:
#      x y z
#    x 1.764400 -0.000010 0.017520 
#    y -0.000010 1.772130 0.000000 
#    z 0.017520 0.000000 1.767020 
# 
# From -- ./inp_files/382251.got.cif
#   From: 2010.06.25/outbox.cif.g09.slc.cpg/sg12_192_cif.got.tgz:382251.got - 2010.06.28 00:19:55.
