data_PCOD8100816
_publ_section_title
;
Structure prediction by ZEFSAII (Michael W. Deem and Ramdas Pophale) SiO2 
 PCOD8100816
Probable space group: C 2/M
;
_chemical_formula_sum "Si O2"
_cell_formula_units_Z 64
_cell_length_a 11.904183
_cell_length_b 32.206434
_cell_length_c 17.455216
_cell_angle_alpha 90.000000
_cell_angle_beta 149.503020
_cell_angle_gamma 90.000000
_cell_volume 3396.232969
_symmetry_space_group_name_H-M "C 2/M"
_symmetry_group_IT_number 12
_symmetry_cell_setting 'monoclinic'
loop_
_space_group_symop_operation_xyz
x,y,z
-x,y,-z
-x,-y,-z
x,-y,z
1/2+x,1/2+y,z
1/2-x,1/2+y,-z
1/2-x,1/2-y,-z
1/2+x,1/2-y,z
loop_
_atom_site_type_symbol
_atom_site_label
_atom_site_fract_x
_atom_site_fract_y
_atom_site_fract_z
Si Si1 0.251886 0.233485 0.875213
Si Si2 0.149366 0.046518 0.419540
Si Si3 0.847695 0.801994 0.339321
Si Si4 0.842689 0.693410 0.080128
Si Si5 0.855929 0.101449 0.343086
Si Si6 0.630483 0.950783 0.748695
Si Si7 0.646906 0.097121 0.910537
Si Si8 0.969083 0.046576 0.818418
O O1 0.102802 0.222380 0.712229
O O2 0.231243 0.281781 0.886812
O O3 0.500000 0.221539 0.000000
O O4 0.196066 0.206400 0.919164
O O5 0.382166 0.064551 0.585555
O O6 0.169600 0.045835 0.340558
O O7 0.946243 0.075729 0.324510
O O8 0.107434 0.000000 0.426795
O O9 0.597479 0.794630 0.217571
O O10 0.892510 0.850146 0.348217
O O11 0.000000 0.786245 0.500000
O O12 0.806565 0.645375 0.075727
O O13 0.600205 0.089808 0.204357
O O14 0.000000 0.086914 0.500000
O O15 0.705397 0.927712 0.868572
O O16 0.800363 0.936569 0.783182
O O17 0.637981 0.000000 0.764267
O O18 0.822975 0.077497 0.072847
O O19 0.053376 0.000000 0.888085
#
# Coordination Sequence:
#
# PCOD8100816 Si02
#       8
#     8   8   8   8   8   8   8   8
#     4   9  18  36  57  78 109 142 179 216 265 330
#     4  10  21  36  57  79 107 149 187 228 275 324
#     4   9  19  34  58  81 105 142 179 222 270 319
#     4   9  20  35  54  82 106 144 180 215 269 330
#     4  10  20  36  54  81 111 143 185 223 272 338
#     4  10  20  37  58  76 106 150 189 223 272 334
#     4  11  21  34  56  84 111 142 181 231 278 320
#     4  10  22  37  53  80 111 144 188 232 275 322
#
# _framework density 18.844407
#
# number of rings (size 3 to 8) (size 9 to 14) (size 15 to 20)
#    0.000    2.250    1.250    1.125    1.750    5.750 
#    0.000    1.250    0.000    0.000    0.000    0.000 
#    0.000    0.000    0.000    0.000    0.000    0.000 
#
# Total GULP energy -396719.612682 kJ/mol
# GULP energy per Si atom -12397.487896 kJ/mol
# Density = 1.880152 g / cm^3
# Si number density = 18.844407 Si / 1000 Ang^3
#
#
#
# Elastic Constant Matrix: (Units=GPa)
#
#
# Indices 1 2 3 4 5 6 
#
# 1 83.3977 36.5857 27.9495 0.0000 -8.2115 0.0000
# 2 36.5857 64.6867 28.4036 0.0000 4.3311 0.0000
# 3 27.9495 28.4036 73.0384 0.0000 -12.0949 -0.0001
# 4 0.0000 0.0000 0.0000 25.9230 0.0000 0.9897
# 5 -8.2115 4.3311 -12.0949 0.0000 28.9311 0.0000
# 6 0.0000 0.0000 -0.0001 0.9897 0.0000 18.9008
#
#
#
# Elastic Compliance Matrix: (Units=1/GPa)
#
#
# Indices 1 2 3 4 5 6 
#
# 1 0.017269 -0.009185 -0.002145 0.000000 0.005380 0.000000
# 2 -0.009185 0.024644 -0.007641 0.000000 -0.009491 0.000000
# 3 -0.002145 -0.007641 0.018879 0.000000 0.008428 0.000000
# 4 0.000000 0.000000 0.000000 0.038653 0.000000 -0.002024
# 5 0.005380 -0.009491 0.008428 0.000000 0.041036 0.000000
# 6 0.000000 0.000000 0.000000 -0.002024 0.000000 0.053014
#
#
# Mechanical properties :
#
#
# Convention : Reuss Voigt Hill
#
# Bulk Modulus (GPa) = 43.76319 45.22226 44.49272
# Shear Modulus (GPa) = 20.91577 23.29659 22.10618
#
# Velocity S-wave (km/s) = 3.33516 3.51986 3.42876
# Velocity P-wave (km/s) = 6.17292 6.36938 6.27192
#
# Compressibility (1/GPa) = 0.02285025
#
# Stress axis : x y z
#
# Youngs Moduli (GPa) = 57.90785 40.57716 52.96797
#
# Poissons Ratio (x) = 0.37270 0.11364
# Poissons Ratio (y) = 0.53189 0.40471
# Poissons Ratio (z) = 0.12424 0.31003
#
# Static dielectric constant tensor:
#      x y z
#    x 3.397970 0.000000 -0.127860 
#    y 0.000000 3.336530 0.000000 
#    z -0.127860 0.000000 3.514870 
# 
# 
# High freq. dielectric constant tensor:
#      x y z
#    x 1.729540 0.000000 -0.008180 
#    y 0.000000 1.720000 0.000000 
#    z -0.008180 0.000000 1.732890 
# 
# From -- ./inp_files/266337.got.cif
#   From: 2010.06.25/outbox.cif.g09.slc.cpg/sg12_134_cif.got.tgz:266337.got - 2010.06.28 00:19:55.
