data_PCOD8100721
_publ_section_title
;
Structure prediction by ZEFSAII (Michael W. Deem and Ramdas Pophale) SiO2 
 PCOD8100721
Probable space group: C 2/M
;
_chemical_formula_sum "Si O2"
_cell_formula_units_Z 56
_cell_length_a 18.966981
_cell_length_b 17.111356
_cell_length_c 9.453623
_cell_angle_alpha 90.000000
_cell_angle_beta 117.607916
_cell_angle_gamma 90.000000
_cell_volume 2718.836184
_symmetry_space_group_name_H-M "C 2/M"
_symmetry_group_IT_number 12
_symmetry_cell_setting 'monoclinic'
loop_
_space_group_symop_operation_xyz
x,y,z
-x,y,-z
-x,-y,-z
x,-y,z
1/2+x,1/2+y,z
1/2-x,1/2+y,-z
1/2-x,1/2-y,-z
1/2+x,1/2-y,z
loop_
_atom_site_type_symbol
_atom_site_label
_atom_site_fract_x
_atom_site_fract_y
_atom_site_fract_z
Si Si1 0.791662 0.202906 0.160160
Si Si2 0.158177 0.087329 0.013960
Si Si3 0.322651 0.656150 0.676269
Si Si4 0.047886 0.284068 0.684953
Si Si5 0.004420 0.847863 0.156471
Si Si6 0.191606 0.334133 0.340842
Si Si7 0.977989 0.409809 0.819129
O O1 0.862310 0.260957 0.278164
O O2 0.733245 0.173900 0.227952
O O3 0.750000 0.250000 0.000000
O O4 0.820458 0.122044 0.118216
O O5 0.197299 0.140227 0.176672
O O6 0.191572 0.000000 0.060680
O O7 0.061750 0.084936 0.925157
O O8 0.408490 0.614840 0.729960
O O9 0.252780 0.625729 0.509564
O O10 0.335150 0.746686 0.645270
O O11 0.000000 0.302393 0.500000
O O12 0.014096 0.209835 0.734413
O O13 0.038009 0.360157 0.775537
O O14 0.000000 0.801569 0.000000
O O15 0.114680 0.387964 0.279270
O O16 0.989256 0.500000 0.786635
O O17 0.000000 0.393729 0.000000
#
# Coordination Sequence:
#
# PCOD8100721 Si02
#       7
#     8   8   8   8   8   8   8
#     4  11  22  38  62  92 121 160 206 252 305 363
#     4  10  22  38  59  90 126 158 197 248 308 364
#     4  10  20  35  62  91 120 158 195 259 297 361
#     4  11  22  37  63  90 121 159 204 255 302 359
#     4   9  18  35  61  88 116 160 203 242 290 362
#     4  11  22  38  64  92 122 155 210 253 308 355
#     4  11  25  43  63  88 122 167 211 251 303 368
#
# _framework density 20.597048999999998
#
# number of rings (size 3 to 8) (size 9 to 14) (size 15 to 20)
#    0.000    1.571    2.857    2.143    4.000    4.000 
#    0.000    0.714    0.000   14.571    0.000    0.000 
#    0.000    0.000    0.000    0.000    0.000    0.000 
#
# Total GULP energy -346932.150330 kJ/mol
# GULP energy per Si atom -12390.433940 kJ/mol
# Density = 2.055017 g / cm^3
# Si number density = 20.597049 Si / 1000 Ang^3
#
#
#
# Elastic Constant Matrix: (Units=GPa)
#
#
# Indices 1 2 3 4 5 6 
#
# 1 52.2593 -1.7675 3.4565 0.0000 1.6308 0.0000
# 2 -1.7675 75.3666 18.5513 0.0000 -1.2311 0.0000
# 3 3.4565 18.5513 92.4455 0.0000 13.3049 0.0000
# 4 0.0000 0.0000 0.0000 12.1958 0.0000 5.2253
# 5 1.6308 -1.2311 13.3049 0.0000 37.9958 0.0000
# 6 0.0000 0.0000 0.0000 5.2253 0.0000 13.1310
#
#
#
# Elastic Compliance Matrix: (Units=1/GPa)
#
#
# Indices 1 2 3 4 5 6 
#
# 1 0.019224 0.000631 -0.000768 0.000000 -0.000536 0.000000
# 2 0.000631 0.014061 -0.003061 0.000000 0.001500 0.000000
# 3 -0.000768 -0.003061 0.012078 0.000000 -0.004296 0.000000
# 4 0.000000 0.000000 0.000000 0.098849 0.000000 -0.039336
# 5 -0.000536 0.001500 -0.004296 0.000000 0.027894 0.000000
# 6 0.000000 0.000000 0.000000 -0.039336 0.000000 0.091809
#
#
# Mechanical properties :
#
#
# Convention : Reuss Voigt Hill
#
# Bulk Modulus (GPa) = 25.66263 28.95022 27.30642
# Shear Modulus (GPa) = 17.64900 25.98659 21.81780
#
# Velocity S-wave (km/s) = 2.93041 3.55585 3.25817
# Velocity P-wave (km/s) = 4.89246 5.56280 5.23836
#
# Compressibility (1/GPa) = 0.03896717
#
# Stress axis : x y z
#
# Youngs Moduli (GPa) = 52.01768 71.11714 82.79195
#
# Poissons Ratio (x) = -0.04489 0.06362
# Poissons Ratio (y) = -0.03283 0.25345
# Poissons Ratio (z) = 0.03997 0.21771
#
# Static dielectric constant tensor:
#      x y z
#    x 3.791190 0.000000 0.169590 
#    y 0.000000 3.447530 0.000000 
#    z 0.169590 0.000000 4.016850 
# 
# 
# High freq. dielectric constant tensor:
#      x y z
#    x 1.813630 0.000000 0.005240 
#    y 0.000000 1.771880 0.000000 
#    z 0.005240 0.000000 1.815400 
# 
# From -- ./inp_files/88079.got.cif
#   From: 2010.06.25/outbox.cif.g09.slc.cpg/sg12_45_cif.got.tgz:88079.got - 2010.06.28 00:19:55.
