data_PCOD8100740
_publ_section_title
;
Structure prediction by ZEFSAII (Michael W. Deem and Ramdas Pophale) SiO2 
 PCOD8100740
Probable space group: C 2/M
;
_chemical_formula_sum "Si O2"
_cell_formula_units_Z 48
_cell_length_a 22.174396
_cell_length_b 14.053333
_cell_length_c 11.117041
_cell_angle_alpha 90.000000
_cell_angle_beta 133.432119
_cell_angle_gamma 90.000000
_cell_volume 2515.765989
_symmetry_space_group_name_H-M "C 2/M"
_symmetry_group_IT_number 12
_symmetry_cell_setting 'monoclinic'
loop_
_space_group_symop_operation_xyz
x,y,z
-x,y,-z
-x,-y,-z
x,-y,z
1/2+x,1/2+y,z
1/2-x,1/2+y,-z
1/2-x,1/2-y,-z
1/2+x,1/2-y,z
loop_
_atom_site_type_symbol
_atom_site_label
_atom_site_fract_x
_atom_site_fract_y
_atom_site_fract_z
Si Si1 0.658484 0.000000 0.534566
Si Si2 0.139541 0.188087 0.924079
Si Si3 0.993136 0.291880 0.854937
Si Si4 0.791979 0.500000 0.931802
Si Si5 0.213454 0.188466 0.781691
Si Si6 0.212087 0.000000 0.080125
Si Si7 0.484813 0.000000 0.193266
Si Si8 0.319940 0.790356 0.510668
O O1 0.688676 0.095093 0.507557
O O2 0.703871 0.000000 0.725296
O O3 0.555903 0.000000 0.398020
O O4 0.138622 0.173186 0.776770
O O5 0.057960 0.241872 0.855221
O O6 0.219475 0.248092 0.062366
O O7 0.151727 0.090263 0.015573
O O8 0.904854 0.258914 0.687266
O O9 0.002304 0.406035 0.868579
O O10 0.000000 0.254294 0.000000
O O11 0.761633 0.590829 0.812784
O O12 0.743447 0.500000 0.988482
O O13 0.889009 0.500000 0.103193
O O14 0.179349 0.240955 0.618097
O O15 0.250000 0.750000 0.500000
#
# Coordination Sequence:
#
# PCOD8100740 Si02
#       8
#     4   8   8   4   8   4   4   8
#     4  10  22  37  57  87 123 156 195 254 297 346
#     4  10  20  37  61  86 119 158 198 242 294 354
#     4  11  23  39  60  86 120 156 200 249 298 354
#     4  10  20  35  63  92 118 158 196 244 301 361
#     4  10  20  37  60  88 119 158 197 239 297 359
#     4  10  20  37  61  88 122 158 200 245 291 352
#     4  10  21  35  56  90 121 153 190 247 306 352
#     4  11  24  40  60  88 121 159 202 249 301 354
#
# _framework density 19.079675999999999
#
# number of rings (size 3 to 8) (size 9 to 14) (size 15 to 20)
#    0.000    1.667    3.333    1.250    0.000    1.667 
#    0.000    5.417    0.000    3.000    0.000    0.000 
#    0.000    0.000    0.000    0.000    0.000    0.000 
#
# Total GULP energy -297397.650673 kJ/mol
# GULP energy per Si atom -12391.568778 kJ/mol
# Density = 1.903625 g / cm^3
# Si number density = 19.079676 Si / 1000 Ang^3
#
#
#
# Elastic Constant Matrix: (Units=GPa)
#
#
# Indices 1 2 3 4 5 6 
#
# 1 105.2598 45.2651 69.8775 0.0000 0.9564 0.0000
# 2 45.2651 132.5525 50.8627 0.0000 8.1431 0.0000
# 3 69.8775 50.8627 123.1554 0.0000 12.4728 0.0000
# 4 0.0000 0.0000 0.0000 28.5430 0.0000 1.3893
# 5 0.9564 8.1431 12.4728 0.0000 14.7785 0.0000
# 6 0.0000 0.0000 0.0000 1.3893 0.0000 23.9010
#
#
#
# Elastic Compliance Matrix: (Units=1/GPa)
#
#
# Indices 1 2 3 4 5 6 
#
# 1 0.016668 -0.002670 -0.009179 0.000000 0.008139 0.000000
# 2 -0.002670 0.009446 -0.002052 0.000000 -0.003300 0.000000
# 3 -0.009179 -0.002052 0.015309 0.000000 -0.011196 0.000000
# 4 0.000000 0.000000 0.000000 0.035134 0.000000 -0.002042
# 5 0.008139 -0.003300 -0.011196 0.000000 0.078407 0.000000
# 6 0.000000 0.000000 0.000000 -0.002042 0.000000 0.041958
#
#
# Mechanical properties :
#
#
# Convention : Reuss Voigt Hill
#
# Bulk Modulus (GPa) = 73.41321 76.99757 75.20539
# Shear Modulus (GPa) = 21.80882 26.44200 24.12541
#
# Velocity S-wave (km/s) = 3.38455 3.72677 3.55978
# Velocity P-wave (km/s) = 7.33719 7.67866 7.50987
#
# Compressibility (1/GPa) = 0.01362153
#
# Stress axis : x y z
#
# Youngs Moduli (GPa) = 59.99521 105.86430 65.31945
#
# Poissons Ratio (x) = 0.28264 0.59957
# Poissons Ratio (y) = 0.16017 0.13404
# Poissons Ratio (z) = 0.55070 0.21725
#
# Static dielectric constant tensor:
#      x y z
#    x 3.578040 0.000000 0.035640 
#    y 0.000000 4.003070 0.000000 
#    z 0.035640 0.000000 3.583070 
# 
# 
# High freq. dielectric constant tensor:
#      x y z
#    x 1.725090 0.000000 0.000110 
#    y 0.000000 1.755450 0.000000 
#    z 0.000110 0.000000 1.738250 
# 
# From -- ./inp_files/167696.got.cif
#   From: 2010.06.25/outbox.cif.g09.slc.cpg/sg12_84_cif.got.tgz:167696.got - 2010.06.28 00:19:55.
