data_PCOD8100517
_publ_section_title
;
Structure prediction by ZEFSAII (Michael W. Deem and Ramdas Pophale) SiO2 
 PCOD8100517
Probable space group: C 2/M
;
_chemical_formula_sum "Si O2"
_cell_formula_units_Z 56
_cell_length_a 14.770757
_cell_length_b 13.658992
_cell_length_c 27.305346
_cell_angle_alpha 90.000000
_cell_angle_beta 149.286242
_cell_angle_gamma 90.000000
_cell_volume 2813.694427
_symmetry_space_group_name_H-M "C 2/M"
_symmetry_group_IT_number 12
_symmetry_cell_setting 'monoclinic'
loop_
_space_group_symop_operation_xyz
x,y,z
-x,y,-z
-x,-y,-z
x,-y,z
1/2+x,1/2+y,z
1/2-x,1/2+y,-z
1/2-x,1/2-y,-z
1/2+x,1/2-y,z
loop_
_atom_site_type_symbol
_atom_site_label
_atom_site_fract_x
_atom_site_fract_y
_atom_site_fract_z
Si Si1 0.092124 0.270204 0.266215
Si Si2 0.399769 0.389318 0.878549
Si Si3 0.826629 0.390394 0.528002
Si Si4 0.535390 0.614365 0.316016
Si Si5 0.764979 0.388832 0.092135
Si Si6 0.656622 0.755288 0.702867
Si Si7 0.679302 0.611861 0.560958
O O1 0.045520 0.162579 0.266435
O O2 0.262695 0.278690 0.310920
O O3 0.142550 0.335491 0.336943
O O4 0.926317 0.314169 0.159359
O O5 0.395457 0.500000 0.856883
O O6 0.292894 0.381401 0.878838
O O7 0.310677 0.321603 0.797101
O O8 0.603648 0.356743 0.981857
O O9 0.906678 0.500000 0.567243
O O10 0.728270 0.372162 0.430877
O O11 0.678031 0.377494 0.501448
O O12 0.980991 0.314298 0.608137
O O13 0.486037 0.500000 0.287522
O O14 0.385433 0.665856 0.279910
O O15 0.823661 0.500000 0.107281
O O16 0.500000 0.658491 0.500000
O O17 0.693728 0.500000 0.584689
#
# Coordination Sequence:
#
# PCOD8100517 Si02
#       7
#     8   8   8   8   8   8   8
#     4  12  24  35  61  86 119 164 201 243 290 373
#     4   9  18  36  65  92 114 141 188 253 308 352
#     4  10  21  39  61  82 115 155 200 251 300 347
#     4  11  25  42  56  83 128 169 201 247 298 356
#     4   9  18  37  64  92 115 141 187 252 312 352
#     4  12  23  37  62  87 117 161 205 244 297 364
#     4  10  20  35  59  89 115 144 194 256 304 347
#
# _framework density 19.902657999999999
#
# number of rings (size 3 to 8) (size 9 to 14) (size 15 to 20)
#    0.000    1.571    2.857    3.000    2.000    6.286 
#    0.000    1.429    0.000    1.714    0.000    0.000 
#    0.000    0.000    0.000    0.000    0.000    0.000 
#
# Total GULP energy -347210.224314 kJ/mol
# GULP energy per Si atom -12400.365154 kJ/mol
# Density = 1.985736 g / cm^3
# Si number density = 19.902658 Si / 1000 Ang^3
#
#
#
# Elastic Constant Matrix: (Units=GPa)
#
#
# Indices 1 2 3 4 5 6 
#
# 1 80.0939 29.1588 16.3518 -0.0001 17.9699 0.0000
# 2 29.1588 97.6757 44.0727 -0.0002 13.9261 0.0000
# 3 16.3518 44.0727 88.0501 0.0000 10.6907 0.0001
# 4 -0.0001 -0.0002 0.0000 36.8875 -0.0002 1.8699
# 5 17.9699 13.9261 10.6907 -0.0002 23.4021 -0.0001
# 6 0.0000 0.0000 0.0001 1.8699 -0.0001 18.6682
#
#
#
# Elastic Compliance Matrix: (Units=1/GPa)
#
#
# Indices 1 2 3 4 5 6 
#
# 1 0.016005 -0.003271 -0.000084 0.000000 -0.010305 0.000000
# 2 -0.003271 0.014502 -0.006255 0.000000 -0.003260 0.000000
# 3 -0.000084 -0.006255 0.014869 0.000000 -0.003006 0.000000
# 4 0.000000 0.000000 0.000000 0.027248 0.000000 -0.002729
# 5 -0.010305 -0.003260 -0.003006 0.000000 0.053958 0.000000
# 6 0.000000 0.000000 0.000000 -0.002729 0.000000 0.053840
#
#
# Mechanical properties :
#
#
# Convention : Reuss Voigt Hill
#
# Bulk Modulus (GPa) = 38.23292 49.44295 43.83794
# Shear Modulus (GPa) = 23.99683 27.54064 25.76873
#
# Velocity S-wave (km/s) = 3.47610 3.72394 3.60215
# Velocity P-wave (km/s) = 5.94665 6.58685 6.27492
#
# Compressibility (1/GPa) = 0.02615547
#
# Stress axis : x y z
#
# Youngs Moduli (GPa) = 62.47899 68.95691 67.25498
#
# Poissons Ratio (x) = 0.22555 0.00564
# Poissons Ratio (y) = 0.20436 0.42071
# Poissons Ratio (z) = 0.00524 0.43136
#
# Static dielectric constant tensor:
#      x y z
#    x 3.508140 0.000000 0.048190 
#    y 0.000000 3.728730 0.000000 
#    z 0.048190 0.000000 3.682600 
# 
# 
# High freq. dielectric constant tensor:
#      x y z
#    x 1.760470 0.000000 0.002070 
#    y 0.000000 1.777120 0.000000 
#    z 0.002070 0.000000 1.771220 
# 
# From -- ./inp_files/246528.got.cif
#   From: 2010.06.25/outbox.cif.g09.slc.cpg/sg12_124_cif.got.tgz:246528.got - 2010.06.28 00:19:55.
