data_PCOD8100627
_publ_section_title
;
Structure prediction by ZEFSAII (Michael W. Deem and Ramdas Pophale) SiO2 
 PCOD8100627
Probable space group: C 2/M
;
_chemical_formula_sum "Si O2"
_cell_formula_units_Z 56
_cell_length_a 16.767354
_cell_length_b 19.902311
_cell_length_c 11.149180
_cell_angle_alpha 90.000000
_cell_angle_beta 124.058759
_cell_angle_gamma 90.000000
_cell_volume 3082.367619
_symmetry_space_group_name_H-M "C 2/M"
_symmetry_group_IT_number 12
_symmetry_cell_setting 'monoclinic'
loop_
_space_group_symop_operation_xyz
x,y,z
-x,y,-z
-x,-y,-z
x,-y,z
1/2+x,1/2+y,z
1/2-x,1/2+y,-z
1/2-x,1/2-y,-z
1/2+x,1/2-y,z
loop_
_atom_site_type_symbol
_atom_site_label
_atom_site_fract_x
_atom_site_fract_y
_atom_site_fract_z
Si Si1 0.763051 0.185483 0.593814
Si Si2 0.192073 0.704274 0.793250
Si Si3 0.666708 0.341434 0.895237
Si Si4 0.341980 0.077330 0.644743
Si Si5 0.313671 0.075950 0.896274
Si Si6 0.965986 0.344550 0.172790
Si Si7 0.979169 0.195929 0.846649
O O1 0.750000 0.250000 0.500000
O O2 0.697852 0.195475 0.656261
O O3 0.728927 0.118215 0.500189
O O4 0.873332 0.174068 0.720444
O O5 0.192227 0.782881 0.823073
O O6 0.094965 0.668658 0.758066
O O7 0.285192 0.672043 0.934959
O O8 0.710901 0.408409 0.872891
O O9 0.552415 0.345162 0.821670
O O10 0.303075 0.086205 0.746193
O O11 0.450494 0.103909 0.723995
O O12 0.340726 0.000000 0.603048
O O13 0.342998 0.000000 0.952941
O O14 0.397195 0.125125 0.012592
O O15 0.009109 0.275712 0.158491
O O16 0.000000 0.175049 0.000000
#
# Coordination Sequence:
#
# PCOD8100627 Si02
#       7
#     8   8   8   8   8   8   8
#     4  12  23  37  57  85 118 159 194 233 284 344
#     4   9  19  34  56  83 116 144 191 238 283 331
#     4   9  18  35  57  85 108 142 190 249 280 320
#     4  11  23  39  56  84 123 157 187 231 291 354
#     4  10  20  36  61  87 115 150 190 234 288 349
#     4  10  20  35  60  90 115 146 188 240 293 345
#     4  11  20  35  62  87 113 146 193 245 286 332
#
# _framework density 18.167852
#
# number of rings (size 3 to 8) (size 9 to 14) (size 15 to 20)
#    0.000    1.714    2.857    3.429    0.000    1.714 
#    0.000    7.143    0.000    2.571    0.000    0.000 
#    0.000    0.000    0.000    0.000    0.000    0.000 
#
# Total GULP energy -347264.605300 kJ/mol
# GULP energy per Si atom -12402.307332 kJ/mol
# Density = 1.812650 g / cm^3
# Si number density = 18.167852 Si / 1000 Ang^3
#
#
#
# Elastic Constant Matrix: (Units=GPa)
#
#
# Indices 1 2 3 4 5 6 
#
# 1 100.4087 38.3635 54.9406 0.0000 -0.3303 0.0000
# 2 38.3635 87.1321 50.5796 0.0000 -2.3373 0.0000
# 3 54.9406 50.5796 110.7902 0.0000 1.5814 0.0000
# 4 0.0000 0.0000 0.0000 28.6821 0.0000 2.1956
# 5 -0.3303 -2.3373 1.5814 0.0000 29.9770 0.0000
# 6 0.0000 0.0000 0.0000 2.1956 0.0000 22.0957
#
#
#
# Elastic Compliance Matrix: (Units=1/GPa)
#
#
# Indices 1 2 3 4 5 6 
#
# 1 0.014204 -0.002935 -0.005707 0.000000 0.000229 0.000000
# 2 -0.002935 0.016298 -0.006007 0.000000 0.001555 0.000000
# 3 -0.005707 -0.006007 0.014617 0.000000 -0.001302 0.000000
# 4 0.000000 0.000000 0.000000 0.035132 0.000000 -0.003491
# 5 0.000229 0.001555 -0.001302 0.000000 0.033551 0.000000
# 6 0.000000 0.000000 0.000000 -0.003491 0.000000 0.045605
#
#
# Mechanical properties :
#
#
# Convention : Reuss Voigt Hill
#
# Bulk Modulus (GPa) = 63.20850 65.12205 64.16528
# Shear Modulus (GPa) = 25.77580 26.44744 26.11162
#
# Velocity S-wave (km/s) = 3.77073 3.81954 3.79521
# Velocity P-wave (km/s) = 7.33654 7.44139 7.38915
#
# Compressibility (1/GPa) = 0.01582066
#
# Stress axis : x y z
#
# Youngs Moduli (GPa) = 70.40177 61.35724 68.41129
#
# Poissons Ratio (x) = 0.18007 0.39044
# Poissons Ratio (y) = 0.20662 0.41098
# Poissons Ratio (z) = 0.40180 0.36860
#
# Static dielectric constant tensor:
#      x y z
#    x 3.509190 0.000000 0.055100 
#    y 0.000000 3.273900 0.000000 
#    z 0.055100 0.000000 3.274870 
# 
# 
# High freq. dielectric constant tensor:
#      x y z
#    x 1.718400 0.000000 -0.000960 
#    y 0.000000 1.685340 0.000000 
#    z -0.000960 0.000000 1.694210 
# 
# From -- ./inp_files/158328.got.cif
#   From: 2010.06.25/outbox.cif.g09.slc.cpg/sg12_80_cif.got.tgz:158328.got - 2010.06.28 00:19:55.
