data_PCOD8100688
_publ_section_title
;
Structure prediction by ZEFSAII (Michael W. Deem and Ramdas Pophale) SiO2 
 PCOD8100688
Probable space group: C 2/M
;
_chemical_formula_sum "Si O2"
_cell_formula_units_Z 64
_cell_length_a 15.148050
_cell_length_b 9.822688
_cell_length_c 29.024221
_cell_angle_alpha 90.000000
_cell_angle_beta 133.144749
_cell_angle_gamma 90.000000
_cell_volume 3151.007125
_symmetry_space_group_name_H-M "C 2/M"
_symmetry_group_IT_number 12
_symmetry_cell_setting 'monoclinic'
loop_
_space_group_symop_operation_xyz
x,y,z
-x,y,-z
-x,-y,-z
x,-y,z
1/2+x,1/2+y,z
1/2-x,1/2+y,-z
1/2-x,1/2-y,-z
1/2+x,1/2-y,z
loop_
_atom_site_type_symbol
_atom_site_label
_atom_site_fract_x
_atom_site_fract_y
_atom_site_fract_z
Si Si1 0.614627 0.158504 0.637079
Si Si2 0.114259 0.152135 0.098355
Si Si3 0.191767 0.156090 0.361675
Si Si4 0.805166 0.341679 0.237839
Si Si5 0.547235 0.649601 0.772527
Si Si6 0.343776 0.163853 0.563192
Si Si7 0.404996 0.146278 0.038679
Si Si8 0.804801 0.246982 0.093778
O O1 0.680172 0.208780 0.613717
O O2 0.680611 0.220538 0.705896
O O3 0.472640 0.191009 0.585008
O O4 0.638916 0.000000 0.648334
O O5 0.170916 0.181052 0.169275
O O6 0.218953 0.169034 0.097720
O O7 0.997731 0.245864 0.050175
O O8 0.063641 0.000000 0.076941
O O9 0.153508 0.267409 0.385706
O O10 0.097673 0.157292 0.285274
O O11 0.200827 0.000000 0.385156
O O12 0.841851 0.500000 0.249176
O O13 0.900882 0.265376 0.240875
O O14 0.592735 0.500000 0.772807
O O15 0.590250 0.669077 0.840603
O O16 0.250000 0.250000 0.500000
O O17 0.315828 0.000000 0.555782
O O18 0.375301 0.160674 0.082130
O O19 0.467431 0.000000 0.054453
O O20 0.280220 0.145414 0.965441
#
# Coordination Sequence:
#
# PCOD8100688 Si02
#       8
#     8   8   8   8   8   8   8   8
#     4   9  19  37  62  88 121 161 199 235 286 355
#     4  10  22  38  61  86 114 154 201 248 300 366
#     4  10  21  38  63  93 122 156 200 247 294 351
#     4   9  18  36  60  85 118 158 199 241 296 362
#     4  10  20  35  61  90 118 150 197 254 305 349
#     4  11  23  42  66  92 126 164 200 240 288 345
#     4  11  24  40  59  84 117 156 203 255 308 364
#     4  10  23  40  59  82 118 160 200 246 307 369
#
# _framework density 20.310966000000001
#
# number of rings (size 3 to 8) (size 9 to 14) (size 15 to 20)
#    0.000    2.000    1.250    1.500    1.750    7.500 
#    0.000    4.375    0.000    0.000    0.000    0.000 
#    0.000    0.000    0.000    0.000    0.000    0.000 
#
# Total GULP energy -396529.152917 kJ/mol
# GULP energy per Si atom -12391.536029 kJ/mol
# Density = 2.026474 g / cm^3
# Si number density = 20.310966 Si / 1000 Ang^3
#
#
#
# Elastic Constant Matrix: (Units=GPa)
#
#
# Indices 1 2 3 4 5 6 
#
# 1 101.6202 44.3335 31.1865 0.0000 9.7302 0.0000
# 2 44.3335 110.0735 40.1683 0.0000 5.9320 0.0000
# 3 31.1865 40.1683 106.1791 0.0000 2.5830 0.0000
# 4 0.0000 0.0000 0.0000 20.9519 0.0000 6.6091
# 5 9.7302 5.9320 2.5830 0.0000 20.4215 0.0000
# 6 0.0000 0.0000 0.0000 6.6091 0.0000 17.1906
#
#
#
# Elastic Compliance Matrix: (Units=1/GPa)
#
#
# Indices 1 2 3 4 5 6 
#
# 1 0.012711 -0.004119 -0.002063 0.000000 -0.004599 0.000000
# 2 -0.004119 0.012010 -0.003307 0.000000 -0.001108 0.000000
# 3 -0.002063 -0.003307 0.011262 0.000000 0.000519 0.000000
# 4 0.000000 0.000000 0.000000 0.054316 0.000000 -0.020882
# 5 -0.004599 -0.001108 0.000519 0.000000 0.051415 0.000000
# 6 0.000000 0.000000 0.000000 -0.020882 0.000000 0.066200
#
#
# Mechanical properties :
#
#
# Convention : Reuss Voigt Hill
#
# Bulk Modulus (GPa) = 58.80366 61.02770 59.91568
# Shear Modulus (GPa) = 21.49973 25.19176 23.34574
#
# Velocity S-wave (km/s) = 3.25703 3.52561 3.39398
# Velocity P-wave (km/s) = 6.56954 6.83266 6.70239
#
# Compressibility (1/GPa) = 0.01700574
#
# Stress axis : x y z
#
# Youngs Moduli (GPa) = 78.67193 83.26290 88.79035
#
# Poissons Ratio (x) = 0.34293 0.18321
# Poissons Ratio (y) = 0.32402 0.29362
# Poissons Ratio (z) = 0.16233 0.27534
#
# Static dielectric constant tensor:
#      x y z
#    x 3.722140 0.000000 -0.072780 
#    y 0.000000 3.576130 0.000000 
#    z -0.072780 0.000000 3.964060 
# 
# 
# High freq. dielectric constant tensor:
#      x y z
#    x 1.785250 0.000000 -0.000470 
#    y 0.000000 1.779510 0.000000 
#    z -0.000470 0.000000 1.803920 
# 
# From -- ./inp_files/375560.got.cif
#   From: 2010.06.25/outbox.cif.g09.slc.cpg/sg12_188_cif.got.tgz:375560.got - 2010.06.28 00:19:55.
