data_PCOD8100017
_publ_section_title
;
Structure prediction by ZEFSAII (Michael W. Deem and Ramdas Pophale) SiO2 
 PCOD8100017
Probable space group: C 2/M
;
_chemical_formula_sum "Si O2"
_cell_formula_units_Z 64
_cell_length_a 30.486229
_cell_length_b 8.777026
_cell_length_c 18.705984
_cell_angle_alpha 90.000000
_cell_angle_beta 39.545333
_cell_angle_gamma 90.000000
_cell_volume 3186.828428
_symmetry_space_group_name_H-M "C 2/M"
_symmetry_group_IT_number 12
_symmetry_cell_setting 'monoclinic'
loop_
_space_group_symop_operation_xyz
x,y,z
-x,y,-z
-x,-y,-z
x,-y,z
1/2+x,1/2+y,z
1/2-x,1/2+y,-z
1/2-x,1/2-y,-z
1/2+x,1/2-y,z
loop_
_atom_site_type_symbol
_atom_site_label
_atom_site_fract_x
_atom_site_fract_y
_atom_site_fract_z
Si Si1 0.883269 0.824645 0.191684
Si Si2 0.111797 0.674588 0.963321
Si Si3 0.762558 0.324324 0.560665
Si Si4 0.491393 0.318912 0.590944
Si Si5 0.210866 0.823385 0.944412
Si Si6 0.344186 0.322079 0.831675
Si Si7 0.402060 0.679245 0.426155
Si Si8 0.033273 0.674048 0.790345
O O1 0.900625 0.780059 0.089296
O O2 0.802660 0.797165 0.306881
O O3 0.927515 0.717471 0.186874
O O4 0.903675 0.000000 0.179246
O O5 0.119797 0.500000 0.928600
O O6 0.180071 0.726276 0.918518
O O7 0.047849 0.696280 0.096977
O O8 0.777219 0.500000 0.527843
O O9 0.750000 0.250000 0.500000
O O10 0.827284 0.254726 0.520876
O O11 0.500000 0.253245 0.500000
O O12 0.492006 0.500000 0.589229
O O13 0.419517 0.262070 0.714955
O O14 0.554354 0.259319 0.560797
O O15 0.289679 0.773179 0.854246
O O16 0.207994 0.000000 0.927563
O O17 0.167014 0.788808 0.070719
O O18 0.334025 0.500000 0.827238
O O19 0.391670 0.500000 0.443176
O O20 0.443101 0.716638 0.302615
O O21 0.051479 0.500000 0.748157
#
# Coordination Sequence:
#
# PCOD8100017 Si02
#       8
#     8   8   8   8   8   8   8   8
#     4  11  24  40  60  86 117 155 196 243 298 354
#     4  11  24  39  57  85 119 155 196 242 298 361
#     4  11  23  40  62  88 119 155 199 247 295 352
#     4   9  19  36  58  86 118 152 194 242 293 352
#     4  10  20  35  57  85 115 150 192 242 294 353
#     4   9  18  35  59  84 113 150 193 241 293 350
#     4  11  22  37  62  92 120 158 204 248 299 354
#     4  11  23  39  60  85 117 155 198 245 295 354
#
# _framework density 20.082661000000002
#
# number of rings (size 3 to 8) (size 9 to 14) (size 15 to 20)
#    0.000    1.625    1.250    3.375    0.000    7.500 
#    0.000    2.500    0.000    2.625    0.000    0.000 
#    0.000    0.000    0.000    0.000    0.000    0.000 
#
# Total GULP energy -396967.322275 kJ/mol
# GULP energy per Si atom -12405.228821 kJ/mol
# Density = 2.003695 g / cm^3
# Si number density = 20.082661 Si / 1000 Ang^3
#
#
#
# Elastic Constant Matrix: (Units=GPa)
#
#
# Indices 1 2 3 4 5 6 
#
# 1 131.7137 27.5708 28.7516 0.0025 -11.2877 0.0061
# 2 27.5708 66.2083 22.0198 -0.0039 -12.4259 0.0230
# 3 28.7516 22.0198 53.3161 0.0208 -11.3920 -0.0084
# 4 0.0025 -0.0039 0.0208 26.8939 0.0013 -5.2168
# 5 -11.2877 -12.4259 -11.3920 0.0013 31.4919 -0.0119
# 6 0.0061 0.0230 -0.0084 -5.2168 -0.0119 30.0429
#
#
#
# Elastic Compliance Matrix: (Units=1/GPa)
#
#
# Indices 1 2 3 4 5 6 
#
# 1 0.008963 -0.002333 -0.003664 0.000002 0.000967 0.000000
# 2 -0.002333 0.018768 -0.005516 0.000005 0.004574 -0.000013
# 3 -0.003664 -0.005516 0.024129 -0.000017 0.005239 0.000011
# 4 0.000002 0.000005 -0.000017 0.038479 -0.000003 0.006682
# 5 0.000967 0.004574 0.005239 -0.000003 0.035801 0.000011
# 6 0.000000 -0.000013 0.000011 0.006682 0.000011 0.034446
#
#
# Mechanical properties :
#
#
# Convention : Reuss Voigt Hill
#
# Bulk Modulus (GPa) = 34.67874 45.32472 40.00173
# Shear Modulus (GPa) = 25.87684 29.21215 27.54449
#
# Velocity S-wave (km/s) = 3.59349 3.81805 3.70747
# Velocity P-wave (km/s) = 5.87563 6.48497 6.18780
#
# Compressibility (1/GPa) = 0.02883611
#
# Stress axis : x y z
#
# Youngs Moduli (GPa) = 111.56918 53.28156 41.44334
#
# Poissons Ratio (x) = 0.12428 0.15183
# Poissons Ratio (y) = 0.26024 0.22861
# Poissons Ratio (z) = 0.40873 0.29391
#
# Static dielectric constant tensor:
#      x y z
#    x 3.861740 -0.000020 -0.102420 
#    y -0.000020 3.577330 0.000040 
#    z -0.102420 0.000040 3.697060 
# 
# 
# High freq. dielectric constant tensor:
#      x y z
#    x 1.792110 0.000000 -0.008440 
#    y 0.000000 1.779560 0.000000 
#    z -0.008440 0.000000 1.784780 
# 
# From -- ./inp_files/295548.got.cif
#   From: 2010.06.25/outbox.cif.g09.slc.cpg/sg12_148_cif.got.tgz:295548.got - 2010.06.28 00:19:55.
