data_PCOD8100291
_publ_section_title
;
Structure prediction by ZEFSAII (Michael W. Deem and Ramdas Pophale) SiO2 
 PCOD8100291
Probable space group: C 2/M
;
_chemical_formula_sum "Si O2"
_cell_formula_units_Z 64
_cell_length_a 30.639740
_cell_length_b 8.930391
_cell_length_c 19.149744
_cell_angle_alpha 90.000000
_cell_angle_beta 38.067146
_cell_angle_gamma 90.000000
_cell_volume 3230.808013
_symmetry_space_group_name_H-M "C 2/M"
_symmetry_group_IT_number 12
_symmetry_cell_setting 'monoclinic'
loop_
_space_group_symop_operation_xyz
x,y,z
-x,y,-z
-x,-y,-z
x,-y,z
1/2+x,1/2+y,z
1/2-x,1/2+y,-z
1/2-x,1/2-y,-z
1/2+x,1/2-y,z
loop_
_atom_site_type_symbol
_atom_site_label
_atom_site_fract_x
_atom_site_fract_y
_atom_site_fract_z
Si Si1 0.049080 0.176411 0.002875
Si Si2 0.208694 0.173525 0.990295
Si Si3 0.810772 0.677676 0.223673
Si Si4 0.210614 0.676843 0.248174
Si Si5 0.968377 0.675373 0.230137
Si Si6 0.812972 0.325380 0.379764
Si Si7 0.445270 0.325613 0.767705
Si Si8 0.072927 0.827194 0.368670
O O1 0.124246 0.255508 0.901448
O O2 0.061765 0.000000 0.991225
O O3 0.000000 0.222944 0.000000
O O4 0.012887 0.230509 0.118855
O O5 0.238642 0.230404 0.878875
O O6 0.223705 0.000000 0.980472
O O7 0.250000 0.250000 0.000000
O O8 0.125666 0.209371 0.099238
O O9 0.812793 0.500000 0.215862
O O10 0.737936 0.740593 0.283273
O O11 0.815758 0.734279 0.297013
O O12 0.213165 0.500000 0.256704
O O13 0.130737 0.726262 0.334109
O O14 0.982244 0.500000 0.201176
O O15 0.886039 0.715069 0.325936
O O16 0.992038 0.727610 0.277439
O O17 0.798158 0.500000 0.398406
O O18 0.750000 0.250000 0.500000
O O19 0.465985 0.500000 0.744751
O O20 0.435150 0.273357 0.700882
O O21 0.000000 0.801251 0.500000
O O22 0.097077 0.000000 0.340821
#
# Coordination Sequence:
#
# PCOD8100291 Si02
#       8
#     8   8   8   8   8   8   8   8
#     4  11  22  37  62  94 125 159 197 244 304 364
#     4  10  20  35  58  86 118 152 191 238 291 355
#     4  11  23  41  64  90 124 163 203 247 300 362
#     4  11  23  38  60  92 124 155 200 250 302 363
#     4  11  23  40  62  90 123 159 202 249 301 363
#     4  10  24  43  63  88 119 158 207 254 299 355
#     4  10  21  38  60  88 121 156 198 248 299 359
#     4  10  22  41  63  86 117 160 208 252 300 359
#
# _framework density 19.809286
#
# number of rings (size 3 to 8) (size 9 to 14) (size 15 to 20)
#    0.000    1.500    2.500    2.250    0.000    6.250 
#    0.000    3.750    0.000    0.000    0.000    0.000 
#    0.000    0.000    0.000    0.000    0.000    0.000 
#
# Total GULP energy -396987.609447 kJ/mol
# GULP energy per Si atom -12405.862795 kJ/mol
# Density = 1.976420 g / cm^3
# Si number density = 19.809286 Si / 1000 Ang^3
#
#
#
# Elastic Constant Matrix: (Units=GPa)
#
#
# Indices 1 2 3 4 5 6 
#
# 1 132.8870 48.4613 21.5751 -0.0048 -16.6252 0.0171
# 2 48.4613 60.5629 27.1370 -0.0116 -6.2887 0.0188
# 3 21.5751 27.1370 82.8218 0.0123 -15.6385 0.0087
# 4 -0.0048 -0.0116 0.0123 28.9585 0.0032 -1.6665
# 5 -16.6252 -6.2887 -15.6385 0.0032 17.1672 -0.0040
# 6 0.0171 0.0188 0.0087 -1.6665 -0.0040 39.4353
#
#
#
# Elastic Compliance Matrix: (Units=1/GPa)
#
#
# Indices 1 2 3 4 5 6 
#
# 1 0.011821 -0.009251 0.001780 -0.000004 0.009680 0.000000
# 2 -0.009251 0.026629 -0.007446 0.000013 -0.005987 -0.000007
# 3 0.001780 -0.007446 0.016740 -0.000011 0.014245 0.000000
# 4 -0.000004 0.000013 -0.000011 0.034616 -0.000015 0.001463
# 5 0.009680 -0.005987 0.014245 -0.000015 0.078408 0.000003
# 6 0.000000 -0.000007 0.000000 0.001463 0.000003 0.025420
#
#
# Mechanical properties :
#
#
# Convention : Reuss Voigt Hill
#
# Bulk Modulus (GPa) = 39.43929 52.29094 45.86512
# Shear Modulus (GPa) = 21.55907 29.05211 25.30559
#
# Velocity S-wave (km/s) = 3.30257 3.83376 3.57804
# Velocity P-wave (km/s) = 5.87327 6.78612 6.34613
#
# Compressibility (1/GPa) = 0.02535543
#
# Stress axis : x y z
#
# Youngs Moduli (GPa) = 84.59476 37.55304 59.73739
#
# Poissons Ratio (x) = 0.34741 -0.10631
# Poissons Ratio (y) = 0.78261 0.44478
# Poissons Ratio (z) = -0.15055 0.27961
#
# Static dielectric constant tensor:
#      x y z
#    x 3.767640 -0.000050 0.063380 
#    y -0.000050 3.556240 0.000050 
#    z 0.063380 0.000050 3.575900 
# 
# 
# High freq. dielectric constant tensor:
#      x y z
#    x 1.789520 0.000000 -0.000300 
#    y 0.000000 1.770780 0.000000 
#    z -0.000300 0.000000 1.768360 
# 
# From -- ./inp_files/295501.got.cif
#   From: 2010.06.25/outbox.cif.g09.slc.cpg/sg12_148_cif.got.tgz:295501.got - 2010.06.28 00:19:55.
