data_PCOD8100546
_publ_section_title
;
Structure prediction by ZEFSAII (Michael W. Deem and Ramdas Pophale) SiO2 
 PCOD8100546
Probable space group: C 2/M
;
_chemical_formula_sum "Si O2"
_cell_formula_units_Z 56
_cell_length_a 19.234389
_cell_length_b 13.209839
_cell_length_c 12.890594
_cell_angle_alpha 90.000000
_cell_angle_beta 115.879326
_cell_angle_gamma 90.000000
_cell_volume 2946.822456
_symmetry_space_group_name_H-M "C 2/M"
_symmetry_group_IT_number 12
_symmetry_cell_setting 'monoclinic'
loop_
_space_group_symop_operation_xyz
x,y,z
-x,y,-z
-x,-y,-z
x,-y,z
1/2+x,1/2+y,z
1/2-x,1/2+y,-z
1/2-x,1/2-y,-z
1/2+x,1/2-y,z
loop_
_atom_site_type_symbol
_atom_site_label
_atom_site_fract_x
_atom_site_fract_y
_atom_site_fract_z
Si Si1 0.183133 0.280199 0.032853
Si Si2 0.437878 0.116005 0.185244
Si Si3 0.676227 0.268203 0.523362
Si Si4 0.910725 0.885465 0.915752
Si Si5 0.410828 0.245745 0.725543
Si Si6 0.278057 0.882181 0.730535
Si Si7 0.416234 0.883752 0.408826
O O1 0.127634 0.361748 0.941974
O O2 0.250000 0.250000 0.000000
O O3 0.135806 0.179199 0.030254
O O4 0.222427 0.329699 0.158211
O O5 0.506080 0.195099 0.209812
O O6 0.404689 0.132112 0.278789
O O7 0.466362 0.000000 0.189603
O O8 0.750000 0.250000 0.500000
O O9 0.604108 0.291126 0.399702
O O10 0.697617 0.358020 0.617563
O O11 0.653680 0.171425 0.578120
O O12 0.899609 0.839442 0.794745
O O13 0.878409 0.000000 0.895527
O O14 0.000000 0.883242 0.000000
O O15 0.349769 0.157316 0.709736
O O16 0.286378 0.000000 0.752166
O O17 0.500000 0.841941 0.500000
O O18 0.409451 0.000000 0.437389
#
# Coordination Sequence:
#
# PCOD8100546 Si02
#       7
#     8   8   8   8   8   8   8
#     4  11  23  40  60  87 122 157 195 250 303 356
#     4  11  21  35  61  93 121 153 196 248 307 358
#     4  10  21  37  57  84 121 160 193 239 294 352
#     4  10  21  39  61  86 115 155 202 243 290 355
#     4  10  20  37  60  90 118 153 196 253 298 349
#     4  10  22  38  57  84 120 160 199 239 293 354
#     4  10  20  35  59  90 119 151 193 245 300 353
#
# _framework density 19.003520000000002
#
# number of rings (size 3 to 8) (size 9 to 14) (size 15 to 20)
#    0.000    1.714    2.857    1.714    0.000    4.000 
#    0.000   10.714    0.000    0.429    0.000    0.000 
#    0.000    0.000    0.000    0.000    0.000    0.000 
#
# Total GULP energy -347155.844821 kJ/mol
# GULP energy per Si atom -12398.423029 kJ/mol
# Density = 1.896027 g / cm^3
# Si number density = 19.003520 Si / 1000 Ang^3
#
#
#
# Elastic Constant Matrix: (Units=GPa)
#
#
# Indices 1 2 3 4 5 6 
#
# 1 84.9564 44.6620 34.1925 0.0000 -9.3529 0.0000
# 2 44.6620 114.9760 38.7092 0.0000 -7.3428 0.0000
# 3 34.1925 38.7092 121.1908 0.0000 -0.8765 0.0000
# 4 0.0000 0.0000 0.0000 26.8424 0.0000 2.5566
# 5 -9.3529 -7.3428 -0.8765 0.0000 28.2577 0.0000
# 6 0.0000 0.0000 0.0000 2.5566 0.0000 27.4000
#
#
#
# Elastic Compliance Matrix: (Units=1/GPa)
#
#
# Indices 1 2 3 4 5 6 
#
# 1 0.015985 -0.004987 -0.002889 0.000000 0.003905 0.000000
# 2 -0.004987 0.011472 -0.002248 0.000000 0.001261 0.000000
# 3 -0.002889 -0.002248 0.009776 0.000000 -0.001237 0.000000
# 4 0.000000 0.000000 0.000000 0.037589 0.000000 -0.003507
# 5 0.003905 0.001261 -0.001237 0.000000 0.036970 0.000000
# 6 0.000000 0.000000 0.000000 -0.003507 0.000000 0.036824
#
#
# Mechanical properties :
#
#
# Convention : Reuss Voigt Hill
#
# Bulk Modulus (GPa) = 58.87715 61.80560 60.34137
# Shear Modulus (GPa) = 28.64910 30.07065 29.35987
#
# Velocity S-wave (km/s) = 3.88695 3.98222 3.93488
# Velocity P-wave (km/s) = 7.15500 7.33062 7.24334
#
# Compressibility (1/GPa) = 0.01698452
#
# Stress axis : x y z
#
# Youngs Moduli (GPa) = 62.55765 87.16742 102.29576
#
# Poissons Ratio (x) = 0.43474 0.29551
# Poissons Ratio (y) = 0.31200 0.22996
# Poissons Ratio (z) = 0.18071 0.19596
#
# Static dielectric constant tensor:
#      x y z
#    x 3.240600 0.000000 -0.080140 
#    y 0.000000 3.438600 0.000000 
#    z -0.080140 0.000000 3.757070 
# 
# 
# High freq. dielectric constant tensor:
#      x y z
#    x 1.729100 0.000000 0.000040 
#    y 0.000000 1.724940 0.000000 
#    z 0.000040 0.000000 1.762670 
# 
# From -- ./inp_files/165732.got.cif
#   From: 2010.06.25/outbox.cif.g09.slc.cpg/sg12_83_cif.got.tgz:165732.got - 2010.06.28 00:19:55.
