data_PCOD8100031
_publ_section_title
;
Structure prediction by ZEFSAII (Michael W. Deem and Ramdas Pophale) SiO2 
 PCOD8100031
Probable space group: C 2/M
;
_chemical_formula_sum "Si O2"
_cell_formula_units_Z 32
_cell_length_a 19.869976
_cell_length_b 8.635041
_cell_length_c 12.163489
_cell_angle_alpha 90.000000
_cell_angle_beta 125.402275
_cell_angle_gamma 90.000000
_cell_volume 1701.113772
_symmetry_space_group_name_H-M "C 2/M"
_symmetry_group_IT_number 12
_symmetry_cell_setting 'monoclinic'
loop_
_space_group_symop_operation_xyz
x,y,z
-x,y,-z
-x,-y,-z
x,-y,z
1/2+x,1/2+y,z
1/2-x,1/2+y,-z
1/2-x,1/2-y,-z
1/2+x,1/2-y,z
loop_
_atom_site_type_symbol
_atom_site_label
_atom_site_fract_x
_atom_site_fract_y
_atom_site_fract_z
Si Si1 0.118480 0.821980 0.597295
Si Si2 0.483863 0.181056 0.319124
Si Si3 0.959944 0.181080 0.846938
Si Si4 0.284845 0.820716 0.644004
O O1 0.093091 0.766118 0.694839
O O2 0.216167 0.799524 0.674009
O O3 0.069739 0.723690 0.459618
O O4 0.093040 0.000000 0.556504
O O5 0.487993 0.230866 0.196699
O O6 0.468558 0.000000 0.313338
O O7 0.864920 0.230217 0.759291
O O8 0.965609 0.000000 0.828347
O O9 0.000000 0.227775 0.000000
O O10 0.250000 0.750000 0.500000
O O11 0.307043 0.000000 0.645533
#
# Coordination Sequence:
#
# PCOD8100031 Si02
#       4
#     8   8   8   8
#     4  10  20  35  57  85 118 151 188 237 290 343
#     4  11  21  34  57  86 116 151 192 239 289 344
#     4  11  24  41  60  83 117 158 196 239 293 349
#     4  11  22  36  60  89 118 151 192 242 288 343
#
# _framework density 18.811204
#
# number of rings (size 3 to 8) (size 9 to 14) (size 15 to 20)
#    0.000    1.250    2.500    6.000    0.000    5.000 
#    0.000    1.250    0.000    0.000    0.000    0.000 
#    0.000    0.000    0.000    0.000    0.000    0.000 
#
# Total GULP energy -198467.902298 kJ/mol
# GULP energy per Si atom -12404.243894 kJ/mol
# Density = 1.876839 g / cm^3
# Si number density = 18.811204 Si / 1000 Ang^3
#
#
#
# Elastic Constant Matrix: (Units=GPa)
#
#
# Indices 1 2 3 4 5 6 
#
# 1 120.2379 28.1727 53.2661 0.0000 -13.0355 0.0000
# 2 28.1727 69.9711 30.8551 0.0000 -9.4250 0.0000
# 3 53.2661 30.8551 104.2518 0.0000 -3.8182 0.0000
# 4 0.0000 0.0000 0.0000 23.9419 0.0000 -0.0087
# 5 -13.0355 -9.4250 -3.8182 0.0000 27.1884 0.0000
# 6 0.0000 0.0000 0.0000 -0.0087 0.0000 34.9671
#
#
#
# Elastic Compliance Matrix: (Units=1/GPa)
#
#
# Indices 1 2 3 4 5 6 
#
# 1 0.011483 -0.001774 -0.005189 0.000000 0.004161 0.000000
# 2 -0.001774 0.017428 -0.004082 0.000000 0.004617 0.000000
# 3 -0.005189 -0.004082 0.013378 0.000000 -0.002025 0.000000
# 4 0.000000 0.000000 0.000000 0.041768 0.000000 0.000010
# 5 0.004161 0.004617 -0.002025 0.000000 0.040092 0.000000
# 6 0.000000 0.000000 0.000000 0.000010 0.000000 0.028598
#
#
# Mechanical properties :
#
#
# Convention : Reuss Voigt Hill
#
# Bulk Modulus (GPa) = 49.51427 57.67209 53.59318
# Shear Modulus (GPa) = 27.53740 29.36394 28.45067
#
# Velocity S-wave (km/s) = 3.83022 3.95521 3.89322
# Velocity P-wave (km/s) = 6.77788 7.18214 6.98294
#
# Compressibility (1/GPa) = 0.02019620
#
# Stress axis : x y z
#
# Youngs Moduli (GPa) = 87.08767 57.37805 74.75117
#
# Poissons Ratio (x) = 0.10181 0.38791
# Poissons Ratio (y) = 0.15453 0.30517
# Poissons Ratio (z) = 0.45193 0.23424
#
# Static dielectric constant tensor:
#      x y z
#    x 3.852440 0.000000 -0.103670 
#    y 0.000000 3.634400 0.000000 
#    z -0.103670 0.000000 3.121430 
# 
# 
# High freq. dielectric constant tensor:
#      x y z
#    x 1.750390 0.000000 -0.008880 
#    y 0.000000 1.751030 0.000000 
#    z -0.008880 0.000000 1.694790 
# 
# From -- ./inp_files/151054.got.cif
#   From: 2010.06.25/outbox.cif.g09.slc.cpg/sg12_76_cif.got.tgz:151054.got - 2010.06.28 00:19:55.
