data_PCOD8100982
_publ_section_title
;
Structure prediction by ZEFSAII (Michael W. Deem and Ramdas Pophale) SiO2 
 PCOD8100982
Probable space group: C 2/M
;
_chemical_formula_sum "Si O2"
_cell_formula_units_Z 64
_cell_length_a 14.642647
_cell_length_b 8.982951
_cell_length_c 29.985093
_cell_angle_alpha 90.000000
_cell_angle_beta 119.840403
_cell_angle_gamma 90.000000
_cell_volume 3421.139993
_symmetry_space_group_name_H-M "C 2/M"
_symmetry_group_IT_number 12
_symmetry_cell_setting 'monoclinic'
loop_
_space_group_symop_operation_xyz
x,y,z
-x,y,-z
-x,-y,-z
x,-y,z
1/2+x,1/2+y,z
1/2-x,1/2+y,-z
1/2-x,1/2-y,-z
1/2+x,1/2-y,z
loop_
_atom_site_type_symbol
_atom_site_label
_atom_site_fract_x
_atom_site_fract_y
_atom_site_fract_z
Si Si1 0.670207 0.324436 0.693117
Si Si2 0.094240 0.329245 0.224795
Si Si3 0.920235 0.823701 0.421550
Si Si4 0.848315 0.823669 0.499354
Si Si5 0.098967 0.671765 0.760597
Si Si6 0.447336 0.328124 0.875980
Si Si7 0.245781 0.323662 0.133344
Si Si8 0.813746 0.828944 0.053862
O O1 0.651670 0.500000 0.692484
O O2 0.791045 0.280805 0.730903
O O3 0.637357 0.262998 0.636601
O O4 0.596610 0.242772 0.711087
O O5 0.093778 0.500000 0.207750
O O6 0.055833 0.223746 0.175885
O O7 0.016662 0.306792 0.247389
O O8 0.855947 0.768835 0.449606
O O9 0.042203 0.771526 0.451007
O O10 0.919355 0.000000 0.422490
O O11 0.750000 0.750000 0.500000
O O12 0.833850 0.000000 0.498820
O O13 0.131378 0.500000 0.765757
O O14 0.185914 0.754619 0.810831
O O15 0.412787 0.500000 0.869468
O O16 0.373780 0.227890 0.889176
O O17 0.562965 0.305932 0.924261
O O18 0.255544 0.500000 0.139080
O O19 0.284081 0.262211 0.094977
O O20 0.780910 0.000000 0.044771
O O21 0.750000 0.750000 0.000000
#
# Coordination Sequence:
#
# PCOD8100982 Si02
#       8
#     8   8   8   8   8   8   8   8
#     4  10  20  36  56  79 111 151 191 230 278 338
#     4  10  21  35  54  80 110 147 187 225 276 337
#     4   8  17  34  54  77 110 151 189 227 278 340
#     4   9  17  33  57  81 107 145 192 234 279 335
#     4  11  22  35  54  84 114 146 186 232 279 327
#     4  11  22  38  60  86 113 144 185 232 278 327
#     4  11  22  39  60  84 112 148 188 226 276 338
#     4  10  24  42  61  85 115 147 184 230 281 333
#
# _framework density 18.707215999999999
#
# number of rings (size 3 to 8) (size 9 to 14) (size 15 to 20)
#    0.000    2.000    2.500    1.875    0.000    4.000 
#    0.000    6.250    0.000    0.000    0.000    0.000 
#    0.000    0.000    0.000    0.000    0.000    0.000 
#
# Total GULP energy -396842.466547 kJ/mol
# GULP energy per Si atom -12401.327080 kJ/mol
# Density = 1.866464 g / cm^3
# Si number density = 18.707216 Si / 1000 Ang^3
#
#
#
# Elastic Constant Matrix: (Units=GPa)
#
#
# Indices 1 2 3 4 5 6 
#
# 1 107.6683 26.8524 28.0185 0.0000 -8.3027 0.0000
# 2 26.8524 52.7519 29.5770 0.0000 -2.9803 0.0000
# 3 28.0185 29.5770 105.8955 0.0000 -5.6440 0.0000
# 4 0.0000 0.0000 0.0000 22.7436 0.0000 -3.6992
# 5 -8.3027 -2.9803 -5.6440 0.0000 25.9517 0.0000
# 6 0.0000 0.0000 0.0000 -3.6992 0.0000 33.5082
#
#
#
# Elastic Compliance Matrix: (Units=1/GPa)
#
#
# Indices 1 2 3 4 5 6 
#
# 1 0.011036 -0.004635 -0.001483 0.000000 0.002676 0.000000
# 2 -0.004635 0.024462 -0.005600 0.000000 0.000108 0.000000
# 3 -0.001483 -0.005600 0.011473 0.000000 0.001378 0.000000
# 4 0.000000 0.000000 0.000000 0.044772 0.000000 0.004943
# 5 0.002676 0.000108 0.001378 0.000000 0.039701 0.000000
# 6 0.000000 0.000000 0.000000 0.004943 0.000000 0.030389
#
#
# Mechanical properties :
#
#
# Convention : Reuss Voigt Hill
#
# Bulk Modulus (GPa) = 42.48966 48.35685 45.42325
# Shear Modulus (GPa) = 25.89128 28.56523 27.22826
#
# Velocity S-wave (km/s) = 3.72429 3.91188 3.81923
# Velocity P-wave (km/s) = 6.42309 6.80508 6.61684
#
# Compressibility (1/GPa) = 0.02353514
#
# Stress axis : x y z
#
# Youngs Moduli (GPa) = 90.61254 40.87946 87.15985
#
# Poissons Ratio (x) = 0.18948 0.12923
# Poissons Ratio (y) = 0.42000 0.48811
# Poissons Ratio (z) = 0.13435 0.22893
#
# Static dielectric constant tensor:
#      x y z
#    x 3.701890 0.000000 -0.104230 
#    y 0.000000 3.306430 0.000000 
#    z -0.104230 0.000000 3.581870 
# 
# 
# High freq. dielectric constant tensor:
#      x y z
#    x 1.739560 0.000000 -0.002340 
#    y 0.000000 1.713150 0.000000 
#    z -0.002340 0.000000 1.723980 
# 
# From -- ./inp_files/375073.got.cif
#   From: 2010.06.25/outbox.cif.g09.slc.cpg/sg12_188_cif.got.tgz:375073.got - 2010.06.28 00:19:55.
