data_PCOD8100628
_publ_section_title
;
Structure prediction by ZEFSAII (Michael W. Deem and Ramdas Pophale) SiO2 
 PCOD8100628
Probable space group: C 2/M
;
_chemical_formula_sum "Si O2"
_cell_formula_units_Z 56
_cell_length_a 30.533831
_cell_length_b 8.855108
_cell_length_c 14.504067
_cell_angle_alpha 90.000000
_cell_angle_beta 133.301204
_cell_angle_gamma 90.000000
_cell_volume 2853.988059
_symmetry_space_group_name_H-M "C 2/M"
_symmetry_group_IT_number 12
_symmetry_cell_setting 'monoclinic'
loop_
_space_group_symop_operation_xyz
x,y,z
-x,y,-z
-x,-y,-z
x,-y,z
1/2+x,1/2+y,z
1/2-x,1/2+y,-z
1/2-x,1/2-y,-z
1/2+x,1/2-y,z
loop_
_atom_site_type_symbol
_atom_site_label
_atom_site_fract_x
_atom_site_fract_y
_atom_site_fract_z
Si Si1 0.194418 0.175622 0.301427
Si Si2 0.760809 0.176278 0.113528
Si Si3 0.142012 0.675758 0.056572
Si Si4 0.565119 0.324114 0.796901
Si Si5 0.817771 0.824428 0.504766
Si Si6 0.068325 0.825176 0.449517
Si Si7 0.382774 0.821804 0.308734
O O1 0.147767 0.263659 0.168821
O O2 0.173688 0.211427 0.375230
O O3 0.262477 0.231356 0.382992
O O4 0.191417 0.000000 0.273534
O O5 0.704518 0.210667 0.096480
O O6 0.818953 0.249844 0.245442
O O7 0.772049 0.000000 0.116477
O O8 0.750000 0.250000 0.000000
O O9 0.126063 0.500000 0.034399
O O10 0.088440 0.764421 0.928570
O O11 0.580087 0.500000 0.807063
O O12 0.494075 0.292622 0.691835
O O13 0.598560 0.234326 0.764767
O O14 0.878603 0.773404 0.541996
O O15 0.803438 0.000000 0.467673
O O16 0.069191 0.729126 0.545027
O O17 0.074489 0.000000 0.485794
O O18 0.377226 0.000000 0.297347
#
# Coordination Sequence:
#
# PCOD8100628 Si02
#       7
#     8   8   8   8   8   8   8
#     4  10  20  35  60  90 116 146 183 227 282 340
#     4  11  22  36  56  81 112 148 186 231 279 330
#     4  11  23  38  57  83 116 151 186 229 284 338
#     4  11  23  39  59  80 109 150 195 238 278 332
#     4   9  19  38  61  86 116 145 183 234 282 331
#     4  10  22  40  60  82 109 148 194 237 282 330
#     4  12  24  37  56  84 116 151 188 232 285 339
#
# _framework density 19.621666000000001
#
# number of rings (size 3 to 8) (size 9 to 14) (size 15 to 20)
#    0.000    1.429    1.429    4.286    0.000    9.143 
#    0.000    0.714    0.000    4.286    0.000    0.000 
#    0.000    0.000    0.000    0.000    0.000    0.000 
#
# Total GULP energy -347387.638806 kJ/mol
# GULP energy per Si atom -12406.701386 kJ/mol
# Density = 1.957701 g / cm^3
# Si number density = 19.621666 Si / 1000 Ang^3
#
#
#
# Elastic Constant Matrix: (Units=GPa)
#
#
# Indices 1 2 3 4 5 6 
#
# 1 45.8030 20.3783 29.3428 0.0000 3.4720 0.0000
# 2 20.3783 92.6040 51.1321 0.0000 3.4245 0.0000
# 3 29.3428 51.1321 135.8906 0.0000 -1.2981 0.0000
# 4 0.0000 0.0000 0.0000 37.9024 0.0000 -1.3939
# 5 3.4720 3.4245 -1.2981 0.0000 27.7181 0.0000
# 6 0.0000 0.0000 0.0000 -1.3939 0.0000 24.3371
#
#
#
# Elastic Compliance Matrix: (Units=1/GPa)
#
#
# Indices 1 2 3 4 5 6 
#
# 1 0.026390 -0.003192 -0.004527 0.000000 -0.003123 0.000000
# 2 -0.003192 0.014120 -0.004639 0.000000 -0.001562 0.000000
# 3 -0.004527 -0.004639 0.010097 0.000000 0.001613 0.000000
# 4 0.000000 0.000000 0.000000 0.026439 0.000000 0.001514
# 5 -0.003123 -0.001562 0.001613 0.000000 0.036737 0.000000
# 6 0.000000 0.000000 0.000000 0.001514 0.000000 0.041176
#
#
# Mechanical properties :
#
#
# Convention : Reuss Voigt Hill
#
# Bulk Modulus (GPa) = 38.62286 52.88932 45.75609
# Shear Modulus (GPa) = 26.55251 29.55450 28.05351
#
# Velocity S-wave (km/s) = 3.68261 3.88521 3.78527
# Velocity P-wave (km/s) = 6.14888 6.86583 6.51722
#
# Compressibility (1/GPa) = 0.02589140
#
# Stress axis : x y z
#
# Youngs Moduli (GPa) = 37.89345 70.82067 99.03727
#
# Poissons Ratio (x) = 0.22607 0.44835
# Poissons Ratio (y) = 0.12096 0.45940
# Poissons Ratio (z) = 0.17155 0.32852
#
# Static dielectric constant tensor:
#      x y z
#    x 3.598110 0.000000 0.063830 
#    y 0.000000 3.604740 0.000000 
#    z 0.063830 0.000000 3.706040 
# 
# 
# High freq. dielectric constant tensor:
#      x y z
#    x 1.749720 0.000000 -0.003380 
#    y 0.000000 1.771210 0.000000 
#    z -0.003380 0.000000 1.776510 
# 
# From -- ./inp_files/249293.got.cif
#   From: 2010.06.25/outbox.cif.g09.slc.cpg/sg12_125_cif.got.tgz:249293.got - 2010.06.28 00:19:55.
