data_PCOD8100153
_publ_section_title
;
Structure prediction by ZEFSAII (Michael W. Deem and Ramdas Pophale) SiO2 
 PCOD8100153
Probable space group: C 2/M
;
_chemical_formula_sum "Si O2"
_cell_formula_units_Z 48
_cell_length_a 18.444173
_cell_length_b 13.605504
_cell_length_c 18.246913
_cell_angle_alpha 90.000000
_cell_angle_beta 33.347081
_cell_angle_gamma 90.000000
_cell_volume 2517.076475
_symmetry_space_group_name_H-M "C 2/M"
_symmetry_group_IT_number 12
_symmetry_cell_setting 'monoclinic'
loop_
_space_group_symop_operation_xyz
x,y,z
-x,y,-z
-x,-y,-z
x,-y,z
1/2+x,1/2+y,z
1/2-x,1/2+y,-z
1/2-x,1/2-y,-z
1/2+x,1/2-y,z
loop_
_atom_site_type_symbol
_atom_site_label
_atom_site_fract_x
_atom_site_fract_y
_atom_site_fract_z
Si Si1 0.567081 0.228862 0.019969
Si Si2 0.783497 0.885179 0.921649
Si Si3 0.234407 0.386749 0.128817
Si Si4 0.205121 0.610274 0.516091
Si Si5 0.544336 0.267279 0.732234
Si Si6 0.998346 0.610925 0.578955
O O1 0.463570 0.251543 0.173113
O O2 0.500000 0.194667 0.000000
O O3 0.674730 0.146721 0.953562
O O4 0.640482 0.331337 0.943121
O O5 0.909223 0.812093 0.812430
O O6 0.822916 0.000000 0.876615
O O7 0.715682 0.868500 0.057946
O O8 0.259270 0.500000 0.124348
O O9 0.104328 0.341659 0.277172
O O10 0.217955 0.500000 0.536082
O O11 0.348311 0.655629 0.387790
O O12 0.096499 0.663022 0.658837
O O13 0.146189 0.612810 0.484129
O O14 0.948212 0.500000 0.608311
O O15 0.000000 0.668456 0.500000
#
# Coordination Sequence:
#
# PCOD8100153 Si02
#       6
#     8   8   8   8   8   8
#     4  11  23  35  54  84 116 147 185 235 282 333
#     4  10  20  38  60  78 107 148 193 237 276 326
#     4   9  18  34  55  78 108 148 184 223 279 336
#     4  10  20  35  58  83 112 146 185 230 273 329
#     4  10  21  38  57  85 110 147 192 231 272 333
#     4   9  17  28  47  76 107 139 172 211 269 333
#
# _framework density 19.069742999999999
#
# number of rings (size 3 to 8) (size 9 to 14) (size 15 to 20)
#    0.000    2.167    0.000    4.500    2.333    3.333 
#    0.000    0.000    0.000    0.000    0.000    3.500 
#    0.000    0.000    0.000    0.000    0.000    0.000 
#
# Total GULP energy -297346.060733 kJ/mol
# GULP energy per Si atom -12389.419197 kJ/mol
# Density = 1.902634 g / cm^3
# Si number density = 19.069743 Si / 1000 Ang^3
#
#
#
# Elastic Constant Matrix: (Units=GPa)
#
#
# Indices 1 2 3 4 5 6 
#
# 1 114.3420 29.6758 43.9411 0.0001 2.6254 0.0000
# 2 29.6758 98.4985 36.7004 0.0001 2.5218 0.0000
# 3 43.9411 36.7004 110.2427 0.0004 0.9218 -0.0002
# 4 0.0001 0.0001 0.0004 11.6598 -0.0001 0.4467
# 5 2.6254 2.5218 0.9218 -0.0001 18.6472 0.0000
# 6 0.0000 0.0000 -0.0002 0.4467 0.0000 21.0707
#
#
#
# Elastic Compliance Matrix: (Units=1/GPa)
#
#
# Indices 1 2 3 4 5 6 
#
# 1 0.010637 -0.001828 -0.003622 0.000000 -0.001071 0.000000
# 2 -0.001828 0.011940 -0.003236 0.000000 -0.001197 0.000000
# 3 -0.003622 -0.003236 0.011589 0.000000 0.000375 0.000000
# 4 0.000000 0.000000 0.000000 0.085835 0.000000 -0.001820
# 5 -0.001071 -0.001197 0.000375 0.000000 0.053922 0.000000
# 6 0.000000 0.000000 0.000000 -0.001820 0.000000 0.047498
#
#
# Mechanical properties :
#
#
# Convention : Reuss Voigt Hill
#
# Bulk Modulus (GPa) = 59.54893 60.41307 59.98100
# Shear Modulus (GPa) = 20.45921 24.45994 22.45958
#
# Velocity S-wave (km/s) = 3.27901 3.58531 3.43557
# Velocity P-wave (km/s) = 6.75504 6.99200 6.87454
#
# Compressibility (1/GPa) = 0.01679291
#
# Stress axis : x y z
#
# Youngs Moduli (GPa) = 94.01492 83.75530 86.28942
#
# Poissons Ratio (x) = 0.15307 0.31256
# Poissons Ratio (y) = 0.17182 0.27926
# Poissons Ratio (z) = 0.34054 0.27106
#
# Static dielectric constant tensor:
#      x y z
#    x 3.317740 0.000000 0.108780 
#    y 0.000000 3.531150 0.000000 
#    z 0.108780 0.000000 3.683730 
# 
# 
# High freq. dielectric constant tensor:
#      x y z
#    x 1.720040 0.000000 -0.003300 
#    y 0.000000 1.736190 0.000000 
#    z -0.003300 0.000000 1.751400 
# 
# From -- ./inp_files/278025.got.cif
#   From: 2010.06.25/outbox.cif.g09.slc.cpg/sg12_140_cif.got.tgz:278025.got - 2010.06.28 00:19:55.
