data_PCOD8100445
_publ_section_title
;
Structure prediction by ZEFSAII (Michael W. Deem and Ramdas Pophale) SiO2 
 PCOD8100445
Probable space group: C 2/M
;
_chemical_formula_sum "Si O2"
_cell_formula_units_Z 56
_cell_length_a 21.590138
_cell_length_b 15.301106
_cell_length_c 21.502006
_cell_angle_alpha 90.000000
_cell_angle_beta 159.399438
_cell_angle_gamma 90.000000
_cell_volume 2499.285103
_symmetry_space_group_name_H-M "C 2/M"
_symmetry_group_IT_number 12
_symmetry_cell_setting 'monoclinic'
loop_
_space_group_symop_operation_xyz
x,y,z
-x,y,-z
-x,-y,-z
x,-y,z
1/2+x,1/2+y,z
1/2-x,1/2+y,-z
1/2-x,1/2-y,-z
1/2+x,1/2-y,z
loop_
_atom_site_type_symbol
_atom_site_label
_atom_site_fract_x
_atom_site_fract_y
_atom_site_fract_z
Si Si1 0.236899 0.403055 0.093344
Si Si2 0.672847 0.354793 0.690039
Si Si3 0.444680 0.837199 0.381795
Si Si4 0.856035 0.604929 0.740846
Si Si5 0.899370 0.104215 0.607657
Si Si6 0.929033 0.898498 0.997074
Si Si7 0.212309 0.895793 0.361384
O O1 0.231368 0.500000 0.060354
O O2 0.253430 0.409854 0.183577
O O3 0.404669 0.355049 0.219463
O O4 0.048888 0.359140 0.901382
O O5 0.500000 0.403151 0.500000
O O6 0.613484 0.261226 0.660394
O O7 0.814213 0.349013 0.767357
O O8 0.500000 0.881799 0.500000
O O9 0.611704 0.845377 0.493638
O O10 0.279772 0.883300 0.192722
O O11 0.854782 0.500000 0.747861
O O12 0.723329 0.638563 0.563340
O O13 0.824408 0.135113 0.602945
O O14 0.909027 0.000000 0.613295
O O15 0.044958 0.862427 0.163531
O O16 0.967674 0.000000 0.030850
O O17 0.000000 0.854138 0.000000
O O18 0.241583 0.000000 0.384223
#
# Coordination Sequence:
#
# PCOD8100445 Si02
#       7
#     8   8   8   8   8   8   8
#     4  10  20  36  59  87 120 155 198 246 292 345
#     4  11  22  36  56  86 119 160 199 240 294 344
#     4  11  23  38  56  85 120 154 195 243 298 351
#     4  10  20  36  61  92 121 155 197 240 293 350
#     4   9  19  36  60  90 121 152 191 242 294 352
#     4  10  20  35  59  86 110 146 193 247 304 348
#     4  10  21  39  64  91 118 152 197 246 296 354
#
# _framework density 22.406407999999999
#
# number of rings (size 3 to 8) (size 9 to 14) (size 15 to 20)
#    0.000    1.857    2.857    1.286    0.000    4.571 
#    0.000    5.000    0.000    1.714    0.000    0.000 
#    0.000    0.000    0.000    0.000    0.000    0.000 
#
# Total GULP energy -347055.730716 kJ/mol
# GULP energy per Si atom -12394.847526 kJ/mol
# Density = 2.235541 g / cm^3
# Si number density = 22.406408 Si / 1000 Ang^3
#
#
#
# Elastic Constant Matrix: (Units=GPa)
#
#
# Indices 1 2 3 4 5 6 
#
# 1 176.8559 20.8608 72.8477 -0.0031 27.2234 -0.0024
# 2 20.8608 31.9217 14.7881 0.0208 2.9555 0.0281
# 3 72.8477 14.7881 161.1599 0.0012 39.7875 -0.0072
# 4 -0.0031 0.0208 0.0012 14.3086 0.0090 5.0257
# 5 27.2234 2.9555 39.7875 0.0090 37.6800 0.0190
# 6 -0.0024 0.0281 -0.0072 5.0257 0.0190 20.5393
#
#
#
# Elastic Compliance Matrix: (Units=1/GPa)
#
#
# Indices 1 2 3 4 5 6 
#
# 1 0.007459 -0.003518 -0.002416 0.000007 -0.002561 0.000006
# 2 -0.003518 0.034395 -0.002066 -0.000038 0.002025 -0.000041
# 3 -0.002416 -0.002066 0.009490 0.000002 -0.008113 0.000013
# 4 0.000007 -0.000038 0.000002 0.076459 -0.000013 -0.018708
# 5 -0.002561 0.002025 -0.008113 -0.000013 0.036797 -0.000037
# 6 0.000006 -0.000041 0.000013 -0.018708 -0.000037 0.053265
#
#
# Mechanical properties :
#
#
# Convention : Reuss Voigt Hill
#
# Bulk Modulus (GPa) = 28.29389 65.21453 46.75421
# Shear Modulus (GPa) = 20.35442 31.93498 26.14470
#
# Velocity S-wave (km/s) = 3.01727 3.77936 3.41961
# Velocity P-wave (km/s) = 4.97931 6.94357 6.04180
#
# Compressibility (1/GPa) = 0.03534331
#
# Stress axis : x y z
#
# Youngs Moduli (GPa) = 134.06857 29.07387 105.37711
#
# Poissons Ratio (x) = 0.10228 0.25463
# Poissons Ratio (y) = 0.47163 0.21771
# Poissons Ratio (z) = 0.32396 0.06007
#
# Static dielectric constant tensor:
#      x y z
#    x 4.072040 -0.000050 0.000340 
#    y -0.000050 3.531030 -0.000110 
#    z 0.000340 -0.000110 4.459850 
# 
# 
# High freq. dielectric constant tensor:
#      x y z
#    x 1.873080 0.000000 0.007780 
#    y 0.000000 1.844110 -0.000010 
#    z 0.007780 -0.000010 1.900950 
# 
# From -- ./inp_files/322633.got.cif
#   From: 2010.06.25/outbox.cif.g09.slc.cpg/sg12_162_cif.got.tgz:322633.got - 2010.06.28 00:19:55.
