data_PCOD8100902
_publ_section_title
;
Structure prediction by ZEFSAII (Michael W. Deem and Ramdas Pophale) SiO2 
 PCOD8100902
Probable space group: C 2/M
;
_chemical_formula_sum "Si O2"
_cell_formula_units_Z 60
_cell_length_a 12.147970
_cell_length_b 21.820380
_cell_length_c 21.713876
_cell_angle_alpha 90.000000
_cell_angle_beta 151.056181
_cell_angle_gamma 90.000000
_cell_volume 2785.514795
_symmetry_space_group_name_H-M "C 2/M"
_symmetry_group_IT_number 12
_symmetry_cell_setting 'monoclinic'
loop_
_space_group_symop_operation_xyz
x,y,z
-x,y,-z
-x,-y,-z
x,-y,z
1/2+x,1/2+y,z
1/2-x,1/2+y,-z
1/2-x,1/2-y,-z
1/2+x,1/2-y,z
loop_
_atom_site_type_symbol
_atom_site_label
_atom_site_fract_x
_atom_site_fract_y
_atom_site_fract_z
Si Si1 0.838147 0.759996 0.804459
Si Si2 0.500000 0.202998 0.000000
Si Si3 0.397283 0.309800 0.588910
Si Si4 0.024397 0.429403 0.831333
Si Si5 0.491672 0.330346 0.223711
Si Si6 0.551943 0.432220 0.886492
Si Si7 0.211998 0.872218 0.144022
Si Si8 0.506206 0.570307 0.575938
O O1 0.657598 0.707192 0.701529
O O2 0.705863 0.818858 0.768970
O O3 0.965570 0.774693 0.803015
O O4 0.018872 0.740867 0.945298
O O5 0.729979 0.164143 0.116328
O O6 0.250000 0.250000 0.500000
O O7 0.353933 0.321654 0.640306
O O8 0.352648 0.375172 0.531546
O O9 0.079082 0.500000 0.843428
O O10 0.074397 0.391994 0.793001
O O11 0.765858 0.420404 0.726161
O O12 0.196982 0.407275 0.969878
O O13 0.552769 0.393500 0.220451
O O14 0.569866 0.500000 0.869542
O O15 0.382759 0.429172 0.862138
O O16 0.000000 0.847390 0.000000
O O17 0.500000 0.578177 0.500000
O O18 0.424973 0.500000 0.553318
#
# Coordination Sequence:
#
# PCOD8100902 Si02
#       8
#     8   4   8   8   8   8   8   8
#     4  10  21  36  58  88 120 160 198 252 309 375
#     4  10  20  36  55  84 117 156 194 240 300 376
#     4  11  27  43  64  90 119 165 212 270 327 379
#     4   9  18  32  58  91 125 166 206 254 309 361
#     4  10  23  38  57  87 120 161 203 247 320 378
#     4   9  18  33  56  89 128 164 201 246 304 382
#     4   9  16  30  53  88 127 163 201 244 297 366
#     4  10  24  44  66  92 122 165 217 269 318 372
#
# _framework density 21.540004
#
# number of rings (size 3 to 8) (size 9 to 14) (size 15 to 20)
#    0.000    2.267    0.667    0.800    7.467    3.200 
#    0.000    0.333    0.000    0.000    0.000    2.800 
#    0.000    0.000    0.000    0.000    0.000    0.000 
#
# Total GULP energy -371698.554741 kJ/mol
# GULP energy per Si atom -12389.951825 kJ/mol
# Density = 2.149098 g / cm^3
# Si number density = 21.540004 Si / 1000 Ang^3
#
#
#
# Elastic Constant Matrix: (Units=GPa)
#
#
# Indices 1 2 3 4 5 6 
#
# 1 86.4351 42.7817 22.3608 0.0165 -24.2803 -0.0025
# 2 42.7817 120.3780 33.8554 0.0149 -16.4154 -0.0042
# 3 22.3608 33.8554 55.1562 0.0450 -19.6064 0.0017
# 4 0.0165 0.0149 0.0450 29.1158 0.0108 0.2294
# 5 -24.2803 -16.4154 -19.6064 0.0108 32.3764 0.0000
# 6 -0.0025 -0.0042 0.0017 0.2294 0.0000 28.5408
#
#
#
# Elastic Compliance Matrix: (Units=1/GPa)
#
#
# Indices 1 2 3 4 5 6 
#
# 1 0.016693 -0.004432 -0.000505 -0.000010 0.009966 0.000001
# 2 -0.004432 0.011294 -0.005456 0.000006 -0.000901 0.000002
# 3 -0.000505 -0.005456 0.026208 -0.000042 0.012726 -0.000002
# 4 -0.000010 0.000006 -0.000042 0.034348 -0.000042 -0.000276
# 5 0.009966 -0.000901 0.012726 -0.000042 0.045610 0.000000
# 6 0.000001 0.000002 -0.000002 -0.000276 0.000000 0.035040
#
#
# Mechanical properties :
#
#
# Convention : Reuss Voigt Hill
#
# Bulk Modulus (GPa) = 29.93127 51.10725 40.51926
# Shear Modulus (GPa) = 24.86162 28.87137 26.86650
#
# Velocity S-wave (km/s) = 3.40105 3.66507 3.53552
# Velocity P-wave (km/s) = 5.41744 6.45666 5.95974
#
# Compressibility (1/GPa) = 0.03340987
#
# Stress axis : x y z
#
# Youngs Moduli (GPa) = 59.90548 88.54510 38.15687
#
# Poissons Ratio (x) = 0.39240 0.01925
# Poissons Ratio (y) = 0.26548 0.20818
# Poissons Ratio (z) = 0.03023 0.48310
#
# Static dielectric constant tensor:
#      x y z
#    x 3.701760 0.000000 -0.181310 
#    y 0.000000 3.883630 -0.000050 
#    z -0.181310 -0.000050 3.730000 
# 
# 
# High freq. dielectric constant tensor:
#      x y z
#    x 1.831050 0.000000 -0.012980 
#    y 0.000000 1.846940 0.000000 
#    z -0.012980 0.000000 1.822000 
# 
# From -- ./inp_files/307317.got.cif
#   From: 2010.06.25/outbox.cif.g09.slc.cpg/sg12_154_cif.got.tgz:307317.got - 2010.06.28 00:19:55.
