data_PCOD8100325
_publ_section_title
;
Structure prediction by ZEFSAII (Michael W. Deem and Ramdas Pophale) SiO2 
 PCOD8100325
Probable space group: C 2/M
;
_chemical_formula_sum "Si O2"
_cell_formula_units_Z 44
_cell_length_a 10.085442
_cell_length_b 10.043534
_cell_length_c 24.919686
_cell_angle_alpha 90.000000
_cell_angle_beta 80.681871
_cell_angle_gamma 90.000000
_cell_volume 2490.893688
_symmetry_space_group_name_H-M "C 2/M"
_symmetry_group_IT_number 12
_symmetry_cell_setting 'monoclinic'
loop_
_space_group_symop_operation_xyz
x,y,z
-x,y,-z
-x,-y,-z
x,-y,z
1/2+x,1/2+y,z
1/2-x,1/2+y,-z
1/2-x,1/2-y,-z
1/2+x,1/2-y,z
loop_
_atom_site_type_symbol
_atom_site_label
_atom_site_fract_x
_atom_site_fract_y
_atom_site_fract_z
Si Si1 0.659638 0.647582 0.107243
Si Si2 0.724095 0.500000 0.317629
Si Si3 0.684306 0.252638 0.626441
Si Si4 0.067560 0.000000 0.686868
Si Si5 0.538834 0.845657 0.936465
Si Si6 0.370948 0.500000 0.788824
Si Si7 0.541226 0.156445 0.437008
O O1 0.633818 0.500000 0.082636
O O2 0.552692 0.755063 0.095242
O O3 0.807509 0.698446 0.081818
O O4 0.647925 0.631706 0.172852
O O5 0.795427 0.627026 0.337297
O O6 0.565260 0.500000 0.342488
O O7 0.740426 0.500000 0.251487
O O8 0.657342 0.372134 0.669121
O O9 0.559015 0.230828 0.596041
O O10 0.811262 0.284583 0.581089
O O11 0.020207 0.000000 0.752382
O O12 0.517797 0.000000 0.921765
O O13 0.500000 0.818585 0.000000
O O14 0.500000 0.189928 0.500000
O O15 0.538012 0.000000 0.425609
#
# Coordination Sequence:
#
# PCOD8100325 Si02
#       7
#     8   4   8   4   8   4   8
#     4   9  20  37  56  81 120 147 188 245 276 336
#     4  10  22  39  62  82 114 149 192 237 287 342
#     4  12  21  41  62  85 114 154 187 237 288 341
#     4  10  22  39  60  82 114 145 192 239 277 348
#     4  10  20  35  58  87 118 156 192 229 285 343
#     4   8  20  42  54  84 113 150 188 244 290 330
#     4  11  23  37  58  90 121 148 190 236 285 346
#
# _framework density 17.664341
#
# number of rings (size 3 to 8) (size 9 to 14) (size 15 to 20)
#    1.091    0.727    3.636    1.091    0.000    2.545 
#    0.000    0.909    2.000    0.000    0.000    0.000 
#    0.000    0.000    0.000    0.000    0.000    0.000 
#
# Total GULP energy -272719.149443 kJ/mol
# GULP energy per Si atom -12396.324975 kJ/mol
# Density = 1.762414 g / cm^3
# Si number density = 17.664341 Si / 1000 Ang^3
#
#
#
# Elastic Constant Matrix: (Units=GPa)
#
#
# Indices 1 2 3 4 5 6 
#
# 1 60.6555 28.8942 16.7031 0.0000 -7.3958 0.0000
# 2 28.8942 94.7179 35.8285 0.0000 -1.7028 0.0000
# 3 16.7031 35.8285 95.4485 0.0000 3.1404 0.0000
# 4 0.0000 0.0000 0.0000 103.8015 0.0000 169.4580
# 5 -7.3958 -1.7028 3.1404 0.0000 14.4145 0.0000
# 6 0.0000 0.0000 0.0000 169.4580 0.0000 309.0877
#
#
#
# Elastic Compliance Matrix: (Units=1/GPa)
#
#
# Indices 1 2 3 4 5 6 
#
# 1 0.020902 -0.005446 -0.001959 0.000000 0.010508 0.000000
# 2 -0.005446 0.013812 -0.004224 0.000000 -0.000243 0.000000
# 3 -0.001959 -0.004224 0.012545 0.000000 -0.004237 0.000000
# 4 0.000000 0.000000 0.000000 0.091779 0.000000 -0.050318
# 5 0.010508 -0.000243 -0.004237 0.000000 0.075660 0.000000
# 6 0.000000 0.000000 0.000000 -0.050318 0.000000 0.030822
#
#
# Mechanical properties :
#
#
# Convention : Reuss Voigt Hill
#
# Bulk Modulus (GPa) = 41.66566 45.96374 43.81470
# Shear Modulus (GPa) = 18.06499 96.75381 57.40940
#
# Velocity S-wave (km/s) = 3.20141 7.40894 5.70708
# Velocity P-wave (km/s) = 6.10770 9.96328 8.26350
#
# Compressibility (1/GPa) = 0.02400058
#
# Stress axis : x y z
#
# Youngs Moduli (GPa) = 47.84309 72.39879 79.71594
#
# Poissons Ratio (x) = 0.39430 0.15617
# Poissons Ratio (y) = 0.26056 0.33670
# Poissons Ratio (z) = 0.09373 0.30579
#
# Static dielectric constant tensor:
#      x y z
#    x 3.182480 0.000000 -0.097720 
#    y 0.000000 3.205020 0.000000 
#    z -0.097720 0.000000 3.275330 
# 
# 
# High freq. dielectric constant tensor:
#      x y z
#    x 1.680750 0.000000 -0.011050 
#    y 0.000000 1.683090 0.000000 
#    z -0.011050 0.000000 1.683240 
# 
# From -- ./inp_files/371781.got.cif
#   From: 2010.06.25/outbox.cif.g09.slc.cpg/sg12_186_cif.got.tgz:371781.got - 2010.06.28 00:19:55.
