data_PCOD8100890
_publ_section_title
;
Structure prediction by ZEFSAII (Michael W. Deem and Ramdas Pophale) SiO2 
 PCOD8100890
Probable space group: C 2/M
;
_chemical_formula_sum "Si O2"
_cell_formula_units_Z 44
_cell_length_a 17.085290
_cell_length_b 10.955422
_cell_length_c 12.309803
_cell_angle_alpha 90.000000
_cell_angle_beta 76.363846
_cell_angle_gamma 90.000000
_cell_volume 2239.159440
_symmetry_space_group_name_H-M "C 2/M"
_symmetry_group_IT_number 12
_symmetry_cell_setting 'monoclinic'
loop_
_space_group_symop_operation_xyz
x,y,z
-x,y,-z
-x,-y,-z
x,-y,z
1/2+x,1/2+y,z
1/2-x,1/2+y,-z
1/2-x,1/2-y,-z
1/2+x,1/2-y,z
loop_
_atom_site_type_symbol
_atom_site_label
_atom_site_fract_x
_atom_site_fract_y
_atom_site_fract_z
Si Si1 0.258470 0.300374 0.322656
Si Si2 0.614301 0.639475 0.877153
Si Si3 0.566650 0.358510 0.132068
Si Si4 0.155874 0.866647 0.492801
Si Si5 0.402093 0.868945 0.724951
Si Si6 0.000000 0.711970 0.500000
O O1 0.320376 0.273724 0.203044
O O2 0.223860 0.176053 0.385056
O O3 0.307092 0.372320 0.399201
O O4 0.184253 0.379762 0.304152
O O5 0.638449 0.500000 0.845278
O O6 0.526774 0.666545 0.857685
O O7 0.616047 0.663289 0.005289
O O8 0.579557 0.500000 0.168341
O O9 0.596962 0.255813 0.205687
O O10 0.075026 0.789261 0.518197
O O11 0.130052 0.000000 0.463992
O O12 0.471741 0.867962 0.611227
O O13 0.413735 0.000000 0.784586
#
# Coordination Sequence:
#
# PCOD8100890 Si02
#       6
#     8   8   8   8   8   4
#     4  10  21  34  53  78 110 147 178 216 275 333
#     4   9  17  36  60  80 103 141 186 228 270 319
#     4   9  20  37  60  83 106 139 188 233 266 311
#     4  10  20  36  55  81 109 139 182 232 272 315
#     4  11  22  36  53  80 114 148 179 217 271 332
#     4  10  22  36  58  80 103 140 185 224 269 322
#
# _framework density 19.650230000000001
#
# number of rings (size 3 to 8) (size 9 to 14) (size 15 to 20)
#    0.000    2.182    0.000    4.364    0.000    5.818 
#    0.000   10.000    0.000    0.000    0.000    0.000 
#    0.000    0.000    0.000    0.000    0.000    0.000 
#
# Total GULP energy -272607.338656 kJ/mol
# GULP energy per Si atom -12391.242666 kJ/mol
# Density = 1.960550 g / cm^3
# Si number density = 19.650230 Si / 1000 Ang^3
#
#
#
# Elastic Constant Matrix: (Units=GPa)
#
#
# Indices 1 2 3 4 5 6 
#
# 1 94.0811 40.5154 49.5627 0.0000 -9.6031 0.0000
# 2 40.5154 125.0713 47.8864 0.0000 6.8556 0.0000
# 3 49.5627 47.8864 123.9238 0.0000 -21.0513 0.0000
# 4 0.0000 0.0000 0.0000 13.9640 0.0000 -1.1983
# 5 -9.6031 6.8556 -21.0513 0.0000 39.0109 0.0000
# 6 0.0000 0.0000 0.0000 -1.1983 0.0000 -0.2596
#
#
#
# Elastic Compliance Matrix: (Units=1/GPa)
#
#
# Indices 1 2 3 4 5 6 
#
# 1 0.014399 -0.003141 -0.004238 0.000000 0.001810 0.000000
# 2 -0.003141 0.010663 -0.003648 0.000000 -0.004616 0.000000
# 3 -0.004238 -0.003648 0.012226 0.000000 0.006196 0.000000
# 4 0.000000 0.000000 0.000000 0.051294 0.000000 -0.236786
# 5 0.001810 -0.004616 0.006196 0.000000 0.030234 0.000000
# 6 0.000000 0.000000 0.000000 -0.236786 0.000000 -2.759370
#
#
# Mechanical properties :
#
#
# Convention : Reuss Voigt Hill
#
# Bulk Modulus (GPa) = 65.64012 68.77835 67.20924
# Shear Modulus (GPa) = -1.91320 24.21718 11.15199
#
# Velocity S-wave (km/s) = -0.98780 3.51438 2.38486
# Velocity P-wave (km/s) = 5.67237 7.17949 6.46996
#
# Compressibility (1/GPa) = 0.01523459
#
# Stress axis : x y z
#
# Youngs Moduli (GPa) = 69.44950 93.78472 81.79009
#
# Poissons Ratio (x) = 0.29459 0.34659
# Poissons Ratio (y) = 0.21815 0.29838
# Poissons Ratio (z) = 0.29430 0.34213
#
# Static dielectric constant tensor:
#      x y z
#    x 3.568650 0.000000 -0.125360 
#    y 0.000000 3.400890 0.000000 
#    z -0.125360 0.000000 3.641980 
# 
# 
# High freq. dielectric constant tensor:
#      x y z
#    x 1.767560 0.000000 -0.012180 
#    y 0.000000 1.750700 0.000000 
#    z -0.012180 0.000000 1.765740 
# 
# From -- ./inp_files/153432.got.cif
#   From: 2010.06.25/outbox.cif.g09.slc.cpg/sg12_77_cif.got.tgz:153432.got - 2010.06.28 00:19:55.
