data_PCOD8100749
_publ_section_title
;
Structure prediction by ZEFSAII (Michael W. Deem and Ramdas Pophale) SiO2 
 PCOD8100749
Probable space group: C 2/M
;
_chemical_formula_sum "Si O2"
_cell_formula_units_Z 64
_cell_length_a 31.736710
_cell_length_b 17.159106
_cell_length_c 9.734790
_cell_angle_alpha 90.000000
_cell_angle_beta 34.050211
_cell_angle_gamma 90.000000
_cell_volume 2968.304963
_symmetry_space_group_name_H-M "C 2/M"
_symmetry_group_IT_number 12
_symmetry_cell_setting 'monoclinic'
loop_
_space_group_symop_operation_xyz
x,y,z
-x,y,-z
-x,-y,-z
x,-y,z
1/2+x,1/2+y,z
1/2-x,1/2+y,-z
1/2-x,1/2-y,-z
1/2+x,1/2-y,z
loop_
_atom_site_type_symbol
_atom_site_label
_atom_site_fract_x
_atom_site_fract_y
_atom_site_fract_z
Si Si1 0.827137 0.824540 0.057948
Si Si2 0.146220 0.656861 0.935787
Si Si3 0.340197 0.819504 0.551276
Si Si4 0.143923 0.089487 0.287575
Si Si5 0.817044 0.410474 0.876758
Si Si6 0.927904 0.408993 0.111679
Si Si7 0.917775 0.158485 0.285659
Si Si8 0.203821 0.091031 0.587023
O O1 0.869665 0.748146 0.997460
O O2 0.746088 0.794107 0.225950
O O3 0.821993 0.889642 0.189149
O O4 0.870427 0.861426 0.811859
O O5 0.077420 0.629060 0.025118
O O6 0.224351 0.643250 0.645033
O O7 0.146053 0.608972 0.077240
O O8 0.356325 0.854943 0.658254
O O9 0.354871 0.886798 0.398876
O O10 0.393031 0.747200 0.374401
O O11 0.083065 0.116198 0.564300
O O12 0.131450 0.000000 0.283735
O O13 0.227431 0.104261 0.123051
O O14 0.834309 0.500000 0.792323
O O15 0.931794 0.500000 0.079029
O O16 0.000000 0.377107 0.000000
O O17 0.863764 0.110791 0.331676
O O18 0.000000 0.156483 0.000000
O O19 0.224835 0.000000 0.517707
#
# Coordination Sequence:
#
# PCOD8100749 Si02
#       8
#     8   8   8   8   8   8   8   8
#     4  11  22  38  65  97 127 162 212 272 328 375
#     4  12  21  38  64  94 131 166 214 271 319 376
#     4  11  21  39  61  93 130 168 211 264 320 385
#     4  10  21  39  62  94 133 170 213 267 326 386
#     4  10  20  35  63  98 130 167 214 269 327 383
#     4  11  24  40  60  89 129 173 212 260 324 391
#     4  12  25  41  63  92 130 178 220 263 319 381
#     4  12  23  38  62  95 128 166 219 271 317 378
#
# _framework density 21.561128
#
# number of rings (size 3 to 8) (size 9 to 14) (size 15 to 20)
#    0.000    0.875    3.750    4.500    0.000    4.000 
#    0.000    1.250    0.000    6.750    0.000    0.000 
#    0.000    0.000    0.000    0.000    0.000    0.000 
#
# Total GULP energy -396941.239460 kJ/mol
# GULP energy per Si atom -12404.413733 kJ/mol
# Density = 2.151205 g / cm^3
# Si number density = 21.561128 Si / 1000 Ang^3
#
#
#
# Elastic Constant Matrix: (Units=GPa)
#
#
# Indices 1 2 3 4 5 6 
#
# 1 118.9179 52.9936 38.7841 0.0000 33.5930 0.0000
# 2 52.9936 128.0836 52.8781 0.0000 12.4254 0.0000
# 3 38.7841 52.8781 96.5023 0.0000 27.5094 0.0000
# 4 0.0000 0.0000 0.0000 30.5234 0.0000 10.2383
# 5 33.5930 12.4254 27.5094 0.0000 35.1141 0.0000
# 6 0.0000 0.0000 0.0000 10.2383 0.0000 35.1402
#
#
#
# Elastic Compliance Matrix: (Units=1/GPa)
#
#
# Indices 1 2 3 4 5 6 
#
# 1 0.013687 -0.004698 0.000428 0.000000 -0.011767 0.000000
# 2 -0.004698 0.011729 -0.005970 0.000000 0.005021 0.000000
# 3 0.000428 -0.005970 0.016707 0.000000 -0.011386 0.000000
# 4 0.000000 0.000000 0.000000 0.036310 0.000000 -0.010579
# 5 -0.011767 0.005021 -0.011386 0.000000 0.046879 0.000000
# 6 0.000000 0.000000 0.000000 -0.010579 0.000000 0.031540
#
#
# Mechanical properties :
#
#
# Convention : Reuss Voigt Hill
#
# Bulk Modulus (GPa) = 46.20446 70.31283 58.25864
# Shear Modulus (GPa) = 27.09329 33.41208 30.25268
#
# Velocity S-wave (km/s) = 3.54867 3.94082 3.74988
# Velocity P-wave (km/s) = 6.18602 7.30674 6.76961
#
# Compressibility (1/GPa) = 0.02164293
#
# Stress axis : x y z
#
# Youngs Moduli (GPa) = 73.06017 85.26078 59.85358
#
# Poissons Ratio (x) = 0.40056 -0.02560
# Poissons Ratio (y) = 0.34324 0.35732
# Poissons Ratio (z) = -0.03125 0.50900
#
# Static dielectric constant tensor:
#      x y z
#    x 3.998250 0.000000 0.221510 
#    y 0.000000 3.908080 0.000000 
#    z 0.221510 0.000000 3.785560 
# 
# 
# High freq. dielectric constant tensor:
#      x y z
#    x 1.845430 0.000000 0.029680 
#    y 0.000000 1.859770 0.000000 
#    z 0.029680 0.000000 1.827090 
# 
# From -- ./inp_files/112853.got.cif
#   From: 2010.06.25/outbox.cif.g09.slc.cpg/sg12_57_cif.got.tgz:112853.got - 2010.06.28 00:19:55.
