data_PCOD8100945
_publ_section_title
;
Structure prediction by ZEFSAII (Michael W. Deem and Ramdas Pophale) SiO2 
 PCOD8100945
Probable space group: C 2/M
;
_chemical_formula_sum "Si O2"
_cell_formula_units_Z 64
_cell_length_a 31.729102
_cell_length_b 9.115546
_cell_length_c 17.978949
_cell_angle_alpha 90.000000
_cell_angle_beta 40.625501
_cell_angle_gamma 90.000000
_cell_volume 3385.793957
_symmetry_space_group_name_H-M "C 2/M"
_symmetry_group_IT_number 12
_symmetry_cell_setting 'monoclinic'
loop_
_space_group_symop_operation_xyz
x,y,z
-x,y,-z
-x,-y,-z
x,-y,z
1/2+x,1/2+y,z
1/2-x,1/2+y,-z
1/2-x,1/2-y,-z
1/2+x,1/2-y,z
loop_
_atom_site_type_symbol
_atom_site_label
_atom_site_fract_x
_atom_site_fract_y
_atom_site_fract_z
Si Si1 0.277287 0.326004 0.695053
Si Si2 0.424296 0.330791 0.267363
Si Si3 0.040427 0.331163 0.335456
Si Si4 0.212324 0.832683 0.486402
Si Si5 0.152771 0.173003 0.907701
Si Si6 0.055648 0.828592 0.166537
Si Si7 0.902843 0.670179 0.582893
Si Si8 0.575265 0.831480 0.883888
O O1 0.272500 0.500000 0.709871
O O2 0.267400 0.276284 0.622466
O O3 0.222763 0.248500 0.817977
O O4 0.346537 0.275138 0.630966
O O5 0.433851 0.500000 0.229308
O O6 0.364989 0.313497 0.403676
O O7 0.488874 0.269277 0.220150
O O8 0.407730 0.230639 0.219361
O O9 0.041199 0.500000 0.312019
O O10 0.068728 0.242020 0.228634
O O11 0.086635 0.302328 0.343729
O O12 0.967285 0.283240 0.452272
O O13 0.250000 0.750000 0.500000
O O14 0.232638 0.000000 0.468546
O O15 0.112929 0.235450 0.892549
O O16 0.160706 0.000000 0.886536
O O17 0.115562 0.212189 0.033406
O O18 0.049270 0.000000 0.187373
O O19 0.885835 0.500000 0.590840
O O20 0.598394 0.000000 0.857858
O O21 0.500000 0.815192 0.000000
#
# Coordination Sequence:
#
# PCOD8100945 Si02
#       8
#     8   8   8   8   8   8   8   8
#     4  11  23  39  59  84 115 149 190 237 280 330
#     4  10  20  36  56  78 107 146 188 229 279 339
#     4   9  19  36  61  89 118 146 180 230 280 333
#     4  10  22  37  54  78 110 144 182 228 276 327
#     4  11  23  39  58  79 110 153 194 234 281 339
#     4  10  21  36  56  83 112 143 187 236 283 335
#     4   9  19  38  61  88 117 149 185 222 277 343
#     4  11  22  35  53  80 112 145 187 237 280 325
#
# _framework density 18.902508999999998
#
# number of rings (size 3 to 8) (size 9 to 14) (size 15 to 20)
#    0.000    1.875    1.250    3.375    0.000    7.500 
#    0.000    1.875    0.000    0.000    0.000    0.000 
#    0.000    0.000    0.000    0.000    0.000    0.000 
#
# Total GULP energy -396914.468185 kJ/mol
# GULP energy per Si atom -12403.577131 kJ/mol
# Density = 1.885949 g / cm^3
# Si number density = 18.902509 Si / 1000 Ang^3
#
#
#
# Elastic Constant Matrix: (Units=GPa)
#
#
# Indices 1 2 3 4 5 6 
#
# 1 94.1564 45.3501 51.5080 0.0016 4.9485 0.0028
# 2 45.3501 65.6379 55.6687 0.0400 1.1956 -0.0157
# 3 51.5080 55.6687 110.9667 0.0168 8.5280 -0.0084
# 4 0.0016 0.0400 0.0168 33.2904 -0.0128 0.9691
# 5 4.9485 1.1956 8.5280 -0.0128 32.3418 0.0034
# 6 0.0028 -0.0157 -0.0084 0.9691 0.0034 36.7833
#
#
#
# Elastic Compliance Matrix: (Units=1/GPa)
#
#
# Indices 1 2 3 4 5 6 
#
# 1 0.016683 -0.008743 -0.003252 0.000011 -0.001372 -0.000006
# 2 -0.008743 0.031313 -0.011905 -0.000030 0.003319 0.000012
# 3 -0.003252 -0.011905 0.016761 0.000005 -0.003482 -0.000001
# 4 0.000011 -0.000030 0.000005 0.030062 0.000010 -0.000792
# 5 -0.001372 0.003319 -0.003482 0.000010 0.031925 -0.000002
# 6 -0.000006 0.000012 -0.000001 -0.000792 -0.000002 0.027207
#
#
# Mechanical properties :
#
#
# Convention : Reuss Voigt Hill
#
# Bulk Modulus (GPa) = 58.97780 63.97940 61.47860
# Shear Modulus (GPa) = 24.10750 28.36538 26.23644
#
# Velocity S-wave (km/s) = 3.57509 3.87798 3.72961
# Velocity P-wave (km/s) = 6.95058 7.34657 7.15132
#
# Compressibility (1/GPa) = 0.01695553
#
# Stress axis : x y z
#
# Youngs Moduli (GPa) = 59.94126 31.93603 59.66091
#
# Poissons Ratio (x) = 0.27923 0.19403
# Poissons Ratio (y) = 0.52408 0.71028
# Poissons Ratio (z) = 0.19494 0.38021
#
# Static dielectric constant tensor:
#      x y z
#    x 3.362210 0.000000 -0.003050 
#    y 0.000000 3.439260 0.000000 
#    z -0.003050 0.000000 3.393530 
# 
# 
# High freq. dielectric constant tensor:
#      x y z
#    x 1.728480 0.000000 -0.000540 
#    y 0.000000 1.734380 0.000000 
#    z -0.000540 0.000000 1.742850 
# 
# From -- ./inp_files/295577.got.cif
#   From: 2010.06.25/outbox.cif.g09.slc.cpg/sg12_148_cif.got.tgz:295577.got - 2010.06.28 00:19:55.
