data_PCOD8100021
_publ_section_title
;
Structure prediction by ZEFSAII (Michael W. Deem and Ramdas Pophale) SiO2 
 PCOD8100021
Probable space group: C 2/M
;
_chemical_formula_sum "Si O2"
_cell_formula_units_Z 56
_cell_length_a 25.331516
_cell_length_b 8.793951
_cell_length_c 13.759959
_cell_angle_alpha 90.000000
_cell_angle_beta 67.357737
_cell_angle_gamma 90.000000
_cell_volume 2828.977402
_symmetry_space_group_name_H-M "C 2/M"
_symmetry_group_IT_number 12
_symmetry_cell_setting 'monoclinic'
loop_
_space_group_symop_operation_xyz
x,y,z
-x,y,-z
-x,-y,-z
x,-y,z
1/2+x,1/2+y,z
1/2-x,1/2+y,-z
1/2-x,1/2-y,-z
1/2+x,1/2-y,z
loop_
_atom_site_type_symbol
_atom_site_label
_atom_site_fract_x
_atom_site_fract_y
_atom_site_fract_z
Si Si1 0.870962 0.180365 0.787001
Si Si2 0.937356 0.827430 0.076321
Si Si3 0.590221 0.674045 0.682860
Si Si4 0.289437 0.179476 0.390764
Si Si5 0.347789 0.822815 0.009075
Si Si6 0.246773 0.180360 0.214056
Si Si7 0.489455 0.318969 0.615873
O O1 0.863650 0.230217 0.902656
O O2 0.817362 0.240542 0.761049
O O3 0.929502 0.246999 0.699900
O O4 0.872413 0.000000 0.784522
O O5 0.935666 0.811997 0.192486
O O6 0.923056 0.000000 0.053124
O O7 0.894031 0.709350 0.059478
O O8 0.000000 0.778638 0.000000
O O9 0.606380 0.500000 0.646076
O O10 0.645748 0.776926 0.631988
O O11 0.541974 0.738000 0.644373
O O12 0.250000 0.250000 0.500000
O O13 0.269960 0.247050 0.299729
O O14 0.282741 0.000000 0.397569
O O15 0.347171 0.000000 0.984190
O O16 0.286951 0.767251 0.095912
O O17 0.248260 0.000000 0.219689
O O18 0.500000 0.256703 0.500000
O O19 0.486560 0.500000 0.619165
#
# Coordination Sequence:
#
# PCOD8100021 Si02
#       7
#     8   8   8   8   8   8   8
#     4  10  20  37  60  85 113 152 196 242 286 335
#     4  10  20  35  57  85 116 152 196 244 284 334
#     4  10  20  36  59  88 117 148 191 241 290 340
#     4  11  23  40  61  88 118 153 194 239 289 346
#     4  11  21  36  55  84 120 152 188 234 293 355
#     4   9  20  37  59  85 115 150 193 237 285 343
#     4   9  19  35  60  88 112 146 196 242 282 335
#
# _framework density 19.795138000000001
#
# number of rings (size 3 to 8) (size 9 to 14) (size 15 to 20)
#    0.000    2.000    1.429    2.143    2.000    2.571 
#    0.000    4.286    0.000    0.857    0.000    0.000 
#    0.000    0.000    0.000    0.000    0.000    0.000 
#
# Total GULP energy -347245.934749 kJ/mol
# GULP energy per Si atom -12401.640527 kJ/mol
# Density = 1.975008 g / cm^3
# Si number density = 19.795138 Si / 1000 Ang^3
#
#
#
# Elastic Constant Matrix: (Units=GPa)
#
#
# Indices 1 2 3 4 5 6 
#
# 1 161.8556 20.2353 73.9067 0.0000 1.1122 0.0000
# 2 20.2353 26.4816 18.5282 0.0000 -4.2025 0.0000
# 3 73.9067 18.5282 145.3513 0.0000 -3.4644 0.0000
# 4 0.0000 0.0000 0.0000 23.3911 0.0000 -2.2099
# 5 1.1122 -4.2025 -3.4644 0.0000 31.7509 0.0000
# 6 0.0000 0.0000 0.0000 -2.2099 0.0000 27.3774
#
#
#
# Elastic Compliance Matrix: (Units=1/GPa)
#
#
# Indices 1 2 3 4 5 6 
#
# 1 0.008420 -0.003968 -0.003805 0.000000 -0.001235 0.000000
# 2 -0.003968 0.044112 -0.003472 0.000000 0.005599 0.000000
# 3 -0.003805 -0.003472 0.009274 0.000000 0.000686 0.000000
# 4 0.000000 0.000000 0.000000 0.043080 0.000000 0.003477
# 5 -0.001235 0.005599 0.000686 0.000000 0.032354 0.000000
# 6 0.000000 0.000000 0.000000 0.003477 0.000000 0.036807
#
#
# Mechanical properties :
#
#
# Convention : Reuss Voigt Hill
#
# Bulk Modulus (GPa) = 25.43521 62.11433 43.77477
# Shear Modulus (GPa) = 23.85012 31.23843 27.54427
#
# Velocity S-wave (km/s) = 3.47486 3.97682 3.73428
# Velocity P-wave (km/s) = 5.38299 7.24800 6.38397
#
# Compressibility (1/GPa) = 0.03931558
#
# Stress axis : x y z
#
# Youngs Moduli (GPa) = 118.75862 22.66967 107.83273
#
# Poissons Ratio (x) = 0.08995 0.41032
# Poissons Ratio (y) = 0.47123 0.37439
# Poissons Ratio (z) = 0.45190 0.07871
#
# Static dielectric constant tensor:
#      x y z
#    x 3.789050 0.000000 0.000290 
#    y 0.000000 3.257610 0.000000 
#    z 0.000290 0.000000 3.735010 
# 
# 
# High freq. dielectric constant tensor:
#      x y z
#    x 1.786270 0.000000 -0.003080 
#    y 0.000000 1.732800 0.000000 
#    z -0.003080 0.000000 1.785880 
# 
# From -- ./inp_files/238303.got.cif
#   From: 2010.06.25/outbox.cif.g09.slc.cpg/sg12_120_cif.got.tgz:238303.got - 2010.06.28 00:19:55.
