data_PCOD8100807
_publ_section_title
;
Structure prediction by ZEFSAII (Michael W. Deem and Ramdas Pophale) SiO2 
 PCOD8100807
Probable space group: C 2/M
;
_chemical_formula_sum "Si O2"
_cell_formula_units_Z 48
_cell_length_a 19.192180
_cell_length_b 9.230868
_cell_length_c 29.615718
_cell_angle_alpha 90.000000
_cell_angle_beta 149.349158
_cell_angle_gamma 90.000000
_cell_volume 2674.811665
_symmetry_space_group_name_H-M "C 2/M"
_symmetry_group_IT_number 12
_symmetry_cell_setting 'monoclinic'
loop_
_space_group_symop_operation_xyz
x,y,z
-x,y,-z
-x,-y,-z
x,-y,z
1/2+x,1/2+y,z
1/2-x,1/2+y,-z
1/2-x,1/2-y,-z
1/2+x,1/2-y,z
loop_
_atom_site_type_symbol
_atom_site_label
_atom_site_fract_x
_atom_site_fract_y
_atom_site_fract_z
Si Si1 0.124854 0.167091 0.210042
Si Si2 0.280959 0.334849 0.137469
Si Si3 0.356925 0.828488 0.591238
Si Si4 0.336073 0.833507 0.253112
Si Si5 0.908600 0.166347 0.707316
Si Si6 0.638681 0.170597 0.967868
O O1 0.265399 0.197208 0.261731
O O2 0.154062 0.202838 0.278640
O O3 0.010789 0.271147 0.126122
O O4 0.076856 0.000000 0.178212
O O5 0.268769 0.500000 0.145528
O O6 0.252615 0.244720 0.166816
O O7 0.430055 0.301511 0.199917
O O8 0.169366 0.295653 0.037460
O O9 0.250000 0.750000 0.500000
O O10 0.506925 0.781404 0.657102
O O11 0.336817 0.770924 0.631035
O O12 0.333475 0.000000 0.576902
O O13 0.332098 0.000000 0.237681
O O14 0.879890 0.000000 0.677595
O O15 0.646905 0.000000 0.962444
O O16 0.750000 0.250000 0.000000
#
# Coordination Sequence:
#
# PCOD8100807 Si02
#       6
#     8   8   8   8   8   8
#     4  10  20  36  54  77 109 142 176 219 267 311
#     4   9  18  33  51  73 103 141 181 219 260 304
#     4  10  20  36  58  83 104 132 173 214 261 319
#     4   9  20  36  55  78 106 138 175 218 264 316
#     4   9  17  33  55  76 102 138 174 213 260 311
#     4  11  21  33  51  77 107 143 186 226 261 306
#
# _framework density 17.945188000000002
#
# number of rings (size 3 to 8) (size 9 to 14) (size 15 to 20)
#    0.000    2.333    1.667    1.000    0.000    4.000 
#    0.000    4.167    0.000    5.000    0.000    0.000 
#    0.000    0.000    0.000    0.000    0.000    0.000 
#
# Total GULP energy -297630.871565 kJ/mol
# GULP energy per Si atom -12401.286315 kJ/mol
# Density = 1.790434 g / cm^3
# Si number density = 17.945188 Si / 1000 Ang^3
#
#
#
# Elastic Constant Matrix: (Units=GPa)
#
#
# Indices 1 2 3 4 5 6 
#
# 1 133.4146 52.8807 56.2826 0.0000 -12.9473 0.0000
# 2 52.8807 82.5500 59.8671 0.0000 -13.2215 0.0001
# 3 56.2826 59.8671 107.1432 -0.0001 -19.9438 0.0000
# 4 0.0000 0.0000 -0.0001 32.4449 0.0000 -5.9750
# 5 -12.9473 -13.2215 -19.9438 0.0000 23.0656 0.0000
# 6 0.0000 0.0001 0.0000 -5.9750 0.0000 29.3142
#
#
#
# Elastic Compliance Matrix: (Units=1/GPa)
#
#
# Indices 1 2 3 4 5 6 
#
# 1 0.010597 -0.004589 -0.002842 0.000000 0.000860 0.000000
# 2 -0.004589 0.022448 -0.009792 0.000000 0.001824 0.000000
# 3 -0.002842 -0.009792 0.017825 0.000000 0.008204 0.000000
# 4 0.000000 0.000000 0.000000 0.032024 0.000000 0.006527
# 5 0.000860 0.001824 0.008204 0.000000 0.051977 0.000000
# 6 0.000000 0.000000 0.000000 0.006527 0.000000 0.035444
#
#
# Mechanical properties :
#
#
# Convention : Reuss Voigt Hill
#
# Bulk Modulus (GPa) = 60.89519 73.46317 67.17918
# Shear Modulus (GPa) = 23.78292 27.23677 25.50984
#
# Velocity S-wave (km/s) = 3.64443 3.90009 3.77442
# Velocity P-wave (km/s) = 7.19144 7.82990 7.51745
#
# Compressibility (1/GPa) = 0.01642166
#
# Stress axis : x y z
#
# Youngs Moduli (GPa) = 94.36673 44.54823 56.10104
#
# Poissons Ratio (x) = 0.20445 0.15945
# Poissons Ratio (y) = 0.43308 0.54937
# Poissons Ratio (z) = 0.26821 0.43624
#
# Static dielectric constant tensor:
#      x y z
#    x 3.433370 0.000000 -0.044910 
#    y 0.000000 3.389130 0.000000 
#    z -0.044910 0.000000 3.284510 
# 
# 
# High freq. dielectric constant tensor:
#      x y z
#    x 1.695970 0.000000 -0.010170 
#    y 0.000000 1.698020 0.000000 
#    z -0.010170 0.000000 1.677130 
# 
# From -- ./inp_files/244909.got.cif
#   From: 2010.06.25/outbox.cif.g09.slc.cpg/sg12_123_cif.got.tgz:244909.got - 2010.06.28 00:19:55.
