data_PCOD8100761
_publ_section_title
;
Structure prediction by ZEFSAII (Michael W. Deem and Ramdas Pophale) SiO2 
 PCOD8100761
Probable space group: C 2/M
;
_chemical_formula_sum "Si O2"
_cell_formula_units_Z 48
_cell_length_a 18.174658
_cell_length_b 20.865765
_cell_length_c 21.944583
_cell_angle_alpha 90.000000
_cell_angle_beta 160.535349
_cell_angle_gamma 90.000000
_cell_volume 2773.101491
_symmetry_space_group_name_H-M "C 2/M"
_symmetry_group_IT_number 12
_symmetry_cell_setting 'monoclinic'
loop_
_space_group_symop_operation_xyz
x,y,z
-x,y,-z
-x,-y,-z
x,-y,z
1/2+x,1/2+y,z
1/2-x,1/2+y,-z
1/2-x,1/2-y,-z
1/2+x,1/2-y,z
loop_
_atom_site_type_symbol
_atom_site_label
_atom_site_fract_x
_atom_site_fract_y
_atom_site_fract_z
Si Si1 0.198069 0.000000 0.107779
Si Si2 0.163970 0.245470 0.500732
Si Si3 0.176485 0.133658 0.022619
Si Si4 0.806797 0.738425 0.897559
Si Si5 0.800394 0.635909 0.391615
Si Si6 0.413793 0.194047 0.107997
Si Si7 0.599008 0.000000 0.510267
O O1 0.420219 0.000000 0.318259
O O2 0.186662 0.936796 0.058105
O O3 0.000000 0.000000 0.000000
O O4 0.250000 0.250000 0.500000
O O5 0.141979 0.317360 0.508521
O O6 0.331279 0.205424 0.674194
O O7 0.920912 0.212162 0.310709
O O8 0.925194 0.156910 0.816401
O O9 0.263033 0.189824 0.134743
O O10 0.319956 0.132250 0.071663
O O11 0.888193 0.690007 0.014839
O O12 0.000000 0.741859 0.000000
O O13 0.000000 0.637091 0.500000
O O14 0.758579 0.564528 0.386074
O O15 0.250000 0.250000 0.000000
O O16 0.500000 0.000000 0.500000
#
# Coordination Sequence:
#
# PCOD8100761 Si02
#       7
#     4   8   8   8   8   8   4
#     4  12  22  34  52  74 103 145 185 212 257 314
#     4  12  20  33  55  72 104 148 178 217 273 313
#     4  11  20  36  51  71 108 144 175 218 259 312
#     4  11  21  34  54  82 107 140 183 220 267 318
#     4  11  20  33  50  72 103 140 177 220 260 302
#     4  10  20  36  49  75 106 138 180 222 262 318
#     4  10  22  34  44  72 102 134 180 215 252 306
#
# _framework density 17.309139999999999
#
# number of rings (size 3 to 8) (size 9 to 14) (size 15 to 20)
#    0.000    1.000    6.667    5.000    0.000    0.000 
#    0.000    0.000    0.000    0.000    0.000    0.583 
#    0.000    1.333    0.000    0.083    0.000    0.000 
#
# Total GULP energy -297454.959608 kJ/mol
# GULP energy per Si atom -12393.956650 kJ/mol
# Density = 1.726974 g / cm^3
# Si number density = 17.309140 Si / 1000 Ang^3
#
#
#
# Elastic Constant Matrix: (Units=GPa)
#
#
# Indices 1 2 3 4 5 6 
#
# 1 100.7845 52.0457 34.2630 -0.0031 -4.0206 -0.0579
# 2 52.0457 69.2129 18.2218 0.0415 -2.2228 0.0229
# 3 34.2630 18.2218 141.4182 0.2647 -2.2042 0.0541
# 4 -0.0031 0.0415 0.2647 14.4100 0.0200 1.3011
# 5 -4.0206 -2.2228 -2.2042 0.0200 29.1953 -0.0086
# 6 -0.0579 0.0229 0.0541 1.3011 -0.0086 29.4104
#
#
#
# Elastic Compliance Matrix: (Units=1/GPa)
#
#
# Indices 1 2 3 4 5 6 
#
# 1 0.017123 -0.012162 -0.002562 0.000080 0.001239 0.000045
# 2 -0.012162 0.023622 -0.000095 -0.000066 0.000117 -0.000039
# 3 -0.002562 -0.000095 0.007708 -0.000141 0.000222 -0.000013
# 4 0.000080 -0.000066 -0.000141 0.069678 -0.000053 -0.003082
# 5 0.001239 0.000117 0.000222 -0.000053 0.034448 0.000014
# 6 0.000045 -0.000039 -0.000013 -0.003082 0.000014 0.034138
#
#
# Mechanical properties :
#
#
# Convention : Reuss Voigt Hill
#
# Bulk Modulus (GPa) = 53.14992 57.83072 55.49032
# Shear Modulus (GPa) = 22.45905 28.39547 25.42726
#
# Velocity S-wave (km/s) = 3.60603 4.05469 3.83692
# Velocity P-wave (km/s) = 6.93620 7.44337 7.19425
#
# Compressibility (1/GPa) = 0.01881470
#
# Stress axis : x y z
#
# Youngs Moduli (GPa) = 58.40079 42.33321 129.73439
#
# Poissons Ratio (x) = 0.51484 0.33244
# Poissons Ratio (y) = 0.71025 0.01235
# Poissons Ratio (z) = 0.14965 0.00403
#
# Static dielectric constant tensor:
#      x y z
#    x 3.537900 0.000280 -0.156290 
#    y 0.000280 3.283250 -0.002690 
#    z -0.156290 -0.002690 3.688860 
# 
# 
# High freq. dielectric constant tensor:
#      x y z
#    x 1.658160 -0.000020 -0.010660 
#    y -0.000020 1.625080 -0.000070 
#    z -0.010660 -0.000070 1.696070 
# 
# From -- ./inp_files/317897.got.cif
#   From: 2010.06.25/outbox.cif.g09.slc.cpg/sg12_159_cif.got.tgz:317897.got - 2010.06.28 00:19:55.
