data_PCOD8100328
_publ_section_title
;
Structure prediction by ZEFSAII (Michael W. Deem and Ramdas Pophale) SiO2 
 PCOD8100328
Probable space group: C 2/M
;
_chemical_formula_sum "Si O2"
_cell_formula_units_Z 64
_cell_length_a 15.195024
_cell_length_b 8.757261
_cell_length_c 28.188601
_cell_angle_alpha 90.000000
_cell_angle_beta 119.719371
_cell_angle_gamma 90.000000
_cell_volume 3257.579363
_symmetry_space_group_name_H-M "C 2/M"
_symmetry_group_IT_number 12
_symmetry_cell_setting 'monoclinic'
loop_
_space_group_symop_operation_xyz
x,y,z
-x,y,-z
-x,-y,-z
x,-y,z
1/2+x,1/2+y,z
1/2-x,1/2+y,-z
1/2-x,1/2-y,-z
1/2+x,1/2-y,z
loop_
_atom_site_type_symbol
_atom_site_label
_atom_site_fract_x
_atom_site_fract_y
_atom_site_fract_z
Si Si1 0.297185 0.321089 0.336138
Si Si2 0.493643 0.180446 0.896196
Si Si3 0.912122 0.823894 0.706930
Si Si4 0.656258 0.678082 0.002084
Si Si5 0.085458 0.822431 0.828430
Si Si6 0.796578 0.177665 0.876450
Si Si7 0.558459 0.173573 0.560600
Si Si8 0.981012 0.672462 0.347374
O O1 0.305576 0.500000 0.332525
O O2 0.182297 0.270186 0.298353
O O3 0.339593 0.269462 0.399630
O O4 0.366880 0.242822 0.313891
O O5 0.553057 0.241327 0.958103
O O6 0.556732 0.224227 0.866543
O O7 0.382940 0.257375 0.864619
O O8 0.482352 0.000000 0.896234
O O9 0.006459 0.789514 0.765768
O O10 0.939815 0.770810 0.661385
O O11 0.881671 0.000000 0.697641
O O12 0.650055 0.500000 0.988156
O O13 0.750000 0.750000 0.000000
O O14 0.668260 0.707700 0.060688
O O15 0.193898 0.768443 0.838219
O O16 0.088656 0.000000 0.843321
O O17 0.779496 0.000000 0.861226
O O18 0.500000 0.246421 0.500000
O O19 0.485796 0.177207 0.588027
O O20 0.591042 0.000000 0.557327
O O21 0.979135 0.500000 0.327172
#
# Coordination Sequence:
#
# PCOD8100328 Si02
#       8
#     8   8   8   8   8   8   8   8
#     4  10  20  35  58  87 119 156 197 241 290 349
#     4  12  25  41  63  91 122 159 199 242 296 357
#     4  11  23  40  61  86 115 155 203 250 301 352
#     4  11  22  38  64  92 123 158 194 240 297 358
#     4  11  25  43  63  86 117 154 199 255 302 351
#     4  11  24  42  64  91 121 156 197 242 298 361
#     4   8  16  34  59  87 122 159 195 241 295 349
#     4   9  19  36  59  86 117 155 195 240 293 348
#
# _framework density 19.646488999999999
#
# number of rings (size 3 to 8) (size 9 to 14) (size 15 to 20)
#    0.750    0.875    1.250    4.125    0.000    6.250 
#    0.000    0.625    0.000    0.000    0.000    0.000 
#    0.000    0.000    0.000    0.000    0.000    0.000 
#
# Total GULP energy -396791.689652 kJ/mol
# GULP energy per Si atom -12399.740302 kJ/mol
# Density = 1.960177 g / cm^3
# Si number density = 19.646489 Si / 1000 Ang^3
#
#
#
# Elastic Constant Matrix: (Units=GPa)
#
#
# Indices 1 2 3 4 5 6 
#
# 1 70.4467 9.8922 -7.0632 0.0000 12.2717 0.0000
# 2 9.8922 95.0203 25.9356 0.0000 5.9224 0.0000
# 3 -7.0632 25.9356 45.6989 0.0000 7.6510 0.0000
# 4 0.0000 0.0000 0.0000 24.8777 0.0000 3.1449
# 5 12.2717 5.9224 7.6510 0.0000 24.2683 0.0000
# 6 0.0000 0.0000 0.0000 3.1449 0.0000 39.0668
#
#
#
# Elastic Compliance Matrix: (Units=1/GPa)
#
#
# Indices 1 2 3 4 5 6 
#
# 1 0.016840 -0.002725 0.005768 0.000000 -0.009669 0.000000
# 2 -0.002725 0.012911 -0.007867 0.000000 0.000707 0.000000
# 3 0.005768 -0.007867 0.028933 0.000000 -0.010118 0.000000
# 4 0.000000 0.000000 0.000000 0.040610 0.000000 -0.003269
# 5 -0.009669 0.000707 -0.010118 0.000000 0.049113 0.000000
# 6 0.000000 0.000000 0.000000 -0.003269 0.000000 0.025860
#
#
# Mechanical properties :
#
#
# Convention : Reuss Voigt Hill
#
# Bulk Modulus (GPa) = 20.39292 29.85501 25.12396
# Shear Modulus (GPa) = 24.96754 29.80265 27.38509
#
# Velocity S-wave (km/s) = 3.56875 3.89902 3.73754
# Velocity P-wave (km/s) = 5.23295 5.95810 5.60726
#
# Compressibility (1/GPa) = 0.04903662
#
# Stress axis : x y z
#
# Youngs Moduli (GPa) = 59.38085 77.45374 34.56300
#
# Poissons Ratio (x) = 0.21106 -0.19937
# Poissons Ratio (y) = 0.16181 0.27191
# Poissons Ratio (z) = -0.34252 0.60932
#
# Static dielectric constant tensor:
#      x y z
#    x 3.496020 0.000000 0.009890 
#    y 0.000000 3.603720 0.000000 
#    z 0.009890 0.000000 3.528480 
# 
# 
# High freq. dielectric constant tensor:
#      x y z
#    x 1.762610 0.000000 0.002450 
#    y 0.000000 1.777330 0.000000 
#    z 0.002450 0.000000 1.750110 
# 
# From -- ./inp_files/375105.got.cif
#   From: 2010.06.25/outbox.cif.g09.slc.cpg/sg12_188_cif.got.tgz:375105.got - 2010.06.28 00:19:55.
