data_PCOD8100892
_publ_section_title
;
Structure prediction by ZEFSAII (Michael W. Deem and Ramdas Pophale) SiO2 
 PCOD8100892
Probable space group: C 2/M
;
_chemical_formula_sum "Si O2"
_cell_formula_units_Z 56
_cell_length_a 24.337579
_cell_length_b 8.652503
_cell_length_c 14.125754
_cell_angle_alpha 90.000000
_cell_angle_beta 82.852049
_cell_angle_gamma 90.000000
_cell_volume 2951.496786
_symmetry_space_group_name_H-M "C 2/M"
_symmetry_group_IT_number 12
_symmetry_cell_setting 'monoclinic'
loop_
_space_group_symop_operation_xyz
x,y,z
-x,y,-z
-x,-y,-z
x,-y,z
1/2+x,1/2+y,z
1/2-x,1/2+y,-z
1/2-x,1/2-y,-z
1/2+x,1/2-y,z
loop_
_atom_site_type_symbol
_atom_site_label
_atom_site_fract_x
_atom_site_fract_y
_atom_site_fract_z
Si Si1 0.165356 0.681535 0.342329
Si Si2 0.060967 0.819110 0.020457
Si Si3 0.460727 0.321057 0.299047
Si Si4 0.070695 0.318359 0.223322
Si Si5 0.789046 0.183154 0.294554
Si Si6 0.637224 0.322345 0.544906
Si Si7 0.117198 0.680919 0.838987
O O1 0.168960 0.500000 0.336018
O O2 0.123201 0.742548 0.271839
O O3 0.226567 0.748462 0.309306
O O4 0.143738 0.722508 0.450409
O O5 0.069508 0.776399 0.127203
O O6 0.070618 0.000000 0.003697
O O7 0.106426 0.724961 0.950304
O O8 0.000000 0.768251 0.000000
O O9 0.477036 0.500000 0.285226
O O10 0.515876 0.219102 0.296065
O O11 0.423889 0.291960 0.400050
O O12 0.426980 0.275210 0.213063
O O13 0.073768 0.500000 0.201743
O O14 0.817040 0.228919 0.388225
O O15 0.820731 0.268488 0.202373
O O16 0.793047 0.000000 0.277176
O O17 0.645397 0.500000 0.515734
O O18 0.109099 0.500000 0.823787
#
# Coordination Sequence:
#
# PCOD8100892 Si02
#       7
#     8   8   8   8   8   8   8
#     4  10  22  38  56  80 114 152 187 230 280 327
#     4  11  22  37  60  85 111 146 184 222 275 337
#     4  10  20  36  55  81 114 149 186 226 278 334
#     4  11  23  37  55  83 115 147 186 231 279 328
#     4   9  19  38  59  81 113 150 188 229 274 328
#     4   9  19  34  57  83 108 144 192 236 273 324
#     4  11  21  34  58  89 114 139 180 235 280 322
#
# _framework density 18.973424999999999
#
# number of rings (size 3 to 8) (size 9 to 14) (size 15 to 20)
#    0.000    1.857    1.429    3.857    0.000    5.714 
#    0.000    3.571    0.000    0.000    0.000    0.000 
#    0.000    0.000    0.000    0.000    0.000    0.000 
#
# Total GULP energy -347296.761242 kJ/mol
# GULP energy per Si atom -12403.455759 kJ/mol
# Density = 1.893024 g / cm^3
# Si number density = 18.973425 Si / 1000 Ang^3
#
#
#
# Elastic Constant Matrix: (Units=GPa)
#
#
# Indices 1 2 3 4 5 6 
#
# 1 114.6185 21.0403 73.3462 0.0000 0.0773 0.0000
# 2 21.0403 38.8567 23.9570 0.0000 -4.4797 0.0000
# 3 73.3462 23.9570 105.5815 0.0000 -9.7210 0.0000
# 4 0.0000 0.0000 0.0000 33.5021 0.0000 -5.5011
# 5 0.0773 -4.4797 -9.7210 0.0000 25.9472 0.0000
# 6 0.0000 0.0000 0.0000 -5.5011 0.0000 24.3816
#
#
#
# Elastic Compliance Matrix: (Units=1/GPa)
#
#
# Indices 1 2 3 4 5 6 
#
# 1 0.016381 -0.002475 -0.011250 0.000000 -0.004691 0.000000
# 2 -0.002475 0.030481 -0.004880 0.000000 0.003441 0.000000
# 3 -0.011250 -0.004880 0.018974 0.000000 0.006299 0.000000
# 4 0.000000 0.000000 0.000000 0.030997 0.000000 0.006994
# 5 -0.004691 0.003441 0.006299 0.000000 0.041508 0.000000
# 6 0.000000 0.000000 0.000000 0.006994 0.000000 0.042592
#
#
# Mechanical properties :
#
#
# Convention : Reuss Voigt Hill
#
# Bulk Modulus (GPa) = 34.93315 55.08262 45.00789
# Shear Modulus (GPa) = 21.95998 26.14707 24.05352
#
# Velocity S-wave (km/s) = 3.40576 3.71629 3.56441
# Velocity P-wave (km/s) = 5.82385 6.89267 6.38068
#
# Compressibility (1/GPa) = 0.02862610
#
# Stress axis : x y z
#
# Youngs Moduli (GPa) = 61.04546 32.80701 52.70332
#
# Poissons Ratio (x) = 0.08119 0.59292
# Poissons Ratio (y) = 0.15107 0.25721
# Poissons Ratio (z) = 0.68678 0.16011
#
# Static dielectric constant tensor:
#      x y z
#    x 3.800810 0.000000 -0.142340 
#    y 0.000000 3.361360 0.000000 
#    z -0.142340 0.000000 3.393000 
# 
# 
# High freq. dielectric constant tensor:
#      x y z
#    x 1.734820 0.000000 -0.016460 
#    y 0.000000 1.736820 0.000000 
#    z -0.016460 0.000000 1.732620 
# 
# From -- ./inp_files/231004.got.cif
#   From: 2010.06.25/outbox.cif.g09.slc.cpg/sg12_116_cif.got.tgz:231004.got - 2010.06.28 00:19:55.
