data_PCOD8100899
_publ_section_title
;
Structure prediction by ZEFSAII (Michael W. Deem and Ramdas Pophale) SiO2 
 PCOD8100899
Probable space group: C 2/M
;
_chemical_formula_sum "Si O2"
_cell_formula_units_Z 64
_cell_length_a 29.866840
_cell_length_b 8.779692
_cell_length_c 24.125818
_cell_angle_alpha 90.000000
_cell_angle_beta 29.933238
_cell_angle_gamma 90.000000
_cell_volume 3156.769903
_symmetry_space_group_name_H-M "C 2/M"
_symmetry_group_IT_number 12
_symmetry_cell_setting 'monoclinic'
loop_
_space_group_symop_operation_xyz
x,y,z
-x,y,-z
-x,-y,-z
x,-y,z
1/2+x,1/2+y,z
1/2-x,1/2+y,-z
1/2-x,1/2-y,-z
1/2+x,1/2-y,z
loop_
_atom_site_type_symbol
_atom_site_label
_atom_site_fract_x
_atom_site_fract_y
_atom_site_fract_z
Si Si1 0.765747 0.180408 0.726029
Si Si2 0.263913 0.328049 0.428640
Si Si3 0.872270 0.318735 0.516544
Si Si4 0.229098 0.822529 0.153251
Si Si5 0.033926 0.166550 0.811098
Si Si6 0.414127 0.673467 0.120240
Si Si7 0.054566 0.821655 0.273414
Si Si8 0.886966 0.677267 0.905179
O O1 0.850354 0.249961 0.601058
O O2 0.763016 0.244456 0.792507
O O3 0.673805 0.226151 0.794238
O O4 0.777343 0.000000 0.713619
O O5 0.230972 0.500000 0.466819
O O6 0.250000 0.250000 0.500000
O O7 0.208273 0.258068 0.436872
O O8 0.368304 0.306536 0.315461
O O9 0.875017 0.500000 0.519523
O O10 0.965418 0.262790 0.389957
O O11 0.129269 0.788067 0.239527
O O12 0.250354 0.000000 0.133681
O O13 0.300508 0.755163 0.031626
O O14 0.046165 0.174274 0.862195
O O15 0.970843 0.299372 0.855945
O O16 0.996195 0.000000 0.833280
O O17 0.392646 0.500000 0.123752
O O18 0.500000 0.749542 0.000000
O O19 0.093400 0.764376 0.173098
O O20 0.033466 0.000000 0.290513
O O21 0.874771 0.500000 0.904268
#
# Coordination Sequence:
#
# PCOD8100899 Si02
#       8
#     8   8   8   8   8   8   8   8
#     4  11  22  39  63  90 122 164 209 253 302 365
#     4  10  21  36  55  78 114 153 190 235 288 348
#     4  11  23  42  62  88 125 162 202 257 309 361
#     4   9  22  42  63  88 123 161 203 254 312 369
#     4  10  20  36  55  82 117 157 194 231 288 356
#     4  10  20  36  58  85 120 159 198 245 298 352
#     4  11  23  42  65  89 118 160 207 256 312 372
#     4  11  22  39  62  92 125 158 200 257 311 363
#
# _framework density 20.273887999999999
#
# number of rings (size 3 to 8) (size 9 to 14) (size 15 to 20)
#    0.000    1.625    1.250    3.375    0.000    4.750 
#    0.000    8.750    0.000    0.000    0.000    0.000 
#    0.000    0.000    0.000    0.000    0.000    0.000 
#
# Total GULP energy -396495.881485 kJ/mol
# GULP energy per Si atom -12390.496296 kJ/mol
# Density = 2.022774 g / cm^3
# Si number density = 20.273888 Si / 1000 Ang^3
#
#
#
# Elastic Constant Matrix: (Units=GPa)
#
#
# Indices 1 2 3 4 5 6 
#
# 1 101.9397 39.1873 25.7526 -0.0054 21.3906 0.0014
# 2 39.1873 72.5699 28.1113 -0.0391 14.0306 0.0054
# 3 25.7526 28.1113 161.7839 -0.0330 6.4736 0.0018
# 4 -0.0054 -0.0391 -0.0330 31.9708 0.0066 2.6036
# 5 21.3906 14.0306 6.4736 0.0066 52.5023 -0.0011
# 6 0.0014 0.0054 0.0018 2.6036 -0.0011 27.2533
#
#
#
# Elastic Compliance Matrix: (Units=1/GPa)
#
#
# Indices 1 2 3 4 5 6 
#
# 1 0.013116 -0.006036 -0.000894 -0.000005 -0.003620 0.000001
# 2 -0.006036 0.018283 -0.002129 0.000020 -0.002164 -0.000005
# 3 -0.000894 -0.002129 0.006689 0.000004 0.000109 0.000000
# 4 -0.000005 0.000020 0.000004 0.031524 -0.000008 -0.003012
# 5 -0.003620 -0.002164 0.000109 -0.000008 0.021087 0.000002
# 6 0.000001 -0.000005 0.000000 -0.003012 0.000002 0.036980
#
#
# Mechanical properties :
#
#
# Convention : Reuss Voigt Hill
#
# Bulk Modulus (GPa) = 50.07953 58.04400 54.06176
# Shear Modulus (GPa) = 32.79696 38.56143 35.67919
#
# Velocity S-wave (km/s) = 4.02642 4.36595 4.19962
# Velocity P-wave (km/s) = 6.80964 7.35578 7.08797
#
# Compressibility (1/GPa) = 0.01996824
#
# Stress axis : x y z
#
# Youngs Moduli (GPa) = 76.24497 54.69711 149.49818
#
# Poissons Ratio (x) = 0.33016 0.13366
# Poissons Ratio (y) = 0.46022 0.31833
# Poissons Ratio (z) = 0.06817 0.11647
#
# Static dielectric constant tensor:
#      x y z
#    x 3.864980 -0.000040 0.086610 
#    y -0.000040 3.639720 0.000050 
#    z 0.086610 0.000050 3.945810 
# 
# 
# High freq. dielectric constant tensor:
#      x y z
#    x 1.798050 0.000000 0.009640 
#    y 0.000000 1.775900 0.000010 
#    z 0.009640 0.000010 1.813040 
# 
# From -- ./inp_files/353412.got.cif
#   From: 2010.06.25/outbox.cif.g09.slc.cpg/sg12_177_cif.got.tgz:353412.got - 2010.06.28 00:19:55.
