data_PCOD8100287
_publ_section_title
;
Structure prediction by ZEFSAII (Michael W. Deem and Ramdas Pophale) SiO2 
 PCOD8100287
Probable space group: C 2/M
;
_chemical_formula_sum "Si O2"
_cell_formula_units_Z 64
_cell_length_a 25.901038
_cell_length_b 11.900658
_cell_length_c 14.858880
_cell_angle_alpha 90.000000
_cell_angle_beta 45.154915
_cell_angle_gamma 90.000000
_cell_volume 3247.358883
_symmetry_space_group_name_H-M "C 2/M"
_symmetry_group_IT_number 12
_symmetry_cell_setting 'monoclinic'
loop_
_space_group_symop_operation_xyz
x,y,z
-x,y,-z
-x,-y,-z
x,-y,z
1/2+x,1/2+y,z
1/2-x,1/2+y,-z
1/2-x,1/2-y,-z
1/2+x,1/2-y,z
loop_
_atom_site_type_symbol
_atom_site_label
_atom_site_fract_x
_atom_site_fract_y
_atom_site_fract_z
Si Si1 0.256332 0.125379 0.591688
Si Si2 0.510267 0.761135 0.087927
Si Si3 0.160246 0.622458 0.873863
Si Si4 0.576767 0.376249 0.159856
Si Si5 0.758532 0.872048 0.041499
Si Si6 0.349383 0.817940 0.311666
Si Si7 0.794125 0.729494 0.730527
Si Si8 0.075398 0.131795 0.360727
O O1 0.315244 0.120847 0.439397
O O2 0.183195 0.191445 0.653522
O O3 0.296083 0.179159 0.628666
O O4 0.230863 0.000000 0.646264
O O5 0.525221 0.670946 0.146018
O O6 0.436641 0.821530 0.210852
O O7 0.500000 0.707745 0.000000
O O8 0.577691 0.846359 0.001102
O O9 0.174491 0.500000 0.897036
O O10 0.173108 0.617317 0.750884
O O11 0.219151 0.704575 0.844820
O O12 0.545804 0.500000 0.213659
O O13 0.573009 0.316087 0.262589
O O14 0.659123 0.374935 0.024269
O O15 0.705159 0.867188 0.193797
O O16 0.744013 0.000000 0.013824
O O17 0.750000 0.750000 0.000000
O O18 0.862563 0.810896 0.655903
O O19 0.000000 0.159517 0.500000
O O20 0.093712 0.000000 0.335684
#
# Coordination Sequence:
#
# PCOD8100287 Si02
#       8
#     8   8   8   8   8   8   8   8
#     4  10  21  38  58  82 113 155 196 236 296 353
#     4  10  21  37  56  87 119 148 193 245 298 355
#     4  10  20  35  58  86 117 153 195 245 298 354
#     4  10  21  38  59  84 116 154 194 243 303 359
#     4  11  22  39  63  89 120 156 199 249 305 363
#     4   9  21  37  57  82 115 153 197 245 285 351
#     4  11  21  37  59  88 116 152 194 250 299 364
#     4  10  22  39  61  87 118 157 202 255 304 358
#
# _framework density 19.708323
#
# number of rings (size 3 to 8) (size 9 to 14) (size 15 to 20)
#    0.000    1.875    2.500    1.125    1.750    4.000 
#    0.000    0.625    0.000    1.500    0.000    0.000 
#    0.000    0.000    0.000    0.000    0.000    0.000 
#
# Total GULP energy -396431.314374 kJ/mol
# GULP energy per Si atom -12388.478574 kJ/mol
# Density = 1.966347 g / cm^3
# Si number density = 19.708323 Si / 1000 Ang^3
#
#
#
# Elastic Constant Matrix: (Units=GPa)
#
#
# Indices 1 2 3 4 5 6 
#
# 1 78.2520 37.8768 22.6594 0.0000 -0.0564 0.0000
# 2 37.8768 108.1626 23.5130 0.0001 -1.4235 0.0000
# 3 22.6594 23.5130 102.5255 0.0000 -4.4026 0.0000
# 4 0.0000 0.0001 0.0000 19.9223 0.0000 2.0625
# 5 -0.0564 -1.4235 -4.4026 0.0000 33.2676 0.0000
# 6 0.0000 0.0000 0.0000 2.0625 0.0000 17.0730
#
#
#
# Elastic Compliance Matrix: (Units=1/GPa)
#
#
# Indices 1 2 3 4 5 6 
#
# 1 0.015919 -0.005064 -0.002379 0.000000 -0.000504 0.000000
# 2 -0.005064 0.011342 -0.001470 0.000000 0.000282 0.000000
# 3 -0.002379 -0.001470 0.010674 0.000000 0.001346 0.000000
# 4 0.000000 0.000000 0.000000 0.050831 0.000000 -0.006141
# 5 -0.000504 0.000282 0.001346 0.000000 0.030249 0.000000
# 6 0.000000 0.000000 0.000000 -0.006141 0.000000 0.059314
#
#
# Mechanical properties :
#
#
# Convention : Reuss Voigt Hill
#
# Bulk Modulus (GPa) = 49.72613 50.78203 50.25408
# Shear Modulus (GPa) = 24.64796 27.71197 26.17997
#
# Velocity S-wave (km/s) = 3.54027 3.75387 3.64864
# Velocity P-wave (km/s) = 6.48052 6.67918 6.58060
#
# Compressibility (1/GPa) = 0.02011015
#
# Stress axis : x y z
#
# Youngs Moduli (GPa) = 62.81876 88.16849 93.68366
#
# Poissons Ratio (x) = 0.44649 0.22283
# Poissons Ratio (y) = 0.31812 0.13769
# Poissons Ratio (z) = 0.14942 0.12959
#
# Static dielectric constant tensor:
#      x y z
#    x 3.594120 0.000000 0.116150 
#    y 0.000000 3.646520 0.000000 
#    z 0.116150 0.000000 3.638050 
# 
# 
# High freq. dielectric constant tensor:
#      x y z
#    x 1.762580 0.000000 0.008450 
#    y 0.000000 1.756400 0.000000 
#    z 0.008450 0.000000 1.773390 
# 
# From -- ./inp_files/245931.got.cif
#   From: 2010.06.25/outbox.cif.g09.slc.cpg/sg12_123_cif.got.tgz:245931.got - 2010.06.28 00:19:55.
