data_PCOD8100594
_publ_section_title
;
Structure prediction by ZEFSAII (Michael W. Deem and Ramdas Pophale) SiO2 
 PCOD8100594
Probable space group: C 2/M
;
_chemical_formula_sum "Si O2"
_cell_formula_units_Z 48
_cell_length_a 28.626180
_cell_length_b 19.133258
_cell_length_c 8.945581
_cell_angle_alpha 90.000000
_cell_angle_beta 148.916467
_cell_angle_gamma 90.000000
_cell_volume 2529.602299
_symmetry_space_group_name_H-M "C 2/M"
_symmetry_group_IT_number 12
_symmetry_cell_setting 'monoclinic'
loop_
_space_group_symop_operation_xyz
x,y,z
-x,y,-z
-x,-y,-z
x,-y,z
1/2+x,1/2+y,z
1/2-x,1/2+y,-z
1/2-x,1/2-y,-z
1/2+x,1/2-y,z
loop_
_atom_site_type_symbol
_atom_site_label
_atom_site_fract_x
_atom_site_fract_y
_atom_site_fract_z
Si Si1 0.323544 0.201711 0.625525
Si Si2 0.010661 0.214277 0.853868
Si Si3 0.274119 0.078164 0.671520
Si Si4 0.428125 0.574735 0.931906
Si Si5 0.399739 0.917897 0.289698
Si Si6 0.836961 0.287906 0.309950
O O1 0.250000 0.250000 0.500000
O O2 0.307278 0.121710 0.620693
O O3 0.319260 0.206031 0.436608
O O4 0.418270 0.222870 0.961488
O O5 0.921144 0.235077 0.518335
O O6 0.046997 0.139441 0.888942
O O7 0.000000 0.198323 0.000000
O O8 0.168083 0.090730 0.410672
O O9 0.298334 0.000000 0.692555
O O10 0.326814 0.099796 0.963984
O O11 0.422509 0.500000 0.005269
O O12 0.500000 0.565046 0.000000
O O13 0.500000 0.901877 0.500000
O O14 0.368041 0.864025 0.332886
O O15 0.394036 0.000000 0.326352
O O16 0.750000 0.250000 0.000000
#
# Coordination Sequence:
#
# PCOD8100594 Si02
#       6
#     8   8   8   8   8   8
#     4  11  20  36  58  82 117 157 195 241 286 350
#     4   9  19  34  53  78 110 148 191 236 278 342
#     4  10  20  35  60  86 110 149 196 241 291 351
#     4   9  17  30  53  82 108 140 187 236 276 331
#     4  10  22  41  62  86 120 159 201 251 308 363
#     4  11  24  37  57  89 120 154 195 245 303 355
#
# _framework density 18.975314000000001
#
# number of rings (size 3 to 8) (size 9 to 14) (size 15 to 20)
#    0.000    2.000    1.667    2.000    4.667    0.667 
#    0.000    0.000    0.000    6.000    0.000    2.333 
#    0.000    0.000    0.000    0.000    0.000    0.000 
#
# Total GULP energy -297314.603136 kJ/mol
# GULP energy per Si atom -12388.108464 kJ/mol
# Density = 1.893213 g / cm^3
# Si number density = 18.975314 Si / 1000 Ang^3
#
#
#
# Elastic Constant Matrix: (Units=GPa)
#
#
# Indices 1 2 3 4 5 6 
#
# 1 81.9502 55.1035 46.2848 0.0000 8.0216 0.0000
# 2 55.1035 136.7044 68.3931 0.0000 -0.3358 0.0000
# 3 46.2848 68.3931 151.9014 0.0000 20.0923 0.0000
# 4 0.0000 0.0000 0.0000 27.6539 0.0000 6.7122
# 5 8.0216 -0.3358 20.0923 0.0000 24.3750 0.0000
# 6 0.0000 0.0000 0.0000 6.7122 0.0000 23.0992
#
#
#
# Elastic Compliance Matrix: (Units=1/GPa)
#
#
# Indices 1 2 3 4 5 6 
#
# 1 0.017987 -0.006196 -0.002129 0.000000 -0.004250 0.000000
# 2 -0.006196 0.011952 -0.004248 0.000000 0.005705 0.000000
# 3 -0.002129 -0.004248 0.010168 0.000000 -0.007740 0.000000
# 4 0.000000 0.000000 0.000000 0.038905 0.000000 -0.011305
# 5 -0.004250 0.005705 -0.007740 0.000000 0.048883 0.000000
# 6 0.000000 0.000000 0.000000 -0.011305 0.000000 0.046577
#
#
# Mechanical properties :
#
#
# Convention : Reuss Voigt Hill
#
# Bulk Modulus (GPa) = 66.83734 78.90207 72.86971
# Shear Modulus (GPa) = 24.43748 28.41059 26.42403
#
# Velocity S-wave (km/s) = 3.59256 3.87362 3.73573
# Velocity P-wave (km/s) = 7.24627 7.85355 7.55601
#
# Compressibility (1/GPa) = 0.01496170
#
# Stress axis : x y z
#
# Youngs Moduli (GPa) = 55.59624 83.67026 98.34448
#
# Poissons Ratio (x) = 0.51838 0.20938
# Poissons Ratio (y) = 0.34445 0.41777
# Poissons Ratio (z) = 0.11837 0.35544
#
# Static dielectric constant tensor:
#      x y z
#    x 3.918130 0.000000 -0.349320 
#    y 0.000000 4.654580 0.000000 
#    z -0.349320 0.000000 4.483920 
# 
# 
# High freq. dielectric constant tensor:
#      x y z
#    x 1.704410 0.000000 0.033220 
#    y 0.000000 1.763850 0.000000 
#    z 0.033220 0.000000 1.741810 
# 
# From -- ./inp_files/75459.got.cif
#   From: 2010.06.25/outbox.cif.g09.slc.cpg/sg12_38_cif.got.tgz:75459.got - 2010.06.28 00:19:55.
