data_PCOD8100253
_publ_section_title
;
Structure prediction by ZEFSAII (Michael W. Deem and Ramdas Pophale) SiO2 
 PCOD8100253
Probable space group: C 2/M
;
_chemical_formula_sum "Si O2"
_cell_formula_units_Z 48
_cell_length_a 16.071557
_cell_length_b 15.678577
_cell_length_c 10.587186
_cell_angle_alpha 90.000000
_cell_angle_beta 73.508228
_cell_angle_gamma 90.000000
_cell_volume 2558.000191
_symmetry_space_group_name_H-M "C 2/M"
_symmetry_group_IT_number 12
_symmetry_cell_setting 'monoclinic'
loop_
_space_group_symop_operation_xyz
x,y,z
-x,y,-z
-x,-y,-z
x,-y,z
1/2+x,1/2+y,z
1/2-x,1/2+y,-z
1/2-x,1/2-y,-z
1/2+x,1/2-y,z
loop_
_atom_site_type_symbol
_atom_site_label
_atom_site_fract_x
_atom_site_fract_y
_atom_site_fract_z
Si Si1 0.908833 0.903854 0.322499
Si Si2 0.149903 0.255183 0.507368
Si Si3 0.707570 0.405721 0.862891
Si Si4 0.375516 0.804185 0.769504
Si Si5 0.058447 0.155294 0.090527
Si Si6 0.467148 0.905512 0.373227
O O1 0.900321 0.832141 0.434169
O O2 0.832810 0.883973 0.255852
O O3 0.001727 0.899083 0.213392
O O4 0.899449 0.000000 0.382650
O O5 0.250000 0.250000 0.500000
O O6 0.134038 0.265276 0.365942
O O7 0.110431 0.336140 0.601040
O O8 0.747198 0.500000 0.842579
O O9 0.785239 0.341820 0.856377
O O10 0.635081 0.403247 0.002982
O O11 0.397744 0.733640 0.860527
O O12 0.451430 0.874610 0.744897
O O13 0.000000 0.189680 0.000000
O O14 0.500000 0.913312 0.500000
O O15 0.435859 0.000000 0.340337
#
# Coordination Sequence:
#
# PCOD8100253 Si02
#       6
#     8   8   8   8   8   8
#     4  10  20  37  58  84 116 151 188 233 282 337
#     4  11  21  36  57  85 118 146 185 233 287 344
#     4  10  20  35  58  86 110 148 200 237 269 330
#     4  11  20  35  60  83 116 148 187 231 290 335
#     4  10  21  37  58  82 111 152 193 234 277 334
#     4   9  19  34  56  83 110 145 188 230 274 334
#
# _framework density 18.764658000000001
#
# number of rings (size 3 to 8) (size 9 to 14) (size 15 to 20)
#    0.000    1.833    3.333    1.500    0.000    3.333 
#    0.000    2.500    0.000    4.000    0.000    0.000 
#    0.000    0.000    0.000    0.000    0.000    0.000 
#
# Total GULP energy -297546.385229 kJ/mol
# GULP energy per Si atom -12397.766051 kJ/mol
# Density = 1.872195 g / cm^3
# Si number density = 18.764658 Si / 1000 Ang^3
#
#
#
# Elastic Constant Matrix: (Units=GPa)
#
#
# Indices 1 2 3 4 5 6 
#
# 1 101.0427 51.2135 27.5477 0.0000 -16.8507 0.0000
# 2 51.2135 135.6880 30.6318 0.0000 -4.0537 0.0000
# 3 27.5477 30.6318 60.1269 0.0000 -9.7298 0.0000
# 4 0.0000 0.0000 0.0000 28.7620 0.0000 3.1136
# 5 -16.8507 -4.0537 -9.7298 0.0000 23.1314 0.0000
# 6 0.0000 0.0000 0.0000 3.1136 0.0000 34.8157
#
#
#
# Elastic Compliance Matrix: (Units=1/GPa)
#
#
# Indices 1 2 3 4 5 6 
#
# 1 0.014397 -0.004521 -0.002923 0.000000 0.008466 0.000000
# 2 -0.004521 0.009750 -0.003382 0.000000 -0.003008 0.000000
# 3 -0.002923 -0.003382 0.020660 0.000000 0.005968 0.000000
# 4 0.000000 0.000000 0.000000 0.035108 0.000000 -0.003140
# 5 0.008466 -0.003008 0.005968 0.000000 0.051382 0.000000
# 6 0.000000 0.000000 0.000000 -0.003140 0.000000 0.029004
#
#
# Mechanical properties :
#
#
# Convention : Reuss Voigt Hill
#
# Bulk Modulus (GPa) = 43.18953 57.29374 50.24163
# Shear Modulus (GPa) = 26.36140 29.83945 28.10042
#
# Velocity S-wave (km/s) = 3.75219 3.99205 3.87398
# Velocity P-wave (km/s) = 6.46825 7.20053 6.84419
#
# Compressibility (1/GPa) = 0.02315376
#
# Stress axis : x y z
#
# Youngs Moduli (GPa) = 69.45814 102.56339 48.40365
#
# Poissons Ratio (x) = 0.46371 0.14148
# Poissons Ratio (y) = 0.31404 0.16372
# Poissons Ratio (z) = 0.20301 0.34692
#
# Static dielectric constant tensor:
#      x y z
#    x 3.470910 0.000000 -0.247890 
#    y 0.000000 3.726190 0.000000 
#    z -0.247890 0.000000 3.441480 
# 
# 
# High freq. dielectric constant tensor:
#      x y z
#    x 1.728320 0.000000 -0.023400 
#    y 0.000000 1.734990 0.000000 
#    z -0.023400 0.000000 1.709730 
# 
# From -- ./inp_files/142739.got.cif
#   From: 2010.06.25/outbox.cif.g09.slc.cpg/sg12_72_cif.got.tgz:142739.got - 2010.06.28 00:19:55.
