data_PCOD8100542
_publ_section_title
;
Structure prediction by ZEFSAII (Michael W. Deem and Ramdas Pophale) SiO2 
 PCOD8100542
Probable space group: C 2/M
;
_chemical_formula_sum "Si O2"
_cell_formula_units_Z 64
_cell_length_a 18.568853
_cell_length_b 15.153523
_cell_length_c 14.200814
_cell_angle_alpha 90.000000
_cell_angle_beta 131.617515
_cell_angle_gamma 90.000000
_cell_volume 2987.296804
_symmetry_space_group_name_H-M "C 2/M"
_symmetry_group_IT_number 12
_symmetry_cell_setting 'monoclinic'
loop_
_space_group_symop_operation_xyz
x,y,z
-x,y,-z
-x,-y,-z
x,-y,z
1/2+x,1/2+y,z
1/2-x,1/2+y,-z
1/2-x,1/2-y,-z
1/2+x,1/2-y,z
loop_
_atom_site_type_symbol
_atom_site_label
_atom_site_fract_x
_atom_site_fract_y
_atom_site_fract_z
Si Si1 0.281796 0.604318 0.594487
Si Si2 0.032804 0.600873 0.924976
Si Si3 0.704625 0.231055 0.061049
Si Si4 0.878745 0.175080 0.331916
Si Si5 0.421002 0.898397 0.651085
Si Si6 0.929464 0.632986 0.364814
Si Si7 0.071316 0.102454 0.430904
Si Si8 0.782594 0.902475 0.811848
O O1 0.276830 0.500000 0.575568
O O2 0.179744 0.644948 0.469696
O O3 0.366738 0.643455 0.601948
O O4 0.300613 0.628272 0.719616
O O5 0.071843 0.500000 0.951223
O O6 0.938092 0.613155 0.777456
O O7 0.113097 0.670317 0.964020
O O8 0.000000 0.624903 0.000000
O O9 0.778543 0.174167 0.188732
O O10 0.676169 0.325061 0.085240
O O11 0.750000 0.250000 0.000000
O O12 0.900890 0.273564 0.385293
O O13 0.873140 0.116565 0.421477
O O14 0.964874 0.143615 0.338431
O O15 0.514025 0.853409 0.683582
O O16 0.422487 0.000000 0.621624
O O17 0.830512 0.580618 0.265368
O O18 0.000000 0.583586 0.500000
O O19 0.058122 0.000000 0.402551
O O20 0.830736 0.000000 0.872033
#
# Coordination Sequence:
#
# PCOD8100542 Si02
#       8
#     8   8   8   8   8   8   8   8
#     4   9  19  34  58  91 124 154 196 247 316 383
#     4  10  23  43  65  93 129 166 210 261 315 374
#     4  11  25  44  62  91 123 169 220 263 306 367
#     4  10  21  37  56  83 119 153 202 251 303 360
#     4  10  20  35  59  90 118 155 195 242 304 371
#     4  11  18  31  52  84 120 149 186 241 304 368
#     4  10  20  37  59  87 120 159 199 250 311 379
#     4  10  21  39  62  91 123 160 204 258 314 373
#
# _framework density 21.424052
#
# number of rings (size 3 to 8) (size 9 to 14) (size 15 to 20)
#    0.000    1.875    2.500    2.625    1.750    3.000 
#    4.500    3.125    0.000    0.375    0.000    0.000 
#    0.000    0.000    0.000    0.000    0.000    0.000 
#
# Total GULP energy -396642.361267 kJ/mol
# GULP energy per Si atom -12395.073790 kJ/mol
# Density = 2.137529 g / cm^3
# Si number density = 21.424052 Si / 1000 Ang^3
#
#
#
# Elastic Constant Matrix: (Units=GPa)
#
#
# Indices 1 2 3 4 5 6 
#
# 1 130.1887 27.9960 15.7032 0.0000 -21.3057 0.0000
# 2 27.9960 81.9887 25.0008 0.0000 -0.3816 0.0000
# 3 15.7032 25.0008 63.0716 0.0000 -13.6995 0.0000
# 4 0.0000 0.0000 0.0000 35.9783 0.0000 18.3690
# 5 -21.3057 -0.3816 -13.6995 0.0000 33.0947 0.0000
# 6 0.0000 0.0000 0.0000 18.3690 0.0000 56.8264
#
#
#
# Elastic Compliance Matrix: (Units=1/GPa)
#
#
# Indices 1 2 3 4 5 6 
#
# 1 0.009343 -0.003249 0.000286 0.000000 0.006096 0.000000
# 2 -0.003249 0.015168 -0.006175 0.000000 -0.004473 0.000000
# 3 0.000286 -0.006175 0.020060 0.000000 0.008416 0.000000
# 4 0.000000 0.000000 0.000000 0.033288 0.000000 -0.010760
# 5 0.006096 -0.004473 0.008416 0.000000 0.037573 0.000000
# 6 0.000000 0.000000 0.000000 -0.010760 0.000000 0.021076
#
#
# Mechanical properties :
#
#
# Convention : Reuss Voigt Hill
#
# Bulk Modulus (GPa) = 38.03139 45.84988 41.94064
# Shear Modulus (GPa) = 30.57174 38.94981 34.76077
#
# Velocity S-wave (km/s) = 3.78164 4.26848 4.03241
# Velocity P-wave (km/s) = 6.07108 6.76319 6.42646
#
# Compressibility (1/GPa) = 0.02629407
#
# Stress axis : x y z
#
# Youngs Moduli (GPa) = 107.03290 65.92654 49.85109
#
# Poissons Ratio (x) = 0.21420 -0.01424
# Poissons Ratio (y) = 0.34775 0.30784
# Poissons Ratio (z) = -0.03058 0.40711
#
# Static dielectric constant tensor:
#      x y z
#    x 4.294000 0.000000 0.327160 
#    y 0.000000 3.791250 0.000000 
#    z 0.327160 0.000000 4.244080 
# 
# 
# High freq. dielectric constant tensor:
#      x y z
#    x 1.841730 0.000000 -0.012600 
#    y 0.000000 1.835630 0.000000 
#    z -0.012600 0.000000 1.821890 
# 
# From -- ./inp_files/225737.got.cif
#   From: 2010.06.25/outbox.cif.g09.slc.cpg/sg12_113_cif.got.tgz:225737.got - 2010.06.28 00:19:55.
