data_PCOD8100739
_publ_section_title
;
Structure prediction by ZEFSAII (Michael W. Deem and Ramdas Pophale) SiO2 
 PCOD8100739
Probable space group: C 2/M
;
_chemical_formula_sum "Si O2"
_cell_formula_units_Z 48
_cell_length_a 9.026716
_cell_length_b 20.004470
_cell_length_c 13.398962
_cell_angle_alpha 90.000000
_cell_angle_beta 93.833931
_cell_angle_gamma 90.000000
_cell_volume 2414.098373
_symmetry_space_group_name_H-M "C 2/M"
_symmetry_group_IT_number 12
_symmetry_cell_setting 'monoclinic'
loop_
_space_group_symop_operation_xyz
x,y,z
-x,y,-z
-x,-y,-z
x,-y,z
1/2+x,1/2+y,z
1/2-x,1/2+y,-z
1/2-x,1/2-y,-z
1/2+x,1/2-y,z
loop_
_atom_site_type_symbol
_atom_site_label
_atom_site_fract_x
_atom_site_fract_y
_atom_site_fract_z
Si Si1 0.700507 0.668649 0.593061
Si Si2 0.768354 0.078449 0.224863
Si Si3 0.381845 0.296218 0.619850
Si Si4 0.057363 0.073282 0.113470
Si Si5 0.745235 0.308946 0.176874
Si Si6 0.439962 0.818942 0.885990
O O1 0.736318 0.602678 0.659484
O O2 0.665899 0.655219 0.474747
O O3 0.559243 0.704194 0.638783
O O4 0.838961 0.718934 0.602587
O O5 0.927374 0.096038 0.183421
O O6 0.640734 0.114168 0.154635
O O7 0.735481 0.000000 0.221010
O O8 0.300881 0.324381 0.712491
O O9 0.190685 0.126136 0.114445
O O10 0.116740 0.000000 0.149270
O O11 0.000000 0.068320 0.000000
O O12 0.674041 0.242434 0.126773
O O13 0.921920 0.302516 0.179336
O O14 0.500000 0.828667 0.000000
#
# Coordination Sequence:
#
# PCOD8100739 Si02
#       6
#     8   8   8   8   8   8
#     4  10  20  38  59  92 115 153 198 239 306 356
#     4  11  23  41  60  84 124 164 202 249 302 356
#     4  10  20  35  63  89 117 148 194 247 296 359
#     4  10  21  38  60  84 118 161 199 239 295 359
#     4  12  21  38  61  88 120 151 198 254 298 354
#     4  12  25  38  60  90 121 159 203 252 301 356
#
# _framework density 19.883201
#
# number of rings (size 3 to 8) (size 9 to 14) (size 15 to 20)
#    0.000    1.167    3.333    4.000    0.000    1.000 
#    0.000    2.500    0.000    1.000    0.000    0.000 
#    0.000    0.000    0.000    0.000    0.000    0.000 
#
# Total GULP energy -297585.626203 kJ/mol
# GULP energy per Si atom -12399.401092 kJ/mol
# Density = 1.983795 g / cm^3
# Si number density = 19.883201 Si / 1000 Ang^3
#
#
#
# Elastic Constant Matrix: (Units=GPa)
#
#
# Indices 1 2 3 4 5 6 
#
# 1 75.9905 38.6938 -4.8068 0.0000 -1.3773 0.0000
# 2 38.6938 121.2084 25.4844 0.0000 10.9959 0.0000
# 3 -4.8068 25.4844 92.2858 0.0000 -4.2892 0.0000
# 4 0.0000 0.0000 0.0000 29.5146 0.0000 6.8785
# 5 -1.3773 10.9959 -4.2892 0.0000 25.3466 0.0000
# 6 0.0000 0.0000 0.0000 6.8785 0.0000 27.6499
#
#
#
# Elastic Compliance Matrix: (Units=1/GPa)
#
#
# Indices 1 2 3 4 5 6 
#
# 1 0.016593 -0.006252 0.002781 0.000000 0.004085 0.000000
# 2 -0.006252 0.011592 -0.003806 0.000000 -0.006013 0.000000
# 3 0.002781 -0.003806 0.012212 0.000000 0.003869 0.000000
# 4 0.000000 0.000000 0.000000 0.035967 0.000000 -0.008947
# 5 0.004085 -0.006013 0.003869 0.000000 0.042938 0.000000
# 6 0.000000 0.000000 0.000000 -0.008947 0.000000 0.038392
#
#
# Mechanical properties :
#
#
# Convention : Reuss Voigt Hill
#
# Bulk Modulus (GPa) = 38.69815 45.35862 42.02838
# Shear Modulus (GPa) = 27.64522 31.84310 29.74416
#
# Velocity S-wave (km/s) = 3.73283 4.00623 3.87194
# Velocity P-wave (km/s) = 6.17119 6.65296 6.41660
#
# Compressibility (1/GPa) = 0.02584103
#
# Stress axis : x y z
#
# Youngs Moduli (GPa) = 60.26612 86.26703 81.88925
#
# Poissons Ratio (x) = 0.53936 -0.22771
# Poissons Ratio (y) = 0.37680 0.31169
# Poissons Ratio (z) = -0.16758 0.32835
#
# Static dielectric constant tensor:
#      x y z
#    x 3.739800 0.000000 -0.027710 
#    y 0.000000 3.544120 0.000000 
#    z -0.027710 0.000000 3.862570 
# 
# 
# High freq. dielectric constant tensor:
#      x y z
#    x 1.777100 0.000000 -0.001920 
#    y 0.000000 1.755540 0.000000 
#    z -0.001920 0.000000 1.790770 
# 
# From -- ./inp_files/195962.got.cif
#   From: 2010.06.25/outbox.cif.g09.slc.cpg/sg12_98_cif.got.tgz:195962.got - 2010.06.28 00:19:55.
