data_PCOD8100245
_publ_section_title
;
Structure prediction by ZEFSAII (Michael W. Deem and Ramdas Pophale) SiO2 
 PCOD8100245
Probable space group: C 2/M
;
_chemical_formula_sum "Si O2"
_cell_formula_units_Z 32
_cell_length_a 11.692532
_cell_length_b 15.473361
_cell_length_c 10.574470
_cell_angle_alpha 90.000000
_cell_angle_beta 126.781394
_cell_angle_gamma 90.000000
_cell_volume 1532.301219
_symmetry_space_group_name_H-M "C 2/M"
_symmetry_group_IT_number 12
_symmetry_cell_setting 'monoclinic'
loop_
_space_group_symop_operation_xyz
x,y,z
-x,y,-z
-x,-y,-z
x,-y,z
1/2+x,1/2+y,z
1/2-x,1/2+y,-z
1/2-x,1/2-y,-z
1/2+x,1/2-y,z
loop_
_atom_site_type_symbol
_atom_site_label
_atom_site_fract_x
_atom_site_fract_y
_atom_site_fract_z
Si Si1 0.117435 0.898222 0.227094
Si Si2 0.901862 0.398327 0.547382
Si Si3 0.472492 0.903875 0.115957
Si Si4 0.813741 0.158217 0.002708
O O1 0.234845 0.879431 0.412733
O O2 0.964104 0.862131 0.172096
O O3 0.106472 0.000000 0.189426
O O4 0.165021 0.848164 0.133090
O O5 0.934643 0.500000 0.576470
O O6 0.000000 0.358884 0.500000
O O7 0.946755 0.356600 0.712770
O O8 0.536322 0.000000 0.144232
O O9 0.500000 0.854023 0.000000
O O10 0.303940 0.910939 0.031796
O O11 0.750000 0.250000 0.000000
#
# Coordination Sequence:
#
# PCOD8100245 Si02
#       4
#     8   8   8   8
#     4  10  20  38  65  87 109 152 212 248 275 342
#     4   9  16  32  60  89 109 141 200 252 280 335
#     4  10  20  35  58  85 116 150 188 240 302 352
#     4  11  22  34  55  83 121 152 188 242 296 344
#
# _framework density 20.883623
#
# number of rings (size 3 to 8) (size 9 to 14) (size 15 to 20)
#    0.000    2.000    2.500    3.000    3.500    0.000 
#    0.000    2.500    5.500    6.000    0.000    0.000 
#    0.000    0.000    0.000    0.000    0.000    0.000 
#
# Total GULP energy -198289.484826 kJ/mol
# GULP energy per Si atom -12393.092802 kJ/mol
# Density = 2.083609 g / cm^3
# Si number density = 20.883623 Si / 1000 Ang^3
#
#
#
# Elastic Constant Matrix: (Units=GPa)
#
#
# Indices 1 2 3 4 5 6 
#
# 1 125.4928 17.9627 109.5014 0.0000 11.2646 0.0000
# 2 17.9627 62.9127 23.1731 0.0000 2.9225 0.0000
# 3 109.5014 23.1731 205.4374 0.0000 5.5364 0.0000
# 4 0.0000 0.0000 0.0000 6.4775 0.0000 8.2929
# 5 11.2646 2.9225 5.5364 0.0000 43.7295 0.0000
# 6 0.0000 0.0000 0.0000 8.2929 0.0000 31.7299
#
#
#
# Elastic Compliance Matrix: (Units=1/GPa)
#
#
# Indices 1 2 3 4 5 6 
#
# 1 0.015362 -0.001320 -0.007962 0.000000 -0.002861 0.000000
# 2 -0.001320 0.016731 -0.001166 0.000000 -0.000630 0.000000
# 3 -0.007962 -0.001166 0.009217 0.000000 0.000962 0.000000
# 4 0.000000 0.000000 0.000000 0.232013 0.000000 -0.060639
# 5 -0.002861 -0.000630 0.000962 0.000000 0.023525 0.000000
# 6 0.000000 0.000000 0.000000 -0.060639 0.000000 0.047365
#
#
# Mechanical properties :
#
#
# Convention : Reuss Voigt Hill
#
# Bulk Modulus (GPa) = 48.99043 77.23526 63.11285
# Shear Modulus (GPa) = 13.44393 32.60109 23.02251
#
# Velocity S-wave (km/s) = 2.53998 3.95534 3.32387
# Velocity P-wave (km/s) = 5.66672 7.61075 6.70952
#
# Compressibility (1/GPa) = 0.02041215
#
# Stress axis : x y z
#
# Youngs Moduli (GPa) = 65.09629 59.76940 108.49260
#
# Poissons Ratio (x) = 0.07892 0.86383
# Poissons Ratio (y) = 0.08596 0.12655
# Poissons Ratio (z) = 0.51830 0.06972
#
# Static dielectric constant tensor:
#      x y z
#    x 3.929220 0.000000 0.103870 
#    y 0.000000 3.365420 0.000000 
#    z 0.103870 0.000000 4.133220 
# 
# 
# High freq. dielectric constant tensor:
#      x y z
#    x 1.811940 0.000000 0.012100 
#    y 0.000000 1.781490 0.000000 
#    z 0.012100 0.000000 1.824480 
# 
# From -- ./inp_files/46717.got.cif
#   From: 2010.06.25/outbox.cif.g09.slc.cpg/sg12_24_cif.got.tgz:46717.got - 2010.06.28 00:19:55.
