data_PCOD8100922
_publ_section_title
;
Structure prediction by ZEFSAII (Michael W. Deem and Ramdas Pophale) SiO2 
 PCOD8100922
Probable space group: C 2/M
;
_chemical_formula_sum "Si O2"
_cell_formula_units_Z 36
_cell_length_a 5.228897
_cell_length_b 14.817569
_cell_length_c 23.220506
_cell_angle_alpha 90.000000
_cell_angle_beta 116.767412
_cell_angle_gamma 90.000000
_cell_volume 1606.324909
_symmetry_space_group_name_H-M "C 2/M"
_symmetry_group_IT_number 12
_symmetry_cell_setting 'monoclinic'
loop_
_space_group_symop_operation_xyz
x,y,z
-x,y,-z
-x,-y,-z
x,-y,z
1/2+x,1/2+y,z
1/2-x,1/2+y,-z
1/2-x,1/2-y,-z
1/2+x,1/2-y,z
loop_
_atom_site_type_symbol
_atom_site_label
_atom_site_fract_x
_atom_site_fract_y
_atom_site_fract_z
Si Si1 0.225727 0.894010 0.362860
Si Si2 0.584058 0.107890 0.292025
Si Si3 0.145855 0.392326 0.072927
Si Si4 0.000000 0.689929 0.500000
Si Si5 0.708146 0.107605 0.854074
O O1 0.408837 0.852876 0.328684
O O2 0.376467 0.873958 0.438232
O O3 0.905916 0.852875 0.328683
O O4 0.205129 0.000000 0.352560
O O5 0.437873 0.143833 0.218935
O O6 0.586904 0.000000 0.293448
O O7 0.146483 0.500000 0.073240
O O8 0.468890 0.354928 0.109476
O O9 0.969015 0.354928 0.109476
O O10 0.000000 0.355563 0.000000
O O11 0.750000 0.750000 0.500000
O O12 0.709429 0.000000 0.854715
#
# Coordination Sequence:
#
# PCOD8100922 Si02
#       5
#     8   8   8   4   8
#     4  10  20  36  56  77 101 132 172 212 251 299
#     4   9  17  29  48  71  93 122 166 217 256 288
#     4   9  15  21  30  47  77 119 162 199 237 286
#     4  12  25  40  57  80 108 136 166 202 255 310
#     4   9  15  23  35  54  81 113 157 208 245 278
#
# _framework density 22.411407000000001
#
# number of rings (size 3 to 8) (size 9 to 14) (size 15 to 20)
#    0.000    2.444    0.000    3.667    0.000    8.000 
#    0.000    4.444    0.000    0.000    0.000    0.000 
#    0.000    0.000    0.000    0.000    0.000  280.000 
#
# Total GULP energy -223236.330207 kJ/mol
# GULP energy per Si atom -12402.018345 kJ/mol
# Density = 2.236040 g / cm^3
# Si number density = 22.411407 Si / 1000 Ang^3
#
#
#
# Elastic Constant Matrix: (Units=GPa)
#
#
# Indices 1 2 3 4 5 6 
#
# 1 255.7383 4.7299 123.5266 0.0000 0.9944 0.0000
# 2 4.7299 7.8751 3.6868 0.0000 0.0392 0.0000
# 3 123.5266 3.6868 242.3930 0.0000 -0.4933 0.0000
# 4 0.0000 0.0000 0.0000 5.3979 0.0000 -0.1907
# 5 0.9944 0.0392 -0.4933 0.0000 52.9449 0.0000
# 6 0.0000 0.0000 0.0000 -0.1907 0.0000 0.3305
#
#
#
# Elastic Compliance Matrix: (Units=1/GPa)
#
#
# Indices 1 2 3 4 5 6 
#
# 1 0.005216 -0.001901 -0.002629 0.000000 -0.000121 0.000000
# 2 -0.001901 0.128587 -0.000987 0.000000 -0.000069 0.000000
# 3 -0.002629 -0.000987 0.005481 0.000000 0.000101 0.000000
# 4 0.000000 0.000000 0.000000 0.189109 0.000000 0.109081
# 5 -0.000121 -0.000069 0.000101 0.000000 0.018891 0.000000
# 6 0.000000 0.000000 0.000000 0.109081 0.000000 3.088263
#
#
# Mechanical properties :
#
#
# Convention : Reuss Voigt Hill
#
# Bulk Modulus (GPa) = 7.79740 85.54366 46.67053
# Shear Modulus (GPa) = 1.43294 36.67222 19.05258
#
# Velocity S-wave (km/s) = 0.80048 4.04953 2.91886
# Velocity P-wave (km/s) = 2.08354 7.75355 5.67709
#
# Compressibility (1/GPa) = 0.12824787
#
# Stress axis : x y z
#
# Youngs Moduli (GPa) = 191.71948 7.77686 182.45677
#
# Poissons Ratio (x) = 0.01479 0.47976
# Poissons Ratio (y) = 0.36449 0.18010
# Poissons Ratio (z) = 0.50412 0.00768
#
# Static dielectric constant tensor:
#      x y z
#    x 4.436130 0.000000 0.006810 
#    y 0.000000 3.234730 0.000000 
#    z 0.006810 0.000000 4.255110 
# 
# 
# High freq. dielectric constant tensor:
#      x y z
#    x 1.902120 0.000000 0.000200 
#    y 0.000000 1.836360 0.000000 
#    z 0.000200 0.000000 1.896740 
# 
# From -- ./inp_files/297587.got.cif
#   From: 2010.06.25/outbox.cif.g09.slc.cpg/sg12_149_cif.got.tgz:297587.got - 2010.06.28 00:19:55.
