data_PCOD8100833
_publ_section_title
;
Structure prediction by ZEFSAII (Michael W. Deem and Ramdas Pophale) SiO2 
 PCOD8100833
Probable space group: C 2/M
;
_chemical_formula_sum "Si O2"
_cell_formula_units_Z 56
_cell_length_a 29.817894
_cell_length_b 8.564328
_cell_length_c 16.831865
_cell_angle_alpha 90.000000
_cell_angle_beta 133.641729
_cell_angle_gamma 90.000000
_cell_volume 3110.589594
_symmetry_space_group_name_H-M "C 2/M"
_symmetry_group_IT_number 12
_symmetry_cell_setting 'monoclinic'
loop_
_space_group_symop_operation_xyz
x,y,z
-x,y,-z
-x,-y,-z
x,-y,z
1/2+x,1/2+y,z
1/2-x,1/2+y,-z
1/2-x,1/2-y,-z
1/2+x,1/2-y,z
loop_
_atom_site_type_symbol
_atom_site_label
_atom_site_fract_x
_atom_site_fract_y
_atom_site_fract_z
Si Si1 0.485930 0.317359 0.205722
Si Si2 0.380577 0.819064 0.645399
Si Si3 0.587185 0.680963 0.569896
Si Si4 0.031646 0.318417 0.651103
Si Si5 0.830525 0.183252 0.742552
Si Si6 0.191086 0.680943 0.600760
Si Si7 0.554960 0.684428 0.013271
O O1 0.475492 0.500000 0.206247
O O2 0.558822 0.286828 0.286387
O O3 0.455628 0.226824 0.242469
O O4 0.451260 0.253830 0.084453
O O5 0.343561 0.781615 0.679938
O O6 0.335291 0.776348 0.517845
O O7 0.400231 0.000000 0.667459
O O8 0.572488 0.500000 0.540078
O O9 0.578989 0.725473 0.652217
O O10 0.539313 0.778274 0.457297
O O11 0.656404 0.720448 0.626356
O O12 0.043162 0.500000 0.652403
O O13 0.762951 0.227914 0.692028
O O14 0.835711 0.000000 0.728343
O O15 0.878872 0.232945 0.870094
O O16 0.181575 0.500000 0.608678
O O17 0.546433 0.500000 0.001206
O O18 0.500000 0.757518 0.000000
#
# Coordination Sequence:
#
# PCOD8100833 Si02
#       7
#     8   8   8   8   8   8   8
#     4  11  20  33  55  79 106 139 178 220 263 316
#     4  11  21  32  48  76 111 143 176 218 265 315
#     4  11  21  34  55  80 107 140 177 212 259 317
#     4  11  21  35  54  79 111 138 170 217 268 315
#     4  10  20  36  55  74 103 146 186 220 261 314
#     4  10  21  35  52  76 109 145 178 216 267 316
#     4   9  17  32  54  78 102 135 183 227 262 302
#
# _framework density 18.003018000000001
#
# number of rings (size 3 to 8) (size 9 to 14) (size 15 to 20)
#    0.000    1.571    2.857    4.714    0.000    1.143 
#    0.000    2.143    0.000    0.857    0.000    0.000 
#    0.000    0.000    0.000    0.000    0.000    0.000 
#
# Total GULP energy -347301.140250 kJ/mol
# GULP energy per Si atom -12403.612152 kJ/mol
# Density = 1.796204 g / cm^3
# Si number density = 18.003018 Si / 1000 Ang^3
#
#
#
# Elastic Constant Matrix: (Units=GPa)
#
#
# Indices 1 2 3 4 5 6 
#
# 1 112.3505 21.1483 69.2579 0.0000 -13.2041 0.0000
# 2 21.1483 52.6079 20.1186 0.0000 -3.6347 0.0000
# 3 69.2579 20.1186 119.9250 0.0000 -3.6952 0.0000
# 4 0.0000 0.0000 0.0000 15.8389 0.0000 -3.8963
# 5 -13.2041 -3.6347 -3.6952 0.0000 30.7435 0.0000
# 6 0.0000 0.0000 0.0000 -3.8963 0.0000 29.5265
#
#
#
# Elastic Compliance Matrix: (Units=1/GPa)
#
#
# Indices 1 2 3 4 5 6 
#
# 1 0.014948 -0.002578 -0.008042 0.000000 0.005149 0.000000
# 2 -0.002578 0.020879 -0.001979 0.000000 0.001123 0.000000
# 3 -0.008042 -0.001979 0.013250 0.000000 -0.002095 0.000000
# 4 0.000000 0.000000 0.000000 0.065254 0.000000 0.008611
# 5 0.005149 0.001123 -0.002095 0.000000 0.034620 0.000000
# 6 0.000000 0.000000 0.000000 0.008611 0.000000 0.035004
#
#
# Mechanical properties :
#
#
# Convention : Reuss Voigt Hill
#
# Bulk Modulus (GPa) = 41.87619 56.21481 49.04550
# Shear Modulus (GPa) = 23.02938 26.84567 24.93753
#
# Velocity S-wave (km/s) = 3.58046 3.86576 3.72585
# Velocity P-wave (km/s) = 6.35642 7.15671 6.76841
#
# Compressibility (1/GPa) = 0.02387992
#
# Stress axis : x y z
#
# Youngs Moduli (GPa) = 66.89679 47.89391 75.47066
#
# Poissons Ratio (x) = 0.12348 0.60691
# Poissons Ratio (y) = 0.17247 0.14937
# Poissons Ratio (z) = 0.53796 0.09479
#
# Static dielectric constant tensor:
#      x y z
#    x 3.360290 0.000000 -0.150720 
#    y 0.000000 3.221820 0.000000 
#    z -0.150720 0.000000 3.387510 
# 
# 
# High freq. dielectric constant tensor:
#      x y z
#    x 1.695240 0.000000 -0.014570 
#    y 0.000000 1.691440 0.000000 
#    z -0.014570 0.000000 1.681290 
# 
# From -- ./inp_files/249306.got.cif
#   From: 2010.06.25/outbox.cif.g09.slc.cpg/sg12_125_cif.got.tgz:249306.got - 2010.06.28 00:19:55.
