data_PCOD8100995
_publ_section_title
;
Structure prediction by ZEFSAII (Michael W. Deem and Ramdas Pophale) SiO2 
 PCOD8100995
Probable space group: C 2/M
;
_chemical_formula_sum "Si O2"
_cell_formula_units_Z 56
_cell_length_a 19.124144
_cell_length_b 13.422306
_cell_length_c 11.988669
_cell_angle_alpha 90.000000
_cell_angle_beta 107.479302
_cell_angle_gamma 90.000000
_cell_volume 2935.276702
_symmetry_space_group_name_H-M "C 2/M"
_symmetry_group_IT_number 12
_symmetry_cell_setting 'monoclinic'
loop_
_space_group_symop_operation_xyz
x,y,z
-x,y,-z
-x,-y,-z
x,-y,z
1/2+x,1/2+y,z
1/2-x,1/2+y,-z
1/2-x,1/2-y,-z
1/2+x,1/2-y,z
loop_
_atom_site_type_symbol
_atom_site_label
_atom_site_fract_x
_atom_site_fract_y
_atom_site_fract_z
Si Si1 0.574690 0.616094 0.086515
Si Si2 0.407951 0.701669 0.664512
Si Si3 0.808066 0.612683 0.962674
Si Si4 0.661600 0.886652 0.275659
Si Si5 0.847931 0.809732 0.075439
Si Si6 0.322334 0.617109 0.431520
Si Si7 0.943427 0.118298 0.311827
O O1 0.571644 0.500000 0.066452
O O2 0.588537 0.637409 0.221961
O O3 0.500000 0.664467 0.000000
O O4 0.643361 0.658349 0.049271
O O5 0.398828 0.817943 0.692298
O O6 0.338289 0.669317 0.557215
O O7 0.481238 0.677865 0.627942
O O8 0.817878 0.500000 0.012067
O O9 0.847229 0.623873 0.861693
O O10 0.722429 0.637302 0.904396
O O11 0.841154 0.688864 0.070338
O O12 0.742545 0.851074 0.350507
O O13 0.647015 0.000000 0.306352
O O14 0.918187 0.847286 0.177038
O O15 0.327734 0.500000 0.450600
O O16 0.382635 0.652699 0.370701
O O17 0.958276 0.000000 0.322142
#
# Coordination Sequence:
#
# PCOD8100995 Si02
#       7
#     8   8   8   8   8   8   8
#     4  11  21  32  50  80 116 143 167 220 291 343
#     4  12  22  35  55  87 117 145 184 234 287 337
#     4  10  20  36  56  80 111 150 194 231 269 334
#     4  10  21  39  58  79 112 155 196 229 274 336
#     4  11  20  34  57  81 110 147 187 227 281 341
#     4  10  21  38  60  84 110 146 191 235 279 336
#     4  11  21  36  60  87 117 149 184 233 292 342
#
# _framework density 19.078268999999999
#
# number of rings (size 3 to 8) (size 9 to 14) (size 15 to 20)
#    0.000    1.286    4.286    3.429    0.000    1.143 
#    0.000    0.714    0.000    5.143    0.000    0.000 
#    0.000    0.000    0.000    0.000    0.000    0.000 
#
# Total GULP energy -347209.283409 kJ/mol
# GULP energy per Si atom -12400.331550 kJ/mol
# Density = 1.903485 g / cm^3
# Si number density = 19.078269 Si / 1000 Ang^3
#
#
#
# Elastic Constant Matrix: (Units=GPa)
#
#
# Indices 1 2 3 4 5 6 
#
# 1 66.2947 47.7491 9.7090 0.0000 -1.6255 0.0000
# 2 47.7491 104.6849 18.1052 0.0000 -3.1994 0.0000
# 3 9.7090 18.1052 54.4099 0.0000 -2.8544 0.0000
# 4 0.0000 0.0000 0.0000 24.7367 0.0000 -2.3484
# 5 -1.6255 -3.1994 -2.8544 0.0000 22.1974 0.0000
# 6 0.0000 0.0000 0.0000 -2.3484 0.0000 32.5128
#
#
#
# Elastic Compliance Matrix: (Units=1/GPa)
#
#
# Indices 1 2 3 4 5 6 
#
# 1 0.022485 -0.010144 -0.000632 0.000000 0.000103 0.000000
# 2 -0.010144 0.014735 -0.003041 0.000000 0.000990 0.000000
# 3 -0.000632 -0.003041 0.019611 0.000000 0.002037 0.000000
# 4 0.000000 0.000000 0.000000 0.040705 0.000000 0.002940
# 5 0.000103 0.000990 0.002037 0.000000 0.045462 0.000000
# 6 0.000000 0.000000 0.000000 0.002940 0.000000 0.030969
#
#
# Mechanical properties :
#
#
# Convention : Reuss Voigt Hill
#
# Bulk Modulus (GPa) = 34.24856 41.83510 38.04183
# Shear Modulus (GPa) = 23.65926 25.87780 24.76853
#
# Velocity S-wave (km/s) = 3.52535 3.68693 3.60704
# Velocity P-wave (km/s) = 5.87889 6.33249 6.10990
#
# Compressibility (1/GPa) = 0.02919831
#
# Stress axis : x y z
#
# Youngs Moduli (GPa) = 44.47377 67.86356 50.99282
#
# Poissons Ratio (x) = 0.68838 0.03220
# Poissons Ratio (y) = 0.45112 0.15509
# Poissons Ratio (z) = 0.02809 0.20640
#
# Static dielectric constant tensor:
#      x y z
#    x 3.519720 0.000000 0.002570 
#    y 0.000000 3.425010 0.000000 
#    z 0.002570 0.000000 3.431560 
# 
# 
# High freq. dielectric constant tensor:
#      x y z
#    x 1.735070 0.000000 -0.005400 
#    y 0.000000 1.731490 0.000000 
#    z -0.005400 0.000000 1.738070 
# 
# From -- ./inp_files/156181.got.cif
#   From: 2010.06.25/outbox.cif.g09.slc.cpg/sg12_79_cif.got.tgz:156181.got - 2010.06.28 00:19:55.
