data_PCOD8100459
_publ_section_title
;
Structure prediction by ZEFSAII (Michael W. Deem and Ramdas Pophale) SiO2 
 PCOD8100459
Probable space group: C 2/M
;
_chemical_formula_sum "Si O2"
_cell_formula_units_Z 48
_cell_length_a 19.136550
_cell_length_b 8.496469
_cell_length_c 21.876866
_cell_angle_alpha 90.000000
_cell_angle_beta 44.256530
_cell_angle_gamma 90.000000
_cell_volume 2482.350255
_symmetry_space_group_name_H-M "C 2/M"
_symmetry_group_IT_number 12
_symmetry_cell_setting 'monoclinic'
loop_
_space_group_symop_operation_xyz
x,y,z
-x,y,-z
-x,-y,-z
x,-y,z
1/2+x,1/2+y,z
1/2-x,1/2+y,-z
1/2-x,1/2-y,-z
1/2+x,1/2-y,z
loop_
_atom_site_type_symbol
_atom_site_label
_atom_site_fract_x
_atom_site_fract_y
_atom_site_fract_z
Si Si1 0.478612 0.680268 0.708340
Si Si2 0.423667 0.814635 0.100230
Si Si3 0.844309 0.683131 0.476882
Si Si4 0.705082 0.183331 0.239653
Si Si5 0.787321 0.815696 0.635349
Si Si6 0.427350 0.682642 0.224969
O O1 0.502001 0.500000 0.676709
O O2 0.554068 0.790131 0.623719
O O3 0.365263 0.723792 0.763316
O O4 0.491107 0.707219 0.773129
O O5 0.318624 0.730120 0.154074
O O6 0.469415 0.759588 0.136423
O O7 0.405601 0.000000 0.112104
O O8 0.500000 0.762002 0.000000
O O9 0.826396 0.500000 0.498784
O O10 0.750000 0.750000 0.500000
O O11 0.856008 0.767168 0.535216
O O12 0.674938 0.226928 0.327770
O O13 0.689725 0.000000 0.238623
O O14 0.673722 0.768981 0.690654
O O15 0.794991 0.000000 0.642906
O O16 0.402626 0.500000 0.228721
#
# Coordination Sequence:
#
# PCOD8100459 Si02
#       6
#     8   8   8   8   8   8
#     4  11  23  39  58  84 119 155 193 240 292 340
#     4  10  21  39  64  90 116 148 188 233 284 348
#     4  12  23  36  56  84 116 154 201 244 285 334
#     4  11  23  39  60  86 118 152 191 238 291 349
#     4  11  21  36  58  82 114 155 198 242 286 338
#     4  10  20  35  59  86 115 150 191 237 286 344
#
# _framework density 19.336511999999999
#
# number of rings (size 3 to 8) (size 9 to 14) (size 15 to 20)
#    0.000    1.167    1.667    8.000    0.000    4.000 
#    0.000    4.167    0.000    0.000    0.000    0.000 
#    0.000    0.000    0.000    0.000    0.000    0.000 
#
# Total GULP energy -297733.562195 kJ/mol
# GULP energy per Si atom -12405.565091 kJ/mol
# Density = 1.929250 g / cm^3
# Si number density = 19.336512 Si / 1000 Ang^3
#
#
#
# Elastic Constant Matrix: (Units=GPa)
#
#
# Indices 1 2 3 4 5 6 
#
# 1 120.4468 20.3766 37.8737 0.0001 8.2293 0.0001
# 2 20.3766 81.3755 19.3095 0.0001 7.3391 0.0005
# 3 37.8737 19.3095 108.9715 0.0000 17.7926 -0.0001
# 4 0.0001 0.0001 0.0000 30.9218 -0.0001 2.6696
# 5 8.2293 7.3391 17.7926 -0.0001 20.2546 0.0001
# 6 0.0001 0.0005 -0.0001 2.6696 0.0001 32.6811
#
#
#
# Elastic Compliance Matrix: (Units=1/GPa)
#
#
# Indices 1 2 3 4 5 6 
#
# 1 0.009543 -0.001634 -0.002908 0.000000 -0.000731 0.000000
# 2 -0.001634 0.013276 -0.001293 0.000000 -0.003011 0.000000
# 3 -0.002908 -0.001293 0.011846 0.000000 -0.008756 0.000000
# 4 0.000000 0.000000 0.000000 0.032569 0.000000 -0.002660
# 5 -0.000731 -0.003011 -0.008756 0.000000 0.058451 0.000000
# 6 0.000000 0.000000 0.000000 -0.002660 0.000000 0.030816
#
#
# Mechanical properties :
#
#
# Convention : Reuss Voigt Hill
#
# Bulk Modulus (GPa) = 43.48573 51.76815 47.62694
# Shear Modulus (GPa) = 28.43539 32.32042 30.37791
#
# Velocity S-wave (km/s) = 3.83894 4.09280 3.96790
# Velocity P-wave (km/s) = 6.49521 7.01178 6.75843
#
# Compressibility (1/GPa) = 0.02299605
#
# Stress axis : x y z
#
# Youngs Moduli (GPa) = 104.78755 75.32293 84.41507
#
# Poissons Ratio (x) = 0.12305 0.24547
# Poissons Ratio (y) = 0.17119 0.10916
# Poissons Ratio (z) = 0.30472 0.09740
#
# Static dielectric constant tensor:
#      x y z
#    x 3.545360 0.000000 0.211450 
#    y 0.000000 3.653550 0.000000 
#    z 0.211450 0.000000 3.512190 
# 
# 
# High freq. dielectric constant tensor:
#      x y z
#    x 1.751790 0.000000 0.015340 
#    y 0.000000 1.772760 0.000000 
#    z 0.015340 0.000000 1.735180 
# 
# From -- ./inp_files/319548.got.cif
#   From: 2010.06.25/outbox.cif.g09.slc.cpg/sg12_160_cif.got.tgz:319548.got - 2010.06.28 00:19:55.
