data_PCOD8100563
_publ_section_title
;
Structure prediction by ZEFSAII (Michael W. Deem and Ramdas Pophale) SiO2 
 PCOD8100563
Probable space group: C 2/M
;
_chemical_formula_sum "Si O2"
_cell_formula_units_Z 64
_cell_length_a 28.728907
_cell_length_b 8.893400
_cell_length_c 14.281542
_cell_angle_alpha 90.000000
_cell_angle_beta 121.830043
_cell_angle_gamma 90.000000
_cell_volume 3100.165294
_symmetry_space_group_name_H-M "C 2/M"
_symmetry_group_IT_number 12
_symmetry_cell_setting 'monoclinic'
loop_
_space_group_symop_operation_xyz
x,y,z
-x,y,-z
-x,-y,-z
x,-y,z
1/2+x,1/2+y,z
1/2-x,1/2+y,-z
1/2-x,1/2-y,-z
1/2+x,1/2-y,z
loop_
_atom_site_type_symbol
_atom_site_label
_atom_site_fract_x
_atom_site_fract_y
_atom_site_fract_z
Si Si1 0.559534 0.672067 0.527937
Si Si2 0.521164 0.170096 0.786916
Si Si3 0.196708 0.322256 0.988041
Si Si4 0.395425 0.330216 0.230402
Si Si5 0.300463 0.322178 0.606565
Si Si6 0.051560 0.170449 0.995292
Si Si7 0.401737 0.827412 0.615966
Si Si8 0.673159 0.671802 0.159522
O O1 0.500000 0.729533 0.500000
O O2 0.554221 0.500000 0.487117
O O3 0.605938 0.682208 0.658820
O O4 0.583573 0.777427 0.473123
O O5 0.542275 0.280454 0.727800
O O6 0.555843 0.214505 0.914618
O O7 0.456625 0.192093 0.736044
O O8 0.535142 0.000000 0.773881
O O9 0.202933 0.500000 0.994987
O O10 0.146195 0.277813 0.867982
O O11 0.250000 0.250000 0.000000
O O12 0.190791 0.270003 0.089374
O O13 0.383893 0.500000 0.184261
O O14 0.296337 0.500000 0.595836
O O15 0.250000 0.250000 0.500000
O O16 0.355791 0.273536 0.614081
O O17 0.298936 0.271080 0.714299
O O18 0.042309 0.000000 0.949105
O O19 0.108168 0.183602 0.111466
O O20 0.000000 0.224182 0.000000
O O21 0.381897 0.000000 0.592438
O O22 0.689782 0.500000 0.155389
#
# Coordination Sequence:
#
# PCOD8100563 Si02
#       8
#     8   8   8   8   8   8   8   8
#     4  10  21  38  62  92 126 171 220 265 318 381
#     4  11  22  35  56  90 128 166 205 255 317 374
#     4  12  26  44  68  96 129 168 213 263 318 380
#     4  11  22  39  63  90 125 166 210 261 315 376
#     4  11  25  46  71  95 126 168 216 268 321 378
#     4  10  20  35  59  90 124 166 210 254 309 374
#     4  11  24  40  62  94 133 172 215 267 321 381
#     4  10  22  42  67  95 127 166 212 261 316 377
#
# _framework density 20.64406
#
# number of rings (size 3 to 8) (size 9 to 14) (size 15 to 20)
#    0.000    1.250    2.500    3.375    0.000    6.000 
#    0.000    0.000    0.000    0.000    0.000    0.000 
#    0.000    0.000    0.000    0.000    0.000    0.000 
#
# Total GULP energy -396780.120481 kJ/mol
# GULP energy per Si atom -12399.378765 kJ/mol
# Density = 2.059707 g / cm^3
# Si number density = 20.644060 Si / 1000 Ang^3
#
#
#
# Elastic Constant Matrix: (Units=GPa)
#
#
# Indices 1 2 3 4 5 6 
#
# 1 99.8815 45.2449 37.8012 0.0000 -2.1454 0.0000
# 2 45.2449 106.4760 55.5392 0.0000 -2.3679 0.0000
# 3 37.8012 55.5392 127.5824 0.0000 -3.5962 0.0000
# 4 0.0000 0.0000 0.0000 28.1961 0.0000 2.7200
# 5 -2.1454 -2.3679 -3.5962 0.0000 26.7104 0.0000
# 6 0.0000 0.0000 0.0000 2.7200 0.0000 34.9353
#
#
#
# Elastic Compliance Matrix: (Units=1/GPa)
#
#
# Indices 1 2 3 4 5 6 
#
# 1 0.012725 -0.004448 -0.001823 0.000000 0.000382 0.000000
# 2 -0.004448 0.013709 -0.004643 0.000000 0.000233 0.000000
# 3 -0.001823 -0.004643 0.010424 0.000000 0.000845 0.000000
# 4 0.000000 0.000000 0.000000 0.035734 0.000000 -0.002782
# 5 0.000382 0.000233 0.000845 0.000000 0.037604 0.000000
# 6 0.000000 0.000000 0.000000 -0.002782 0.000000 0.028841
#
#
# Mechanical properties :
#
#
# Convention : Reuss Voigt Hill
#
# Bulk Modulus (GPa) = 66.53989 67.90115 67.22052
# Shear Modulus (GPa) = 30.14327 30.99201 30.56764
#
# Velocity S-wave (km/s) = 3.82533 3.87881 3.85216
# Velocity P-wave (km/s) = 7.19811 7.28169 7.24002
#
# Compressibility (1/GPa) = 0.01502858
#
# Stress axis : x y z
#
# Youngs Moduli (GPa) = 78.58655 72.94499 95.93701
#
# Poissons Ratio (x) = 0.32443 0.17492
# Poissons Ratio (y) = 0.34952 0.44548
# Poissons Ratio (z) = 0.14329 0.33872
#
# Static dielectric constant tensor:
#      x y z
#    x 3.773930 0.000000 0.012430 
#    y 0.000000 3.720860 0.000000 
#    z 0.012430 0.000000 3.861310 
# 
# 
# High freq. dielectric constant tensor:
#      x y z
#    x 1.802360 0.000000 -0.000890 
#    y 0.000000 1.809330 0.000000 
#    z -0.000890 0.000000 1.815820 
# 
# From -- ./inp_files/249189.got.cif
#   From: 2010.06.25/outbox.cif.g09.slc.cpg/sg12_125_cif.got.tgz:249189.got - 2010.06.28 00:19:55.
