data_PCOD8100835
_publ_section_title
;
Structure prediction by ZEFSAII (Michael W. Deem and Ramdas Pophale) SiO2 
 PCOD8100835
Probable space group: C 2/M
;
_chemical_formula_sum "Si O2"
_cell_formula_units_Z 56
_cell_length_a 15.162768
_cell_length_b 7.726088
_cell_length_c 24.617275
_cell_angle_alpha 90.000000
_cell_angle_beta 107.981652
_cell_angle_gamma 90.000000
_cell_volume 2743.023997
_symmetry_space_group_name_H-M "C 2/M"
_symmetry_group_IT_number 12
_symmetry_cell_setting 'monoclinic'
loop_
_space_group_symop_operation_xyz
x,y,z
-x,y,-z
-x,-y,-z
x,-y,z
1/2+x,1/2+y,z
1/2-x,1/2+y,-z
1/2-x,1/2-y,-z
1/2+x,1/2-y,z
loop_
_atom_site_type_symbol
_atom_site_label
_atom_site_fract_x
_atom_site_fract_y
_atom_site_fract_z
Si Si1 0.362162 0.000000 0.438310
Si Si2 0.431037 0.000000 0.564959
Si Si3 0.877693 0.298038 0.730754
Si Si4 0.021446 0.806563 0.354226
Si Si5 0.319036 0.301781 0.355349
Si Si6 0.925318 0.293549 0.858444
Si Si7 0.885072 0.698804 0.059952
Si Si8 0.302760 0.205555 0.933371
O O1 0.314247 0.826250 0.406106
O O2 0.354508 0.000000 0.502429
O O3 0.468558 0.000000 0.442060
O O4 0.417951 0.171481 0.599089
O O5 0.900174 0.500000 0.731727
O O6 0.945891 0.203251 0.701688
O O7 0.769534 0.261235 0.698749
O O8 0.899897 0.220492 0.794311
O O9 0.911491 0.764885 0.337378
O O10 0.040573 0.000000 0.380250
O O11 0.317192 0.500000 0.376320
O O12 0.926719 0.500000 0.856540
O O13 0.849177 0.227853 0.886989
O O14 0.023746 0.214624 0.896602
O O15 0.908884 0.500000 0.054829
O O16 0.801294 0.721989 0.086285
O O17 0.858527 0.781324 0.996348
O O18 0.300101 0.000000 0.936481
#
# Coordination Sequence:
#
# PCOD8100835 Si02
#       8
#     4   4   8   8   8   8   8   8
#     4   9  18  34  62  84 111 143 184 225 274 328
#     4   9  18  36  58  88 111 143 182 227 274 328
#     4  10  20  36  55  74 108 146 185 231 274 327
#     4  10  20  36  58  82 111 147 183 225 277 327
#     4   9  20  36  56  81 110 146 183 225 276 327
#     4   9  18  32  52  75 100 141 181 219 264 319
#     4   9  17  31  51  76 104 136 177 221 268 322
#     4   9  17  31  52  75 103 139 176 219 271 322
#
# _framework density 20.415426
#
# number of rings (size 3 to 8) (size 9 to 14) (size 15 to 20)
#    0.000    2.714    0.714    0.429    1.000    3.429 
#    0.000    7.143    0.000    3.429    0.000    0.000 
#    0.000    0.000    0.000    0.000    0.000    0.000 
#
# Total GULP energy -347132.651710 kJ/mol
# GULP energy per Si atom -12397.594704 kJ/mol
# Density = 2.036896 g / cm^3
# Si number density = 20.415426 Si / 1000 Ang^3
#
#
#
# Elastic Constant Matrix: (Units=GPa)
#
#
# Indices 1 2 3 4 5 6 
#
# 1 87.6004 20.0821 58.9450 0.0000 -11.6067 0.0000
# 2 20.0821 69.2453 38.7002 0.0000 -0.5826 0.0000
# 3 58.9450 38.7002 144.1654 0.0000 -12.5078 0.0000
# 4 0.0000 0.0000 0.0000 15.8248 0.0000 -1.3489
# 5 -11.6067 -0.5826 -12.5078 0.0000 27.2739 0.0000
# 6 0.0000 0.0000 0.0000 -1.3489 0.0000 22.4958
#
#
#
# Elastic Compliance Matrix: (Units=1/GPa)
#
#
# Indices 1 2 3 4 5 6 
#
# 1 0.016268 -0.001374 -0.005920 0.000000 0.004179 0.000000
# 2 -0.001374 0.017192 -0.004241 0.000000 -0.002162 0.000000
# 3 -0.005920 -0.004241 0.010694 0.000000 0.002295 0.000000
# 4 0.000000 0.000000 0.000000 0.063516 0.000000 0.003809
# 5 0.004179 -0.002162 0.002295 0.000000 0.039450 0.000000
# 6 0.000000 0.000000 0.000000 0.003809 0.000000 0.044681
#
#
# Mechanical properties :
#
#
# Convention : Reuss Voigt Hill
#
# Bulk Modulus (GPa) = 47.42891 59.60731 53.51811
# Shear Modulus (GPa) = 22.53281 25.33782 23.93531
#
# Velocity S-wave (km/s) = 3.32582 3.52676 3.42777
# Velocity P-wave (km/s) = 6.16689 6.77087 6.47592
#
# Compressibility (1/GPa) = 0.02108419
#
# Stress axis : x y z
#
# Youngs Moduli (GPa) = 61.47203 58.16706 93.50637
#
# Poissons Ratio (x) = 0.07993 0.55355
# Poissons Ratio (y) = 0.08447 0.39654
# Poissons Ratio (z) = 0.36391 0.24668
#
# Static dielectric constant tensor:
#      x y z
#    x 3.663160 0.000000 0.009370 
#    y 0.000000 3.546650 0.000000 
#    z 0.009370 0.000000 3.861280 
# 
# 
# High freq. dielectric constant tensor:
#      x y z
#    x 1.796150 0.000000 0.000820 
#    y 0.000000 1.785960 0.000000 
#    z 0.000820 0.000000 1.784430 
# 
# From -- ./inp_files/339135.got.cif
#   From: 2010.06.25/outbox.cif.g09.slc.cpg/sg12_170_cif.got.tgz:339135.got - 2010.06.28 00:19:55.
