data_PCOD8100705
_publ_section_title
;
Structure prediction by ZEFSAII (Michael W. Deem and Ramdas Pophale) SiO2 
 PCOD8100705
Probable space group: C 2/M
;
_chemical_formula_sum "Si O2"
_cell_formula_units_Z 40
_cell_length_a 32.796193
_cell_length_b 13.707462
_cell_length_c 9.562889
_cell_angle_alpha 90.000000
_cell_angle_beta 26.152389
_cell_angle_gamma 90.000000
_cell_volume 1894.837096
_symmetry_space_group_name_H-M "C 2/M"
_symmetry_group_IT_number 12
_symmetry_cell_setting 'monoclinic'
loop_
_space_group_symop_operation_xyz
x,y,z
-x,y,-z
-x,-y,-z
x,-y,z
1/2+x,1/2+y,z
1/2-x,1/2+y,-z
1/2-x,1/2-y,-z
1/2+x,1/2-y,z
loop_
_atom_site_type_symbol
_atom_site_label
_atom_site_fract_x
_atom_site_fract_y
_atom_site_fract_z
Si Si1 0.913941 0.111369 0.164672
Si Si2 0.257788 0.750810 0.750671
Si Si3 0.330729 0.890044 0.752668
Si Si4 0.471369 0.102400 0.748633
Si Si5 0.082379 0.196225 0.133160
O O1 0.830892 0.187920 0.438198
O O2 0.883687 0.000000 0.290759
O O3 0.939959 0.117895 0.919556
O O4 0.000000 0.139739 0.000000
O O5 0.308512 0.835723 0.678088
O O6 0.206836 0.671750 0.002637
O O7 0.183404 0.812966 0.890220
O O8 0.440402 0.894459 0.423203
O O9 0.288447 0.000000 0.884523
O O10 0.500000 0.103184 0.500000
O O11 0.411348 0.197642 0.962297
O O12 0.417172 0.000000 0.946053
O O13 0.000000 0.187248 0.500000
#
# Coordination Sequence:
#
# PCOD8100705 Si02
#       5
#     8   8   8   8   8
#     4  11  26  44  63  89 127 172 211 251 307 375
#     4  11  22  39  63  90 125 168 204 259 310 367
#     4  10  20  35  61  93 123 159 206 254 309 369
#     4   9  16  31  56  87 115 147 196 250 303 359
#     4  11  22  41  65  94 124 161 208 262 312 364
#
# _framework density 21.109995000000001
#
# number of rings (size 3 to 8) (size 9 to 14) (size 15 to 20)
#    0.000    1.600    4.000    2.400    2.800    2.000 
#    0.000    1.000    0.000    3.600    0.000    0.000 
#    0.000    0.000    0.000    0.000    0.000    0.000 
#
# Total GULP energy -247822.579139 kJ/mol
# GULP energy per Si atom -12391.128957 kJ/mol
# Density = 2.106195 g / cm^3
# Si number density = 21.109995 Si / 1000 Ang^3
#
#
#
# Elastic Constant Matrix: (Units=GPa)
#
#
# Indices 1 2 3 4 5 6 
#
# 1 146.5480 41.8754 42.5610 0.0000 -13.2221 0.0000
# 2 41.8754 72.5931 -3.4884 0.0000 0.5053 0.0000
# 3 42.5610 -3.4884 56.9447 0.0000 -5.4392 0.0000
# 4 0.0000 0.0000 0.0000 22.9866 0.0000 -4.6402
# 5 -13.2221 0.5053 -5.4392 0.0000 26.4987 0.0000
# 6 0.0000 0.0000 0.0000 -4.6402 0.0000 40.6156
#
#
#
# Elastic Compliance Matrix: (Units=1/GPa)
#
#
# Indices 1 2 3 4 5 6 
#
# 1 0.011891 -0.007318 -0.008931 0.000000 0.004240 0.000000
# 2 -0.007318 0.018320 0.006334 0.000000 -0.002701 0.000000
# 3 -0.008931 0.006334 0.024670 0.000000 0.000487 0.000000
# 4 0.000000 0.000000 0.000000 0.044531 0.000000 0.005087
# 5 0.004240 -0.002701 0.000487 0.000000 0.040005 0.000000
# 6 0.000000 0.000000 0.000000 0.005087 0.000000 0.025202
#
#
# Mechanical properties :
#
#
# Convention : Reuss Voigt Hill
#
# Bulk Modulus (GPa) = 28.52944 48.66466 38.59705
# Shear Modulus (GPa) = 25.49292 31.02935 28.26114
#
# Velocity S-wave (km/s) = 3.47886 3.83807 3.66287
# Velocity P-wave (km/s) = 5.44799 6.53789 6.01767
#
# Compressibility (1/GPa) = 0.03505151
#
# Stress axis : x y z
#
# Youngs Moduli (GPa) = 84.09685 54.58513 40.53439
#
# Poissons Ratio (x) = 0.39946 0.36201
# Poissons Ratio (y) = 0.61542 -0.25674
# Poissons Ratio (z) = 0.75105 -0.34574
#
# Static dielectric constant tensor:
#      x y z
#    x 3.919740 0.000000 -0.139120 
#    y 0.000000 4.414920 0.000000 
#    z -0.139120 0.000000 3.459510 
# 
# 
# High freq. dielectric constant tensor:
#      x y z
#    x 1.839490 0.000000 -0.012560 
#    y 0.000000 1.839010 0.000000 
#    z -0.012560 0.000000 1.791050 
# 
# From -- ./inp_files/72827.got.cif
#   From: 2010.06.25/outbox.cif.g09.slc.cpg/sg12_37_cif.got.tgz:72827.got - 2010.06.28 00:19:55.
