data_PCOD8100079
_publ_section_title
;
Structure prediction by ZEFSAII (Michael W. Deem and Ramdas Pophale) SiO2 
 PCOD8100079
Probable space group: C 2/M
;
_chemical_formula_sum "Si O2"
_cell_formula_units_Z 64
_cell_length_a 17.101152
_cell_length_b 24.774324
_cell_length_c 14.642093
_cell_angle_alpha 90.000000
_cell_angle_beta 30.439135
_cell_angle_gamma 90.000000
_cell_volume 3142.787728
_symmetry_space_group_name_H-M "C 2/M"
_symmetry_group_IT_number 12
_symmetry_cell_setting 'monoclinic'
loop_
_space_group_symop_operation_xyz
x,y,z
-x,y,-z
-x,-y,-z
x,-y,z
1/2+x,1/2+y,z
1/2-x,1/2+y,-z
1/2-x,1/2-y,-z
1/2+x,1/2-y,z
loop_
_atom_site_type_symbol
_atom_site_label
_atom_site_fract_x
_atom_site_fract_y
_atom_site_fract_z
Si Si1 0.682278 0.351218 0.732925
Si Si2 0.844388 0.146600 0.033461
Si Si3 0.660078 0.058665 0.891261
Si Si4 0.184625 0.329627 0.805555
Si Si5 0.619377 0.757533 0.296567
Si Si6 0.686317 0.059788 0.075729
Si Si7 0.082395 0.560735 0.510833
Si Si8 0.185947 0.756952 0.465936
O O1 0.659905 0.373458 0.857969
O O2 0.784467 0.399034 0.587198
O O3 0.769689 0.293681 0.645159
O O4 0.524748 0.339344 0.835622
O O5 0.720274 0.194587 0.151462
O O6 0.808405 0.101560 0.994314
O O7 0.749043 0.109462 0.756845
O O8 0.745256 0.000000 0.794627
O O9 0.500000 0.054077 0.000000
O O10 0.638328 0.073060 0.020086
O O11 0.263362 0.290663 0.800128
O O12 0.238818 0.311213 0.650841
O O13 0.000000 0.326400 0.000000
O O14 0.500000 0.771348 0.500000
O O15 0.499915 0.738332 0.338174
O O16 0.534198 0.062076 0.288769
O O17 0.760680 0.000000 0.006410
O O18 0.147330 0.500000 0.429810
O O19 0.000000 0.581251 0.500000
O O20 0.250000 0.750000 0.500000
#
# Coordination Sequence:
#
# PCOD8100079 Si02
#       8
#     8   8   8   8   8   8   8   8
#     4  11  22  35  56  83 124 160 198 249 302 362
#     4  11  21  35  58  84 119 161 201 247 304 363
#     4   9  20  39  62  89 119 153 198 254 303 350
#     4  10  20  37  62  87 119 154 198 249 299 362
#     4  10  20  36  58  80 116 157 191 243 301 360
#     4  10  21  36  58  88 119 157 208 253 302 368
#     4  10  20  35  57  86 120 161 206 247 299 366
#     4  11  24  39  59  88 120 158 204 252 303 363
#
# _framework density 20.364084999999999
#
# number of rings (size 3 to 8) (size 9 to 14) (size 15 to 20)
#    0.000    1.750    3.750    1.500    0.000    5.500 
#    0.000    3.125    0.000    3.375    0.000    5.250 
#    0.000    0.000    0.000    0.000    0.000    0.000 
#
# Total GULP energy -396432.992573 kJ/mol
# GULP energy per Si atom -12388.531018 kJ/mol
# Density = 2.031774 g / cm^3
# Si number density = 20.364085 Si / 1000 Ang^3
#
#
#
# Elastic Constant Matrix: (Units=GPa)
#
#
# Indices 1 2 3 4 5 6 
#
# 1 137.5059 55.3286 41.3331 -0.0587 -4.6164 0.0192
# 2 55.3286 157.6573 55.3982 -0.1395 -5.2201 0.0227
# 3 41.3331 55.3982 68.5079 -0.1351 -22.0478 0.0125
# 4 -0.0587 -0.1395 -0.1351 21.2149 0.0136 -1.2156
# 5 -4.6164 -5.2201 -22.0478 0.0136 38.3492 -0.0023
# 6 0.0192 0.0227 0.0125 -1.2156 -0.0023 29.3747
#
#
#
# Elastic Compliance Matrix: (Units=1/GPa)
#
#
# Indices 1 2 3 4 5 6 
#
# 1 0.009345 -0.001595 -0.004976 -0.000015 -0.001953 -0.000004
# 2 -0.001595 0.009551 -0.007858 0.000010 -0.003410 -0.000003
# 3 -0.004976 -0.007858 0.028733 0.000108 0.014851 0.000003
# 4 -0.000015 0.000010 0.000108 0.047249 0.000045 0.001955
# 5 -0.001953 -0.003410 0.014851 0.000045 0.033915 0.000002
# 6 -0.000004 -0.000003 0.000003 0.001955 0.000002 0.034124
#
#
# Mechanical properties :
#
#
# Convention : Reuss Voigt Hill
#
# Bulk Modulus (GPa) = 53.27953 74.19900 63.73927
# Shear Modulus (GPa) = 25.24819 31.89515 28.57167
#
# Velocity S-wave (km/s) = 3.52495 3.96188 3.74978
# Velocity P-wave (km/s) = 6.54120 7.57918 7.07924
#
# Compressibility (1/GPa) = 0.01876893
#
# Stress axis : x y z
#
# Youngs Moduli (GPa) = 107.01249 104.69948 34.80270
#
# Poissons Ratio (x) = 0.16705 0.17320
# Poissons Ratio (y) = 0.17074 0.27349
# Poissons Ratio (z) = 0.53255 0.82275
#
# Static dielectric constant tensor:
#      x y z
#    x 4.136500 -0.000060 -0.224790 
#    y -0.000060 4.115500 0.000350 
#    z -0.224790 0.000350 3.582280 
# 
# 
# High freq. dielectric constant tensor:
#      x y z
#    x 1.801900 -0.000010 -0.009560 
#    y -0.000010 1.800520 0.000020 
#    z -0.009560 0.000020 1.768130 
# 
# From -- ./inp_files/228127.got.cif
#   From: 2010.06.25/outbox.cif.g09.slc.cpg/sg12_115_cif.got.tgz:228127.got - 2010.06.28 00:19:55.
