data_PCOD8100006
_publ_section_title
;
Structure prediction by ZEFSAII (Michael W. Deem and Ramdas Pophale) SiO2 
 PCOD8100006
Probable space group: C 2/M
;
_chemical_formula_sum "Si O2"
_cell_formula_units_Z 40
_cell_length_a 25.002280
_cell_length_b 8.985106
_cell_length_c 9.085853
_cell_angle_alpha 90.000000
_cell_angle_beta 90.825608
_cell_angle_gamma 90.000000
_cell_volume 2040.908040
_symmetry_space_group_name_H-M "C 2/M"
_symmetry_group_IT_number 12
_symmetry_cell_setting 'monoclinic'
loop_
_space_group_symop_operation_xyz
x,y,z
-x,y,-z
-x,-y,-z
x,-y,z
1/2+x,1/2+y,z
1/2-x,1/2+y,-z
1/2-x,1/2-y,-z
1/2+x,1/2-y,z
loop_
_atom_site_type_symbol
_atom_site_label
_atom_site_fract_x
_atom_site_fract_y
_atom_site_fract_z
Si Si1 0.990569 0.325609 0.830907
Si Si2 0.914392 0.172425 0.331631
Si Si3 0.685275 0.671324 0.872277
Si Si4 0.305988 0.173288 0.828733
Si Si5 0.105269 0.175009 0.334098
O O1 0.982171 0.500000 0.808179
O O2 0.937426 0.242080 0.779473
O O3 0.040698 0.274136 0.737514
O O4 0.000000 0.282832 0.000000
O O5 0.857585 0.206319 0.254928
O O6 0.910330 0.217967 0.501159
O O7 0.930741 0.000000 0.314014
O O8 0.683344 0.500000 0.923343
O O9 0.743339 0.710463 0.808340
O O10 0.672410 0.772100 0.012462
O O11 0.336598 0.258028 0.699672
O O12 0.318340 0.000000 0.816019
O O13 0.107563 0.000000 0.311941
#
# Coordination Sequence:
#
# PCOD8100006 Si02
#       5
#     8   8   8   8   8
#     4  11  24  40  59  84 111 141 182 230 278 329
#     4  10  22  39  58  82 112 147 186 225 272 331
#     4   9  19  37  59  82 112 149 186 227 274 324
#     4  10  20  35  57  85 114 146 187 230 272 322
#     4  11  23  38  57  82 113 148 185 226 274 329
#
# _framework density 19.599118000000001
#
# number of rings (size 3 to 8) (size 9 to 14) (size 15 to 20)
#    0.000    1.800    0.000    3.600    0.000   11.200 
#    0.000    0.000    0.000    0.000    0.000    0.000 
#    0.000    0.000    0.000    0.000    0.000    0.000 
#
# Total GULP energy -248123.997797 kJ/mol
# GULP energy per Si atom -12406.199890 kJ/mol
# Density = 1.955451 g / cm^3
# Si number density = 19.599118 Si / 1000 Ang^3
#
#
#
# Elastic Constant Matrix: (Units=GPa)
#
#
# Indices 1 2 3 4 5 6 
#
# 1 87.3634 32.0336 29.4842 0.0000 -16.0696 0.0000
# 2 32.0336 72.9777 40.2036 0.0000 -16.3355 0.0000
# 3 29.4842 40.2036 78.8670 0.0000 -20.4903 0.0000
# 4 0.0000 0.0000 0.0000 31.8776 0.0000 -7.3788
# 5 -16.0696 -16.3355 -20.4903 0.0000 36.2912 0.0000
# 6 0.0000 0.0000 0.0000 -7.3788 0.0000 36.0149
#
#
#
# Elastic Compliance Matrix: (Units=1/GPa)
#
#
# Indices 1 2 3 4 5 6 
#
# 1 0.014401 -0.004319 -0.002380 0.000000 0.003089 0.000000
# 2 -0.004319 0.020765 -0.008249 0.000000 0.002777 0.000000
# 3 -0.002380 -0.008249 0.019378 0.000000 0.006174 0.000000
# 4 0.000000 0.000000 0.000000 0.032932 0.000000 0.006747
# 5 0.003089 0.002777 0.006174 0.000000 0.033659 0.000000
# 6 0.000000 0.000000 0.000000 0.006747 0.000000 0.029149
#
#
# Mechanical properties :
#
#
# Convention : Reuss Voigt Hill
#
# Bulk Modulus (GPa) = 40.56943 49.18344 44.87644
# Shear Modulus (GPa) = 26.53992 30.00252 28.27122
#
# Velocity S-wave (km/s) = 3.68385 3.91680 3.80211
# Velocity P-wave (km/s) = 6.23209 6.75310 6.49782
#
# Compressibility (1/GPa) = 0.02464910
#
# Stress axis : x y z
#
# Youngs Moduli (GPa) = 69.43746 48.15884 51.60378
#
# Poissons Ratio (x) = 0.20800 0.12280
# Poissons Ratio (y) = 0.29991 0.42568
# Poissons Ratio (z) = 0.16523 0.39726
#
# Static dielectric constant tensor:
#      x y z
#    x 3.738590 0.000000 -0.032370 
#    y 0.000000 3.608770 0.000000 
#    z -0.032370 0.000000 3.597580 
# 
# 
# High freq. dielectric constant tensor:
#      x y z
#    x 1.777870 0.000000 -0.004180 
#    y 0.000000 1.768820 0.000000 
#    z -0.004180 0.000000 1.763970 
# 
# From -- ./inp_files/92733.got.cif
#   From: 2010.06.25/outbox.cif.g09.slc.cpg/sg12_47_cif.got.tgz:92733.got - 2010.06.28 00:19:55.
