data_PCOD8100075
_publ_section_title
;
Structure prediction by ZEFSAII (Michael W. Deem and Ramdas Pophale) SiO2 
 PCOD8100075
Probable space group: C 2/M
;
_chemical_formula_sum "Si O2"
_cell_formula_units_Z 56
_cell_length_a 31.624137
_cell_length_b 8.786206
_cell_length_c 11.822798
_cell_angle_alpha 90.000000
_cell_angle_beta 56.737852
_cell_angle_gamma 90.000000
_cell_volume 2746.849447
_symmetry_space_group_name_H-M "C 2/M"
_symmetry_group_IT_number 12
_symmetry_cell_setting 'monoclinic'
loop_
_space_group_symop_operation_xyz
x,y,z
-x,y,-z
-x,-y,-z
x,-y,z
1/2+x,1/2+y,z
1/2-x,1/2+y,-z
1/2-x,1/2-y,-z
1/2+x,1/2-y,z
loop_
_atom_site_type_symbol
_atom_site_label
_atom_site_fract_x
_atom_site_fract_y
_atom_site_fract_z
Si Si1 0.504658 0.180315 0.866842
Si Si2 0.619447 0.680070 0.327647
Si Si3 0.588765 0.180083 0.143891
Si Si4 0.814450 0.674429 0.143586
Si Si5 0.728406 0.821108 0.144703
Si Si6 0.898487 0.681067 0.415513
Si Si7 0.195803 0.674158 0.586815
O O1 0.459087 0.241740 0.855907
O O2 0.557674 0.230915 0.735192
O O3 0.500357 0.000000 0.880375
O O4 0.500000 0.249725 0.000000
O O5 0.623691 0.500000 0.318232
O O6 0.588327 0.737228 0.265073
O O7 0.674504 0.752691 0.251195
O O8 0.590524 0.735368 0.482431
O O9 0.586300 0.000000 0.167082
O O10 0.638887 0.226989 0.001767
O O11 0.799899 0.500000 0.137720
O O12 0.766361 0.781357 0.190584
O O13 0.829005 0.694447 0.253083
O O14 0.722631 0.000000 0.138570
O O15 0.750000 0.750000 0.000000
O O16 0.898488 0.500000 0.433831
O O17 0.844883 0.739332 0.442980
O O18 0.205226 0.500000 0.544292
O O19 0.250000 0.750000 0.500000
#
# Coordination Sequence:
#
# PCOD8100075 Si02
#       7
#     8   8   8   8   8   8   8
#     4   9  18  36  65  96 120 149 197 251 301 357
#     4  12  25  40  58  84 121 161 204 249 298 357
#     4  10  20  36  61  89 117 152 196 247 299 355
#     4  10  20  35  57  86 120 155 196 244 296 353
#     4  12  23  37  58  86 120 158 199 242 295 353
#     4  10  21  39  62  88 121 158 200 249 301 356
#     4  10  21  36  56  84 116 153 194 242 294 351
#
# _framework density 20.386991999999999
#
# number of rings (size 3 to 8) (size 9 to 14) (size 15 to 20)
#    0.000    1.571    1.429    4.286    0.000    7.429 
#    0.000    3.571    0.000    3.429    0.000    0.000 
#    0.000    0.000    0.000    0.000    0.000    0.000 
#
# Total GULP energy -347281.488135 kJ/mol
# GULP energy per Si atom -12402.910291 kJ/mol
# Density = 2.034059 g / cm^3
# Si number density = 20.386992 Si / 1000 Ang^3
#
#
#
# Elastic Constant Matrix: (Units=GPa)
#
#
# Indices 1 2 3 4 5 6 
#
# 1 160.2141 45.3058 67.0391 0.0000 7.5226 0.0000
# 2 45.3058 81.1596 45.5397 0.0000 4.1269 0.0000
# 3 67.0391 45.5397 136.0835 0.0000 13.4083 0.0000
# 4 0.0000 0.0000 0.0000 22.4212 0.0000 0.8838
# 5 7.5226 4.1269 13.4083 0.0000 34.5697 0.0000
# 6 0.0000 0.0000 0.0000 0.8838 0.0000 25.1022
#
#
#
# Elastic Compliance Matrix: (Units=1/GPa)
#
#
# Indices 1 2 3 4 5 6 
#
# 1 0.008388 -0.002912 -0.003132 0.000000 -0.000263 0.000000
# 2 -0.002912 0.016182 -0.004006 0.000000 0.000256 0.000000
# 3 -0.003132 -0.004006 0.010520 0.000000 -0.002920 0.000000
# 4 0.000000 0.000000 0.000000 0.044663 0.000000 -0.001573
# 5 -0.000263 0.000256 -0.002920 0.000000 0.030086 0.000000
# 6 0.000000 0.000000 0.000000 -0.001573 0.000000 0.039893
#
#
# Mechanical properties :
#
#
# Convention : Reuss Voigt Hill
#
# Bulk Modulus (GPa) = 66.71032 77.02516 71.86774
# Shear Modulus (GPa) = 28.59988 31.05681 29.82834
#
# Velocity S-wave (km/s) = 3.74953 3.90726 3.82921
# Velocity P-wave (km/s) = 7.17902 7.63015 7.40802
#
# Compressibility (1/GPa) = 0.01499018
#
# Stress axis : x y z
#
# Youngs Moduli (GPa) = 119.22040 61.79877 95.06095
#
# Poissons Ratio (x) = 0.17994 0.29771
# Poissons Ratio (y) = 0.34713 0.38080
# Poissons Ratio (z) = 0.37338 0.24756
#
# Static dielectric constant tensor:
#      x y z
#    x 3.977360 0.000000 0.009610 
#    y 0.000000 3.626690 0.000000 
#    z 0.009610 0.000000 4.044850 
# 
# 
# High freq. dielectric constant tensor:
#      x y z
#    x 1.805930 0.000000 0.009240 
#    y 0.000000 1.767270 0.000000 
#    z 0.009240 0.000000 1.809600 
# 
# From -- ./inp_files/187219.got.cif
#   From: 2010.06.25/outbox.cif.g09.slc.cpg/sg12_94_cif.got.tgz:187219.got - 2010.06.28 00:19:55.
