data_PCOD8100128
_publ_section_title
;
Structure prediction by ZEFSAII (Michael W. Deem and Ramdas Pophale) SiO2 
 PCOD8100128
Probable space group: C 2/M
;
_chemical_formula_sum "Si O2"
_cell_formula_units_Z 64
_cell_length_a 22.002898
_cell_length_b 13.167266
_cell_length_c 26.678994
_cell_angle_alpha 90.000000
_cell_angle_beta 26.241533
_cell_angle_gamma 90.000000
_cell_volume 3417.595131
_symmetry_space_group_name_H-M "C 2/M"
_symmetry_group_IT_number 12
_symmetry_cell_setting 'monoclinic'
loop_
_space_group_symop_operation_xyz
x,y,z
-x,y,-z
-x,-y,-z
x,-y,z
1/2+x,1/2+y,z
1/2-x,1/2+y,-z
1/2-x,1/2-y,-z
1/2+x,1/2-y,z
loop_
_atom_site_type_symbol
_atom_site_label
_atom_site_fract_x
_atom_site_fract_y
_atom_site_fract_z
Si Si1 0.958520 0.253457 0.656043
Si Si2 0.603428 0.738905 0.134080
Si Si3 0.001056 0.384642 0.941951
Si Si4 0.039362 0.615639 0.687874
Si Si5 0.357362 0.243664 0.243994
Si Si6 0.688461 0.385854 0.160479
Si Si7 0.799067 0.883729 0.561034
Si Si8 0.866117 0.617236 0.632664
O O1 0.845757 0.184793 0.767056
O O2 0.880595 0.321883 0.673466
O O3 0.035355 0.325872 0.638446
O O4 0.066386 0.180883 0.549264
O O5 0.565775 0.840735 0.192741
O O6 0.488173 0.715211 0.178040
O O7 0.606201 0.646391 0.171495
O O8 0.750000 0.750000 0.000000
O O9 0.057296 0.500000 0.896525
O O10 0.098960 0.308923 0.839905
O O11 0.849891 0.378016 0.029808
O O12 0.000000 0.348564 0.000000
O O13 0.994902 0.500000 0.711912
O O14 0.195983 0.624260 0.590425
O O15 0.273423 0.158820 0.335988
O O16 0.264064 0.341090 0.301701
O O17 0.643958 0.500000 0.206985
O O18 0.841282 0.000000 0.539878
O O19 0.839423 0.500000 0.665166
O O20 0.000000 0.631753 0.500000
#
# Coordination Sequence:
#
# PCOD8100128 Si02
#       8
#     8   8   8   8   8   8   8   8
#     4  11  20  38  60  82 118 155 196 244 294 346
#     4  10  20  36  59  88 119 156 192 244 296 348
#     4  10  20  35  58  86 118 157 195 234 290 353
#     4   9  20  35  57  85 115 153 198 240 297 359
#     4  11  21  39  62  84 119 155 199 243 296 346
#     4  10  21  36  58  90 122 153 190 237 295 354
#     4  10  20  35  57  90 119 148 188 242 300 356
#     4  11  24  42  61  83 115 158 204 245 290 348
#
# _framework density 18.726618999999999
#
# number of rings (size 3 to 8) (size 9 to 14) (size 15 to 20)
#    0.000    1.750    2.500    2.250    0.000    1.500 
#    0.000    2.500    0.000    1.125    0.000    0.000 
#    0.000    0.000    0.000    0.000    0.000    0.000 
#
# Total GULP energy -396911.072679 kJ/mol
# GULP energy per Si atom -12403.471021 kJ/mol
# Density = 1.868400 g / cm^3
# Si number density = 18.726619 Si / 1000 Ang^3
#
#
#
# Elastic Constant Matrix: (Units=GPa)
#
#
# Indices 1 2 3 4 5 6 
#
# 1 115.4621 59.8575 40.0245 -0.0002 0.5127 0.0001
# 2 59.8575 137.5717 50.3504 -0.0008 -2.3794 -0.0003
# 3 40.0245 50.3504 90.3455 0.0150 -1.9324 -0.0021
# 4 -0.0002 -0.0008 0.0150 21.9628 -0.0012 -3.0296
# 5 0.5127 -2.3794 -1.9324 -0.0012 26.9785 -0.0004
# 6 0.0001 -0.0003 -0.0021 -3.0296 -0.0004 29.9072
#
#
#
# Elastic Compliance Matrix: (Units=1/GPa)
#
#
# Indices 1 2 3 4 5 6 
#
# 1 0.011802 -0.004056 -0.002985 0.000002 -0.000796 0.000000
# 2 -0.004056 0.010531 -0.004057 0.000003 0.000715 0.000000
# 3 -0.002985 -0.004057 0.014668 -0.000010 0.000750 0.000000
# 4 0.000002 0.000003 -0.000010 0.046177 0.000002 0.004678
# 5 -0.000796 0.000715 0.000750 0.000002 0.037198 0.000001
# 6 0.000000 0.000000 0.000000 0.004678 0.000001 0.033911
#
#
# Mechanical properties :
#
#
# Convention : Reuss Voigt Hill
#
# Bulk Modulus (GPa) = 67.54480 71.53822 69.54151
# Shear Modulus (GPa) = 27.56076 28.64616 28.10346
#
# Velocity S-wave (km/s) = 3.84049 3.91538 3.87812
# Velocity P-wave (km/s) = 7.47081 7.66320 7.56762
#
# Compressibility (1/GPa) = 0.01480499
#
# Stress axis : x y z
#
# Youngs Moduli (GPa) = 84.73176 94.95819 68.17661
#
# Poissons Ratio (x) = 0.38519 0.20349
# Poissons Ratio (y) = 0.34370 0.27657
# Poissons Ratio (z) = 0.25291 0.38521
#
# Static dielectric constant tensor:
#      x y z
#    x 3.500510 0.000000 -0.007030 
#    y 0.000000 3.470860 0.000010 
#    z -0.007030 0.000010 3.400610 
# 
# 
# High freq. dielectric constant tensor:
#      x y z
#    x 1.735620 0.000000 0.003470 
#    y 0.000000 1.726900 0.000000 
#    z 0.003470 0.000000 1.726500 
# 
# From -- ./inp_files/366015.got.cif
#   From: 2010.06.25/outbox.cif.g09.slc.cpg/sg12_184_cif.got.tgz:366015.got - 2010.06.28 00:19:55.
