data_PCOD8100273
_publ_section_title
;
Structure prediction by ZEFSAII (Michael W. Deem and Ramdas Pophale) SiO2 
 PCOD8100273
Probable space group: C 2/M
;
_chemical_formula_sum "Si O2"
_cell_formula_units_Z 64
_cell_length_a 19.749215
_cell_length_b 13.581276
_cell_length_c 11.932214
_cell_angle_alpha 90.000000
_cell_angle_beta 92.557393
_cell_angle_gamma 90.000000
_cell_volume 3197.265382
_symmetry_space_group_name_H-M "C 2/M"
_symmetry_group_IT_number 12
_symmetry_cell_setting 'monoclinic'
loop_
_space_group_symop_operation_xyz
x,y,z
-x,y,-z
-x,-y,-z
x,-y,z
1/2+x,1/2+y,z
1/2-x,1/2+y,-z
1/2-x,1/2-y,-z
1/2+x,1/2-y,z
loop_
_atom_site_type_symbol
_atom_site_label
_atom_site_fract_x
_atom_site_fract_y
_atom_site_fract_z
Si Si1 0.574664 0.109871 0.052260
Si Si2 0.867290 0.247958 0.119411
Si Si3 0.028833 0.111905 0.768659
Si Si4 0.300956 0.305646 0.585047
Si Si5 0.815945 0.111389 0.948535
Si Si6 0.206999 0.392212 0.754654
Si Si7 0.398967 0.729354 0.779403
Si Si8 0.072008 0.890502 0.532407
O O1 0.574729 0.166883 0.171028
O O2 0.603263 0.000000 0.074824
O O3 0.500000 0.104812 0.000000
O O4 0.621741 0.162908 0.965558
O O5 0.934955 0.181502 0.136994
O O6 0.845352 0.300326 0.236318
O O7 0.809808 0.174417 0.063823
O O8 0.079607 0.108037 0.666976
O O9 0.958355 0.164220 0.726761
O O10 0.016444 0.000000 0.812290
O O11 0.250000 0.250000 0.500000
O O12 0.255687 0.384526 0.649876
O O13 0.340307 0.243729 0.684451
O O14 0.359369 0.347176 0.511014
O O15 0.746768 0.113411 0.874906
O O16 0.874727 0.161199 0.879602
O O17 0.837030 0.000000 0.979987
O O18 0.171446 0.500000 0.742381
O O19 0.000000 0.835512 0.500000
O O20 0.066254 0.000000 0.480344
#
# Coordination Sequence:
#
# PCOD8100273 Si02
#       8
#     8   8   8   8   8   8   8   8
#     4  10  20  36  56  80 113 157 202 243 288 344
#     4  11  20  34  54  84 118 153 193 240 289 351
#     4  11  21  33  55  88 120 148 185 237 301 361
#     4  11  22  39  61  86 118 154 195 249 304 355
#     4   9  19  33  54  82 116 152 186 232 289 348
#     4  10  21  37  57  80 111 157 203 238 282 350
#     4  10  20  36  56  85 117 152 193 238 294 355
#     4  10  20  35  58  86 115 150 192 243 299 358
#
# _framework density 20.017105999999998
#
# number of rings (size 3 to 8) (size 9 to 14) (size 15 to 20)
#    0.000    1.750    2.500    2.625    0.000    1.000 
#    0.000    3.125    0.000    4.500    0.000    1.750 
#    0.000    0.000    0.000    0.000    0.000    0.000 
#
# Total GULP energy -396495.906322 kJ/mol
# GULP energy per Si atom -12390.497073 kJ/mol
# Density = 1.997155 g / cm^3
# Si number density = 20.017106 Si / 1000 Ang^3
#
#
#
# Elastic Constant Matrix: (Units=GPa)
#
#
# Indices 1 2 3 4 5 6 
#
# 1 85.4353 49.8858 28.9703 0.0000 -0.1589 0.0000
# 2 49.8858 149.2706 48.7520 0.0000 5.6078 0.0000
# 3 28.9703 48.7520 74.4781 0.0000 1.1462 0.0000
# 4 0.0000 0.0000 0.0000 21.2022 0.0000 -0.7103
# 5 -0.1589 5.6078 1.1462 0.0000 36.6561 0.0000
# 6 0.0000 0.0000 0.0000 -0.7103 0.0000 28.9442
#
#
#
# Elastic Compliance Matrix: (Units=1/GPa)
#
#
# Indices 1 2 3 4 5 6 
#
# 1 0.015170 -0.004029 -0.003275 0.000000 0.000785 0.000000
# 2 -0.004029 0.009638 -0.004721 0.000000 -0.001344 0.000000
# 3 -0.003275 -0.004721 0.017789 0.000000 0.000152 0.000000
# 4 0.000000 0.000000 0.000000 0.047204 0.000000 0.001158
# 5 0.000785 -0.001344 0.000152 0.000000 0.027485 0.000000
# 6 0.000000 0.000000 0.000000 0.001158 0.000000 0.034578
#
#
# Mechanical properties :
#
#
# Convention : Reuss Voigt Hill
#
# Bulk Modulus (GPa) = 53.92167 62.71115 58.31641
# Shear Modulus (GPa) = 27.45813 29.46558 28.46185
#
# Velocity S-wave (km/s) = 3.70771 3.84085 3.77487
# Velocity P-wave (km/s) = 6.73244 7.14607 6.94234
#
# Compressibility (1/GPa) = 0.01854542
#
# Stress axis : x y z
#
# Youngs Moduli (GPa) = 65.92143 103.75331 56.21575
#
# Poissons Ratio (x) = 0.41807 0.18411
# Poissons Ratio (y) = 0.26563 0.26539
# Poissons Ratio (z) = 0.21590 0.48981
#
# Static dielectric constant tensor:
#      x y z
#    x 3.612740 0.000000 -0.013080 
#    y 0.000000 3.843080 0.000000 
#    z -0.013080 0.000000 3.623410 
# 
# 
# High freq. dielectric constant tensor:
#      x y z
#    x 1.774870 0.000000 -0.005670 
#    y 0.000000 1.772460 0.000000 
#    z -0.005670 0.000000 1.773200 
# 
# From -- ./inp_files/156643.got.cif
#   From: 2010.06.25/outbox.cif.g09.slc.cpg/sg12_79_cif.got.tgz:156643.got - 2010.06.28 00:19:55.
