data_PCOD8100953
_publ_section_title
;
Structure prediction by ZEFSAII (Michael W. Deem and Ramdas Pophale) SiO2 
 PCOD8100953
Probable space group: C 2/M
;
_chemical_formula_sum "Si O2"
_cell_formula_units_Z 56
_cell_length_a 18.661299
_cell_length_b 9.143421
_cell_length_c 27.086616
_cell_angle_alpha 90.000000
_cell_angle_beta 140.769131
_cell_angle_gamma 90.000000
_cell_volume 2923.003173
_symmetry_space_group_name_H-M "C 2/M"
_symmetry_group_IT_number 12
_symmetry_cell_setting 'monoclinic'
loop_
_space_group_symop_operation_xyz
x,y,z
-x,y,-z
-x,-y,-z
x,-y,z
1/2+x,1/2+y,z
1/2-x,1/2+y,-z
1/2-x,1/2-y,-z
1/2+x,1/2-y,z
loop_
_atom_site_type_symbol
_atom_site_label
_atom_site_fract_x
_atom_site_fract_y
_atom_site_fract_z
Si Si1 0.595823 0.672687 0.158714
Si Si2 0.610834 0.665294 0.537866
Si Si3 0.338095 0.827620 0.708385
Si Si4 0.134195 0.834890 0.437440
Si Si5 0.729354 0.326856 0.134123
Si Si6 0.664132 0.672844 0.991383
Si Si7 0.013050 0.671871 0.719267
O O1 0.613129 0.500000 0.172110
O O2 0.659669 0.747767 0.238116
O O3 0.651675 0.732235 0.137588
O O4 0.463956 0.715280 0.090711
O O5 0.500000 0.748591 0.500000
O O6 0.613448 0.500000 0.559543
O O7 0.729736 0.734433 0.619719
O O8 0.590043 0.667735 0.469037
O O9 0.449791 0.787999 0.736447
O O10 0.331891 0.000000 0.714298
O O11 0.250000 0.750000 0.500000
O O12 0.041682 0.756052 0.355153
O O13 0.153464 0.000000 0.428696
O O14 0.723055 0.500000 0.130369
O O15 0.683958 0.267976 0.057515
O O16 0.858228 0.273486 0.208809
O O17 0.685294 0.500000 0.999420
O O18 0.750000 0.750000 0.000000
O O19 0.002972 0.500000 0.703054
#
# Coordination Sequence:
#
# PCOD8100953 Si02
#       7
#     8   8   8   8   8   8   8
#     4  10  21  36  56  84 113 141 181 228 269 319
#     4   9  19  35  54  76 106 144 184 222 267 328
#     4  10  20  36  56  78 109 148 184 220 272 330
#     4  11  21  36  58  81 107 142 185 230 275 323
#     4   9  19  36  58  81 111 148 181 219 273 329
#     4  10  20  37  61  84 110 146 184 221 267 323
#     4  10  20  36  56  79 108 143 185 226 269 326
#
# _framework density 19.158377000000002
#
# number of rings (size 3 to 8) (size 9 to 14) (size 15 to 20)
#    0.000    2.143    1.429    1.714    2.000    4.000 
#    0.000    1.429    0.000    3.857    0.000    0.000 
#    0.000    0.000    0.000    0.000    0.000    0.000 
#
# Total GULP energy -347154.359762 kJ/mol
# GULP energy per Si atom -12398.369991 kJ/mol
# Density = 1.911477 g / cm^3
# Si number density = 19.158377 Si / 1000 Ang^3
#
#
#
# Elastic Constant Matrix: (Units=GPa)
#
#
# Indices 1 2 3 4 5 6 
#
# 1 142.4741 28.6964 52.0275 0.0000 2.4993 0.0000
# 2 28.6964 35.5240 31.2699 0.0000 -1.0939 0.0000
# 3 52.0275 31.2699 115.1340 0.0000 -11.5350 0.0000
# 4 0.0000 0.0000 0.0000 27.8866 0.0000 -7.0984
# 5 2.4993 -1.0939 -11.5350 0.0000 38.7122 0.0000
# 6 0.0000 0.0000 0.0000 -7.0984 0.0000 23.5558
#
#
#
# Elastic Compliance Matrix: (Units=1/GPa)
#
#
# Indices 1 2 3 4 5 6 
#
# 1 0.009095 -0.004780 -0.002973 0.000000 -0.001608 0.000000
# 2 -0.004780 0.039658 -0.008728 0.000000 -0.001172 0.000000
# 3 -0.002973 -0.008728 0.012776 0.000000 0.003752 0.000000
# 4 0.000000 0.000000 0.000000 0.038839 0.000000 0.011704
# 5 -0.001608 -0.001172 0.003752 0.000000 0.027020 0.000000
# 6 0.000000 0.000000 0.000000 0.011704 0.000000 0.045979
#
#
# Mechanical properties :
#
#
# Convention : Reuss Voigt Hill
#
# Bulk Modulus (GPa) = 35.00590 57.45774 46.23182
# Shear Modulus (GPa) = 23.16399 30.10681 26.63540
#
# Velocity S-wave (km/s) = 3.48095 3.96848 3.73268
# Velocity P-wave (km/s) = 5.87091 7.14524 6.53919
#
# Compressibility (1/GPa) = 0.02856661
#
# Stress axis : x y z
#
# Youngs Moduli (GPa) = 109.94536 25.21538 78.27460
#
# Poissons Ratio (x) = 0.12053 0.23271
# Poissons Ratio (y) = 0.52552 0.68322
# Poissons Ratio (z) = 0.32687 0.22009
#
# Static dielectric constant tensor:
#      x y z
#    x 3.967940 0.000000 0.147450 
#    y 0.000000 3.215980 0.000000 
#    z 0.147450 0.000000 3.432380 
# 
# 
# High freq. dielectric constant tensor:
#      x y z
#    x 1.759510 0.000000 0.001780 
#    y 0.000000 1.707210 0.000000 
#    z 0.001780 0.000000 1.759960 
# 
# From -- ./inp_files/363164.got.cif
#   From: 2010.06.25/outbox.cif.g09.slc.cpg/sg12_182_cif.got.tgz:363164.got - 2010.06.28 00:19:55.
