data_PCOD8100622
_publ_section_title
;
Structure prediction by ZEFSAII (Michael W. Deem and Ramdas Pophale) SiO2 
 PCOD8100622
Probable space group: C 2/M
;
_chemical_formula_sum "Si O2"
_cell_formula_units_Z 64
_cell_length_a 31.877967
_cell_length_b 13.387889
_cell_length_c 9.503352
_cell_angle_alpha 90.000000
_cell_angle_beta 54.569572
_cell_angle_gamma 90.000000
_cell_volume 3304.769991
_symmetry_space_group_name_H-M "C 2/M"
_symmetry_group_IT_number 12
_symmetry_cell_setting 'monoclinic'
loop_
_space_group_symop_operation_xyz
x,y,z
-x,y,-z
-x,-y,-z
x,-y,z
1/2+x,1/2+y,z
1/2-x,1/2+y,-z
1/2-x,1/2-y,-z
1/2+x,1/2-y,z
loop_
_atom_site_type_symbol
_atom_site_label
_atom_site_fract_x
_atom_site_fract_y
_atom_site_fract_z
Si Si1 0.900644 0.746778 0.412329
Si Si2 0.596126 0.221956 0.042458
Si Si3 0.272097 0.613372 0.368131
Si Si4 0.495907 0.117002 0.173305
Si Si5 0.160692 0.238903 0.190501
Si Si6 0.751251 0.384204 0.905503
Si Si7 0.439220 0.614093 0.103622
Si Si8 0.172407 0.693724 0.670940
O O1 0.875219 0.782880 0.606129
O O2 0.914633 0.844617 0.295312
O O3 0.859507 0.678241 0.409555
O O4 0.950253 0.676879 0.338444
O O5 0.547752 0.148319 0.153562
O O6 0.620192 0.249363 0.144139
O O7 0.579555 0.323158 0.994663
O O8 0.638542 0.160554 0.869885
O O9 0.292402 0.500000 0.335451
O O10 0.256097 0.646149 0.242646
O O11 0.223182 0.626219 0.566451
O O12 0.316191 0.687255 0.335615
O O13 0.485890 0.000000 0.211163
O O14 0.500000 0.146997 0.000000
O O15 0.196459 0.336159 0.137165
O O16 0.200036 0.147492 0.089970
O O17 0.759003 0.500000 0.910920
O O18 0.421698 0.500000 0.115661
O O19 0.500000 0.623163 0.000000
#
# Coordination Sequence:
#
# PCOD8100622 Si02
#       8
#     8   8   8   8   8   8   8   8
#     4  11  21  40  59  89 122 155 201 240 302 348
#     4  11  21  40  59  89 124 158 199 238 304 354
#     4  10  20  36  60  89 117 151 201 252 294 351
#     4  11  22  39  64  92 121 154 201 250 293 352
#     4  11  24  39  63  87 125 163 193 250 293 359
#     4  10  22  41  60  85 120 163 202 240 303 359
#     4  10  20  39  64  86 116 154 199 250 295 348
#     4  10  20  35  60  89 115 150 199 247 293 349
#
# _framework density 19.365946999999998
#
# number of rings (size 3 to 8) (size 9 to 14) (size 15 to 20)
#    0.000    1.500    6.250    0.000    0.000    5.500 
#    0.000    1.875    0.000    1.500    0.000    0.000 
#    0.000    0.000    0.000    0.000    0.000    0.000 
#
# Total GULP energy -396818.872828 kJ/mol
# GULP energy per Si atom -12400.589776 kJ/mol
# Density = 1.932187 g / cm^3
# Si number density = 19.365947 Si / 1000 Ang^3
#
#
#
# Elastic Constant Matrix: (Units=GPa)
#
#
# Indices 1 2 3 4 5 6 
#
# 1 97.3931 17.6423 38.9181 0.0000 -3.3479 0.0000
# 2 17.6423 69.5201 23.3271 0.0000 -4.0165 0.0000
# 3 38.9181 23.3271 107.0646 0.0000 -0.6172 0.0000
# 4 0.0000 0.0000 0.0000 16.1724 0.0000 0.3772
# 5 -3.3479 -4.0165 -0.6172 0.0000 33.3244 0.0000
# 6 0.0000 0.0000 0.0000 0.3772 0.0000 12.8390
#
#
#
# Elastic Compliance Matrix: (Units=1/GPa)
#
#
# Indices 1 2 3 4 5 6 
#
# 1 0.012233 -0.001682 -0.004075 0.000000 0.000951 0.000000
# 2 -0.001682 0.015860 -0.002834 0.000000 0.001690 0.000000
# 3 -0.004075 -0.002834 0.011436 0.000000 -0.000539 0.000000
# 4 0.000000 0.000000 0.000000 0.061876 0.000000 -0.001818
# 5 0.000951 0.001690 -0.000539 0.000000 0.030297 0.000000
# 6 0.000000 0.000000 0.000000 -0.001818 0.000000 0.077941
#
#
# Mechanical properties :
#
#
# Convention : Reuss Voigt Hill
#
# Bulk Modulus (GPa) = 44.75017 48.19477 46.47247
# Shear Modulus (GPa) = 21.34241 25.40650 23.37445
#
# Velocity S-wave (km/s) = 3.32333 3.62597 3.47794
# Velocity P-wave (km/s) = 6.15498 6.51694 6.33855
#
# Compressibility (1/GPa) = 0.02234628
#
# Stress axis : x y z
#
# Youngs Moduli (GPa) = 81.74348 63.05199 87.44477
#
# Poissons Ratio (x) = 0.10607 0.35632
# Poissons Ratio (y) = 0.13752 0.24784
# Poissons Ratio (z) = 0.33309 0.17871
#
# Static dielectric constant tensor:
#      x y z
#    x 3.604160 0.000000 -0.152410 
#    y 0.000000 3.378650 0.000000 
#    z -0.152410 0.000000 3.569360 
# 
# 
# High freq. dielectric constant tensor:
#      x y z
#    x 1.763300 0.000000 -0.019470 
#    y 0.000000 1.740750 0.000000 
#    z -0.019470 0.000000 1.750250 
# 
# From -- ./inp_files/111639.got.cif
#   From: 2010.06.25/outbox.cif.g09.slc.cpg/sg12_56_cif.got.tgz:111639.got - 2010.06.28 00:19:55.
