data_PCOD8100269
_publ_section_title
;
Structure prediction by ZEFSAII (Michael W. Deem and Ramdas Pophale) SiO2 
 PCOD8100269
Probable space group: C 2/M
;
_chemical_formula_sum "Si O2"
_cell_formula_units_Z 64
_cell_length_a 18.759198
_cell_length_b 8.935812
_cell_length_c 31.640162
_cell_angle_alpha 90.000000
_cell_angle_beta 39.575845
_cell_angle_gamma 90.000000
_cell_volume 3379.045022
_symmetry_space_group_name_H-M "C 2/M"
_symmetry_group_IT_number 12
_symmetry_cell_setting 'monoclinic'
loop_
_space_group_symop_operation_xyz
x,y,z
-x,y,-z
-x,-y,-z
x,-y,z
1/2+x,1/2+y,z
1/2-x,1/2+y,-z
1/2-x,1/2-y,-z
1/2+x,1/2-y,z
loop_
_atom_site_type_symbol
_atom_site_label
_atom_site_fract_x
_atom_site_fract_y
_atom_site_fract_z
Si Si1 0.840375 0.332025 0.343020
Si Si2 0.730995 0.826336 0.716077
Si Si3 0.338713 0.676232 0.428868
Si Si4 0.574164 0.825492 0.325658
Si Si5 0.310142 0.675491 0.899513
Si Si6 0.558367 0.823420 0.015488
Si Si7 0.901970 0.668648 0.780234
Si Si8 0.004201 0.323881 0.863895
O O1 0.821807 0.500000 0.369193
O O2 0.767412 0.302068 0.334939
O O3 0.807565 0.217114 0.394782
O O4 0.967345 0.313414 0.270094
O O5 0.834118 0.727021 0.683348
O O6 0.616995 0.765656 0.789783
O O7 0.748622 0.000000 0.720025
O O8 0.335529 0.500000 0.435991
O O9 0.250000 0.750000 0.500000
O O10 0.460755 0.735528 0.385429
O O11 0.623134 0.791928 0.256850
O O12 0.547037 0.000000 0.343613
O O13 0.319653 0.500000 0.902444
O O14 0.337413 0.713371 0.838474
O O15 0.394518 0.753434 0.893173
O O16 0.184584 0.736311 0.964462
O O17 0.489236 0.780475 0.089370
O O18 0.564006 0.000000 0.006732
O O19 0.500000 0.753066 0.000000
O O20 0.863124 0.500000 0.808986
O O21 0.991987 0.500000 0.863026
#
# Coordination Sequence:
#
# PCOD8100269 Si02
#       8
#     8   8   8   8   8   8   8   8
#     4   9  18  36  58  84 117 150 189 232 278 334
#     4  10  20  35  58  86 114 150 191 234 289 346
#     4  11  22  39  64  91 119 155 194 229 273 329
#     4  10  22  38  57  84 120 153 187 235 284 331
#     4  11  21  32  54  82 106 138 189 243 284 338
#     4   9  20  36  53  76 106 143 189 240 290 343
#     4   9  18  35  55  77 109 150 185 225 285 342
#     4  10  20  37  58  76 107 152 188 229 291 352
#
# _framework density 18.940263000000002
#
# number of rings (size 3 to 8) (size 9 to 14) (size 15 to 20)
#    0.000    2.125    1.250    3.000    1.750    3.500 
#    0.000    1.250    0.000    5.625    0.000    0.000 
#    0.000    0.000    0.000    0.000    0.000    0.000 
#
# Total GULP energy -396809.306725 kJ/mol
# GULP energy per Si atom -12400.290835 kJ/mol
# Density = 1.889715 g / cm^3
# Si number density = 18.940263 Si / 1000 Ang^3
#
#
#
# Elastic Constant Matrix: (Units=GPa)
#
#
# Indices 1 2 3 4 5 6 
#
# 1 114.3331 45.0779 49.2555 0.0004 -0.7858 0.0055
# 2 45.0779 79.8851 44.8197 0.0015 -0.9834 0.0023
# 3 49.2555 44.8197 106.5281 -0.0002 4.3928 0.0003
# 4 0.0004 0.0015 -0.0002 25.2724 -0.0002 -0.2790
# 5 -0.7858 -0.9834 4.3928 -0.0002 14.2073 0.0018
# 6 0.0055 0.0023 0.0003 -0.2790 0.0018 31.7847
#
#
#
# Elastic Compliance Matrix: (Units=1/GPa)
#
#
# Indices 1 2 3 4 5 6 
#
# 1 0.012250 -0.004820 -0.003698 0.000000 0.001487 -0.000002
# 2 -0.004820 0.018437 -0.005642 -0.000001 0.002754 -0.000001
# 3 -0.003698 -0.005642 0.013669 0.000000 -0.004822 0.000001
# 4 0.000000 -0.000001 0.000000 0.039573 0.000000 0.000347
# 5 0.001487 0.002754 -0.004822 0.000000 0.072150 -0.000004
# 6 -0.000002 -0.000001 0.000001 0.000347 -0.000004 0.031465
#
#
# Mechanical properties :
#
#
# Convention : Reuss Voigt Hill
#
# Bulk Modulus (GPa) = 62.35283 64.33919 63.34601
# Shear Modulus (GPa) = 22.60315 25.02576 23.81445
#
# Velocity S-wave (km/s) = 3.45830 3.63891 3.54975
# Velocity P-wave (km/s) = 6.99562 7.19019 7.09357
#
# Compressibility (1/GPa) = 0.01603776
#
# Stress axis : x y z
#
# Youngs Moduli (GPa) = 81.63478 54.23865 73.15562
#
# Poissons Ratio (x) = 0.26140 0.27049
# Poissons Ratio (y) = 0.39344 0.41276
# Poissons Ratio (z) = 0.30185 0.30603
#
# Static dielectric constant tensor:
#      x y z
#    x 3.945030 0.000010 0.080940 
#    y 0.000010 3.306750 -0.000010 
#    z 0.080940 -0.000010 3.467030 
# 
# 
# High freq. dielectric constant tensor:
#      x y z
#    x 1.742190 0.000000 0.008470 
#    y 0.000000 1.721310 0.000000 
#    z 0.008470 0.000000 1.730360 
# 
# From -- ./inp_files/378061.got.cif
#   From: 2010.06.25/outbox.cif.g09.slc.cpg/sg12_190_cif.got.tgz:378061.got - 2010.06.28 00:19:55.
