data_PCOD8100582
_publ_section_title
;
Structure prediction by ZEFSAII (Michael W. Deem and Ramdas Pophale) SiO2 
 PCOD8100582
Probable space group: C 2/M
;
_chemical_formula_sum "Si O2"
_cell_formula_units_Z 56
_cell_length_a 8.511123
_cell_length_b 17.529948
_cell_length_c 17.913759
_cell_angle_alpha 90.000000
_cell_angle_beta 72.170756
_cell_angle_gamma 90.000000
_cell_volume 2544.362363
_symmetry_space_group_name_H-M "C 2/M"
_symmetry_group_IT_number 12
_symmetry_cell_setting 'monoclinic'
loop_
_space_group_symop_operation_xyz
x,y,z
-x,y,-z
-x,-y,-z
x,-y,z
1/2+x,1/2+y,z
1/2-x,1/2+y,-z
1/2-x,1/2-y,-z
1/2+x,1/2-y,z
loop_
_atom_site_type_symbol
_atom_site_label
_atom_site_fract_x
_atom_site_fract_y
_atom_site_fract_z
Si Si1 0.465633 0.792742 0.688605
Si Si2 0.623158 0.688466 0.547661
Si Si3 0.124220 0.090802 0.919572
Si Si4 0.720980 0.179574 0.775599
Si Si5 0.510300 0.088575 0.086858
Si Si6 0.485945 0.583239 0.222076
Si Si7 0.196502 0.416805 0.378213
O O1 0.533139 0.719156 0.635009
O O2 0.600502 0.829794 0.723126
O O3 0.300524 0.765749 0.759507
O O4 0.438229 0.856098 0.629221
O O5 0.500000 0.665044 0.500000
O O6 0.750000 0.750000 0.500000
O O7 0.719663 0.612144 0.557674
O O8 0.310907 0.116025 0.910352
O O9 0.060724 0.124546 0.849603
O O10 0.118444 0.000000 0.918212
O O11 0.000000 0.123486 0.000000
O O12 0.621138 0.150997 0.863106
O O13 0.881310 0.126882 0.747613
O O14 0.473885 0.000000 0.116952
O O15 0.500000 0.093995 0.000000
O O16 0.560358 0.500000 0.193173
O O17 0.321139 0.575057 0.292278
O O18 0.117084 0.500000 0.405828
#
# Coordination Sequence:
#
# PCOD8100582 Si02
#       7
#     8   8   8   8   8   8   8
#     4  12  24  43  66  99 130 179 227 277 339 419
#     4  12  23  44  74  98 132 179 219 272 342 415
#     4   9  17  32  55  87 133 181 221 270 337 400
#     4  12  22  39  66  92 133 177 234 277 339 404
#     4  10  21  37  62 100 138 177 228 286 344 402
#     4  10  20  35  59  94 133 171 221 281 337 395
#     4  11  24  44  68 102 137 173 224 283 335 404
#
# _framework density 22.009443000000001
#
# number of rings (size 3 to 8) (size 9 to 14) (size 15 to 20)
#    0.000    1.143    4.286    2.143    0.000    4.857 
#    0.000    2.143    0.000    1.714    0.000    0.000 
#    0.000    0.000    0.000    0.000    0.000    0.000 
#
# Total GULP energy -346998.353479 kJ/mol
# GULP energy per Si atom -12392.798339 kJ/mol
# Density = 2.195935 g / cm^3
# Si number density = 22.009443 Si / 1000 Ang^3
#
#
#
# Elastic Constant Matrix: (Units=GPa)
#
#
# Indices 1 2 3 4 5 6 
#
# 1 120.0223 29.8526 27.3875 0.0000 28.3680 0.0000
# 2 29.8526 89.8852 22.3758 0.0000 11.0986 0.0000
# 3 27.3875 22.3758 89.3949 0.0000 12.2097 0.0000
# 4 0.0000 0.0000 0.0000 28.3211 0.0000 6.3015
# 5 28.3680 11.0986 12.2097 0.0000 47.9273 0.0000
# 6 0.0000 0.0000 0.0000 6.3015 0.0000 42.9460
#
#
#
# Elastic Compliance Matrix: (Units=1/GPa)
#
#
# Indices 1 2 3 4 5 6 
#
# 1 0.010605 -0.002395 -0.001935 0.000000 -0.005230 0.000000
# 2 -0.002395 0.012605 -0.002296 0.000000 -0.000917 0.000000
# 3 -0.001935 -0.002296 0.012562 0.000000 -0.001523 0.000000
# 4 0.000000 0.000000 0.000000 0.036501 0.000000 -0.005356
# 5 -0.005230 -0.000917 -0.001523 0.000000 0.024561 0.000000
# 6 0.000000 0.000000 0.000000 -0.005356 0.000000 0.024071
#
#
# Mechanical properties :
#
#
# Convention : Reuss Voigt Hill
#
# Bulk Modulus (GPa) = 44.40535 50.94824 47.67680
# Shear Modulus (GPa) = 35.29470 38.48464 36.88967
#
# Velocity S-wave (km/s) = 4.00886 4.18610 4.09844
# Velocity P-wave (km/s) = 6.45348 6.82373 6.64118
#
# Compressibility (1/GPa) = 0.02251981
#
# Stress axis : x y z
#
# Youngs Moduli (GPa) = 94.29475 79.33083 79.60498
#
# Poissons Ratio (x) = 0.18997 0.15407
# Poissons Ratio (y) = 0.22580 0.18280
# Poissons Ratio (z) = 0.18250 0.18217
#
# Static dielectric constant tensor:
#      x y z
#    x 4.014620 0.000000 -0.038930 
#    y 0.000000 4.330980 0.000000 
#    z -0.038930 0.000000 3.960160 
# 
# 
# High freq. dielectric constant tensor:
#      x y z
#    x 1.877300 0.000000 0.005790 
#    y 0.000000 1.846080 0.000000 
#    z 0.005790 0.000000 1.863900 
# 
# From -- ./inp_files/257020.got.cif
#   From: 2010.06.25/outbox.cif.g09.slc.cpg/sg12_129_cif.got.tgz:257020.got - 2010.06.28 00:19:55.
