data_PCOD8100763
_publ_section_title
;
Structure prediction by ZEFSAII (Michael W. Deem and Ramdas Pophale) SiO2 
 PCOD8100763
Probable space group: C 2/M
;
_chemical_formula_sum "Si O2"
_cell_formula_units_Z 56
_cell_length_a 15.659315
_cell_length_b 27.721040
_cell_length_c 12.087190
_cell_angle_alpha 90.000000
_cell_angle_beta 143.967489
_cell_angle_gamma 90.000000
_cell_volume 3086.492972
_symmetry_space_group_name_H-M "C 2/M"
_symmetry_group_IT_number 12
_symmetry_cell_setting 'monoclinic'
loop_
_space_group_symop_operation_xyz
x,y,z
-x,y,-z
-x,-y,-z
x,-y,z
1/2+x,1/2+y,z
1/2-x,1/2+y,-z
1/2-x,1/2-y,-z
1/2+x,1/2-y,z
loop_
_atom_site_type_symbol
_atom_site_label
_atom_site_fract_x
_atom_site_fract_y
_atom_site_fract_z
Si Si1 0.729110 0.698023 0.033222
Si Si2 0.298746 0.184941 0.710067
Si Si3 0.664336 0.709918 0.206592
Si Si4 0.735822 0.445796 0.791187
Si Si5 0.063697 0.054194 0.395573
Si Si6 0.582068 0.349871 0.312963
Si Si7 0.107516 0.645776 0.972560
O O1 0.568342 0.678300 0.845882
O O2 0.841200 0.660173 0.096541
O O3 0.750000 0.750000 0.000000
O O4 0.761293 0.700156 0.198885
O O5 0.290686 0.242115 0.680016
O O6 0.156178 0.163225 0.506479
O O7 0.297582 0.177110 0.841030
O O8 0.438593 0.158170 0.805106
O O9 0.677954 0.665319 0.306622
O O10 0.500000 0.718712 0.000000
O O11 0.796054 0.500000 0.868715
O O12 0.590552 0.438398 0.708575
O O13 0.694506 0.436109 0.619692
O O14 0.862305 0.410371 0.967703
O O15 0.068836 0.091951 0.299010
O O16 0.077372 0.000000 0.362052
#
# Coordination Sequence:
#
# PCOD8100763 Si02
#       7
#     8   8   8   8   8   8   8
#     4  11  21  36  55  75 102 141 183 214 259 320
#     4  11  21  35  51  78 114 141 170 219 272 311
#     4  10  20  36  50  74 108 141 174 222 259 306
#     4   9  17  31  51  80 110 137 175 222 268 317
#     4   9  17  30  52  82 108 132 175 229 272 315
#     4  11  21  34  57  78 106 143 178 217 274 314
#     4  11  19  34  54  74 110 142 172 215 260 318
#
# _framework density 18.14357
#
# number of rings (size 3 to 8) (size 9 to 14) (size 15 to 20)
#    0.000    1.714    5.714    2.143    0.000    0.571 
#    0.000    4.286    0.000    4.714    0.000    0.000 
#    0.000    2.286    0.000    0.000    0.000    0.000 
#
# Total GULP energy -347097.430935 kJ/mol
# GULP energy per Si atom -12396.336819 kJ/mol
# Density = 1.810227 g / cm^3
# Si number density = 18.143570 Si / 1000 Ang^3
#
#
#
# Elastic Constant Matrix: (Units=GPa)
#
#
# Indices 1 2 3 4 5 6 
#
# 1 88.6684 54.0225 10.7184 0.0000 -9.6455 0.0000
# 2 54.0225 160.1235 30.4811 0.0000 -8.8713 0.0000
# 3 10.7184 30.4811 43.4180 0.0000 3.3557 0.0000
# 4 0.0000 0.0000 0.0000 19.0978 0.0000 -6.3264
# 5 -9.6455 -8.8713 3.3557 0.0000 14.3616 0.0000
# 6 0.0000 0.0000 0.0000 -6.3264 0.0000 28.3899
#
#
#
# Elastic Compliance Matrix: (Units=1/GPa)
#
#
# Indices 1 2 3 4 5 6 
#
# 1 0.014920 -0.004387 -0.001190 0.000000 0.007589 0.000000
# 2 -0.004387 0.008995 -0.005533 0.000000 0.003903 0.000000
# 3 -0.001190 -0.005533 0.028043 0.000000 -0.010770 0.000000
# 4 0.000000 0.000000 0.000000 0.056535 0.000000 0.012598
# 5 0.007589 0.003903 -0.010770 0.000000 0.079654 0.000000
# 6 0.000000 0.000000 0.000000 0.012598 0.000000 0.038031
#
#
# Mechanical properties :
#
#
# Convention : Reuss Voigt Hill
#
# Bulk Modulus (GPa) = 33.62806 53.62823 43.62814
# Shear Modulus (GPa) = 19.35650 25.50240 22.42945
#
# Velocity S-wave (km/s) = 3.26981 3.75319 3.51981
# Velocity P-wave (km/s) = 5.72977 6.95728 6.37315
#
# Compressibility (1/GPa) = 0.02973707
#
# Stress axis : x y z
#
# Youngs Moduli (GPa) = 67.02387 111.17609 35.65986
#
# Poissons Ratio (x) = 0.48770 0.04244
# Poissons Ratio (y) = 0.29402 0.19732
# Poissons Ratio (z) = 0.07977 0.61518
#
# Static dielectric constant tensor:
#      x y z
#    x 3.471210 0.000000 -0.148940 
#    y 0.000000 3.556020 0.000000 
#    z -0.148940 0.000000 3.124730 
# 
# 
# High freq. dielectric constant tensor:
#      x y z
#    x 1.688360 0.000000 0.002610 
#    y 0.000000 1.708660 0.000000 
#    z 0.002610 0.000000 1.674540 
# 
# From -- ./inp_files/149494.got.cif
#   From: 2010.06.25/outbox.cif.g09.slc.cpg/sg12_75_cif.got.tgz:149494.got - 2010.06.28 00:19:55.
