data_PCOD8100923
_publ_section_title
;
Structure prediction by ZEFSAII (Michael W. Deem and Ramdas Pophale) SiO2 
 PCOD8100923
Probable space group: C 2/M
;
_chemical_formula_sum "Si O2"
_cell_formula_units_Z 64
_cell_length_a 14.638984
_cell_length_b 9.387214
_cell_length_c 24.411389
_cell_angle_alpha 90.000000
_cell_angle_beta 77.478645
_cell_angle_gamma 90.000000
_cell_volume 3274.807243
_symmetry_space_group_name_H-M "C 2/M"
_symmetry_group_IT_number 12
_symmetry_cell_setting 'monoclinic'
loop_
_space_group_symop_operation_xyz
x,y,z
-x,y,-z
-x,-y,-z
x,-y,z
1/2+x,1/2+y,z
1/2-x,1/2+y,-z
1/2-x,1/2-y,-z
1/2+x,1/2-y,z
loop_
_atom_site_type_symbol
_atom_site_label
_atom_site_fract_x
_atom_site_fract_y
_atom_site_fract_z
Si Si1 0.206545 0.832183 0.883723
Si Si2 0.345967 0.667497 0.500281
Si Si3 0.394122 0.838561 0.695827
Si Si4 0.838559 0.668008 0.013036
Si Si5 0.475566 0.838939 0.219954
Si Si6 0.304953 0.666704 0.240827
Si Si7 0.090857 0.335070 0.107553
Si Si8 0.031277 0.166985 0.413032
O O1 0.191821 0.789930 0.823137
O O2 0.308971 0.774911 0.886799
O O3 0.192644 0.000000 0.896409
O O4 0.135029 0.742294 0.932335
O O5 0.324267 0.500000 0.500271
O O6 0.250000 0.750000 0.500000
O O7 0.427191 0.709745 0.446604
O O8 0.387538 0.710163 0.554307
O O9 0.437861 0.830836 0.750223
O O10 0.288566 0.780957 0.716581
O O11 0.451166 0.743963 0.646216
O O12 0.394628 0.000000 0.673751
O O13 0.817428 0.500000 0.023608
O O14 0.922001 0.687409 0.956565
O O15 0.750000 0.750000 0.000000
O O16 0.392148 0.746496 0.256846
O O17 0.508748 0.770600 0.156748
O O18 0.439023 0.000000 0.218079
O O19 0.316535 0.500000 0.247152
O O20 0.091958 0.500000 0.123514
O O21 0.035192 0.000000 0.402624
#
# Coordination Sequence:
#
# PCOD8100923 Si02
#       8
#     8   8   8   8   8   8   8   8
#     4   9  16  31  52  70  97 135 172 215 269 326
#     4   9  19  37  60  86 118 155 186 222 269 316
#     4  10  21  38  59  80 109 149 189 225 268 322
#     4   9  16  26  46  74  99 128 169 215 268 328
#     4  10  20  36  56  77 102 139 184 225 267 325
#     4  10  21  37  55  77 106 142 180 224 278 328
#     4   8  14  29  51  70  94 132 171 211 262 322
#     4   9  20  38  58  83 117 151 185 225 272 315
#
# _framework density 19.543133999999998
#
# number of rings (size 3 to 8) (size 9 to 14) (size 15 to 20)
#    0.000    2.750    1.250    1.875    0.000    3.500 
#    0.000   10.000    0.000    3.750    0.000    0.000 
#    0.000    0.000    0.000    0.000    0.000    0.000 
#
# Total GULP energy -396538.879630 kJ/mol
# GULP energy per Si atom -12391.839988 kJ/mol
# Density = 1.949865 g / cm^3
# Si number density = 19.543134 Si / 1000 Ang^3
#
#
#
# Elastic Constant Matrix: (Units=GPa)
#
#
# Indices 1 2 3 4 5 6 
#
# 1 79.7753 30.0435 27.4961 0.0000 -24.6153 0.0000
# 2 30.0435 54.4138 44.7870 0.0000 -11.4082 0.0000
# 3 27.4961 44.7870 115.0001 0.0000 -19.9553 0.0000
# 4 0.0000 0.0000 0.0000 34.9994 0.0000 0.0598
# 5 -24.6153 -11.4082 -19.9553 0.0000 22.5166 0.0000
# 6 0.0000 0.0000 0.0000 0.0598 0.0000 28.6573
#
#
#
# Elastic Compliance Matrix: (Units=1/GPa)
#
#
# Indices 1 2 3 4 5 6 
#
# 1 0.021800 -0.009343 0.002057 0.000000 0.020921 0.000000
# 2 -0.009343 0.031570 -0.010704 0.000000 -0.003705 0.000000
# 3 0.002057 -0.010704 0.013970 0.000000 0.009206 0.000000
# 4 0.000000 0.000000 0.000000 0.028572 0.000000 -0.000060
# 5 0.020921 -0.003705 0.009206 0.000000 0.073564 0.000000
# 6 0.000000 0.000000 0.000000 -0.000060 0.000000 0.034895
#
#
# Mechanical properties :
#
#
# Convention : Reuss Voigt Hill
#
# Bulk Modulus (GPa) = 31.88849 50.42693 41.15771
# Shear Modulus (GPa) = 19.93573 27.02548 23.48060
#
# Velocity S-wave (km/s) = 3.19735 3.72272 3.46999
# Velocity P-wave (km/s) = 5.47568 6.65861 6.09591
#
# Compressibility (1/GPa) = 0.03135928
#
# Stress axis : x y z
#
# Youngs Moduli (GPa) = 45.87073 31.67589 71.58165
#
# Poissons Ratio (x) = 0.29595 -0.14722
# Poissons Ratio (y) = 0.42858 0.76621
# Poissons Ratio (z) = -0.09434 0.33906
#
# Static dielectric constant tensor:
#      x y z
#    x 3.383400 0.000000 -0.114500 
#    y 0.000000 3.354030 0.000000 
#    z -0.114500 0.000000 3.757570 
# 
# 
# High freq. dielectric constant tensor:
#      x y z
#    x 1.748530 0.000000 -0.007710 
#    y 0.000000 1.740290 0.000000 
#    z -0.007710 0.000000 1.768130 
# 
# From -- ./inp_files/359791.got.cif
#   From: 2010.06.25/outbox.cif.g09.slc.cpg/sg12_180_cif.got.tgz:359791.got - 2010.06.28 00:19:55.
