data_PCOD8100654
_publ_section_title
;
Structure prediction by ZEFSAII (Michael W. Deem and Ramdas Pophale) SiO2 
 PCOD8100654
Probable space group: C 2/M
;
_chemical_formula_sum "Si O2"
_cell_formula_units_Z 64
_cell_length_a 15.481206
_cell_length_b 8.791470
_cell_length_c 33.176562
_cell_angle_alpha 90.000000
_cell_angle_beta 45.293783
_cell_angle_gamma 90.000000
_cell_volume 3209.209926
_symmetry_space_group_name_H-M "C 2/M"
_symmetry_group_IT_number 12
_symmetry_cell_setting 'monoclinic'
loop_
_space_group_symop_operation_xyz
x,y,z
-x,y,-z
-x,-y,-z
x,-y,z
1/2+x,1/2+y,z
1/2-x,1/2+y,-z
1/2-x,1/2-y,-z
1/2+x,1/2-y,z
loop_
_atom_site_type_symbol
_atom_site_label
_atom_site_fract_x
_atom_site_fract_y
_atom_site_fract_z
Si Si1 0.392074 0.178165 0.136205
Si Si2 0.525594 0.828244 0.758515
Si Si3 0.266521 0.174949 0.873202
Si Si4 0.795241 0.175147 0.243642
Si Si5 0.662705 0.180649 0.061621
Si Si6 0.353301 0.318822 0.438362
Si Si7 0.111249 0.680531 0.372407
Si Si8 0.699165 0.176605 0.629965
O O1 0.346351 0.232514 0.107618
O O2 0.297841 0.233431 0.201219
O O3 0.526760 0.244164 0.099369
O O4 0.395873 0.000000 0.135907
O O5 0.381944 0.799815 0.805894
O O6 0.585267 0.710599 0.769639
O O7 0.577778 0.804821 0.696652
O O8 0.554216 0.000000 0.764550
O O9 0.294422 0.236782 0.908600
O O10 0.228467 0.000000 0.887409
O O11 0.677411 0.220322 0.308540
O O12 0.793459 0.000000 0.232602
O O13 0.665136 0.000000 0.057785
O O14 0.750000 0.250000 0.000000
O O15 0.355492 0.500000 0.440747
O O16 0.250000 0.250000 0.500000
O O17 0.478857 0.252135 0.413822
O O18 0.326477 0.270290 0.401656
O O19 0.104143 0.500000 0.381717
O O20 0.183845 0.755178 0.385705
O O21 0.724047 0.000000 0.611630
#
# Coordination Sequence:
#
# PCOD8100654 Si02
#       8
#     8   8   8   8   8   8   8   8
#     4  11  23  39  59  89 123 159 201 251 304 361
#     4   9  18  36  61  87 125 162 197 246 303 362
#     4  10  21  39  60  88 122 161 201 246 303 362
#     4  10  20  35  60  91 125 161 201 247 301 364
#     4  10  23  43  64  84 119 161 204 253 304 358
#     4  12  26  44  65  91 124 165 212 259 307 368
#     4  10  22  41  63  92 127 164 207 256 308 365
#     4  10  21  39  64  94 126 164 204 253 311 368
#
# _framework density 19.942602000000001
#
# number of rings (size 3 to 8) (size 9 to 14) (size 15 to 20)
#    0.000    1.750    1.250    2.625    1.750    5.000 
#    0.000    5.000    0.000    0.000    0.000    0.000 
#    0.000    0.000    0.000    0.000    0.000    0.000 
#
# Total GULP energy -396876.604430 kJ/mol
# GULP energy per Si atom -12402.393888 kJ/mol
# Density = 1.989721 g / cm^3
# Si number density = 19.942602 Si / 1000 Ang^3
#
#
#
# Elastic Constant Matrix: (Units=GPa)
#
#
# Indices 1 2 3 4 5 6 
#
# 1 112.8898 31.7769 44.5504 0.0007 8.9204 0.0010
# 2 31.7769 68.0644 30.9553 0.0008 -1.8488 0.0010
# 3 44.5504 30.9553 97.2749 0.0007 7.1333 0.0005
# 4 0.0007 0.0008 0.0007 33.2247 0.0005 3.1607
# 5 8.9204 -1.8488 7.1333 0.0005 22.8146 0.0006
# 6 0.0010 0.0010 0.0005 3.1607 0.0006 39.1164
#
#
#
# Elastic Compliance Matrix: (Units=1/GPa)
#
#
# Indices 1 2 3 4 5 6 
#
# 1 0.011764 -0.003818 -0.003902 0.000000 -0.003689 0.000000
# 2 -0.003818 0.018645 -0.004508 0.000000 0.004413 0.000000
# 3 -0.003902 -0.004508 0.013732 0.000000 -0.003133 0.000000
# 4 0.000000 0.000000 0.000000 0.030331 -0.000001 -0.002451
# 5 -0.003689 0.004413 -0.003133 -0.000001 0.046611 -0.000001
# 6 0.000000 0.000000 0.000000 -0.002451 -0.000001 0.025763
#
#
# Mechanical properties :
#
#
# Convention : Reuss Voigt Hill
#
# Bulk Modulus (GPa) = 50.80354 54.75493 52.77924
# Shear Modulus (GPa) = 28.11128 30.42756 29.26942
#
# Velocity S-wave (km/s) = 3.75855 3.91033 3.83519
# Velocity P-wave (km/s) = 6.66076 6.92123 6.79225
#
# Compressibility (1/GPa) = 0.01968367
#
# Stress axis : x y z
#
# Youngs Moduli (GPa) = 85.00214 53.63481 72.82350
#
# Poissons Ratio (x) = 0.20477 0.28419
# Poissons Ratio (y) = 0.32452 0.32831
# Poissons Ratio (z) = 0.33172 0.24180
#
# Static dielectric constant tensor:
#      x y z
#    x 3.693290 0.000000 0.036810 
#    y 0.000000 3.646050 0.000000 
#    z 0.036810 0.000000 3.576440 
# 
# 
# High freq. dielectric constant tensor:
#      x y z
#    x 1.782770 0.000000 0.001790 
#    y 0.000000 1.779620 0.000000 
#    z 0.001790 0.000000 1.778880 
# 
# From -- ./inp_files/375484.got.cif
#   From: 2010.06.25/outbox.cif.g09.slc.cpg/sg12_188_cif.got.tgz:375484.got - 2010.06.28 00:19:55.
