data_PCOD8100045
_publ_section_title
;
Structure prediction by ZEFSAII (Michael W. Deem and Ramdas Pophale) SiO2 
 PCOD8100045
Probable space group: C 2/M
;
_chemical_formula_sum "Si O2"
_cell_formula_units_Z 32
_cell_length_a 8.324669
_cell_length_b 12.699963
_cell_length_c 14.297338
_cell_angle_alpha 90.000000
_cell_angle_beta 81.016834
_cell_angle_gamma 90.000000
_cell_volume 1493.016929
_symmetry_space_group_name_H-M "C 2/M"
_symmetry_group_IT_number 12
_symmetry_cell_setting 'monoclinic'
loop_
_space_group_symop_operation_xyz
x,y,z
-x,y,-z
-x,-y,-z
x,-y,z
1/2+x,1/2+y,z
1/2-x,1/2+y,-z
1/2-x,1/2-y,-z
1/2+x,1/2-y,z
loop_
_atom_site_type_symbol
_atom_site_label
_atom_site_fract_x
_atom_site_fract_y
_atom_site_fract_z
Si Si1 0.909678 0.824474 0.375493
Si Si2 0.397039 0.205427 0.929371
Si Si3 0.252005 0.382842 0.579242
Si Si4 0.361107 0.618782 0.172860
O O1 0.893806 0.697740 0.386071
O O2 0.805528 0.878898 0.466497
O O3 0.839637 0.866672 0.285155
O O4 0.098287 0.853507 0.366777
O O5 0.505008 0.300168 0.877440
O O6 0.320488 0.134713 0.854134
O O7 0.500000 0.141841 0.000000
O O8 0.250000 0.250000 0.000000
O O9 0.190027 0.500000 0.608465
O O10 0.419123 0.500000 0.144814
#
# Coordination Sequence:
#
# PCOD8100045 Si02
#       4
#     8   8   8   8
#     4  10  20  35  57  86 112 147 195 228 266 333
#     4   9  21  39  57  83 112 139 183 230 276 343
#     4  10  20  37  56  78 119 156 182 228 278 318
#     4  11  21  37  61  83 111 147 184 231 280 326
#
# _framework density 21.433112000000001
#
# number of rings (size 3 to 8) (size 9 to 14) (size 15 to 20)
#    0.000    2.000    0.000    4.500    0.000    5.000 
#    0.000   20.000    0.000    0.000    0.000    0.000 
#    0.000    0.000    0.000    0.000    0.000    0.000 
#
# Total GULP energy -198300.557363 kJ/mol
# GULP energy per Si atom -12393.784835 kJ/mol
# Density = 2.138433 g / cm^3
# Si number density = 21.433112 Si / 1000 Ang^3
#
#
#
# Elastic Constant Matrix: (Units=GPa)
#
#
# Indices 1 2 3 4 5 6 
#
# 1 66.8454 28.3609 49.1639 0.0000 21.1584 0.0000
# 2 28.3609 155.5126 23.2867 0.0000 6.2904 0.0000
# 3 49.1639 23.2867 129.8734 0.0000 46.3402 0.0000
# 4 0.0000 0.0000 0.0000 -2.4664 0.0000 0.6743
# 5 21.1584 6.2904 46.3402 0.0000 34.7480 0.0000
# 6 0.0000 0.0000 0.0000 0.6743 0.0000 31.2614
#
#
#
# Elastic Compliance Matrix: (Units=1/GPa)
#
#
# Indices 1 2 3 4 5 6 
#
# 1 0.022280 -0.002941 -0.006212 0.000000 -0.004750 0.000000
# 2 -0.002941 0.007006 -0.000628 0.000000 0.001360 0.000000
# 3 -0.006212 -0.000628 0.016739 0.000000 -0.018427 0.000000
# 4 0.000000 0.000000 0.000000 -0.403076 0.000000 0.008694
# 5 -0.004750 0.001360 -0.018427 0.000000 0.055998 0.000000
# 6 0.000000 0.000000 0.000000 0.008694 0.000000 0.031801
#
#
# Mechanical properties :
#
#
# Convention : Reuss Voigt Hill
#
# Bulk Modulus (GPa) = 37.78988 61.53937 49.66463
# Shear Modulus (GPa) = -20.75817 29.46994 4.35588
#
# Velocity S-wave (km/s) = -3.11546 3.71208 1.42714
# Velocity P-wave (km/s) = 2.17447 6.86640 5.09292
#
# Compressibility (1/GPa) = 0.02646211
#
# Stress axis : x y z
#
# Youngs Moduli (GPa) = 44.88340 142.74036 59.74096
#
# Poissons Ratio (x) = 0.41978 0.37112
# Poissons Ratio (y) = 0.13200 0.03753
# Poissons Ratio (z) = 0.27882 0.08968
#
# Static dielectric constant tensor:
#      x y z
#    x 5.325050 0.000000 2.163310 
#    y 0.000000 3.730050 0.000000 
#    z 2.163310 0.000000 6.377240 
# 
# 
# High freq. dielectric constant tensor:
#      x y z
#    x 1.834040 0.000000 0.025180 
#    y 0.000000 1.827590 0.000000 
#    z 0.025180 0.000000 1.851320 
# 
# From -- ./inp_files/193095.got.cif
#   From: 2010.06.25/outbox.cif.g09.slc.cpg/sg12_97_cif.got.tgz:193095.got - 2010.06.28 00:19:55.
