data_PCOD8100285
_publ_section_title
;
Structure prediction by ZEFSAII (Michael W. Deem and Ramdas Pophale) SiO2 
 PCOD8100285
Probable space group: C 2/M
;
_chemical_formula_sum "Si O2"
_cell_formula_units_Z 44
_cell_length_a 21.026308
_cell_length_b 13.919029
_cell_length_c 10.873057
_cell_angle_alpha 90.000000
_cell_angle_beta 134.921259
_cell_angle_gamma 90.000000
_cell_volume 2253.225489
_symmetry_space_group_name_H-M "C 2/M"
_symmetry_group_IT_number 12
_symmetry_cell_setting 'monoclinic'
loop_
_space_group_symop_operation_xyz
x,y,z
-x,y,-z
-x,-y,-z
x,-y,z
1/2+x,1/2+y,z
1/2-x,1/2+y,-z
1/2-x,1/2-y,-z
1/2+x,1/2-y,z
loop_
_atom_site_type_symbol
_atom_site_label
_atom_site_fract_x
_atom_site_fract_y
_atom_site_fract_z
Si Si1 0.821211 0.260160 0.440506
Si Si2 0.184165 0.609683 0.351179
Si Si3 0.000000 0.678243 0.000000
Si Si4 0.863504 0.000000 0.308669
Si Si5 0.985253 0.798035 0.208932
Si Si6 0.488896 0.500000 0.691830
Si Si7 0.170209 0.790524 0.812159
O O1 0.799445 0.358881 0.483733
O O2 0.743330 0.180668 0.349038
O O3 0.835040 0.277788 0.314781
O O4 0.913226 0.225496 0.623233
O O5 0.216251 0.500000 0.379620
O O6 0.079539 0.614605 0.166756
O O7 0.954180 0.744018 0.043319
O O8 0.889646 0.000000 0.490883
O O9 0.810373 0.098584 0.202473
O O10 0.950905 0.000000 0.346028
O O11 0.921331 0.775273 0.237082
O O12 0.987913 0.911626 0.188003
O O13 0.250000 0.750000 0.000000
#
# Coordination Sequence:
#
# PCOD8100285 Si02
#       7
#     8   8   4   4   8   4   8
#     4  10  21  37  60  88 112 150 199 235 285 341
#     4  10  22  39  61  85 115 155 193 236 287 344
#     4  10  21  39  58  84 120 152 195 230 285 348
#     4   9  18  32  54  86 109 148 192 223 287 343
#     4  10  20  35  58  86 117 149 190 241 286 340
#     4   9  16  31  56  82 112 147 187 234 282 336
#     4  11  21  36  59  85 120 148 187 243 289 338
#
# _framework density 19.527560999999999
#
# number of rings (size 3 to 8) (size 9 to 14) (size 15 to 20)
#    0.000    2.000    1.818    1.909    2.545    0.364 
#    1.636    0.000   12.000    4.364    0.000    0.000 
#    0.000    0.000    0.000    0.000    0.000    0.000 
#
# Total GULP energy -272603.896752 kJ/mol
# GULP energy per Si atom -12391.086216 kJ/mol
# Density = 1.948312 g / cm^3
# Si number density = 19.527561 Si / 1000 Ang^3
#
#
#
# Elastic Constant Matrix: (Units=GPa)
#
#
# Indices 1 2 3 4 5 6 
#
# 1 82.4236 16.5844 19.2287 0.0000 -13.0350 0.0000
# 2 16.5844 83.0217 36.9585 0.0000 -4.9189 0.0000
# 3 19.2287 36.9585 69.5926 0.0000 -4.4223 0.0000
# 4 0.0000 0.0000 0.0000 -31.4026 0.0000 7.6426
# 5 -13.0350 -4.9189 -4.4223 0.0000 37.8527 0.0000
# 6 0.0000 0.0000 0.0000 7.6426 0.0000 20.4725
#
#
#
# Elastic Compliance Matrix: (Units=1/GPa)
#
#
# Indices 1 2 3 4 5 6 
#
# 1 0.013716 -0.001207 -0.002880 0.000000 0.004230 0.000000
# 2 -0.001207 0.015924 -0.008078 0.000000 0.000710 0.000000
# 3 -0.002880 -0.008078 0.019470 0.000000 0.000233 0.000000
# 4 0.000000 0.000000 0.000000 -0.029192 0.000000 0.010898
# 5 0.004230 0.000710 0.000233 0.000000 0.027994 0.000000
# 6 0.000000 0.000000 0.000000 0.010898 0.000000 0.044778
#
#
# Mechanical properties :
#
#
# Convention : Reuss Voigt Hill
#
# Bulk Modulus (GPa) = 40.35562 42.28679 41.32121
# Shear Modulus (GPa) = 39.91016 16.20227 28.05622
#
# Velocity S-wave (km/s) = 4.52573 2.88360 3.79456
# Velocity P-wave (km/s) = 6.92968 5.72615 6.35646
#
# Compressibility (1/GPa) = 0.02477969
#
# Stress axis : x y z
#
# Youngs Moduli (GPa) = 72.90666 62.79635 51.36093
#
# Poissons Ratio (x) = 0.07581 0.14791
# Poissons Ratio (y) = 0.08802 0.41491
# Poissons Ratio (z) = 0.20996 0.50729
#
# Static dielectric constant tensor:
#      x y z
#    x 2.556430 0.000000 0.165560 
#    y 0.000000 3.972520 0.000000 
#    z 0.165560 0.000000 3.474920 
# 
# 
# High freq. dielectric constant tensor:
#      x y z
#    x 1.769340 0.000000 0.002320 
#    y 0.000000 1.744150 0.000000 
#    z 0.002320 0.000000 1.753210 
# 
# From -- ./inp_files/167449.got.cif
#   From: 2010.06.25/outbox.cif.g09.slc.cpg/sg12_84_cif.got.tgz:167449.got - 2010.06.28 00:19:55.
