data_PCOD8100656
_publ_section_title
;
Structure prediction by ZEFSAII (Michael W. Deem and Ramdas Pophale) SiO2 
 PCOD8100656
Probable space group: C 2/M
;
_chemical_formula_sum "Si O2"
_cell_formula_units_Z 40
_cell_length_a 15.357970
_cell_length_b 16.707623
_cell_length_c 13.946225
_cell_angle_alpha 90.000000
_cell_angle_beta 30.649402
_cell_angle_gamma 90.000000
_cell_volume 1824.277172
_symmetry_space_group_name_H-M "C 2/M"
_symmetry_group_IT_number 12
_symmetry_cell_setting 'monoclinic'
loop_
_space_group_symop_operation_xyz
x,y,z
-x,y,-z
-x,-y,-z
x,-y,z
1/2+x,1/2+y,z
1/2-x,1/2+y,-z
1/2-x,1/2-y,-z
1/2+x,1/2-y,z
loop_
_atom_site_type_symbol
_atom_site_label
_atom_site_fract_x
_atom_site_fract_y
_atom_site_fract_z
Si Si1 0.388891 0.588506 0.486157
Si Si2 0.645432 0.310865 0.790944
Si Si3 0.722908 0.337600 0.228818
Si Si4 0.578812 0.205950 0.128369
Si Si5 0.641460 0.908272 0.545781
O O1 0.469964 0.500000 0.412039
O O2 0.264025 0.598905 0.696620
O O3 0.539351 0.654175 0.349655
O O4 0.285774 0.601649 0.488467
O O5 0.761806 0.250955 0.742060
O O6 0.564207 0.268027 0.773654
O O7 0.771341 0.381334 0.636500
O O8 0.500000 0.346281 0.000000
O O9 0.872818 0.350586 0.008946
O O10 0.513854 0.149879 0.276717
O O11 0.750000 0.250000 0.000000
O O12 0.577643 0.000000 0.596737
#
# Coordination Sequence:
#
# PCOD8100656 Si02
#       5
#     8   8   8   8   8
#     4  10  21  36  60  94 129 164 200 255 327 380
#     4  10  22  41  63  93 122 162 218 262 307 368
#     4  10  20  35  60  92 121 160 206 253 307 369
#     4  11  23  38  61  90 122 168 213 259 304 369
#     4  11  24  41  63  92 130 167 206 261 316 376
#
# _framework density 21.926493000000001
#
# number of rings (size 3 to 8) (size 9 to 14) (size 15 to 20)
#    0.000    1.600    2.000    3.000    5.600    2.000 
#    0.000    3.000    0.000    6.000    0.000    0.000 
#    0.000    0.000    0.000    0.000    0.000    0.000 
#
# Total GULP energy -247911.700874 kJ/mol
# GULP energy per Si atom -12395.585044 kJ/mol
# Density = 2.187659 g / cm^3
# Si number density = 21.926493 Si / 1000 Ang^3
#
#
#
# Elastic Constant Matrix: (Units=GPa)
#
#
# Indices 1 2 3 4 5 6 
#
# 1 49.7665 33.8266 26.9099 -0.0068 1.6149 0.0043
# 2 33.8266 106.5521 73.6737 -0.0012 1.0836 0.0010
# 3 26.9099 73.6737 130.5478 0.0026 22.6886 0.0020
# 4 -0.0068 -0.0012 0.0026 25.3715 -0.0019 -0.0026
# 5 1.6149 1.0836 22.6886 -0.0019 33.0069 -0.0013
# 6 0.0043 0.0010 0.0020 -0.0026 -0.0013 26.6574
#
#
#
# Elastic Compliance Matrix: (Units=1/GPa)
#
#
# Indices 1 2 3 4 5 6 
#
# 1 0.025728 -0.007433 -0.001059 0.000007 -0.000287 -0.000004
# 2 -0.007433 0.018745 -0.010224 0.000000 0.006776 0.000002
# 3 -0.001059 -0.010224 0.015424 -0.000003 -0.010214 -0.000001
# 4 0.000007 0.000000 -0.000003 0.039414 0.000004 0.000004
# 5 -0.000287 0.006776 -0.010214 0.000004 0.037110 0.000002
# 6 -0.000004 0.000002 -0.000001 0.000004 0.000002 0.037513
#
#
# Mechanical properties :
#
#
# Convention : Reuss Voigt Hill
#
# Bulk Modulus (GPa) = 44.51396 61.74299 53.12847
# Shear Modulus (GPa) = 22.84636 27.17092 25.00864
#
# Velocity S-wave (km/s) = 3.23143 3.52402 3.38089
# Velocity P-wave (km/s) = 5.85392 6.69167 6.28677
#
# Compressibility (1/GPa) = 0.02246486
#
# Stress axis : x y z
#
# Youngs Moduli (GPa) = 38.86860 53.34691 64.83593
#
# Poissons Ratio (x) = 0.39651 0.06865
# Poissons Ratio (y) = 0.28890 0.66290
# Poissons Ratio (z) = 0.04116 0.54544
#
# Static dielectric constant tensor:
#      x y z
#    x 3.988810 -0.000010 0.260000 
#    y -0.000010 3.783760 0.000010 
#    z 0.260000 0.000010 4.130190 
# 
# 
# High freq. dielectric constant tensor:
#      x y z
#    x 1.864550 0.000000 0.010520 
#    y 0.000000 1.833640 0.000000 
#    z 0.010520 0.000000 1.864910 
# 
# From -- ./inp_files/216618.got.cif
#   From: 2010.06.25/outbox.cif.g09.slc.cpg/sg12_109_cif.got.tgz:216618.got - 2010.06.28 00:19:55.
