data_PCOD8100226
_publ_section_title
;
Structure prediction by ZEFSAII (Michael W. Deem and Ramdas Pophale) SiO2 
 PCOD8100226
Probable space group: C 2/M
;
_chemical_formula_sum "Si O2"
_cell_formula_units_Z 56
_cell_length_a 20.391629
_cell_length_b 9.323084
_cell_length_c 17.458137
_cell_angle_alpha 90.000000
_cell_angle_beta 123.171630
_cell_angle_gamma 90.000000
_cell_volume 2778.134120
_symmetry_space_group_name_H-M "C 2/M"
_symmetry_group_IT_number 12
_symmetry_cell_setting 'monoclinic'
loop_
_space_group_symop_operation_xyz
x,y,z
-x,y,-z
-x,-y,-z
x,-y,z
1/2+x,1/2+y,z
1/2-x,1/2+y,-z
1/2-x,1/2-y,-z
1/2+x,1/2-y,z
loop_
_atom_site_type_symbol
_atom_site_label
_atom_site_fract_x
_atom_site_fract_y
_atom_site_fract_z
Si Si1 0.331154 0.837756 0.968926
Si Si2 0.418628 0.664839 0.908742
Si Si3 0.311305 0.829808 0.387683
Si Si4 0.408854 0.164536 0.305855
Si Si5 0.366338 0.333752 0.709517
Si Si6 0.586890 0.163912 0.407747
Si Si7 0.853090 0.837176 0.127496
O O1 0.351610 0.764963 0.901317
O O2 0.238692 0.833760 0.916708
O O3 0.362915 0.000000 0.992499
O O4 0.373230 0.747285 0.062685
O O5 0.396801 0.500000 0.912069
O O6 0.420082 0.692334 0.818649
O O7 0.500000 0.708360 0.000000
O O8 0.356002 0.771755 0.340882
O O9 0.221690 0.776695 0.330453
O O10 0.353769 0.770883 0.491244
O O11 0.318389 0.000000 0.390913
O O12 0.499841 0.174912 0.387098
O O13 0.397440 0.261353 0.224506
O O14 0.385275 0.000000 0.271899
O O15 0.362779 0.500000 0.684932
O O16 0.406447 0.250832 0.666230
O O17 0.608460 0.000000 0.402712
O O18 0.884007 0.000000 0.138954
#
# Coordination Sequence:
#
# PCOD8100226 Si02
#       7
#     8   8   8   8   8   8   8
#     4  10  21  37  57  82 110 145 191 236 279 329
#     4  10  22  38  56  81 114 153 190 229 283 339
#     4   9  18  36  60  83 111 150 194 237 282 338
#     4  10  20  35  58  85 113 146 189 236 285 340
#     4  10  21  37  58  82 112 154 195 231 280 344
#     4  10  21  36  57  86 116 147 187 239 292 335
#     4  10  21  36  56  82 114 149 184 230 284 340
#
# _framework density 20.157412000000001
#
# number of rings (size 3 to 8) (size 9 to 14) (size 15 to 20)
#    0.000    2.143    0.000    2.571    2.000    6.000 
#    0.000    1.429    0.000    1.714    0.000    0.000 
#    0.000    0.000    0.000    0.000    0.000    0.000 
#
# Total GULP energy -347285.788390 kJ/mol
# GULP energy per Si atom -12403.063871 kJ/mol
# Density = 2.011153 g / cm^3
# Si number density = 20.157412 Si / 1000 Ang^3
#
#
#
# Elastic Constant Matrix: (Units=GPa)
#
#
# Indices 1 2 3 4 5 6 
#
# 1 74.4901 21.1001 17.2445 0.0000 -6.8143 0.0000
# 2 21.1001 78.1027 29.6323 0.0000 -3.9856 0.0000
# 3 17.2445 29.6323 113.2968 0.0000 2.9351 0.0000
# 4 0.0000 0.0000 0.0000 27.5817 0.0000 -4.2930
# 5 -6.8143 -3.9856 2.9351 0.0000 23.9766 0.0000
# 6 0.0000 0.0000 0.0000 -4.2930 0.0000 29.1966
#
#
#
# Elastic Compliance Matrix: (Units=1/GPa)
#
#
# Indices 1 2 3 4 5 6 
#
# 1 0.015071 -0.003289 -0.001535 0.000000 0.003924 0.000000
# 2 -0.003289 0.015125 -0.003507 0.000000 0.002009 0.000000
# 3 -0.001535 -0.003507 0.010036 0.000000 -0.002248 0.000000
# 4 0.000000 0.000000 0.000000 0.037105 0.000000 0.005456
# 5 0.003924 0.002009 -0.002248 0.000000 0.043432 0.000000
# 6 0.000000 0.000000 0.000000 0.005456 0.000000 0.035053
#
#
# Mechanical properties :
#
#
# Convention : Reuss Voigt Hill
#
# Bulk Modulus (GPa) = 42.42929 44.64928 43.53929
# Shear Modulus (GPa) = 27.72533 29.34517 28.53525
#
# Velocity S-wave (km/s) = 3.71272 3.81963 3.76656
# Velocity P-wave (km/s) = 6.28281 6.45377 6.36887
#
# Compressibility (1/GPa) = 0.02356862
#
# Stress axis : x y z
#
# Youngs Moduli (GPa) = 66.35439 66.11407 99.64465
#
# Poissons Ratio (x) = 0.21743 0.15299
# Poissons Ratio (y) = 0.21822 0.34950
# Poissons Ratio (z) = 0.10188 0.23189
#
# Static dielectric constant tensor:
#      x y z
#    x 3.602350 0.000000 0.001560 
#    y 0.000000 3.532950 0.000000 
#    z 0.001560 0.000000 3.729520 
# 
# 
# High freq. dielectric constant tensor:
#      x y z
#    x 1.789280 0.000000 -0.001480 
#    y 0.000000 1.765380 0.000000 
#    z -0.001480 0.000000 1.795190 
# 
# From -- ./inp_files/281623.got.cif
#   From: 2010.06.25/outbox.cif.g09.slc.cpg/sg12_141_cif.got.tgz:281623.got - 2010.06.28 00:19:55.
