data_PCOD8100265
_publ_section_title
;
Structure prediction by ZEFSAII (Michael W. Deem and Ramdas Pophale) SiO2 
 PCOD8100265
Probable space group: C 2/M
;
_chemical_formula_sum "Si O2"
_cell_formula_units_Z 56
_cell_length_a 31.447159
_cell_length_b 8.879517
_cell_length_c 12.001645
_cell_angle_alpha 90.000000
_cell_angle_beta 119.917470
_cell_angle_gamma 90.000000
_cell_volume 2904.709723
_symmetry_space_group_name_H-M "C 2/M"
_symmetry_group_IT_number 12
_symmetry_cell_setting 'monoclinic'
loop_
_space_group_symop_operation_xyz
x,y,z
-x,y,-z
-x,-y,-z
x,-y,z
1/2+x,1/2+y,z
1/2-x,1/2+y,-z
1/2-x,1/2-y,-z
1/2+x,1/2-y,z
loop_
_atom_site_type_symbol
_atom_site_label
_atom_site_fract_x
_atom_site_fract_y
_atom_site_fract_z
Si Si1 0.540289 0.320893 0.464721
Si Si2 0.010255 0.820840 0.187799
Si Si3 0.802769 0.322279 0.072628
Si Si4 0.646133 0.177580 0.632106
Si Si5 0.074597 0.822094 0.074299
Si Si6 0.263812 0.822510 0.399974
Si Si7 0.677225 0.322398 0.125467
O O1 0.500000 0.263019 0.500000
O O2 0.544111 0.500000 0.471556
O O3 0.520711 0.254092 0.322663
O O4 0.594307 0.258567 0.556300
O O5 0.957541 0.763817 0.073131
O O6 0.011669 0.000000 0.196440
O O7 0.052620 0.758506 0.160668
O O8 0.797170 0.500000 0.062949
O O9 0.830347 0.270128 0.220365
O O10 0.750000 0.250000 0.000000
O O11 0.831010 0.263957 0.000949
O O12 0.682373 0.224241 0.576533
O O13 0.637832 0.000000 0.619706
O O14 0.069304 0.000000 0.069316
O O15 0.130838 0.773235 0.139322
O O16 0.250000 0.750000 0.500000
O O17 0.225259 0.769597 0.255086
O O18 0.259865 0.000000 0.411348
O O19 0.678688 0.500000 0.102619
#
# Coordination Sequence:
#
# PCOD8100265 Si02
#       7
#     8   8   8   8   8   8   8
#     4  10  22  36  56  87 114 141 190 245 281 330
#     4   8  15  30  49  77 111 140 180 227 276 329
#     4  11  22  39  60  82 111 146 188 233 281 338
#     4  10  23  42  58  79 115 157 191 231 288 349
#     4   8  15  28  52  78 106 144 177 222 281 329
#     4  10  22  39  57  84 119 152 193 235 278 342
#     4  10  20  35  58  86 114 146 186 233 285 337
#
# _framework density 19.279035
#
# number of rings (size 3 to 8) (size 9 to 14) (size 15 to 20)
#    0.000    2.429    1.429    1.286    4.000    2.571 
#    0.000    0.000    0.000    0.000    0.000    2.000 
#    0.000    0.000    0.000    0.000    0.000    0.000 
#
# Total GULP energy -347061.621504 kJ/mol
# GULP energy per Si atom -12395.057911 kJ/mol
# Density = 1.923515 g / cm^3
# Si number density = 19.279035 Si / 1000 Ang^3
#
#
#
# Elastic Constant Matrix: (Units=GPa)
#
#
# Indices 1 2 3 4 5 6 
#
# 1 158.9980 28.9161 81.4916 0.0000 2.3276 0.0000
# 2 28.9161 27.7029 30.0517 0.0000 -2.1359 0.0000
# 3 81.4916 30.0517 144.9375 0.0000 -13.5731 0.0000
# 4 0.0000 0.0000 0.0000 26.4627 0.0000 -0.9894
# 5 2.3276 -2.1359 -13.5731 0.0000 36.8057 0.0000
# 6 0.0000 0.0000 0.0000 -0.9894 0.0000 25.0842
#
#
#
# Elastic Compliance Matrix: (Units=1/GPa)
#
#
# Indices 1 2 3 4 5 6 
#
# 1 0.009628 -0.005307 -0.004556 0.000000 -0.002597 0.000000
# 2 -0.005307 0.049526 -0.007234 0.000000 0.000542 0.000000
# 3 -0.004556 -0.007234 0.011340 0.000000 0.004050 0.000000
# 4 0.000000 0.000000 0.000000 0.037845 0.000000 0.001493
# 5 -0.002597 0.000542 0.004050 0.000000 0.028859 0.000000
# 6 0.000000 0.000000 0.000000 0.001493 0.000000 0.039925
#
#
# Mechanical properties :
#
#
# Convention : Reuss Voigt Hill
#
# Bulk Modulus (GPa) = 27.54849 68.06190 47.80520
# Shear Modulus (GPa) = 22.37962 30.41578 26.39770
#
# Velocity S-wave (km/s) = 3.41079 3.97629 3.70434
# Velocity P-wave (km/s) = 5.46184 7.51408 6.56860
#
# Compressibility (1/GPa) = 0.03629963
#
# Stress axis : x y z
#
# Youngs Moduli (GPa) = 103.86702 20.19130 88.18040
#
# Poissons Ratio (x) = 0.10716 0.40175
# Poissons Ratio (y) = 0.55125 0.63791
# Poissons Ratio (z) = 0.47322 0.14607
#
# Static dielectric constant tensor:
#      x y z
#    x 3.900280 0.000000 -0.227820 
#    y 0.000000 3.227470 0.000000 
#    z -0.227820 0.000000 3.885410 
# 
# 
# High freq. dielectric constant tensor:
#      x y z
#    x 1.765740 0.000000 -0.003230 
#    y 0.000000 1.707720 0.000000 
#    z -0.003230 0.000000 1.759610 
# 
# From -- ./inp_files/187733.got.cif
#   From: 2010.06.25/outbox.cif.g09.slc.cpg/sg12_94_cif.got.tgz:187733.got - 2010.06.28 00:19:55.
