data_PCOD8100448
_publ_section_title
;
Structure prediction by ZEFSAII (Michael W. Deem and Ramdas Pophale) SiO2 
 PCOD8100448
Probable space group: C 2/M
;
_chemical_formula_sum "Si O2"
_cell_formula_units_Z 48
_cell_length_a 27.670551
_cell_length_b 9.223220
_cell_length_c 9.923799
_cell_angle_alpha 90.000000
_cell_angle_beta 90.089561
_cell_angle_gamma 90.000000
_cell_volume 2532.665322
_symmetry_space_group_name_H-M "C 2/M"
_symmetry_group_IT_number 12
_symmetry_cell_setting 'monoclinic'
loop_
_space_group_symop_operation_xyz
x,y,z
-x,y,-z
-x,-y,-z
x,-y,z
1/2+x,1/2+y,z
1/2-x,1/2+y,-z
1/2-x,1/2-y,-z
1/2+x,1/2-y,z
loop_
_atom_site_type_symbol
_atom_site_label
_atom_site_fract_x
_atom_site_fract_y
_atom_site_fract_z
Si Si1 0.182006 0.666849 0.729927
Si Si2 0.540937 0.168977 0.096095
Si Si3 0.853921 0.332394 0.973185
Si Si4 0.043535 0.332460 0.402894
Si Si5 0.291788 0.329908 0.762661
Si Si6 0.860458 0.170990 0.519400
O O1 0.180631 0.500000 0.682878
O O2 0.236909 0.721502 0.742822
O O3 0.154390 0.763728 0.622758
O O4 0.154071 0.688319 0.869033
O O5 0.593771 0.235301 0.064524
O O6 0.526324 0.197364 0.250366
O O7 0.544080 0.000000 0.061475
O O8 0.500000 0.240984 0.000000
O O9 0.850606 0.500000 0.930167
O O10 0.812463 0.248633 0.893540
O O11 0.058607 0.500000 0.422722
O O12 0.088290 0.231932 0.436151
O O13 0.000000 0.288716 0.500000
O O14 0.294776 0.500000 0.790352
O O15 0.321114 0.283484 0.630280
O O16 0.864582 0.000000 0.504590
#
# Coordination Sequence:
#
# PCOD8100448 Si02
#       6
#     8   8   8   8   8   8
#     4  10  22  37  57  85 114 149 196 238 275 333
#     4   9  18  33  55  84 112 137 177 231 281 330
#     4  10  20  35  59  86 112 146 187 237 287 334
#     4  10  21  37  61  86 110 146 188 233 282 333
#     4  10  21  38  57  81 116 153 189 234 284 337
#     4  11  23  38  57  82 117 155 188 232 286 335
#
# _framework density 18.952365
#
# number of rings (size 3 to 8) (size 9 to 14) (size 15 to 20)
#    0.000    2.000    1.667    1.500    2.333    2.333 
#    0.000    0.000    0.000    1.000    0.000    0.000 
#    0.000    0.000    0.000    0.000    0.000    0.000 
#
# Total GULP energy -297697.451179 kJ/mol
# GULP energy per Si atom -12404.060466 kJ/mol
# Density = 1.890923 g / cm^3
# Si number density = 18.952365 Si / 1000 Ang^3
#
#
#
# Elastic Constant Matrix: (Units=GPa)
#
#
# Indices 1 2 3 4 5 6 
#
# 1 76.2677 16.6671 47.8026 0.0000 -6.5093 0.0000
# 2 16.6671 41.0053 32.6617 0.0000 4.6570 0.0000
# 3 47.8026 32.6617 100.8346 0.0000 3.5745 0.0000
# 4 0.0000 0.0000 0.0000 -5.8846 0.0000 5.2329
# 5 -6.5093 4.6570 3.5745 0.0000 40.6298 0.0000
# 6 0.0000 0.0000 0.0000 5.2329 0.0000 29.5797
#
#
#
# Elastic Compliance Matrix: (Units=1/GPa)
#
#
# Indices 1 2 3 4 5 6 
#
# 1 0.019296 -0.001212 -0.008897 0.000000 0.004013 0.000000
# 2 -0.001212 0.033273 -0.010092 0.000000 -0.003120 0.000000
# 3 -0.008897 -0.010092 0.017468 0.000000 -0.001805 0.000000
# 4 0.000000 0.000000 0.000000 -0.146836 0.000000 0.025977
# 5 0.004013 -0.003120 -0.001805 0.000000 0.025772 0.000000
# 6 0.000000 0.000000 0.000000 0.025977 0.000000 0.029211
#
#
# Mechanical properties :
#
#
# Convention : Reuss Voigt Hill
#
# Bulk Modulus (GPa) = 33.74534 45.81894 39.78214
# Shear Modulus (GPa) = 175.65440 20.93006 98.29223
#
# Velocity S-wave (km/s) = 9.63760 3.32678 7.20939
# Velocity P-wave (km/s) = 11.90329 6.24379 9.50456
#
# Compressibility (1/GPa) = 0.02963372
#
# Stress axis : x y z
#
# Youngs Moduli (GPa) = 51.82545 30.05446 57.24696
#
# Poissons Ratio (x) = 0.03642 0.50933
# Poissons Ratio (y) = 0.06281 0.57776
# Poissons Ratio (z) = 0.46110 0.30332
#
# Static dielectric constant tensor:
#      x y z
#    x 3.681610 0.000000 -0.066880 
#    y 0.000000 3.245610 0.000000 
#    z -0.066880 0.000000 3.540230 
# 
# 
# High freq. dielectric constant tensor:
#      x y z
#    x 1.749500 0.000000 -0.003060 
#    y 0.000000 1.709590 0.000000 
#    z -0.003060 0.000000 1.750010 
# 
# From -- ./inp_files/108556.got.cif
#   From: 2010.06.25/outbox.cif.g09.slc.cpg/sg12_55_cif.got.tgz:108556.got - 2010.06.28 00:19:55.
