data_PCOD8100727
_publ_section_title
;
Structure prediction by ZEFSAII (Michael W. Deem and Ramdas Pophale) SiO2 
 PCOD8100727
Probable space group: C 2/M
;
_chemical_formula_sum "Si O2"
_cell_formula_units_Z 48
_cell_length_a 16.913421
_cell_length_b 14.912964
_cell_length_c 15.919562
_cell_angle_alpha 90.000000
_cell_angle_beta 144.706567
_cell_angle_gamma 90.000000
_cell_volume 2319.941747
_symmetry_space_group_name_H-M "C 2/M"
_symmetry_group_IT_number 12
_symmetry_cell_setting 'monoclinic'
loop_
_space_group_symop_operation_xyz
x,y,z
-x,y,-z
-x,-y,-z
x,-y,z
1/2+x,1/2+y,z
1/2-x,1/2+y,-z
1/2-x,1/2-y,-z
1/2+x,1/2-y,z
loop_
_atom_site_type_symbol
_atom_site_label
_atom_site_fract_x
_atom_site_fract_y
_atom_site_fract_z
Si Si1 0.353753 0.902667 0.600575
Si Si2 0.676692 0.311678 0.868364
Si Si3 0.421678 0.600997 0.734693
Si Si4 0.160803 0.600978 0.128505
Si Si5 0.800836 0.728350 0.690826
Si Si6 0.484464 0.796484 0.584391
O O1 0.194894 0.896864 0.437172
O O2 0.390653 0.830005 0.703662
O O3 0.455384 0.888509 0.609622
O O4 0.385124 0.000000 0.666302
O O5 0.565548 0.374044 0.817401
O O6 0.790898 0.374917 0.923877
O O7 0.612238 0.253505 0.736606
O O8 0.750000 0.250000 0.000000
O O9 0.431818 0.500000 0.782551
O O10 0.378639 0.675155 0.768653
O O11 0.211434 0.500000 0.194482
O O12 0.223722 0.675523 0.244547
O O13 0.000000 0.607698 0.000000
O O14 0.651519 0.737536 0.520363
O O15 0.500000 0.819668 0.500000
#
# Coordination Sequence:
#
# PCOD8100727 Si02
#       6
#     8   8   8   8   8   8
#     4  10  20  35  62  93 125 164 208 259 313 374
#     4  12  23  41  64  87 126 174 208 259 320 375
#     4  10  20  37  63  91 122 163 209 253 306 377
#     4  11  25  41  61  94 130 164 211 264 320 385
#     4  11  19  39  65  92 129 163 206 261 322 373
#     4  11  21  39  62  91 125 162 214 259 310 377
#
# _framework density 20.690175
#
# number of rings (size 3 to 8) (size 9 to 14) (size 15 to 20)
#    0.000    1.167    5.000    3.000    0.000    0.333 
#    0.000    1.667    0.000    5.500    0.000    0.000 
#    0.000    0.000    0.000    0.000    0.000    0.000 
#
# Total GULP energy -297457.585777 kJ/mol
# GULP energy per Si atom -12394.066074 kJ/mol
# Density = 2.064308 g / cm^3
# Si number density = 20.690175 Si / 1000 Ang^3
#
#
#
# Elastic Constant Matrix: (Units=GPa)
#
#
# Indices 1 2 3 4 5 6 
#
# 1 120.6832 61.9321 28.1167 -0.0001 6.7558 -0.0001
# 2 61.9321 165.3185 35.3493 -0.0001 0.2170 -0.0001
# 3 28.1167 35.3493 60.9994 -0.0001 6.4550 -0.0001
# 4 -0.0001 -0.0001 -0.0001 12.5526 -0.0001 -1.5357
# 5 6.7558 0.2170 6.4550 -0.0001 31.0755 -0.0001
# 6 -0.0001 -0.0001 -0.0001 -1.5357 -0.0001 29.2901
#
#
#
# Elastic Compliance Matrix: (Units=1/GPa)
#
#
# Indices 1 2 3 4 5 6 
#
# 1 0.010805 -0.003447 -0.002798 0.000000 -0.001744 0.000000
# 2 -0.003447 0.008024 -0.003205 0.000000 0.001359 0.000000
# 3 -0.002798 -0.003205 0.019911 0.000000 -0.003505 0.000000
# 4 0.000000 0.000000 0.000000 0.080179 0.000000 0.004204
# 5 -0.001744 0.001359 -0.003505 0.000000 0.033277 0.000000
# 6 0.000000 0.000000 0.000000 0.004204 0.000000 0.034362
#
#
# Mechanical properties :
#
#
# Convention : Reuss Voigt Hill
#
# Bulk Modulus (GPa) = 50.40328 66.42192 58.41260
# Shear Modulus (GPa) = 23.57702 29.35717 26.46709
#
# Velocity S-wave (km/s) = 3.37935 3.77091 3.58049
# Velocity P-wave (km/s) = 6.29607 7.15070 6.73695
#
# Compressibility (1/GPa) = 0.01983998
#
# Stress axis : x y z
#
# Youngs Moduli (GPa) = 92.55284 124.63013 50.22238
#
# Poissons Ratio (x) = 0.42961 0.14053
# Poissons Ratio (y) = 0.31904 0.16095
# Poissons Ratio (z) = 0.25898 0.39940
#
# Static dielectric constant tensor:
#      x y z
#    x 3.893840 0.000000 0.122590 
#    y 0.000000 4.006730 0.000000 
#    z 0.122590 0.000000 3.535590 
# 
# 
# High freq. dielectric constant tensor:
#      x y z
#    x 1.810980 0.000000 0.015700 
#    y 0.000000 1.813220 0.000000 
#    z 0.015700 0.000000 1.786250 
# 
# From -- ./inp_files/278234.got.cif
#   From: 2010.06.25/outbox.cif.g09.slc.cpg/sg12_140_cif.got.tgz:278234.got - 2010.06.28 00:19:55.
