data_PCOD8100934
_publ_section_title
;
Structure prediction by ZEFSAII (Michael W. Deem and Ramdas Pophale) SiO2 
 PCOD8100934
Probable space group: C 2/M
;
_chemical_formula_sum "Si O2"
_cell_formula_units_Z 48
_cell_length_a 10.980446
_cell_length_b 24.221394
_cell_length_c 9.130145
_cell_angle_alpha 90.000000
_cell_angle_beta 90.971680
_cell_angle_gamma 90.000000
_cell_volume 2427.919780
_symmetry_space_group_name_H-M "C 2/M"
_symmetry_group_IT_number 12
_symmetry_cell_setting 'monoclinic'
loop_
_space_group_symop_operation_xyz
x,y,z
-x,y,-z
-x,-y,-z
x,-y,z
1/2+x,1/2+y,z
1/2-x,1/2+y,-z
1/2-x,1/2-y,-z
1/2+x,1/2-y,z
loop_
_atom_site_type_symbol
_atom_site_label
_atom_site_fract_x
_atom_site_fract_y
_atom_site_fract_z
Si Si1 0.742919 0.562842 0.638644
Si Si2 0.895322 0.131353 0.596499
Si Si3 0.092941 0.337261 0.324643
Si Si4 0.660769 0.800510 0.630480
Si Si5 0.215800 0.787895 0.862947
Si Si6 0.937450 0.105815 0.141920
O O1 0.783820 0.500000 0.618256
O O2 0.657383 0.581592 0.503025
O O3 0.863490 0.600748 0.637569
O O4 0.671497 0.569295 0.791909
O O5 0.792602 0.172679 0.650846
O O6 0.000000 0.161850 0.500000
O O7 0.952818 0.106705 0.742180
O O8 0.132323 0.294436 0.456372
O O9 0.157269 0.316672 0.178654
O O10 0.947252 0.338417 0.302531
O O11 0.660518 0.743759 0.720883
O O12 0.114967 0.833535 0.901250
O O13 0.250000 0.750000 0.000000
O O14 0.000000 0.078935 0.000000
#
# Coordination Sequence:
#
# PCOD8100934 Si02
#       6
#     8   8   8   8   8   8
#     4   9  19  39  62  81 110 148 186 241 294 332
#     4   9  19  35  56  81 112 142 188 232 281 342
#     4   9  21  38  53  85 109 145 199 231 275 347
#     4  10  20  36  56  77 115 150 188 231 284 328
#     4  11  23  35  54  79 114 159 190 228 281 335
#     4  10  21  35  53  85 117 143 193 233 277 343
#
# _framework density 19.770012000000001
#
# number of rings (size 3 to 8) (size 9 to 14) (size 15 to 20)
#    0.000    2.333    0.000    2.500    4.667    3.333 
#    6.000    6.667    0.000    0.000    0.000   15.167 
#    0.000    0.000    0.000    0.000    0.000    0.000 
#
# Total GULP energy -297451.501291 kJ/mol
# GULP energy per Si atom -12393.812554 kJ/mol
# Density = 1.972501 g / cm^3
# Si number density = 19.770012 Si / 1000 Ang^3
#
#
#
# Elastic Constant Matrix: (Units=GPa)
#
#
# Indices 1 2 3 4 5 6 
#
# 1 117.0269 18.5960 19.7754 0.0000 -11.5688 0.0000
# 2 18.5960 75.7586 20.4324 0.0000 5.8012 0.0000
# 3 19.7754 20.4324 81.0435 0.0000 -11.9954 0.0000
# 4 0.0000 0.0000 0.0000 17.9344 0.0000 -0.0358
# 5 -11.5688 5.8012 -11.9954 0.0000 23.5209 0.0000
# 6 0.0000 0.0000 0.0000 -0.0358 0.0000 16.5122
#
#
#
# Elastic Compliance Matrix: (Units=1/GPa)
#
#
# Indices 1 2 3 4 5 6 
#
# 1 0.009579 -0.002446 -0.001010 0.000000 0.004800 0.000000
# 2 -0.002446 0.015544 -0.004400 0.000000 -0.007281 0.000000
# 3 -0.001010 -0.004400 0.014907 0.000000 0.008191 0.000000
# 4 0.000000 0.000000 0.000000 0.055759 0.000000 0.000121
# 5 0.004800 -0.007281 0.008191 0.000000 0.050849 0.000000
# 6 0.000000 0.000000 0.000000 0.000121 0.000000 0.060562
#
#
# Mechanical properties :
#
#
# Convention : Reuss Voigt Hill
#
# Bulk Modulus (GPa) = 41.12186 43.49296 42.30741
# Shear Modulus (GPa) = 21.64323 25.92849 23.78586
#
# Velocity S-wave (km/s) = 3.31229 3.62540 3.47238
# Velocity P-wave (km/s) = 5.95598 6.29062 6.12558
#
# Compressibility (1/GPa) = 0.02431796
#
# Stress axis : x y z
#
# Youngs Moduli (GPa) = 104.39549 64.33148 67.08198
#
# Poissons Ratio (x) = 0.15738 0.06777
# Poissons Ratio (y) = 0.25539 0.29514
# Poissons Ratio (z) = 0.10546 0.28304
#
# Static dielectric constant tensor:
#      x y z
#    x 3.787440 0.000000 -0.200440 
#    y 0.000000 3.223300 0.000000 
#    z -0.200440 0.000000 3.597900 
# 
# 
# High freq. dielectric constant tensor:
#      x y z
#    x 1.781130 0.000000 -0.015810 
#    y 0.000000 1.733820 0.000000 
#    z -0.015810 0.000000 1.767520 
# 
# From -- ./inp_files/50602.got.cif
#   From: 2010.06.25/outbox.cif.g09.slc.cpg/sg12_26_cif.got.tgz:50602.got - 2010.06.28 00:19:55.
