data_PCOD8100430
_publ_section_title
;
Structure prediction by ZEFSAII (Michael W. Deem and Ramdas Pophale) SiO2 
 PCOD8100430
Probable space group: C 2/M
;
_chemical_formula_sum "Si O2"
_cell_formula_units_Z 64
_cell_length_a 11.245370
_cell_length_b 23.731949
_cell_length_c 12.048616
_cell_angle_alpha 90.000000
_cell_angle_beta 97.840698
_cell_angle_gamma 90.000000
_cell_volume 3185.408132
_symmetry_space_group_name_H-M "C 2/M"
_symmetry_group_IT_number 12
_symmetry_cell_setting 'monoclinic'
loop_
_space_group_symop_operation_xyz
x,y,z
-x,y,-z
-x,-y,-z
x,-y,z
1/2+x,1/2+y,z
1/2-x,1/2+y,-z
1/2-x,1/2-y,-z
1/2+x,1/2-y,z
loop_
_atom_site_type_symbol
_atom_site_label
_atom_site_fract_x
_atom_site_fract_y
_atom_site_fract_z
Si Si1 0.929589 0.720537 0.095950
Si Si2 0.764617 0.063309 0.584224
Si Si3 0.573906 0.062657 0.756102
Si Si4 0.404913 0.128942 0.585292
Si Si5 0.157740 0.832338 0.853803
Si Si6 0.407626 0.646072 0.738589
Si Si7 0.751324 0.627460 0.079066
Si Si8 0.856474 0.274744 0.724768
O O1 0.903530 0.786459 0.072555
O O2 0.803313 0.690273 0.097770
O O3 0.010366 0.712473 0.214346
O O4 0.000000 0.695451 0.000000
O O5 0.667892 0.061978 0.668871
O O6 0.702432 0.087965 0.466193
O O7 0.873354 0.103887 0.634665
O O8 0.811919 0.000000 0.565799
O O9 0.462561 0.101320 0.703701
O O10 0.640041 0.084981 0.875899
O O11 0.525948 0.000000 0.774871
O O12 0.500000 0.137840 0.500000
O O13 0.349648 0.190237 0.608885
O O14 0.256634 0.799761 0.794374
O O15 0.052618 0.855813 0.760764
O O16 0.210232 0.880371 0.944482
O O17 0.359133 0.621830 0.849888
O O18 0.347081 0.707290 0.705170
#
# Coordination Sequence:
#
# PCOD8100430 Si02
#       8
#     8   8   8   8   8   8   8   8
#     4  11  19  31  53  81 114 154 179 216 261 326
#     4   9  19  37  59  79 102 141 194 241 275 319
#     4   9  18  33  57  85 111 139 184 240 283 320
#     4  10  20  35  59  85 108 138 181 235 296 340
#     4  11  21  33  52  80 119 155 184 212 264 334
#     4  10  22  35  54  84 116 148 187 224 269 328
#     4  11  18  33  54  83 118 148 182 221 263 327
#     4  11  21  34  54  84 119 143 176 227 286 334
#
# _framework density 20.091618
#
# number of rings (size 3 to 8) (size 9 to 14) (size 15 to 20)
#    0.000    1.750    3.750    2.625    0.000    2.000 
#    0.000    1.250    0.000    9.375    0.000    0.000 
#    0.000    0.000    0.000    0.000    0.000    0.000 
#
# Total GULP energy -396607.641092 kJ/mol
# GULP energy per Si atom -12393.988784 kJ/mol
# Density = 2.004589 g / cm^3
# Si number density = 20.091618 Si / 1000 Ang^3
#
#
#
# Elastic Constant Matrix: (Units=GPa)
#
#
# Indices 1 2 3 4 5 6 
#
# 1 63.2230 19.1377 35.0808 0.0000 22.1008 0.0000
# 2 19.1377 110.2351 63.2941 0.0000 15.2760 0.0000
# 3 35.0808 63.2941 86.2804 0.0000 20.6785 0.0000
# 4 0.0000 0.0000 0.0000 28.4970 0.0000 6.0887
# 5 22.1008 15.2760 20.6785 0.0000 29.0074 0.0000
# 6 0.0000 0.0000 0.0000 6.0887 0.0000 21.6444
#
#
#
# Elastic Compliance Matrix: (Units=1/GPa)
#
#
# Indices 1 2 3 4 5 6 
#
# 1 0.024710 0.002579 -0.008564 0.000000 -0.014080 0.000000
# 2 0.002579 0.015942 -0.012375 0.000000 -0.001539 0.000000
# 3 -0.008564 -0.012375 0.025357 0.000000 -0.005034 0.000000
# 4 0.000000 0.000000 0.000000 0.037335 0.000000 -0.010503
# 5 -0.014080 -0.001539 -0.005034 0.000000 0.049600 0.000000
# 6 0.000000 0.000000 0.000000 -0.010503 0.000000 0.049156
#
#
# Mechanical properties :
#
#
# Convention : Reuss Voigt Hill
#
# Bulk Modulus (GPa) = 34.14289 54.97375 44.55832
# Shear Modulus (GPa) = 20.11390 25.31150 22.71270
#
# Velocity S-wave (km/s) = 3.16746 3.55322 3.36587
# Velocity P-wave (km/s) = 5.51431 6.65243 6.10993
#
# Compressibility (1/GPa) = 0.02928868
#
# Stress axis : x y z
#
# Youngs Moduli (GPa) = 40.46886 62.72610 39.43740
#
# Poissons Ratio (x) = -0.16174 0.33775
# Poissons Ratio (y) = -0.10435 0.48803
# Poissons Ratio (z) = 0.34658 0.77622
#
# Static dielectric constant tensor:
#      x y z
#    x 3.476840 0.000000 0.317270 
#    y 0.000000 3.699520 0.000000 
#    z 0.317270 0.000000 3.566730 
# 
# 
# High freq. dielectric constant tensor:
#      x y z
#    x 1.767690 0.000000 0.022790 
#    y 0.000000 1.765440 0.000000 
#    z 0.022790 0.000000 1.771700 
# 
# From -- ./inp_files/135991.got.cif
#   From: 2010.06.25/outbox.cif.g09.slc.cpg/sg12_68_cif.got.tgz:135991.got - 2010.06.28 00:19:55.
