data_PCOD8100973
_publ_section_title
;
Structure prediction by ZEFSAII (Michael W. Deem and Ramdas Pophale) SiO2 
 PCOD8100973
Probable space group: C 2/M
;
_chemical_formula_sum "Si O2"
_cell_formula_units_Z 64
_cell_length_a 14.498466
_cell_length_b 9.016791
_cell_length_c 33.897944
_cell_angle_alpha 90.000000
_cell_angle_beta 50.332402
_cell_angle_gamma 90.000000
_cell_volume 3411.168186
_symmetry_space_group_name_H-M "C 2/M"
_symmetry_group_IT_number 12
_symmetry_cell_setting 'monoclinic'
loop_
_space_group_symop_operation_xyz
x,y,z
-x,y,-z
-x,-y,-z
x,-y,z
1/2+x,1/2+y,z
1/2-x,1/2+y,-z
1/2-x,1/2-y,-z
1/2+x,1/2-y,z
loop_
_atom_site_type_symbol
_atom_site_label
_atom_site_fract_x
_atom_site_fract_y
_atom_site_fract_z
Si Si1 0.152014 0.672527 0.999677
Si Si2 0.315733 0.175502 0.366006
Si Si3 0.878217 0.326106 0.081721
Si Si4 0.398628 0.669327 0.631247
Si Si5 0.669927 0.326727 0.554460
Si Si6 0.958929 0.175310 0.261387
Si Si7 0.203475 0.675370 0.189021
Si Si8 0.237476 0.672395 0.268418
O O1 0.172587 0.500000 0.999498
O O2 0.017643 0.715249 0.049459
O O3 0.250000 0.750000 0.000000
O O4 0.167433 0.715913 0.949602
O O5 0.191906 0.218756 0.378309
O O6 0.304866 0.249154 0.411204
O O7 0.426500 0.245531 0.311574
O O8 0.335276 0.000000 0.364523
O O9 0.856966 0.500000 0.095688
O O10 0.806958 0.225162 0.131478
O O11 0.377251 0.500000 0.648143
O O12 0.532338 0.698791 0.579501
O O13 0.374951 0.756518 0.678223
O O14 0.701563 0.500000 0.548842
O O15 0.750000 0.250000 0.500000
O O16 0.861235 0.218643 0.255281
O O17 0.082089 0.239816 0.210883
O O18 0.968006 0.000000 0.265826
O O19 0.183706 0.500000 0.191115
O O20 0.242415 0.726085 0.222111
O O21 0.215078 0.500000 0.276977
#
# Coordination Sequence:
#
# PCOD8100973 Si02
#       8
#     8   8   8   8   8   8   8   8
#     4   9  19  37  60  81 105 140 183 225 270 320
#     4  10  20  37  58  80 106 138 176 221 265 314
#     4   9  20  38  55  77 110 146 179 217 269 327
#     4   9  20  37  57  78 104 138 176 215 262 317
#     4  11  23  38  55  79 107 139 177 219 269 323
#     4  10  20  36  56  79 108 144 179 214 262 321
#     4  11  22  35  53  81 113 144 179 224 267 309
#     4   9  20  36  54  77 107 140 176 215 260 312
#
# _framework density 18.761900000000001
#
# number of rings (size 3 to 8) (size 9 to 14) (size 15 to 20)
#    0.000    2.250    0.000    3.000    0.000    7.500 
#    0.000    7.500    0.000    0.000    0.000    0.000 
#    0.000    0.000    0.000    0.000    0.000    0.000 
#
# Total GULP energy -396868.564969 kJ/mol
# GULP energy per Si atom -12402.142655 kJ/mol
# Density = 1.871920 g / cm^3
# Si number density = 18.761900 Si / 1000 Ang^3
#
#
#
# Elastic Constant Matrix: (Units=GPa)
#
#
# Indices 1 2 3 4 5 6 
#
# 1 89.9843 37.7702 37.5101 0.0000 -5.7646 -0.0001
# 2 37.7702 71.8104 42.3533 0.0000 -5.7128 -0.0002
# 3 37.5101 42.3533 108.8713 0.0000 -10.8110 0.0000
# 4 0.0000 0.0000 0.0000 39.8030 0.0000 -0.6983
# 5 -5.7646 -5.7128 -10.8110 0.0000 22.0508 0.0000
# 6 -0.0001 -0.0002 0.0000 -0.6983 0.0000 32.0536
#
#
#
# Elastic Compliance Matrix: (Units=1/GPa)
#
#
# Indices 1 2 3 4 5 6 
#
# 1 0.014868 -0.006201 -0.002611 0.000000 0.001000 0.000000
# 2 -0.006201 0.020693 -0.005826 0.000000 0.000884 0.000000
# 3 -0.002611 -0.005826 0.012755 0.000000 0.004061 0.000000
# 4 0.000000 0.000000 0.000000 0.025133 0.000000 0.000548
# 5 0.001000 0.000884 0.004061 0.000000 0.047831 0.000000
# 6 0.000000 0.000000 0.000000 0.000548 0.000000 0.031210
#
#
# Mechanical properties :
#
#
# Convention : Reuss Voigt Hill
#
# Bulk Modulus (GPa) = 52.51970 56.21478 54.36724
# Shear Modulus (GPa) = 26.57974 28.98363 27.78168
#
# Velocity S-wave (km/s) = 3.76797 3.93468 3.85223
# Velocity P-wave (km/s) = 6.85446 7.11825 6.98760
#
# Compressibility (1/GPa) = 0.01904048
#
# Stress axis : x y z
#
# Youngs Moduli (GPa) = 67.25733 48.32455 78.40340
#
# Poissons Ratio (x) = 0.29964 0.20472
# Poissons Ratio (y) = 0.41704 0.45678
# Poissons Ratio (z) = 0.17562 0.28154
#
# Static dielectric constant tensor:
#      x y z
#    x 3.708260 0.000000 -0.064960 
#    y 0.000000 3.456710 0.000000 
#    z -0.064960 0.000000 3.238140 
# 
# 
# High freq. dielectric constant tensor:
#      x y z
#    x 1.738200 0.000000 -0.001500 
#    y 0.000000 1.733100 0.000000 
#    z -0.001500 0.000000 1.726860 
# 
# From -- ./inp_files/375440.got.cif
#   From: 2010.06.25/outbox.cif.g09.slc.cpg/sg12_188_cif.got.tgz:375440.got - 2010.06.28 00:19:55.
