data_PCOD8100053
_publ_section_title
;
Structure prediction by ZEFSAII (Michael W. Deem and Ramdas Pophale) SiO2 
 PCOD8100053
Probable space group: C 2/M
;
_chemical_formula_sum "Si O2"
_cell_formula_units_Z 40
_cell_length_a 27.009812
_cell_length_b 9.160055
_cell_length_c 21.804295
_cell_angle_alpha 90.000000
_cell_angle_beta 158.752897
_cell_angle_gamma 90.000000
_cell_volume 1954.965022
_symmetry_space_group_name_H-M "C 2/M"
_symmetry_group_IT_number 12
_symmetry_cell_setting 'monoclinic'
loop_
_space_group_symop_operation_xyz
x,y,z
-x,y,-z
-x,-y,-z
x,-y,z
1/2+x,1/2+y,z
1/2-x,1/2+y,-z
1/2-x,1/2-y,-z
1/2+x,1/2-y,z
loop_
_atom_site_type_symbol
_atom_site_label
_atom_site_fract_x
_atom_site_fract_y
_atom_site_fract_z
Si Si1 0.338230 0.829994 0.154413
Si Si2 0.391099 0.163949 0.600753
Si Si3 0.911940 0.834692 0.745793
Si Si4 0.361246 0.330556 0.308085
Si Si5 0.077760 0.667799 0.031696
O O1 0.499039 0.812976 0.325748
O O2 0.318447 0.758363 0.198087
O O3 0.294630 0.000000 0.106367
O O4 0.250000 0.750000 0.000000
O O5 0.238359 0.184748 0.397480
O O6 0.413850 0.285860 0.677841
O O7 0.404116 0.000000 0.643978
O O8 0.961924 0.000000 0.806202
O O9 0.023091 0.739028 0.907347
O O10 0.500000 0.271663 0.500000
O O11 0.377396 0.500000 0.307894
O O12 0.241572 0.310701 0.220856
O O13 0.036254 0.500000 0.981121
O O14 0.000000 0.740869 0.000000
#
# Coordination Sequence:
#
# PCOD8100053 Si02
#       5
#     8   8   8   8   8
#     4  11  23  39  61  88 120 158 200 245 298 354
#     4   9  20  37  56  82 117 152 187 236 291 345
#     4  10  20  35  57  86 115 147 192 240 288 340
#     4  10  23  42  62  88 122 158 199 246 296 354
#     4  10  22  39  59  83 114 153 193 236 288 344
#
# _framework density 20.460723999999999
#
# number of rings (size 3 to 8) (size 9 to 14) (size 15 to 20)
#    0.000    2.000    0.000    2.400    2.800    8.800 
#    0.000    0.000    0.000    0.000    0.000    0.000 
#    0.000    0.000    0.000    0.000    0.000    0.000 
#
# Total GULP energy -247966.547450 kJ/mol
# GULP energy per Si atom -12398.327372 kJ/mol
# Density = 2.041415 g / cm^3
# Si number density = 20.460724 Si / 1000 Ang^3
#
#
#
# Elastic Constant Matrix: (Units=GPa)
#
#
# Indices 1 2 3 4 5 6 
#
# 1 93.3760 39.4591 40.2334 0.0000 10.7863 0.0000
# 2 39.4591 75.0075 44.1218 0.0000 1.9674 0.0000
# 3 40.2334 44.1218 106.4857 0.0001 2.8361 0.0001
# 4 0.0000 0.0000 0.0001 22.2511 0.0001 -1.0622
# 5 10.7863 1.9674 2.8361 0.0001 35.1243 0.0001
# 6 0.0000 0.0000 0.0001 -1.0622 0.0001 28.7791
#
#
#
# Elastic Compliance Matrix: (Units=1/GPa)
#
#
# Indices 1 2 3 4 5 6 
#
# 1 0.015038 -0.005985 -0.003094 0.000000 -0.004033 0.000000
# 2 -0.005985 0.020016 -0.006064 0.000000 0.001206 0.000000
# 3 -0.003094 -0.006064 0.013067 0.000000 0.000235 0.000000
# 4 0.000000 0.000000 0.000000 0.045021 0.000000 0.001662
# 5 -0.004033 0.001206 0.000235 0.000000 0.029622 0.000000
# 6 0.000000 0.000000 0.000000 0.001662 0.000000 0.034809
#
#
# Mechanical properties :
#
#
# Convention : Reuss Voigt Hill
#
# Bulk Modulus (GPa) = 56.07613 58.05530 57.06572
# Shear Modulus (GPa) = 25.79928 27.30125 26.55026
#
# Velocity S-wave (km/s) = 3.55479 3.65680 3.60616
# Velocity P-wave (km/s) = 6.65695 6.80186 6.72979
#
# Compressibility (1/GPa) = 0.01783290
#
# Stress axis : x y z
#
# Youngs Moduli (GPa) = 66.49984 49.95983 76.53073
#
# Poissons Ratio (x) = 0.29900 0.23682
# Poissons Ratio (y) = 0.39799 0.46412
# Poissons Ratio (z) = 0.20578 0.30298
#
# Static dielectric constant tensor:
#      x y z
#    x 3.667760 0.000000 0.359080 
#    y 0.000000 3.709130 0.000000 
#    z 0.359080 0.000000 3.860800 
# 
# 
# High freq. dielectric constant tensor:
#      x y z
#    x 1.791190 0.000000 0.022930 
#    y 0.000000 1.798860 0.000000 
#    z 0.022930 0.000000 1.806310 
# 
# From -- ./inp_files/353116.got.cif
#   From: 2010.06.25/outbox.cif.g09.slc.cpg/sg12_177_cif.got.tgz:353116.got - 2010.06.28 00:19:55.
