data_PCOD8100427
_publ_section_title
;
Structure prediction by ZEFSAII (Michael W. Deem and Ramdas Pophale) SiO2 
 PCOD8100427
Probable space group: C 2/M
;
_chemical_formula_sum "Si O2"
_cell_formula_units_Z 56
_cell_length_a 24.736120
_cell_length_b 8.448620
_cell_length_c 16.604111
_cell_angle_alpha 90.000000
_cell_angle_beta 119.825932
_cell_angle_gamma 90.000000
_cell_volume 3010.389633
_symmetry_space_group_name_H-M "C 2/M"
_symmetry_group_IT_number 12
_symmetry_cell_setting 'monoclinic'
loop_
_space_group_symop_operation_xyz
x,y,z
-x,y,-z
-x,-y,-z
x,-y,z
1/2+x,1/2+y,z
1/2-x,1/2+y,-z
1/2-x,1/2-y,-z
1/2+x,1/2-y,z
loop_
_atom_site_type_symbol
_atom_site_label
_atom_site_fract_x
_atom_site_fract_y
_atom_site_fract_z
Si Si1 0.631244 0.315987 0.898816
Si Si2 0.990142 0.816489 0.772752
Si Si3 0.321269 0.181869 0.904029
Si Si4 0.560903 0.683768 0.092818
Si Si5 0.405142 0.314093 0.400498
Si Si6 0.691287 0.182794 0.786556
Si Si7 0.976015 0.684063 0.595850
O O1 0.633798 0.500000 0.923924
O O2 0.560125 0.256629 0.841578
O O3 0.665524 0.288580 0.840217
O O4 0.666006 0.218224 0.993284
O O5 0.947681 0.785127 0.818921
O O6 0.960257 0.718512 0.677138
O O7 0.991266 0.000000 0.749844
O O8 0.380813 0.215811 0.893163
O O9 0.264514 0.287843 0.829657
O O10 0.302343 0.000000 0.881653
O O11 0.572862 0.500000 0.082022
O O12 0.500000 0.742367 0.000000
O O13 0.395085 0.500000 0.400914
O O14 0.342698 0.233749 0.320792
O O15 0.418575 0.240936 0.498320
O O16 0.462076 0.280222 0.382030
O O17 0.678060 0.000000 0.795350
O O18 0.988564 0.500000 0.590663
#
# Coordination Sequence:
#
# PCOD8100427 Si02
#       7
#     8   8   8   8   8   8   8
#     4  11  21  37  58  83 116 154 191 231 282 339
#     4  10  20  35  59  84 115 152 189 234 287 337
#     4  12  25  39  56  82 116 154 195 236 282 337
#     4  10  20  39  61  82 110 150 195 238 282 331
#     4  11  21  36  57  82 115 150 188 231 285 342
#     4  12  24  39  58  83 115 152 192 235 286 342
#     4  11  21  34  55  85 118 149 188 233 282 336
#
# _framework density 18.602243999999999
#
# number of rings (size 3 to 8) (size 9 to 14) (size 15 to 20)
#    0.000    1.000    2.857    6.857    0.000    1.429 
#    0.000    0.000    0.000    0.857    0.000    0.000 
#    0.000    0.000    0.000    0.000    0.000    0.000 
#
# Total GULP energy -347400.394585 kJ/mol
# GULP energy per Si atom -12407.156949 kJ/mol
# Density = 1.855990 g / cm^3
# Si number density = 18.602244 Si / 1000 Ang^3
#
#
#
# Elastic Constant Matrix: (Units=GPa)
#
#
# Indices 1 2 3 4 5 6 
#
# 1 65.5817 17.9489 39.6476 0.0000 6.2956 0.0000
# 2 17.9489 75.2885 31.1593 0.0000 -3.0268 0.0000
# 3 39.6476 31.1593 136.5668 0.0000 1.7406 0.0000
# 4 0.0000 0.0000 0.0000 32.1837 0.0000 -0.6194
# 5 6.2956 -3.0268 1.7406 0.0000 25.2954 0.0000
# 6 0.0000 0.0000 0.0000 -0.6194 0.0000 25.1025
#
#
#
# Elastic Compliance Matrix: (Units=1/GPa)
#
#
# Indices 1 2 3 4 5 6 
#
# 1 0.019471 -0.002785 -0.004956 0.000000 -0.004838 0.000000
# 2 -0.002785 0.015166 -0.002686 0.000000 0.002693 0.000000
# 3 -0.004956 -0.002686 0.009371 0.000000 0.000267 0.000000
# 4 0.000000 0.000000 0.000000 0.031086 0.000000 0.000767
# 5 -0.004838 0.002693 0.000267 0.000000 0.041041 0.000000
# 6 0.000000 0.000000 0.000000 0.000767 0.000000 0.039856
#
#
# Mechanical properties :
#
#
# Convention : Reuss Voigt Hill
#
# Bulk Modulus (GPa) = 43.18981 50.54985 46.86983
# Shear Modulus (GPa) = 27.09113 29.09507 28.09310
#
# Velocity S-wave (km/s) = 3.82034 3.95911 3.89034
# Velocity P-wave (km/s) = 6.53666 6.93776 6.74019
#
# Compressibility (1/GPa) = 0.02315361
#
# Stress axis : x y z
#
# Youngs Moduli (GPa) = 51.35887 65.93612 106.71759
#
# Poissons Ratio (x) = 0.18366 0.52884
# Poissons Ratio (y) = 0.14306 0.28664
# Poissons Ratio (z) = 0.25451 0.17710
#
# Static dielectric constant tensor:
#      x y z
#    x 3.182070 0.000000 -0.005210 
#    y 0.000000 3.377570 0.000000 
#    z -0.005210 0.000000 3.576260 
# 
# 
# High freq. dielectric constant tensor:
#      x y z
#    x 1.695690 0.000000 -0.004480 
#    y 0.000000 1.730550 0.000000 
#    z -0.004480 0.000000 1.727780 
# 
# From -- ./inp_files/288438.got.cif
#   From: 2010.06.25/outbox.cif.g09.slc.cpg/sg12_145_cif.got.tgz:288438.got - 2010.06.28 00:19:55.
