data_PCOD8100873
_publ_section_title
;
Structure prediction by ZEFSAII (Michael W. Deem and Ramdas Pophale) SiO2 
 PCOD8100873
Probable space group: C 2/M
;
_chemical_formula_sum "Si O2"
_cell_formula_units_Z 56
_cell_length_a 29.805461
_cell_length_b 8.630821
_cell_length_c 21.818775
_cell_angle_alpha 90.000000
_cell_angle_beta 146.654800
_cell_angle_gamma 90.000000
_cell_volume 3085.246280
_symmetry_space_group_name_H-M "C 2/M"
_symmetry_group_IT_number 12
_symmetry_cell_setting 'monoclinic'
loop_
_space_group_symop_operation_xyz
x,y,z
-x,y,-z
-x,-y,-z
x,-y,z
1/2+x,1/2+y,z
1/2-x,1/2+y,-z
1/2-x,1/2-y,-z
1/2+x,1/2-y,z
loop_
_atom_site_type_symbol
_atom_site_label
_atom_site_fract_x
_atom_site_fract_y
_atom_site_fract_z
Si Si1 0.419905 0.678818 0.742619
Si Si2 0.878565 0.318643 0.347859
Si Si3 0.414819 0.820725 0.607946
Si Si4 0.047606 0.179848 0.994148
Si Si5 0.781887 0.680074 0.793871
Si Si6 0.485817 0.680868 0.574102
Si Si7 0.736461 0.680812 0.359207
O O1 0.416400 0.500000 0.719098
O O2 0.436704 0.781777 0.702488
O O3 0.492804 0.711206 0.872594
O O4 0.334679 0.729862 0.675511
O O5 0.888249 0.500000 0.347933
O O6 0.783964 0.272514 0.240627
O O7 0.923792 0.229300 0.344324
O O8 0.918257 0.274236 0.458353
O O9 0.474308 0.722246 0.632059
O O10 0.321093 0.776253 0.488136
O O11 0.431301 0.000000 0.614131
O O12 0.070465 0.000000 0.028089
O O13 0.129540 0.277325 0.079350
O O14 0.000000 0.238261 0.000000
O O15 0.765260 0.500000 0.783717
O O16 0.774055 0.721297 0.713873
O O17 0.472740 0.500000 0.547739
O O18 0.729983 0.500000 0.334329
#
# Coordination Sequence:
#
# PCOD8100873 Si02
#       7
#     8   8   8   8   8   8   8
#     4  10  21  37  57  79 109 152 196 234 277 328
#     4  11  21  36  57  82 113 148 185 226 281 339
#     4  11  22  35  55  82 116 155 188 226 280 337
#     4  10  20  38  60  79 107 151 193 235 281 331
#     4  12  23  34  55  85 116 147 184 236 284 328
#     4  11  21  35  56  84 115 145 184 230 278 332
#     4  10  20  36  55  78 112 154 190 226 277 338
#
# _framework density 18.150901999999999
#
# number of rings (size 3 to 8) (size 9 to 14) (size 15 to 20)
#    0.000    1.286    2.857    5.571    0.000    2.000 
#    0.000    0.000    0.000    0.857    0.000    0.000 
#    0.000    0.000    0.000    0.000    0.000    0.000 
#
# Total GULP energy -347378.090352 kJ/mol
# GULP energy per Si atom -12406.360370 kJ/mol
# Density = 1.810959 g / cm^3
# Si number density = 18.150902 Si / 1000 Ang^3
#
#
#
# Elastic Constant Matrix: (Units=GPa)
#
#
# Indices 1 2 3 4 5 6 
#
# 1 113.5441 31.7707 47.0427 0.0000 11.7383 0.0000
# 2 31.7707 79.7685 24.0744 0.0000 2.3703 0.0000
# 3 47.0427 24.0744 79.5793 0.0000 4.5743 0.0000
# 4 0.0000 0.0000 0.0000 24.8643 0.0000 -2.4331
# 5 11.7383 2.3703 4.5743 0.0000 24.7285 0.0000
# 6 0.0000 0.0000 0.0000 -2.4331 0.0000 30.9663
#
#
#
# Elastic Compliance Matrix: (Units=1/GPa)
#
#
# Indices 1 2 3 4 5 6 
#
# 1 0.012767 -0.003027 -0.006367 0.000000 -0.004592 0.000000
# 2 -0.003027 0.014521 -0.002634 0.000000 0.000532 0.000000
# 3 -0.006367 -0.002634 0.017121 0.000000 0.000108 0.000000
# 4 0.000000 0.000000 0.000000 0.040530 0.000000 0.003185
# 5 -0.004592 0.000532 0.000108 0.000000 0.042548 0.000000
# 6 0.000000 0.000000 0.000000 0.003185 0.000000 0.032543
#
#
# Mechanical properties :
#
#
# Convention : Reuss Voigt Hill
#
# Bulk Modulus (GPa) = 49.13543 53.18527 51.16035
# Shear Modulus (GPa) = 26.19571 27.44545 26.82058
#
# Velocity S-wave (km/s) = 3.80309 3.89275 3.84818
# Velocity P-wave (km/s) = 6.81278 7.04060 6.92763
#
# Compressibility (1/GPa) = 0.02035191
#
# Stress axis : x y z
#
# Youngs Moduli (GPa) = 78.32739 68.86584 58.40822
#
# Poissons Ratio (x) = 0.20844 0.37191
# Poissons Ratio (y) = 0.23707 0.15386
# Poissons Ratio (z) = 0.49875 0.18141
#
# Static dielectric constant tensor:
#      x y z
#    x 3.426570 0.000000 0.186250 
#    y 0.000000 3.338000 0.000000 
#    z 0.186250 0.000000 3.227880 
# 
# 
# High freq. dielectric constant tensor:
#      x y z
#    x 1.706260 0.000000 0.012330 
#    y 0.000000 1.708720 0.000000 
#    z 0.012330 0.000000 1.683340 
# 
# From -- ./inp_files/329720.got.cif
#   From: 2010.06.25/outbox.cif.g09.slc.cpg/sg12_165_cif.got.tgz:329720.got - 2010.06.28 00:19:55.
