data_PCOD8100992
_publ_section_title
;
Structure prediction by ZEFSAII (Michael W. Deem and Ramdas Pophale) SiO2 
 PCOD8100992
Probable space group: C 2/M
;
_chemical_formula_sum "Si O2"
_cell_formula_units_Z 64
_cell_length_a 28.845750
_cell_length_b 9.102716
_cell_length_c 15.054869
_cell_angle_alpha 90.000000
_cell_angle_beta 57.923741
_cell_angle_gamma 90.000000
_cell_volume 3349.566176
_symmetry_space_group_name_H-M "C 2/M"
_symmetry_group_IT_number 12
_symmetry_cell_setting 'monoclinic'
loop_
_space_group_symop_operation_xyz
x,y,z
-x,y,-z
-x,-y,-z
x,-y,z
1/2+x,1/2+y,z
1/2-x,1/2+y,-z
1/2-x,1/2-y,-z
1/2+x,1/2-y,z
loop_
_atom_site_type_symbol
_atom_site_label
_atom_site_fract_x
_atom_site_fract_y
_atom_site_fract_z
Si Si1 0.770951 0.671439 0.891755
Si Si2 0.372657 0.671889 0.571875
Si Si3 0.031178 0.674153 0.190826
Si Si4 0.848130 0.831520 0.241426
Si Si5 0.080663 0.829769 0.663045
Si Si6 0.250104 0.827111 0.262578
Si Si7 0.555761 0.327995 0.990695
Si Si8 0.604589 0.830374 0.278566
O O1 0.756459 0.500000 0.909813
O O2 0.739965 0.743450 0.840047
O O3 0.835317 0.700999 0.820080
O O4 0.750000 0.750000 0.000000
O O5 0.379699 0.500000 0.576120
O O6 0.398595 0.726287 0.453414
O O7 0.308893 0.716401 0.637689
O O8 0.405529 0.745694 0.619180
O O9 0.031588 0.500000 0.181654
O O10 0.063511 0.740492 0.074277
O O11 0.061541 0.726291 0.249522
O O12 0.969769 0.732496 0.254487
O O13 0.870267 0.806735 0.317891
O O14 0.795751 0.727095 0.285007
O O15 0.830406 0.000000 0.245243
O O16 0.894138 0.786243 0.123655
O O17 0.062476 0.000000 0.679925
O O18 0.255339 0.000000 0.241213
O O19 0.553536 0.500000 0.014591
O O20 0.500000 0.277276 0.000000
O O21 0.595741 0.000000 0.308784
#
# Coordination Sequence:
#
# PCOD8100992 Si02
#       8
#     8   8   8   8   8   8   8   8
#     4  10  20  36  56  80 110 149 191 231 280 336
#     4   9  20  39  62  84 109 147 191 235 280 329
#     4  11  23  37  56  86 117 149 187 231 286 336
#     4  10  21  37  58  84 113 150 191 229 279 339
#     4  10  21  40  61  82 112 149 192 236 277 333
#     4  10  21  37  56  83 116 146 185 236 284 334
#     4  10  20  38  59  80 111 153 191 229 278 334
#     4   9  21  39  56  79 115 149 181 228 285 337
#
# _framework density 19.106953000000001
#
# number of rings (size 3 to 8) (size 9 to 14) (size 15 to 20)
#    0.000    2.125    1.250    1.125    1.750    4.750 
#    0.000    2.500    0.000    0.000    0.000    0.000 
#    0.000    0.000    0.000    0.000    0.000    0.000 
#
# Total GULP energy -396945.592591 kJ/mol
# GULP energy per Si atom -12404.549768 kJ/mol
# Density = 1.906346 g / cm^3
# Si number density = 19.106953 Si / 1000 Ang^3
#
#
#
# Elastic Constant Matrix: (Units=GPa)
#
#
# Indices 1 2 3 4 5 6 
#
# 1 76.4183 25.2027 13.5013 0.0000 16.5975 0.0000
# 2 25.2027 58.2286 32.5846 0.0000 9.6024 0.0000
# 3 13.5013 32.5846 103.7151 0.0000 25.6934 0.0000
# 4 0.0000 0.0000 0.0000 23.3122 0.0000 6.1969
# 5 16.5975 9.6024 25.6934 0.0000 25.7172 0.0000
# 6 0.0000 0.0000 0.0000 6.1969 0.0000 34.4613
#
#
#
# Elastic Compliance Matrix: (Units=1/GPa)
#
#
# Indices 1 2 3 4 5 6 
#
# 1 0.017452 -0.007259 0.002827 0.000000 -0.011377 0.000000
# 2 -0.007259 0.023910 -0.007330 0.000000 0.003081 0.000000
# 3 0.002827 -0.007330 0.015084 0.000000 -0.014158 0.000000
# 4 0.000000 0.000000 0.000000 0.045049 0.000000 -0.008101
# 5 -0.011377 0.003081 -0.014158 0.000000 0.059222 0.000000
# 6 0.000000 0.000000 0.000000 -0.008101 0.000000 0.030475
#
#
# Mechanical properties :
#
#
# Convention : Reuss Voigt Hill
#
# Bulk Modulus (GPa) = 30.37572 42.32656 36.35114
# Shear Modulus (GPa) = 22.15445 27.83638 24.99542
#
# Velocity S-wave (km/s) = 3.40883 3.82104 3.62081
# Velocity P-wave (km/s) = 5.60587 6.45505 6.04539
#
# Compressibility (1/GPa) = 0.03292103
#
# Stress axis : x y z
#
# Youngs Moduli (GPa) = 57.30148 41.82431 66.29556
#
# Poissons Ratio (x) = 0.30362 -0.18745
# Poissons Ratio (y) = 0.41598 0.48594
# Poissons Ratio (z) = -0.16202 0.30657
#
# Static dielectric constant tensor:
#      x y z
#    x 3.582040 0.000000 0.120750 
#    y 0.000000 3.432870 0.000000 
#    z 0.120750 0.000000 3.574030 
# 
# 
# High freq. dielectric constant tensor:
#      x y z
#    x 1.746060 0.000000 0.007800 
#    y 0.000000 1.739870 0.000000 
#    z 0.007800 0.000000 1.746230 
# 
# From -- ./inp_files/249026.got.cif
#   From: 2010.06.25/outbox.cif.g09.slc.cpg/sg12_125_cif.got.tgz:249026.got - 2010.06.28 00:19:55.
