data_PCOD8100522
_publ_section_title
;
Structure prediction by ZEFSAII (Michael W. Deem and Ramdas Pophale) SiO2 
 PCOD8100522
Probable space group: C 2/M
;
_chemical_formula_sum "Si O2"
_cell_formula_units_Z 48
_cell_length_a 30.145841
_cell_length_b 8.742366
_cell_length_c 14.855170
_cell_angle_alpha 90.000000
_cell_angle_beta 39.990090
_cell_angle_gamma 90.000000
_cell_volume 2516.007755
_symmetry_space_group_name_H-M "C 2/M"
_symmetry_group_IT_number 12
_symmetry_cell_setting 'monoclinic'
loop_
_space_group_symop_operation_xyz
x,y,z
-x,y,-z
-x,-y,-z
x,-y,z
1/2+x,1/2+y,z
1/2-x,1/2+y,-z
1/2-x,1/2-y,-z
1/2+x,1/2-y,z
loop_
_atom_site_type_symbol
_atom_site_label
_atom_site_fract_x
_atom_site_fract_y
_atom_site_fract_z
Si Si1 0.959589 0.678618 0.149865
Si Si2 0.196932 0.181475 0.845734
Si Si3 0.287770 0.318980 0.855817
Si Si4 0.052130 0.181200 0.150941
Si Si5 0.441715 0.318568 0.656527
Si Si6 0.196597 0.680009 0.652102
O O1 0.974101 0.500000 0.136877
O O2 0.879465 0.717727 0.265569
O O3 0.986695 0.759664 0.197353
O O4 0.000000 0.743904 0.000000
O O5 0.257005 0.252848 0.812345
O O6 0.209278 0.238012 0.726373
O O7 0.201869 0.000000 0.842980
O O8 0.122881 0.241198 0.995935
O O9 0.279375 0.500000 0.871725
O O10 0.367480 0.268556 0.734597
O O11 0.250000 0.250000 0.000000
O O12 0.047382 0.246609 0.259665
O O13 0.051326 0.000000 0.152475
O O14 0.500000 0.249010 0.500000
O O15 0.447655 0.500000 0.650544
O O16 0.208264 0.500000 0.645239
O O17 0.250000 0.750000 0.500000
#
# Coordination Sequence:
#
# PCOD8100522 Si02
#       6
#     8   8   8   8   8   8
#     4  10  21  38  60  87 117 151 195 245 296 352
#     4  11  22  38  60  90 122 154 201 250 297 359
#     4  11  21  36  60  89 119 157 202 248 299 354
#     4  10  20  35  59  89 117 153 199 245 292 352
#     4   9  19  37  58  84 118 152 192 242 293 348
#     4  11  24  42  62  88 123 160 196 244 303 357
#
# _framework density 19.077842
#
# number of rings (size 3 to 8) (size 9 to 14) (size 15 to 20)
#    0.000    1.667    3.333    1.500    0.000    3.667 
#    0.000    1.667    0.000    3.500    0.000    0.000 
#    0.000    0.000    0.000    0.000    0.000    0.000 
#
# Total GULP energy -297693.179309 kJ/mol
# GULP energy per Si atom -12403.882471 kJ/mol
# Density = 1.903442 g / cm^3
# Si number density = 19.077842 Si / 1000 Ang^3
#
#
#
# Elastic Constant Matrix: (Units=GPa)
#
#
# Indices 1 2 3 4 5 6 
#
# 1 170.2387 42.9428 76.7753 -0.0001 5.7715 0.0000
# 2 42.9428 52.8689 38.7736 -0.0012 -4.2948 0.0001
# 3 76.7753 38.7736 164.8410 -0.0004 5.6097 0.0000
# 4 -0.0001 -0.0012 -0.0004 25.4054 0.0001 0.6159
# 5 5.7715 -4.2948 5.6097 0.0001 34.3624 0.0000
# 6 0.0000 0.0001 0.0000 0.6159 0.0000 38.0153
#
#
#
# Elastic Compliance Matrix: (Units=1/GPa)
#
#
# Indices 1 2 3 4 5 6 
#
# 1 0.008395 -0.004980 -0.002684 0.000000 -0.001594 0.000000
# 2 -0.004980 0.026304 -0.004031 0.000001 0.004782 0.000000
# 3 -0.002684 -0.004031 0.008313 0.000000 -0.001410 0.000000
# 4 0.000000 0.000001 0.000000 0.039377 0.000000 -0.000638
# 5 -0.001594 0.004782 -0.001410 0.000000 0.030197 0.000000
# 6 0.000000 0.000000 0.000000 -0.000638 0.000000 0.026316
#
#
# Mechanical properties :
#
#
# Convention : Reuss Voigt Hill
#
# Bulk Modulus (GPa) = 50.96231 78.32577 64.64404
# Shear Modulus (GPa) = 29.61537 34.85375 32.23456
#
# Velocity S-wave (km/s) = 3.94425 4.27889 4.11497
# Velocity P-wave (km/s) = 6.89302 8.09672 7.51899
#
# Compressibility (1/GPa) = 0.01962234
#
# Stress axis : x y z
#
# Youngs Moduli (GPa) = 119.12037 38.01728 120.29644
#
# Poissons Ratio (x) = 0.18931 0.32293
# Poissons Ratio (y) = 0.59316 0.48487
# Poissons Ratio (z) = 0.31977 0.15323
#
# Static dielectric constant tensor:
#      x y z
#    x 3.704610 -0.000010 -0.002670 
#    y -0.000010 2.853640 -0.000010 
#    z -0.002670 -0.000010 3.715670 
# 
# 
# High freq. dielectric constant tensor:
#      x y z
#    x 1.759220 0.000000 0.000600 
#    y 0.000000 1.728380 0.000000 
#    z 0.000600 0.000000 1.744890 
# 
# From -- ./inp_files/230457.got.cif
#   From: 2010.06.25/outbox.cif.g09.slc.cpg/sg12_116_cif.got.tgz:230457.got - 2010.06.28 00:19:55.
