data_PCOD8100025
_publ_section_title
;
Structure prediction by ZEFSAII (Michael W. Deem and Ramdas Pophale) SiO2 
 PCOD8100025
Probable space group: C 2/M
;
_chemical_formula_sum "Si O2"
_cell_formula_units_Z 56
_cell_length_a 27.784402
_cell_length_b 9.953182
_cell_length_c 14.944245
_cell_angle_alpha 90.000000
_cell_angle_beta 135.600084
_cell_angle_gamma 90.000000
_cell_volume 2891.514985
_symmetry_space_group_name_H-M "C 2/M"
_symmetry_group_IT_number 12
_symmetry_cell_setting 'monoclinic'
loop_
_space_group_symop_operation_xyz
x,y,z
-x,y,-z
-x,-y,-z
x,-y,z
1/2+x,1/2+y,z
1/2-x,1/2+y,-z
1/2-x,1/2-y,-z
1/2+x,1/2-y,z
loop_
_atom_site_type_symbol
_atom_site_label
_atom_site_fract_x
_atom_site_fract_y
_atom_site_fract_z
Si Si1 0.800677 0.157938 0.818027
Si Si2 0.913349 0.147874 0.317370
Si Si3 0.426600 0.341926 0.870341
Si Si4 0.485193 0.151474 0.617516
Si Si5 0.932567 0.849655 0.675367
Si Si6 0.651266 0.734813 0.592773
Si Si7 0.803014 0.848055 0.025324
O O1 0.863693 0.219819 0.844320
O O2 0.729239 0.218935 0.688498
O O3 0.795467 0.000000 0.796858
O O4 0.815028 0.196733 0.939445
O O5 0.860327 0.154081 0.330145
O O6 0.874095 0.164514 0.171826
O O7 0.970378 0.265622 0.396589
O O8 0.948953 0.000000 0.366887
O O9 0.428168 0.500000 0.889316
O O10 0.411445 0.306026 0.746983
O O11 0.500000 0.280698 0.000000
O O12 0.488355 0.240728 0.713329
O O13 0.405219 0.143654 0.479334
O O14 0.513805 0.000000 0.668006
O O15 0.866497 0.851823 0.520317
O O16 0.965098 0.000000 0.720530
O O17 0.773677 0.000000 0.990068
O O18 0.750000 0.750000 0.000000
#
# Coordination Sequence:
#
# PCOD8100025 Si02
#       7
#     8   8   8   8   8   8   8
#     4  10  20  35  57  85 117 150 191 241 287 334
#     4  11  22  36  58  86 119 154 193 239 287 339
#     4   9  19  36  61  88 112 143 191 243 290 341
#     4  10  23  37  55  83 117 157 194 232 284 343
#     4   9  20  37  58  84 113 147 191 242 288 334
#     4  10  21  34  58  80 119 151 193 229 289 339
#     4  10  21  37  57  84 115 151 190 234 283 337
#
# _framework density 19.367010000000001
#
# number of rings (size 3 to 8) (size 9 to 14) (size 15 to 20)
#    0.857    1.286    1.429    1.714    2.000    3.429 
#    0.000    0.000    0.000    2.143    0.000    0.000 
#    0.000    0.000    0.000    0.000    0.000    0.000 
#
# Total GULP energy -346878.911177 kJ/mol
# GULP energy per Si atom -12388.532542 kJ/mol
# Density = 1.932293 g / cm^3
# Si number density = 19.367010 Si / 1000 Ang^3
#
#
#
# Elastic Constant Matrix: (Units=GPa)
#
#
# Indices 1 2 3 4 5 6 
#
# 1 155.0158 49.2673 67.0165 0.0000 -2.9681 0.0000
# 2 49.2673 100.1100 24.3600 0.0000 -2.8486 0.0000
# 3 67.0165 24.3600 110.9432 0.0000 -13.0180 0.0000
# 4 0.0000 0.0000 0.0000 15.9805 0.0000 1.9111
# 5 -2.9681 -2.8486 -13.0180 0.0000 39.1300 0.0000
# 6 0.0000 0.0000 0.0000 1.9111 0.0000 26.3157
#
#
#
# Elastic Compliance Matrix: (Units=1/GPa)
#
#
# Indices 1 2 3 4 5 6 
#
# 1 0.009872 -0.003599 -0.005324 0.000000 -0.001284 0.000000
# 2 -0.003599 0.011865 -0.000376 0.000000 0.000466 0.000000
# 3 -0.005324 -0.000376 0.012760 0.000000 0.003814 0.000000
# 4 0.000000 0.000000 0.000000 0.063124 0.000000 -0.004584
# 5 -0.001284 0.000466 0.003814 0.000000 0.026761 0.000000
# 6 0.000000 0.000000 0.000000 -0.004584 0.000000 0.038333
#
#
# Mechanical properties :
#
#
# Convention : Reuss Voigt Hill
#
# Bulk Modulus (GPa) = 62.90149 71.92853 67.41501
# Shear Modulus (GPa) = 26.79344 31.31360 29.05352
#
# Velocity S-wave (km/s) = 3.72352 4.02537 3.87739
# Velocity P-wave (km/s) = 7.14390 7.66976 7.41149
#
# Compressibility (1/GPa) = 0.01589788
#
# Stress axis : x y z
#
# Youngs Moduli (GPa) = 101.29860 84.27994 78.37286
#
# Poissons Ratio (x) = 0.30336 0.41722
# Poissons Ratio (y) = 0.36461 0.02950
# Poissons Ratio (z) = 0.53927 0.03172
#
# Static dielectric constant tensor:
#      x y z
#    x 3.579550 0.000000 -0.239260 
#    y 0.000000 3.254860 0.000000 
#    z -0.239260 0.000000 3.871330 
# 
# 
# High freq. dielectric constant tensor:
#      x y z
#    x 1.747660 0.000000 -0.012220 
#    y 0.000000 1.721190 0.000000 
#    z -0.012220 0.000000 1.757270 
# 
# From -- ./inp_files/238894.got.cif
#   From: 2010.06.25/outbox.cif.g09.slc.cpg/sg12_120_cif.got.tgz:238894.got - 2010.06.28 00:19:55.
