data_PCOD8100213
_publ_section_title
;
Structure prediction by ZEFSAII (Michael W. Deem and Ramdas Pophale) SiO2 
 PCOD8100213
Probable space group: C 2/M
;
_chemical_formula_sum "Si O2"
_cell_formula_units_Z 56
_cell_length_a 18.975945
_cell_length_b 8.771074
_cell_length_c 20.145611
_cell_angle_alpha 90.000000
_cell_angle_beta 63.418459
_cell_angle_gamma 90.000000
_cell_volume 2998.603941
_symmetry_space_group_name_H-M "C 2/M"
_symmetry_group_IT_number 12
_symmetry_cell_setting 'monoclinic'
loop_
_space_group_symop_operation_xyz
x,y,z
-x,y,-z
-x,-y,-z
x,-y,z
1/2+x,1/2+y,z
1/2-x,1/2+y,-z
1/2-x,1/2-y,-z
1/2+x,1/2-y,z
loop_
_atom_site_type_symbol
_atom_site_label
_atom_site_fract_x
_atom_site_fract_y
_atom_site_fract_z
Si Si1 0.230627 0.326163 0.808752
Si Si2 0.528372 0.328849 0.554009
Si Si3 0.460496 0.826089 0.808911
Si Si4 0.823586 0.182347 0.428374
Si Si5 0.403498 0.334056 0.713598
Si Si6 0.211992 0.319720 0.080770
Si Si7 0.872644 0.179406 0.260093
O O1 0.203373 0.500000 0.831971
O O2 0.312259 0.314485 0.734719
O O3 0.241531 0.247459 0.875640
O O4 0.168857 0.244330 0.787441
O O5 0.500000 0.238538 0.500000
O O6 0.556456 0.500000 0.523743
O O7 0.599671 0.253317 0.564922
O O8 0.447625 0.332072 0.626808
O O9 0.435728 0.805587 0.743050
O O10 0.381456 0.776644 0.882486
O O11 0.536017 0.721654 0.789692
O O12 0.483773 0.000000 0.813520
O O13 0.750000 0.250000 0.500000
O O14 0.834812 0.238925 0.346560
O O15 0.818571 0.000000 0.430978
O O16 0.416847 0.500000 0.743955
O O17 0.222671 0.500000 0.077966
O O18 0.250000 0.250000 0.000000
O O19 0.865007 0.000000 0.262924
#
# Coordination Sequence:
#
# PCOD8100213 Si02
#       7
#     8   8   8   8   8   8   8
#     4  10  21  35  58  88 115 149 192 235 282 340
#     4   9  17  31  52  75 102 138 185 235 281 334
#     4  10  20  35  58  85 112 145 186 231 278 332
#     4  10  22  37  54  77 110 149 191 240 293 345
#     4   9  17  33  54  77 105 142 187 232 281 337
#     4  10  21  39  63  91 122 153 185 229 281 337
#     4  11  22  38  57  80 116 156 194 239 288 343
#
# _framework density 18.675356000000001
#
# number of rings (size 3 to 8) (size 9 to 14) (size 15 to 20)
#    0.000    2.143    1.429    1.714    2.000    3.429 
#    0.000    0.714    0.000    5.143    0.000    0.000 
#    0.000    0.000    0.000    0.000    0.000    0.000 
#
# Total GULP energy -346866.039321 kJ/mol
# GULP energy per Si atom -12388.072833 kJ/mol
# Density = 1.863285 g / cm^3
# Si number density = 18.675356 Si / 1000 Ang^3
#
#
#
# Elastic Constant Matrix: (Units=GPa)
#
#
# Indices 1 2 3 4 5 6 
#
# 1 115.5867 42.9395 76.4677 0.0000 3.8500 -0.0001
# 2 42.9395 66.6383 45.1523 -0.0001 -0.0055 -0.0002
# 3 76.4677 45.1523 130.4339 0.0000 -0.1683 0.0000
# 4 0.0000 -0.0001 0.0000 26.7055 0.0000 -0.0903
# 5 3.8500 -0.0055 -0.1683 0.0000 25.3917 -0.0001
# 6 -0.0001 -0.0002 0.0000 -0.0903 -0.0001 27.1099
#
#
#
# Elastic Compliance Matrix: (Units=1/GPa)
#
#
# Indices 1 2 3 4 5 6 
#
# 1 0.015425 -0.004978 -0.007323 0.000000 -0.002388 0.000000
# 2 -0.004978 0.021211 -0.004424 0.000000 0.000730 0.000000
# 3 -0.007323 -0.004424 0.013493 0.000000 0.001199 0.000000
# 4 0.000000 0.000000 0.000000 0.037446 0.000000 0.000125
# 5 -0.002388 0.000730 0.001199 0.000000 0.039753 0.000000
# 6 0.000000 0.000000 0.000000 0.000125 0.000000 0.036887
#
#
# Mechanical properties :
#
#
# Convention : Reuss Voigt Hill
#
# Bulk Modulus (GPa) = 59.95030 71.30865 65.62947
# Shear Modulus (GPa) = 24.60352 25.71471 25.15911
#
# Velocity S-wave (km/s) = 3.63358 3.71473 3.67438
# Velocity P-wave (km/s) = 7.05513 7.52763 7.29520
#
# Compressibility (1/GPa) = 0.01668048
#
# Stress axis : x y z
#
# Youngs Moduli (GPa) = 64.83110 47.14501 74.11465
#
# Poissons Ratio (x) = 0.23467 0.54273
# Poissons Ratio (y) = 0.32270 0.32785
# Poissons Ratio (z) = 0.47475 0.20855
#
# Static dielectric constant tensor:
#      x y z
#    x 3.578390 0.000000 -0.101770 
#    y 0.000000 3.483120 0.000000 
#    z -0.101770 0.000000 3.391690 
# 
# 
# High freq. dielectric constant tensor:
#      x y z
#    x 1.730240 0.000000 -0.006250 
#    y 0.000000 1.713030 0.000000 
#    z -0.006250 0.000000 1.719910 
# 
# From -- ./inp_files/275278.got.cif
#   From: 2010.06.25/outbox.cif.g09.slc.cpg/sg12_138_cif.got.tgz:275278.got - 2010.06.28 00:19:55.
