data_PCOD8100109
_publ_section_title
;
Structure prediction by ZEFSAII (Michael W. Deem and Ramdas Pophale) SiO2 
 PCOD8100109
Probable space group: C 2/M
;
_chemical_formula_sum "Si O2"
_cell_formula_units_Z 48
_cell_length_a 11.230649
_cell_length_b 20.304239
_cell_length_c 10.742760
_cell_angle_alpha 90.000000
_cell_angle_beta 79.949727
_cell_angle_gamma 90.000000
_cell_volume 2412.079065
_symmetry_space_group_name_H-M "C 2/M"
_symmetry_group_IT_number 12
_symmetry_cell_setting 'monoclinic'
loop_
_space_group_symop_operation_xyz
x,y,z
-x,y,-z
-x,-y,-z
x,-y,z
1/2+x,1/2+y,z
1/2-x,1/2+y,-z
1/2-x,1/2-y,-z
1/2+x,1/2-y,z
loop_
_atom_site_type_symbol
_atom_site_label
_atom_site_fract_x
_atom_site_fract_y
_atom_site_fract_z
Si Si1 0.668279 0.324986 0.755530
Si Si2 0.587360 0.210573 0.374389
Si Si3 0.556294 0.640593 0.367790
Si Si4 0.136304 0.926142 0.956957
Si Si5 0.555732 0.807063 0.851690
Si Si6 0.268001 0.926095 0.192569
O O1 0.779813 0.322091 0.637646
O O2 0.546448 0.352143 0.717269
O O3 0.706475 0.377155 0.853124
O O4 0.650363 0.252899 0.820031
O O5 0.500000 0.182004 0.500000
O O6 0.607078 0.287773 0.394712
O O7 0.541052 0.198002 0.242345
O O8 0.500000 0.606704 0.500000
O O9 0.664377 0.593835 0.307642
O O10 0.132854 0.000000 0.901694
O O11 0.210698 0.923838 0.068281
O O12 0.000000 0.899825 0.000000
O O13 0.619477 0.877170 0.822026
O O14 0.500000 0.802414 0.000000
O O15 0.313320 0.000000 0.216011
#
# Coordination Sequence:
#
# PCOD8100109 Si02
#       6
#     8   8   8   8   8   8
#     4  11  21  37  65  90 122 152 198 257 299 350
#     4  10  23  39  61  90 124 160 196 247 309 363
#     4  10  22  36  59  91 118 155 201 250 303 353
#     4  10  20  35  57  88 121 151 189 243 309 355
#     4  11  24  38  62  94 122 157 206 249 295 358
#     4  11  23  40  60  86 125 161 198 247 299 358
#
# _framework density 19.899846
#
# number of rings (size 3 to 8) (size 9 to 14) (size 15 to 20)
#    0.000    1.500    3.333    1.500    4.667    4.000 
#    0.000    0.833    0.000    1.000    0.000    0.000 
#    0.000    0.000    0.000    0.000    0.000    0.000 
#
# Total GULP energy -297583.755537 kJ/mol
# GULP energy per Si atom -12399.323147 kJ/mol
# Density = 1.985455 g / cm^3
# Si number density = 19.899846 Si / 1000 Ang^3
#
#
#
# Elastic Constant Matrix: (Units=GPa)
#
#
# Indices 1 2 3 4 5 6 
#
# 1 39.5899 17.6856 14.9089 0.0000 -17.5435 0.0000
# 2 17.6856 100.5194 34.9579 0.0000 -13.2996 0.0000
# 3 14.9089 34.9579 120.2446 0.0000 -22.0844 0.0000
# 4 0.0000 0.0000 0.0000 36.9877 0.0000 2.1041
# 5 -17.5435 -13.2996 -22.0844 0.0000 34.1008 0.0000
# 6 0.0000 0.0000 0.0000 2.1041 0.0000 34.9318
#
#
#
# Elastic Compliance Matrix: (Units=1/GPa)
#
#
# Indices 1 2 3 4 5 6 
#
# 1 0.034097 -0.003826 -0.000190 0.000000 0.015926 0.000000
# 2 -0.003826 0.011693 -0.002780 0.000000 0.000792 0.000000
# 3 -0.000190 -0.002780 0.010137 0.000000 0.005383 0.000000
# 4 0.000000 0.000000 0.000000 0.027129 0.000000 -0.001634
# 5 0.015926 0.000792 0.005383 0.000000 0.041313 0.000000
# 6 0.000000 0.000000 0.000000 -0.001634 0.000000 0.028726
#
#
# Mechanical properties :
#
#
# Convention : Reuss Voigt Hill
#
# Bulk Modulus (GPa) = 23.62094 43.93988 33.78041
# Shear Modulus (GPa) = 27.65525 34.05750 30.85637
#
# Velocity S-wave (km/s) = 3.73194 4.14145 3.94202
# Velocity P-wave (km/s) = 5.51956 6.70800 6.14259
#
# Compressibility (1/GPa) = 0.04233533
#
# Stress axis : x y z
#
# Youngs Moduli (GPa) = 29.32802 85.52207 98.65155
#
# Poissons Ratio (x) = 0.32718 0.01878
# Poissons Ratio (y) = 0.11220 0.27421
# Poissons Ratio (z) = 0.00558 0.23772
#
# Static dielectric constant tensor:
#      x y z
#    x 3.489040 0.000000 -0.090790 
#    y 0.000000 3.742540 0.000000 
#    z -0.090790 0.000000 3.715610 
# 
# 
# High freq. dielectric constant tensor:
#      x y z
#    x 1.769580 0.000000 -0.004650 
#    y 0.000000 1.765310 0.000000 
#    z -0.004650 0.000000 1.782320 
# 
# From -- ./inp_files/51347.got.cif
#   From: 2010.06.25/outbox.cif.g09.slc.cpg/sg12_26_cif.got.tgz:51347.got - 2010.06.28 00:19:55.
