data_PCOD8100069
_publ_section_title
;
Structure prediction by ZEFSAII (Michael W. Deem and Ramdas Pophale) SiO2 
 PCOD8100069
Probable space group: C 2/M
;
_chemical_formula_sum "Si O2"
_cell_formula_units_Z 56
_cell_length_a 9.388138
_cell_length_b 17.178382
_cell_length_c 20.190853
_cell_angle_alpha 90.000000
_cell_angle_beta 121.625007
_cell_angle_gamma 90.000000
_cell_volume 2772.682237
_symmetry_space_group_name_H-M "C 2/M"
_symmetry_group_IT_number 12
_symmetry_cell_setting 'monoclinic'
loop_
_space_group_symop_operation_xyz
x,y,z
-x,y,-z
-x,-y,-z
x,-y,z
1/2+x,1/2+y,z
1/2-x,1/2+y,-z
1/2-x,1/2-y,-z
1/2+x,1/2-y,z
loop_
_atom_site_type_symbol
_atom_site_label
_atom_site_fract_x
_atom_site_fract_y
_atom_site_fract_z
Si Si1 0.003840 0.841054 0.843693
Si Si2 0.828660 0.914718 0.997356
Si Si3 0.817814 0.089499 0.448063
Si Si4 0.810188 0.323712 0.470690
Si Si5 0.282842 0.409649 0.679111
Si Si6 0.816497 0.685953 0.146351
Si Si7 0.015420 0.590407 0.294945
O O1 0.934802 0.892480 0.766337
O O2 0.853717 0.810246 0.853178
O O3 0.133224 0.892315 0.917700
O O4 0.111869 0.771460 0.841179
O O5 0.741821 0.000000 0.975228
O O6 0.711227 0.850976 0.933200
O O7 0.000000 0.920057 0.000000
O O8 0.713173 0.100156 0.489743
O O9 0.701379 0.122559 0.360040
O O10 0.000000 0.131525 0.500000
O O11 0.847678 0.000000 0.440629
O O12 0.750000 0.250000 0.500000
O O13 0.708075 0.346654 0.378903
O O14 0.000000 0.308496 0.500000
O O15 0.297640 0.500000 0.658911
O O16 0.107655 0.395484 0.673319
O O17 0.956819 0.634392 0.215825
O O18 0.021079 0.500000 0.278359
#
# Coordination Sequence:
#
# PCOD8100069 Si02
#       7
#     8   8   8   8   8   8   8
#     4  10  21  35  58  86 119 151 190 235 289 340
#     4   9  17  33  59  88 115 149 196 237 275 331
#     4  10  21  39  60  84 114 149 192 244 293 347
#     4  12  25  39  59  85 114 151 194 241 298 354
#     4  10  21  38  61  85 112 151 199 244 287 344
#     4  10  20  35  57  86 119 152 188 234 287 338
#     4   9  18  35  60  85 112 149 197 239 285 344
#
# _framework density 20.197050000000001
#
# number of rings (size 3 to 8) (size 9 to 14) (size 15 to 20)
#    0.000    2.000    1.429    2.143    2.000    4.000 
#    2.571    0.000    0.000    3.429    0.000    0.000 
#    0.000    0.000    0.000    0.000    0.000    0.000 
#
# Total GULP energy -346986.145151 kJ/mol
# GULP energy per Si atom -12392.362327 kJ/mol
# Density = 2.015108 g / cm^3
# Si number density = 20.197050 Si / 1000 Ang^3
#
#
#
# Elastic Constant Matrix: (Units=GPa)
#
#
# Indices 1 2 3 4 5 6 
#
# 1 62.9989 27.2623 30.8146 0.0000 11.1235 0.0000
# 2 27.2623 83.6819 46.2771 0.0000 0.5916 0.0000
# 3 30.8146 46.2771 150.8136 0.0000 8.4772 0.0000
# 4 0.0000 0.0000 0.0000 28.3782 0.0000 14.0036
# 5 11.1235 0.5916 8.4772 0.0000 25.5719 0.0000
# 6 0.0000 0.0000 0.0000 14.0036 0.0000 -5.8311
#
#
#
# Elastic Compliance Matrix: (Units=1/GPa)
#
#
# Indices 1 2 3 4 5 6 
#
# 1 0.020738 -0.005552 -0.002072 0.000000 -0.008206 0.000000
# 2 -0.005552 0.015912 -0.003937 0.000000 0.003352 0.000000
# 3 -0.002072 -0.003937 0.008362 0.000000 -0.001780 0.000000
# 4 0.000000 0.000000 0.000000 0.016127 0.000000 0.038729
# 5 -0.008206 0.003352 -0.001780 0.000000 0.043187 0.000000
# 6 0.000000 0.000000 0.000000 0.038729 0.000000 -0.078485
#
#
# Mechanical properties :
#
#
# Convention : Reuss Voigt Hill
#
# Bulk Modulus (GPa) = 45.68243 56.24473 50.96358
# Shear Modulus (GPa) = 88.87123 22.49984 55.68553
#
# Velocity S-wave (km/s) = 6.64060 3.34131 5.25652
# Velocity P-wave (km/s) = 9.02576 6.54173 7.88221
#
# Compressibility (1/GPa) = 0.02189025
#
# Stress axis : x y z
#
# Youngs Moduli (GPa) = 48.21961 62.84504 119.58690
#
# Poissons Ratio (x) = 0.34893 0.24783
# Poissons Ratio (y) = 0.26773 0.47077
# Poissons Ratio (z) = 0.09993 0.24740
#
# Static dielectric constant tensor:
#      x y z
#    x 3.562650 0.000000 0.184060 
#    y 0.000000 3.686410 0.000000 
#    z 0.184060 0.000000 4.019190 
# 
# 
# High freq. dielectric constant tensor:
#      x y z
#    x 1.757450 0.000000 0.013850 
#    y 0.000000 1.789010 0.000000 
#    z 0.013850 0.000000 1.804450 
# 
# From -- ./inp_files/257204.got.cif
#   From: 2010.06.25/outbox.cif.g09.slc.cpg/sg12_129_cif.got.tgz:257204.got - 2010.06.28 00:19:55.
