data_PCOD8100927
_publ_section_title
;
Structure prediction by ZEFSAII (Michael W. Deem and Ramdas Pophale) SiO2 
 PCOD8100927
Probable space group: C 2/M
;
_chemical_formula_sum "Si O2"
_cell_formula_units_Z 48
_cell_length_a 14.181128
_cell_length_b 9.025843
_cell_length_c 18.990925
_cell_angle_alpha 90.000000
_cell_angle_beta 89.306683
_cell_angle_gamma 90.000000
_cell_volume 2430.596531
_symmetry_space_group_name_H-M "C 2/M"
_symmetry_group_IT_number 12
_symmetry_cell_setting 'monoclinic'
loop_
_space_group_symop_operation_xyz
x,y,z
-x,y,-z
-x,-y,-z
x,-y,z
1/2+x,1/2+y,z
1/2-x,1/2+y,-z
1/2-x,1/2-y,-z
1/2+x,1/2-y,z
loop_
_atom_site_type_symbol
_atom_site_label
_atom_site_fract_x
_atom_site_fract_y
_atom_site_fract_z
Si Si1 0.607531 0.829306 0.509928
Si Si2 0.581337 0.173802 0.149949
Si Si3 0.366466 0.828267 0.125992
Si Si4 0.888999 0.167530 0.988391
Si Si5 0.756523 0.171080 0.389615
Si Si6 0.217354 0.174347 0.245129
O O1 0.500000 0.779664 0.500000
O O2 0.662779 0.805125 0.436583
O O3 0.651422 0.726381 0.569699
O O4 0.614204 0.000000 0.534369
O O5 0.471457 0.213717 0.149309
O O6 0.621832 0.245240 0.220983
O O7 0.600039 0.000000 0.149639
O O8 0.635628 0.244893 0.082710
O O9 0.336631 0.741067 0.055501
O O10 0.299503 0.781595 0.190186
O O11 0.359070 0.000000 0.107160
O O12 0.853126 0.000000 0.979772
O O13 0.000000 0.175892 0.000000
O O14 0.746748 0.268563 0.320659
O O15 0.770779 0.000000 0.369397
O O16 0.199972 0.000000 0.248557
#
# Coordination Sequence:
#
# PCOD8100927 Si02
#       6
#     8   8   8   8   8   8
#     4   9  19  38  63  86 110 144 180 213 257 314
#     4  10  20  36  56  77 104 140 184 229 272 321
#     4   9  20  37  55  75 103 143 185 224 270 324
#     4   9  17  31  53  79 105 135 177 230 279 321
#     4  10  21  37  57  84 115 142 176 221 263 310
#     4  11  23  38  55  78 111 147 181 219 268 322
#
# _framework density 19.748239999999999
#
# number of rings (size 3 to 8) (size 9 to 14) (size 15 to 20)
#    0.000    2.333    0.000    2.000    0.000    7.000 
#    0.000    6.667    0.000    0.000    0.000    0.000 
#    0.000    0.000    0.000    0.000    0.000    0.000 
#
# Total GULP energy -297705.272074 kJ/mol
# GULP energy per Si atom -12404.386336 kJ/mol
# Density = 1.970329 g / cm^3
# Si number density = 19.748240 Si / 1000 Ang^3
#
#
#
# Elastic Constant Matrix: (Units=GPa)
#
#
# Indices 1 2 3 4 5 6 
#
# 1 78.2501 27.1203 28.6769 0.0000 6.1788 0.0000
# 2 27.1203 88.4994 40.5269 0.0000 4.9203 0.0000
# 3 28.6769 40.5269 100.3850 0.0000 9.2471 0.0000
# 4 0.0000 0.0000 0.0000 41.2731 0.0000 5.0811
# 5 6.1788 4.9203 9.2471 0.0000 19.8211 0.0000
# 6 0.0000 0.0000 0.0000 5.0811 0.0000 26.9640
#
#
#
# Elastic Compliance Matrix: (Units=1/GPa)
#
#
# Indices 1 2 3 4 5 6 
#
# 1 0.015119 -0.003215 -0.002780 0.000000 -0.002618 0.000000
# 2 -0.003215 0.014560 -0.004931 0.000000 -0.000312 0.000000
# 3 -0.002780 -0.004931 0.013118 0.000000 -0.004029 0.000000
# 4 0.000000 0.000000 0.000000 0.024804 0.000000 -0.004674
# 5 -0.002618 -0.000312 -0.004029 0.000000 0.053225 0.000000
# 6 0.000000 0.000000 0.000000 -0.004674 0.000000 0.037967
#
#
# Mechanical properties :
#
#
# Convention : Reuss Voigt Hill
#
# Bulk Modulus (GPa) = 47.74308 51.08696 49.41502
# Shear Modulus (GPa) = 26.64867 28.99899 27.82383
#
# Velocity S-wave (km/s) = 3.67743 3.83617 3.75764
# Velocity P-wave (km/s) = 6.50074 6.74885 6.62596
#
# Compressibility (1/GPa) = 0.02094544
#
# Stress axis : x y z
#
# Youngs Moduli (GPa) = 66.14084 68.68113 76.23254
#
# Poissons Ratio (x) = 0.22078 0.21194
# Poissons Ratio (y) = 0.21261 0.37591
# Poissons Ratio (z) = 0.18388 0.33867
#
# Static dielectric constant tensor:
#      x y z
#    x 3.611540 0.000000 0.020180 
#    y 0.000000 3.628720 0.000000 
#    z 0.020180 0.000000 3.546800 
# 
# 
# High freq. dielectric constant tensor:
#      x y z
#    x 1.771920 0.000000 0.006510 
#    y 0.000000 1.776290 0.000000 
#    z 0.006510 0.000000 1.766510 
# 
# From -- ./inp_files/267626.got.cif
#   From: 2010.06.25/outbox.cif.g09.slc.cpg/sg12_134_cif.got.tgz:267626.got - 2010.06.28 00:19:55.
