data_PCOD8100859
_publ_section_title
;
Structure prediction by ZEFSAII (Michael W. Deem and Ramdas Pophale) SiO2 
 PCOD8100859
Probable space group: C 2/M
;
_chemical_formula_sum "Si O2"
_cell_formula_units_Z 64
_cell_length_a 19.857412
_cell_length_b 8.946742
_cell_length_c 20.852849
_cell_angle_alpha 90.000000
_cell_angle_beta 68.931250
_cell_angle_gamma 90.000000
_cell_volume 3457.039166
_symmetry_space_group_name_H-M "C 2/M"
_symmetry_group_IT_number 12
_symmetry_cell_setting 'monoclinic'
loop_
_space_group_symop_operation_xyz
x,y,z
-x,y,-z
-x,-y,-z
x,-y,z
1/2+x,1/2+y,z
1/2-x,1/2+y,-z
1/2-x,1/2-y,-z
1/2+x,1/2-y,z
loop_
_atom_site_type_symbol
_atom_site_label
_atom_site_fract_x
_atom_site_fract_y
_atom_site_fract_z
Si Si1 0.677415 0.822113 0.050349
Si Si2 0.828929 0.323376 0.677932
Si Si3 0.667182 0.675816 0.696514
Si Si4 0.037615 0.827578 0.054706
Si Si5 0.115699 0.675559 0.205872
Si Si6 0.820720 0.827187 0.451754
Si Si7 0.580909 0.325339 0.465159
Si Si8 0.531757 0.176276 0.804482
O O1 0.612251 0.763793 0.028571
O O2 0.662893 0.769157 0.128804
O O3 0.681810 0.000000 0.043632
O O4 0.750000 0.750000 0.000000
O O5 0.838468 0.500000 0.672305
O O6 0.745907 0.278610 0.695459
O O7 0.854700 0.255080 0.737655
O O8 0.878142 0.257979 0.605309
O O9 0.652283 0.500000 0.710696
O O10 0.658743 0.727997 0.625981
O O11 0.609180 0.771330 0.754392
O O12 0.982218 0.760543 0.124674
O O13 0.053929 0.000000 0.065122
O O14 0.000000 0.808258 0.000000
O O15 0.124353 0.500000 0.207690
O O16 0.031665 0.719489 0.224376
O O17 0.750000 0.750000 0.500000
O O18 0.884977 0.788549 0.477751
O O19 0.802160 0.000000 0.455491
O O20 0.500000 0.265061 0.500000
O O21 0.583210 0.500000 0.448114
O O22 0.531706 0.000000 0.817210
#
# Coordination Sequence:
#
# PCOD8100859 Si02
#       8
#     8   8   8   8   8   8   8   8
#     4  10  20  36  58  85 118 151 189 232 280 334
#     4  10  20  37  57  77 104 139 184 224 264 322
#     4  10  21  35  54  80 108 142 181 224 274 330
#     4  10  21  38  60  85 114 149 189 232 281 333
#     4   8  18  36  55  77 107 142 177 223 269 314
#     4  10  20  36  55  77 107 140 180 225 275 327
#     4  10  22  37  53  77 109 140 174 223 279 324
#     4  10  21  37  57  82 111 144 182 224 276 330
#
# _framework density 18.512954000000001
#
# number of rings (size 3 to 8) (size 9 to 14) (size 15 to 20)
#    0.000    2.250    1.250    1.875    1.750    3.250 
#    0.000    5.625    0.000    0.000    0.000    0.000 
#    0.000    0.000    0.000    0.000    0.000    0.000 
#
# Total GULP energy -396798.861329 kJ/mol
# GULP energy per Si atom -12399.964417 kJ/mol
# Density = 1.847082 g / cm^3
# Si number density = 18.512954 Si / 1000 Ang^3
#
#
#
# Elastic Constant Matrix: (Units=GPa)
#
#
# Indices 1 2 3 4 5 6 
#
# 1 135.2891 52.1699 84.3228 0.0000 -5.5800 0.0001
# 2 52.1699 61.0365 50.6298 0.0000 0.2484 0.0001
# 3 84.3228 50.6298 125.3647 0.0000 -4.8028 -0.0001
# 4 0.0000 0.0000 0.0000 33.7821 0.0000 -5.2773
# 5 -5.5800 0.2484 -4.8028 0.0000 38.2016 0.0001
# 6 0.0001 0.0001 -0.0001 -5.2773 0.0001 26.7775
#
#
#
# Elastic Compliance Matrix: (Units=1/GPa)
#
#
# Indices 1 2 3 4 5 6 
#
# 1 0.014246 -0.006426 -0.006939 0.000000 0.001250 0.000000
# 2 -0.006426 0.027612 -0.006906 0.000000 -0.001986 0.000000
# 3 -0.006939 -0.006906 0.015470 0.000000 0.000976 0.000000
# 4 0.000000 0.000000 0.000000 0.030542 0.000000 0.006019
# 5 0.001250 -0.001986 0.000976 0.000000 0.026495 0.000000
# 6 0.000000 0.000000 0.000000 0.006019 0.000000 0.038531
#
#
# Mechanical properties :
#
#
# Convention : Reuss Voigt Hill
#
# Bulk Modulus (GPa) = 59.56685 77.32614 68.44649
# Shear Modulus (GPa) = 25.12147 28.72344 26.92246
#
# Velocity S-wave (km/s) = 3.68770 3.94322 3.81760
# Velocity P-wave (km/s) = 7.09773 7.91147 7.51562
#
# Compressibility (1/GPa) = 0.01678786
#
# Stress axis : x y z
#
# Youngs Moduli (GPa) = 70.19506 36.21621 64.63934
#
# Poissons Ratio (x) = 0.23271 0.44855
# Poissons Ratio (y) = 0.45104 0.44637
# Poissons Ratio (z) = 0.48710 0.25009
#
# Static dielectric constant tensor:
#      x y z
#    x 3.595040 0.000000 0.187610 
#    y 0.000000 3.336390 0.000000 
#    z 0.187610 0.000000 3.606650 
# 
# 
# High freq. dielectric constant tensor:
#      x y z
#    x 1.728350 0.000000 0.001800 
#    y 0.000000 1.708440 0.000000 
#    z 0.001800 0.000000 1.725050 
# 
# From -- ./inp_files/319961.got.cif
#   From: 2010.06.25/outbox.cif.g09.slc.cpg/sg12_160_cif.got.tgz:319961.got - 2010.06.28 00:19:55.
