data_PCOD8100029
_publ_section_title
;
Structure prediction by ZEFSAII (Michael W. Deem and Ramdas Pophale) SiO2 
 PCOD8100029
Probable space group: C 2/M
;
_chemical_formula_sum "Si O2"
_cell_formula_units_Z 64
_cell_length_a 16.127102
_cell_length_b 9.121608
_cell_length_c 21.097036
_cell_angle_alpha 90.000000
_cell_angle_beta 94.590775
_cell_angle_gamma 90.000000
_cell_volume 3093.524988
_symmetry_space_group_name_H-M "C 2/M"
_symmetry_group_IT_number 12
_symmetry_cell_setting 'monoclinic'
loop_
_space_group_symop_operation_xyz
x,y,z
-x,y,-z
-x,-y,-z
x,-y,z
1/2+x,1/2+y,z
1/2-x,1/2+y,-z
1/2-x,1/2-y,-z
1/2+x,1/2-y,z
loop_
_atom_site_type_symbol
_atom_site_label
_atom_site_fract_x
_atom_site_fract_y
_atom_site_fract_z
Si Si1 0.493432 0.830725 0.698000
Si Si2 0.956235 0.836005 0.928943
Si Si3 0.778949 0.826741 0.438321
Si Si4 0.692779 0.826918 0.306240
Si Si5 0.847376 0.175560 0.231177
Si Si6 0.052626 0.667418 0.563850
Si Si7 0.327039 0.840074 0.984029
Si Si8 0.909102 0.662556 0.122479
O O1 0.401604 0.772580 0.714845
O O2 0.567011 0.734580 0.732692
O O3 0.495176 0.816660 0.622110
O O4 0.506280 0.000000 0.718954
O O5 0.871617 0.744402 0.929722
O O6 0.006875 0.758294 0.875465
O O7 0.935863 0.000000 0.905151
O O8 0.000000 0.839463 0.000000
O O9 0.750000 0.750000 0.500000
O O10 0.716498 0.777979 0.378714
O O11 0.870168 0.775366 0.423764
O O12 0.779415 0.000000 0.448364
O O13 0.764409 0.768075 0.262533
O O14 0.694032 0.000000 0.302341
O O15 0.842578 0.247403 0.160654
O O16 0.851042 0.000000 0.227872
O O17 0.084054 0.500000 0.557179
O O18 0.000000 0.717565 0.500000
O O19 0.300797 0.000000 0.956936
O O20 0.250000 0.750000 0.000000
O O21 0.383826 0.856481 0.048667
O O22 0.924935 0.500000 0.152375
#
# Coordination Sequence:
#
# PCOD8100029 Si02
#       8
#     8   8   8   8   8   8   8   8
#     4  10  20  38  62  84 113 155 199 243 299 365
#     4   9  17  32  56  83 111 145 185 230 281 336
#     4  11  21  36  57  84 118 152 194 245 302 361
#     4   9  20  39  61  83 115 156 196 243 301 361
#     4  11  22  40  62  86 118 157 202 252 301 353
#     4  10  20  35  57  85 117 153 196 243 299 363
#     4  10  20  35  57  86 122 158 195 240 289 342
#     4  10  21  38  59  85 116 155 198 239 286 346
#
# _framework density 20.688372999999999
#
# number of rings (size 3 to 8) (size 9 to 14) (size 15 to 20)
#    0.000    2.000    1.250    2.625    0.000    5.250 
#    2.250    3.750    0.000    0.000    0.000    0.000 
#    0.000    0.000    0.000    0.000    0.000    0.000 
#
# Total GULP energy -396642.148508 kJ/mol
# GULP energy per Si atom -12395.067141 kJ/mol
# Density = 2.064129 g / cm^3
# Si number density = 20.688373 Si / 1000 Ang^3
#
#
#
# Elastic Constant Matrix: (Units=GPa)
#
#
# Indices 1 2 3 4 5 6 
#
# 1 124.0242 45.5657 17.1377 0.0000 -32.1963 0.0000
# 2 45.5657 130.5833 17.8723 0.0000 -22.1144 0.0000
# 3 17.1377 17.8723 45.3855 0.0000 -25.8178 0.0000
# 4 0.0000 0.0000 0.0000 28.7255 0.0000 -4.9888
# 5 -32.1963 -22.1144 -25.8178 0.0000 37.7602 0.0000
# 6 0.0000 0.0000 0.0000 -4.9888 0.0000 35.8644
#
#
#
# Elastic Compliance Matrix: (Units=1/GPa)
#
#
# Indices 1 2 3 4 5 6 
#
# 1 0.011184 -0.002591 0.002223 0.000000 0.009539 0.000000
# 2 -0.002591 0.009121 -0.001361 0.000000 0.002202 0.000000
# 3 0.002223 -0.001361 0.036584 0.000000 0.026113 0.000000
# 4 0.000000 0.000000 0.000000 0.035674 0.000000 0.004962
# 5 0.009539 0.002202 0.026113 0.000000 0.053760 0.000000
# 6 0.000000 0.000000 0.000000 0.004962 0.000000 0.028573
#
#
# Mechanical properties :
#
#
# Convention : Reuss Voigt Hill
#
# Bulk Modulus (GPa) = 18.71543 51.23827 34.97685
# Shear Modulus (GPa) = 25.48885 35.09784 30.29335
#
# Velocity S-wave (km/s) = 3.51385 4.12333 3.83073
# Velocity P-wave (km/s) = 5.05261 6.89127 6.04228
#
# Compressibility (1/GPa) = 0.05343186
#
# Stress axis : x y z
#
# Youngs Moduli (GPa) = 89.41354 109.63277 27.33435
#
# Poissons Ratio (x) = 0.28411 -0.06078
# Poissons Ratio (y) = 0.23171 0.03720
# Poissons Ratio (z) = -0.19881 0.14918
#
# Static dielectric constant tensor:
#      x y z
#    x 3.709400 0.000000 -0.425940 
#    y 0.000000 3.861380 0.000000 
#    z -0.425940 0.000000 3.577130 
# 
# 
# High freq. dielectric constant tensor:
#      x y z
#    x 1.808810 0.000000 -0.018910 
#    y 0.000000 1.804560 0.000000 
#    z -0.018910 0.000000 1.804240 
# 
# From -- ./inp_files/314005.got.cif
#   From: 2010.06.25/outbox.cif.g09.slc.cpg/sg12_158_cif.got.tgz:314005.got - 2010.06.28 00:19:55.
