data_PCOD8100719
_publ_section_title
;
Structure prediction by ZEFSAII (Michael W. Deem and Ramdas Pophale) SiO2 
 PCOD8100719
Probable space group: C 2/M
;
_chemical_formula_sum "Si O2"
_cell_formula_units_Z 32
_cell_length_a 21.653157
_cell_length_b 15.517938
_cell_length_c 10.810326
_cell_angle_alpha 90.000000
_cell_angle_beta 154.941757
_cell_angle_gamma 90.000000
_cell_volume 1538.465557
_symmetry_space_group_name_H-M "C 2/M"
_symmetry_group_IT_number 12
_symmetry_cell_setting 'monoclinic'
loop_
_space_group_symop_operation_xyz
x,y,z
-x,y,-z
-x,-y,-z
x,-y,z
1/2+x,1/2+y,z
1/2-x,1/2+y,-z
1/2-x,1/2-y,-z
1/2+x,1/2-y,z
loop_
_atom_site_type_symbol
_atom_site_label
_atom_site_fract_x
_atom_site_fract_y
_atom_site_fract_z
Si Si1 0.581349 0.595709 0.420652
Si Si2 0.659332 0.866241 0.271672
Si Si3 0.361135 0.245849 0.311078
Si Si4 0.822081 0.820632 0.801757
O O1 0.533312 0.500000 0.377202
O O2 0.740997 0.586617 0.648574
O O3 0.590023 0.659307 0.553267
O O4 0.466833 0.632286 0.112454
O O5 0.742593 0.875802 0.552822
O O6 0.630518 0.769481 0.171665
O O7 0.500000 0.909889 0.000000
O O8 0.500000 0.199390 0.500000
O O9 0.296528 0.189846 0.304781
O O10 0.250000 0.250000 0.000000
#
# Coordination Sequence:
#
# PCOD8100719 Si02
#       4
#     8   8   8   8
#     4  11  24  40  61  91 125 159 197 249 311 362
#     4  10  20  35  62  90 123 157 205 248 294 352
#     4  11  22  40  65  90 116 160 208 250 292 356
#     4  10  20  37  61  91 119 161 206 247 287 362
#
# _framework density 20.799945999999998
#
# number of rings (size 3 to 8) (size 9 to 14) (size 15 to 20)
#    0.000    1.500    2.500    5.250    3.500    3.000 
#    0.000    0.000    0.000    1.500    0.000    0.000 
#    0.000    0.000    0.000    0.000    0.000    0.000 
#
# Total GULP energy -198332.945036 kJ/mol
# GULP energy per Si atom -12395.809065 kJ/mol
# Density = 2.075260 g / cm^3
# Si number density = 20.799946 Si / 1000 Ang^3
#
#
#
# Elastic Constant Matrix: (Units=GPa)
#
#
# Indices 1 2 3 4 5 6 
#
# 1 111.7476 -6.7965 34.7901 0.0000 15.6996 0.0000
# 2 -6.7965 66.8824 20.6576 0.0000 -9.5300 0.0000
# 3 34.7901 20.6576 139.4984 0.0000 0.0544 0.0000
# 4 0.0000 0.0000 0.0000 10.8789 0.0000 0.1814
# 5 15.6996 -9.5300 0.0544 0.0000 56.2779 0.0000
# 6 0.0000 0.0000 0.0000 0.1814 0.0000 2.4435
#
#
#
# Elastic Compliance Matrix: (Units=1/GPa)
#
#
# Indices 1 2 3 4 5 6 
#
# 1 0.010276 0.001535 -0.002789 0.000000 -0.002604 0.000000
# 2 0.001535 0.016305 -0.002798 0.000000 0.002336 0.000000
# 3 -0.002789 -0.002798 0.008278 0.000000 0.000296 0.000000
# 4 0.000000 0.000000 0.000000 0.092035 0.000000 -0.006833
# 5 -0.002604 0.002336 0.000296 0.000000 0.018891 0.000000
# 6 0.000000 0.000000 0.000000 -0.006833 0.000000 0.409762
#
#
# Mechanical properties :
#
#
# Convention : Reuss Voigt Hill
#
# Bulk Modulus (GPa) = 37.37740 46.15898 41.76819
# Shear Modulus (GPa) = 8.73256 31.88520 20.30888
#
# Velocity S-wave (km/s) = 2.05121 3.91953 3.12812
# Velocity P-wave (km/s) = 4.85993 6.53634 5.75945
#
# Compressibility (1/GPa) = 0.02675414
#
# Stress axis : x y z
#
# Youngs Moduli (GPa) = 97.31169 61.33236 120.79680
#
# Poissons Ratio (x) = -0.09412 0.33691
# Poissons Ratio (y) = -0.14934 0.33800
# Poissons Ratio (z) = 0.27141 0.17161
#
# Static dielectric constant tensor:
#      x y z
#    x 3.295280 0.000000 -0.100960 
#    y 0.000000 3.424370 0.000000 
#    z -0.100960 0.000000 3.874460 
# 
# 
# High freq. dielectric constant tensor:
#      x y z
#    x 1.829550 0.000000 0.006990 
#    y 0.000000 1.769850 0.000000 
#    z 0.006990 0.000000 1.831930 
# 
# From -- ./inp_files/118174.got.cif
#   From: 2010.06.25/outbox.cif.g09.slc.cpg/sg12_60_cif.got.tgz:118174.got - 2010.06.28 00:19:55.
