data_PCOD8100590
_publ_section_title
;
Structure prediction by ZEFSAII (Michael W. Deem and Ramdas Pophale) SiO2 
 PCOD8100590
Probable space group: C 2/M
;
_chemical_formula_sum "Si O2"
_cell_formula_units_Z 48
_cell_length_a 9.422465
_cell_length_b 23.249588
_cell_length_c 11.606841
_cell_angle_alpha 90.000000
_cell_angle_beta 78.985317
_cell_angle_gamma 90.000000
_cell_volume 2495.851590
_symmetry_space_group_name_H-M "C 2/M"
_symmetry_group_IT_number 12
_symmetry_cell_setting 'monoclinic'
loop_
_space_group_symop_operation_xyz
x,y,z
-x,y,-z
-x,-y,-z
x,-y,z
1/2+x,1/2+y,z
1/2-x,1/2+y,-z
1/2-x,1/2-y,-z
1/2+x,1/2-y,z
loop_
_atom_site_type_symbol
_atom_site_label
_atom_site_fract_x
_atom_site_fract_y
_atom_site_fract_z
Si Si1 0.393821 0.119618 0.271788
Si Si2 0.628906 0.000000 0.811627
Si Si3 0.572152 0.712262 0.822203
Si Si4 0.739616 0.810634 0.909773
Si Si5 0.715643 0.877793 0.141360
Si Si6 0.116342 0.278767 0.578986
Si Si7 0.199084 0.500000 0.055133
O O1 0.343183 0.053527 0.278138
O O2 0.301913 0.147553 0.185525
O O3 0.566633 0.123127 0.233901
O O4 0.352852 0.154197 0.394480
O O5 0.469072 0.000000 0.888183
O O6 0.727695 0.000000 0.912077
O O7 0.656780 0.749933 0.906084
O O8 0.411287 0.698961 0.887810
O O9 0.659981 0.652004 0.800079
O O10 0.567172 0.744812 0.701084
O O11 0.682822 0.840963 0.032889
O O12 0.768220 0.942357 0.100017
O O13 0.250000 0.250000 0.500000
O O14 0.000000 0.274745 0.500000
#
# Coordination Sequence:
#
# PCOD8100590 Si02
#       7
#     8   4   8   8   8   8   4
#     4  10  20  35  60  84 109 148 187 228 275 336
#     4   9  16  34  56  86 115 145 188 217 273 335
#     4  11  23  36  54  81 109 149 188 232 283 333
#     4  11  21  35  52  82 118 150 177 221 276 343
#     4  11  20  35  55  84 119 148 181 214 272 342
#     4  11  22  39  57  77 106 142 191 244 292 323
#     4   9  18  32  56  83 118 159 175 215 266 336
#
# _framework density 19.231914
#
# number of rings (size 3 to 8) (size 9 to 14) (size 15 to 20)
#    0.000    1.500    1.667    6.500    0.000    2.667 
#    0.000    2.917    0.000    1.000    0.000    2.333 
#    0.000    0.000    0.000    0.000    0.000    0.000 
#
# Total GULP energy -297498.596210 kJ/mol
# GULP energy per Si atom -12395.774842 kJ/mol
# Density = 1.918814 g / cm^3
# Si number density = 19.231914 Si / 1000 Ang^3
#
#
#
# Elastic Constant Matrix: (Units=GPa)
#
#
# Indices 1 2 3 4 5 6 
#
# 1 -109.0575 -67.3999 56.8845 0.0000 110.0061 0.0000
# 2 -67.3999 101.6503 73.7816 0.0000 68.0621 0.0000
# 3 56.8845 73.7816 46.1257 0.0000 -25.3334 0.0000
# 4 0.0000 0.0000 0.0000 23.8071 0.0000 0.9210
# 5 110.0061 68.0621 -25.3334 0.0000 -28.7515 0.0000
# 6 0.0000 0.0000 0.0000 0.9210 0.0000 24.1807
#
#
#
# Elastic Compliance Matrix: (Units=1/GPa)
#
#
# Indices 1 2 3 4 5 6 
#
# 1 0.007526 -0.005821 0.005578 0.000000 0.010101 0.000000
# 2 -0.005821 0.008349 -0.005090 0.000000 0.001976 0.000000
# 3 0.005578 -0.005090 0.018900 0.000000 -0.007362 0.000000
# 4 0.000000 0.000000 0.000000 0.042066 0.000000 -0.001602
# 5 0.010101 0.001976 -0.007362 0.000000 0.015032 0.000000
# 6 0.000000 0.000000 0.000000 -0.001602 0.000000 0.041416
#
#
# Mechanical properties :
#
#
# Convention : Reuss Voigt Hill
#
# Bulk Modulus (GPa) = 41.48143 18.36123 29.92133
# Shear Modulus (GPa) = 32.89617 2.21074 17.55345
#
# Velocity S-wave (km/s) = 4.14030 1.07332 3.02441
# Velocity P-wave (km/s) = 6.66874 3.33227 5.27144
#
# Compressibility (1/GPa) = 0.02410717
#
# Stress axis : x y z
#
# Youngs Moduli (GPa) = 132.86924 119.77347 52.91029
#
# Poissons Ratio (x) = 0.69724 -0.29511
# Poissons Ratio (y) = 0.77348 0.26933
# Poissons Ratio (z) = -0.74110 0.60968
#
# Static dielectric constant tensor:
#      x y z
#    x 3.428130 0.000000 0.133570 
#    y 0.000000 4.013020 0.000000 
#    z 0.133570 0.000000 3.548310 
# 
# 
# High freq. dielectric constant tensor:
#      x y z
#    x 1.743280 0.000000 0.011300 
#    y 0.000000 1.759910 0.000000 
#    z 0.011300 0.000000 1.722560 
# 
# From -- ./inp_files/122470.got.cif
#   From: 2010.06.25/outbox.cif.g09.slc.cpg/sg12_62_cif.got.tgz:122470.got - 2010.06.28 00:19:55.
