data_PCOD8100310
_publ_section_title
;
Structure prediction by ZEFSAII (Michael W. Deem and Ramdas Pophale) SiO2 
 PCOD8100310
Probable space group: C 2/M
;
_chemical_formula_sum "Si O2"
_cell_formula_units_Z 56
_cell_length_a 21.936853
_cell_length_b 8.989749
_cell_length_c 14.144248
_cell_angle_alpha 90.000000
_cell_angle_beta 99.704204
_cell_angle_gamma 90.000000
_cell_volume 2749.429515
_symmetry_space_group_name_H-M "C 2/M"
_symmetry_group_IT_number 12
_symmetry_cell_setting 'monoclinic'
loop_
_space_group_symop_operation_xyz
x,y,z
-x,y,-z
-x,-y,-z
x,-y,z
1/2+x,1/2+y,z
1/2-x,1/2+y,-z
1/2-x,1/2-y,-z
1/2+x,1/2-y,z
loop_
_atom_site_type_symbol
_atom_site_label
_atom_site_fract_x
_atom_site_fract_y
_atom_site_fract_z
Si Si1 0.847313 0.827049 0.282889
Si Si2 0.472270 0.173867 0.275848
Si Si3 0.346194 0.668688 0.794944
Si Si4 0.393073 0.169592 0.631891
Si Si5 0.751980 0.827320 0.101584
Si Si6 0.485112 0.668768 0.892019
Si Si7 0.300620 0.171278 0.449690
O O1 0.915618 0.760069 0.307818
O O2 0.817656 0.800075 0.171363
O O3 0.803668 0.748427 0.348674
O O4 0.850390 0.000000 0.308641
O O5 0.534935 0.218535 0.348447
O O6 0.479098 0.222437 0.169103
O O7 0.457970 0.000000 0.277935
O O8 0.321506 0.500000 0.784231
O O9 0.351046 0.730237 0.689731
O O10 0.301262 0.767503 0.845124
O O11 0.412236 0.677907 0.861245
O O12 0.367176 0.186089 0.519196
O O13 0.388170 0.000000 0.667191
O O14 0.740342 0.000000 0.081096
O O15 0.750000 0.750000 0.000000
O O16 0.509088 0.500000 0.882029
O O17 0.500000 0.726191 0.000000
O O18 0.250000 0.250000 0.500000
O O19 0.282162 0.000000 0.430743
#
# Coordination Sequence:
#
# PCOD8100310 Si02
#       7
#     8   8   8   8   8   8   8
#     4  11  25  43  61  86 122 159 196 246 304 356
#     4  10  21  38  60  87 119 156 200 246 293 350
#     4  10  20  35  58  87 116 151 195 240 289 349
#     4   9  20  39  61  87 122 159 194 241 298 348
#     4  11  25  42  60  82 115 156 196 243 299 355
#     4   9  19  35  56  82 116 155 192 238 296 351
#     4  11  23  40  64  92 122 158 201 246 295 353
#
# _framework density 20.367861999999999
#
# number of rings (size 3 to 8) (size 9 to 14) (size 15 to 20)
#    0.000    1.857    0.000    3.000    2.000    8.857 
#    0.000    2.857    0.000    0.000    0.000    0.000 
#    0.000    0.000    0.000    0.000    0.000    0.000 
#
# Total GULP energy -347303.988937 kJ/mol
# GULP energy per Si atom -12403.713891 kJ/mol
# Density = 2.032150 g / cm^3
# Si number density = 20.367862 Si / 1000 Ang^3
#
#
#
# Elastic Constant Matrix: (Units=GPa)
#
#
# Indices 1 2 3 4 5 6 
#
# 1 86.8266 53.1961 33.5897 0.0000 -16.5451 0.0000
# 2 53.1961 134.3720 55.3048 0.0000 -6.7372 0.0000
# 3 33.5897 55.3048 98.6024 0.0000 4.9786 0.0000
# 4 0.0000 0.0000 0.0000 36.2224 0.0000 -6.2992
# 5 -16.5451 -6.7372 4.9786 0.0000 20.8565 0.0000
# 6 0.0000 0.0000 0.0000 -6.2992 0.0000 38.1217
#
#
#
# Elastic Compliance Matrix: (Units=1/GPa)
#
#
# Indices 1 2 3 4 5 6 
#
# 1 0.019067 -0.004995 -0.004430 0.000000 0.014570 0.000000
# 2 -0.004995 0.011415 -0.004744 0.000000 0.000857 0.000000
# 3 -0.004430 -0.004744 0.014744 0.000000 -0.008566 0.000000
# 4 0.000000 0.000000 0.000000 0.028424 0.000000 0.004697
# 5 0.014570 0.000857 -0.008566 0.000000 0.061827 0.000000
# 6 0.000000 0.000000 0.000000 0.004697 0.000000 0.027008
#
#
# Mechanical properties :
#
#
# Convention : Reuss Voigt Hill
#
# Bulk Modulus (GPa) = 59.20949 67.10914 63.15932
# Shear Modulus (GPa) = 25.45147 30.88749 28.16948
#
# Velocity S-wave (km/s) = 3.53879 3.89843 3.72295
# Velocity P-wave (km/s) = 6.76983 7.29957 7.03968
#
# Compressibility (1/GPa) = 0.01688918
#
# Stress axis : x y z
#
# Youngs Moduli (GPa) = 52.44565 87.60326 67.82313
#
# Poissons Ratio (x) = 0.43757 0.30042
# Poissons Ratio (y) = 0.26196 0.32177
# Poissons Ratio (z) = 0.23231 0.41562
#
# Static dielectric constant tensor:
#      x y z
#    x 3.751340 0.000000 0.178710 
#    y 0.000000 4.091050 0.000000 
#    z 0.178710 0.000000 3.768730 
# 
# 
# High freq. dielectric constant tensor:
#      x y z
#    x 1.800660 0.000000 0.009880 
#    y 0.000000 1.804390 0.000000 
#    z 0.009880 0.000000 1.796240 
# 
# From -- ./inp_files/230847.got.cif
#   From: 2010.06.25/outbox.cif.g09.slc.cpg/sg12_116_cif.got.tgz:230847.got - 2010.06.28 00:19:55.
