data_PCOD8100504
_publ_section_title
;
Structure prediction by ZEFSAII (Michael W. Deem and Ramdas Pophale) SiO2 
 PCOD8100504
Probable space group: C 2/M
;
_chemical_formula_sum "Si O2"
_cell_formula_units_Z 64
_cell_length_a 30.008796
_cell_length_b 8.878162
_cell_length_c 19.738356
_cell_angle_alpha 90.000000
_cell_angle_beta 38.265792
_cell_angle_gamma 90.000000
_cell_volume 3256.799112
_symmetry_space_group_name_H-M "C 2/M"
_symmetry_group_IT_number 12
_symmetry_cell_setting 'monoclinic'
loop_
_space_group_symop_operation_xyz
x,y,z
-x,y,-z
-x,-y,-z
x,-y,z
1/2+x,1/2+y,z
1/2-x,1/2+y,-z
1/2-x,1/2-y,-z
1/2+x,1/2-y,z
loop_
_atom_site_type_symbol
_atom_site_label
_atom_site_fract_x
_atom_site_fract_y
_atom_site_fract_z
Si Si1 0.678137 0.172381 0.908287
Si Si2 0.840994 0.829044 0.698975
Si Si3 0.082341 0.677795 0.897791
Si Si4 0.175394 0.825386 0.519654
Si Si5 0.586374 0.176039 0.266221
Si Si6 0.819481 0.177639 0.951737
Si Si7 0.178627 0.823550 0.670419
Si Si8 0.062836 0.825852 0.543106
O O1 0.757155 0.186780 0.781452
O O2 0.622019 0.230404 0.919076
O O3 0.662098 0.000000 0.948726
O O4 0.671738 0.277681 0.980965
O O5 0.859988 0.717106 0.736986
O O6 0.884464 0.782872 0.580740
O O7 0.859436 0.000000 0.699480
O O8 0.088208 0.500000 0.882473
O O9 0.118782 0.749775 0.788847
O O10 0.000000 0.732419 0.000000
O O11 0.160382 0.778000 0.614862
O O12 0.241386 0.734220 0.408002
O O13 0.102961 0.788828 0.565247
O O14 0.196276 0.000000 0.488630
O O15 0.609324 0.265657 0.171630
O O16 0.505958 0.220788 0.382132
O O17 0.591590 0.000000 0.245534
O O18 0.812243 0.000000 0.953806
O O19 0.750000 0.250000 0.000000
O O20 0.176241 0.000000 0.685148
O O21 0.039228 0.000000 0.567615
#
# Coordination Sequence:
#
# PCOD8100504 Si02
#       8
#     8   8   8   8   8   8   8   8
#     4  10  21  39  64  91 118 156 202 246 296 357
#     4  10  20  36  60  84 113 154 198 244 296 354
#     4  10  22  40  61  87 122 162 201 243 297 359
#     4   9  19  37  60  86 116 154 196 241 298 359
#     4  12  25  39  57  84 119 158 196 243 296 351
#     4  12  24  41  64  89 117 152 197 249 298 354
#     4  10  20  35  59  88 118 152 196 247 297 350
#     4  10  21  38  59  85 118 157 198 241 295 356
#
# _framework density 19.651197
#
# number of rings (size 3 to 8) (size 9 to 14) (size 15 to 20)
#    0.000    1.625    1.250    3.750    0.000    6.750 
#    0.000    3.750    0.000    0.000    0.000    0.000 
#    0.000    0.000    0.000    0.000    0.000    0.000 
#
# Total GULP energy -396970.700481 kJ/mol
# GULP energy per Si atom -12405.334390 kJ/mol
# Density = 1.960647 g / cm^3
# Si number density = 19.651197 Si / 1000 Ang^3
#
#
#
# Elastic Constant Matrix: (Units=GPa)
#
#
# Indices 1 2 3 4 5 6 
#
# 1 111.8647 40.1558 61.7613 -0.0030 -6.8298 -0.0003
# 2 40.1558 93.9161 55.9475 -0.0136 2.5948 0.0064
# 3 61.7613 55.9475 135.7186 -0.0225 2.1332 0.0142
# 4 -0.0030 -0.0136 -0.0225 34.1578 0.0092 3.4020
# 5 -6.8298 2.5948 2.1332 0.0092 28.4126 -0.0040
# 6 -0.0003 0.0064 0.0142 3.4020 -0.0040 25.4223
#
#
#
# Elastic Compliance Matrix: (Units=1/GPa)
#
#
# Indices 1 2 3 4 5 6 
#
# 1 0.012761 -0.002736 -0.004737 -0.000005 0.003673 0.000005
# 2 -0.002736 0.014721 -0.004798 0.000003 -0.001642 -0.000002
# 3 -0.004737 -0.004798 0.011526 0.000006 -0.001566 -0.000006
# 4 -0.000005 0.000003 0.000006 0.029671 -0.000012 -0.003971
# 5 0.003673 -0.001642 -0.001566 -0.000012 0.036346 0.000009
# 6 0.000005 -0.000002 -0.000006 -0.003971 0.000009 0.039867
#
#
# Mechanical properties :
#
#
# Convention : Reuss Voigt Hill
#
# Bulk Modulus (GPa) = 69.12200 73.02539 71.07369
# Shear Modulus (GPa) = 28.69339 29.84087 29.26713
#
# Velocity S-wave (km/s) = 3.82532 3.90106 3.86337
# Velocity P-wave (km/s) = 7.40010 7.58501 7.49313
#
# Compressibility (1/GPa) = 0.01446718
#
# Stress axis : x y z
#
# Youngs Moduli (GPa) = 78.36330 67.93036 86.75817
#
# Poissons Ratio (x) = 0.18584 0.41099
# Poissons Ratio (y) = 0.21438 0.41624
# Poissons Ratio (z) = 0.37122 0.32591
#
# Static dielectric constant tensor:
#      x y z
#    x 3.650770 -0.000020 0.028690 
#    y -0.000020 3.502790 0.000040 
#    z 0.028690 0.000040 3.680270 
# 
# 
# High freq. dielectric constant tensor:
#      x y z
#    x 1.767830 0.000000 0.002950 
#    y 0.000000 1.759040 0.000000 
#    z 0.002950 0.000000 1.774860 
# 
# From -- ./inp_files/295478.got.cif
#   From: 2010.06.25/outbox.cif.g09.slc.cpg/sg12_148_cif.got.tgz:295478.got - 2010.06.28 00:19:55.
