data_PCOD8100874
_publ_section_title
;
Structure prediction by ZEFSAII (Michael W. Deem and Ramdas Pophale) SiO2 
 PCOD8100874
Probable space group: C 2/M
;
_chemical_formula_sum "Si O2"
_cell_formula_units_Z 64
_cell_length_a 24.434504
_cell_length_b 8.673410
_cell_length_c 16.278957
_cell_angle_alpha 90.000000
_cell_angle_beta 92.583724
_cell_angle_gamma 90.000000
_cell_volume 3446.499807
_symmetry_space_group_name_H-M "C 2/M"
_symmetry_group_IT_number 12
_symmetry_cell_setting 'monoclinic'
loop_
_space_group_symop_operation_xyz
x,y,z
-x,y,-z
-x,-y,-z
x,-y,z
1/2+x,1/2+y,z
1/2-x,1/2+y,-z
1/2-x,1/2-y,-z
1/2+x,1/2-y,z
loop_
_atom_site_type_symbol
_atom_site_label
_atom_site_fract_x
_atom_site_fract_y
_atom_site_fract_z
Si Si1 0.439597 0.819498 0.024975
Si Si2 0.633688 0.177334 0.380529
Si Si3 0.193568 0.819206 0.527246
Si Si4 0.071060 0.818394 0.797681
Si Si5 0.176731 0.182541 0.708012
Si Si6 0.886113 0.820172 0.872760
Si Si7 0.793975 0.320080 0.770422
Si Si8 0.037596 0.320179 0.257476
O O1 0.431498 0.772983 0.118000
O O2 0.429328 0.000000 0.013470
O O3 0.500000 0.771063 0.000000
O O4 0.395357 0.726395 0.967873
O O5 0.644287 0.279435 0.461644
O O6 0.679268 0.217130 0.315753
O O7 0.573569 0.215908 0.340774
O O8 0.638065 0.000000 0.406725
O O9 0.250000 0.750000 0.500000
O O10 0.178537 0.749938 0.615686
O O11 0.201600 0.000000 0.533908
O O12 0.123544 0.755305 0.751647
O O13 0.017593 0.779120 0.739963
O O14 0.074252 0.000000 0.814768
O O15 0.230827 0.232647 0.762298
O O16 0.174363 0.000000 0.702147
O O17 0.823988 0.777538 0.843370
O O18 0.928717 0.723374 0.821404
O O19 0.896730 0.000000 0.860084
O O20 0.800769 0.500000 0.791797
O O21 0.023090 0.500000 0.249858
#
# Coordination Sequence:
#
# PCOD8100874 Si02
#       8
#     8   8   8   8   8   8   8   8
#     4  11  22  37  58  82 112 147 184 224 279 335
#     4   9  18  33  55  81 109 143 185 230 274 323
#     4  11  20  34  56  83 113 145 186 231 276 325
#     4  11  22  37  59  84 111 144 188 233 275 325
#     4   9  20  38  57  80 114 153 183 223 282 335
#     4  11  21  33  55  87 114 137 183 237 274 316
#     4   9  17  35  57  77 112 152 183 219 279 336
#     4  10  20  36  55  78 113 151 182 221 282 337
#
# _framework density 18.569564
#
# number of rings (size 3 to 8) (size 9 to 14) (size 15 to 20)
#    0.000    1.875    2.500    3.375    0.000    3.000 
#    0.000    5.000    0.000    3.750    0.000    0.000 
#    0.000    0.000    0.000    0.000    0.000    0.000 
#
# Total GULP energy -396873.098586 kJ/mol
# GULP energy per Si atom -12402.284331 kJ/mol
# Density = 1.852730 g / cm^3
# Si number density = 18.569564 Si / 1000 Ang^3
#
#
#
# Elastic Constant Matrix: (Units=GPa)
#
#
# Indices 1 2 3 4 5 6 
#
# 1 130.5339 21.3973 64.1366 0.0000 4.5954 0.0000
# 2 21.3973 50.2583 29.1871 0.0000 4.8546 0.0000
# 3 64.1366 29.1871 110.8268 0.0000 7.5819 0.0000
# 4 0.0000 0.0000 0.0000 28.2039 0.0000 8.3304
# 5 4.5954 4.8546 7.5819 0.0000 30.7447 0.0000
# 6 0.0000 0.0000 0.0000 8.3304 0.0000 27.1921
#
#
#
# Elastic Compliance Matrix: (Units=1/GPa)
#
#
# Indices 1 2 3 4 5 6 
#
# 1 0.010760 -0.001141 -0.005928 0.000000 0.000034 0.000000
# 2 -0.001141 0.023761 -0.005444 0.000000 -0.002239 0.000000
# 3 -0.005928 -0.005444 0.014005 0.000000 -0.001708 0.000000
# 4 0.000000 0.000000 0.000000 0.038984 0.000000 -0.011943
# 5 0.000034 -0.002239 -0.001708 0.000000 0.033295 0.000000
# 6 0.000000 0.000000 0.000000 -0.011943 0.000000 0.040434
#
#
# Mechanical properties :
#
#
# Convention : Reuss Voigt Hill
#
# Bulk Modulus (GPa) = 42.55758 57.89567 50.22662
# Shear Modulus (GPa) = 25.76017 29.02134 27.39076
#
# Velocity S-wave (km/s) = 3.72859 3.95757 3.84479
# Velocity P-wave (km/s) = 6.44237 7.22001 6.84225
#
# Compressibility (1/GPa) = 0.02349758
#
# Stress axis : x y z
#
# Youngs Moduli (GPa) = 92.94007 42.08598 71.40561
#
# Poissons Ratio (x) = 0.04803 0.42333
# Poissons Ratio (y) = 0.10607 0.38873
# Poissons Ratio (z) = 0.55099 0.22912
#
# Static dielectric constant tensor:
#      x y z
#    x 3.596330 0.000000 0.209370 
#    y 0.000000 3.280830 0.000000 
#    z 0.209370 0.000000 3.484130 
# 
# 
# High freq. dielectric constant tensor:
#      x y z
#    x 1.714850 0.000000 0.025190 
#    y 0.000000 1.714160 0.000000 
#    z 0.025190 0.000000 1.712580 
# 
# From -- ./inp_files/238644.got.cif
#   From: 2010.06.25/outbox.cif.g09.slc.cpg/sg12_120_cif.got.tgz:238644.got - 2010.06.28 00:19:55.
