data_PCOD8100272
_publ_section_title
;
Structure prediction by ZEFSAII (Michael W. Deem and Ramdas Pophale) SiO2 
 PCOD8100272
Probable space group: C 2/M
;
_chemical_formula_sum "Si O2"
_cell_formula_units_Z 56
_cell_length_a 28.171458
_cell_length_b 8.971309
_cell_length_c 16.803537
_cell_angle_alpha 90.000000
_cell_angle_beta 138.022683
_cell_angle_gamma 90.000000
_cell_volume 2840.440610
_symmetry_space_group_name_H-M "C 2/M"
_symmetry_group_IT_number 12
_symmetry_cell_setting 'monoclinic'
loop_
_space_group_symop_operation_xyz
x,y,z
-x,y,-z
-x,-y,-z
x,-y,z
1/2+x,1/2+y,z
1/2-x,1/2+y,-z
1/2-x,1/2-y,-z
1/2+x,1/2-y,z
loop_
_atom_site_type_symbol
_atom_site_label
_atom_site_fract_x
_atom_site_fract_y
_atom_site_fract_z
Si Si1 0.157508 0.676512 0.546876
Si Si2 0.911469 0.675411 0.697614
Si Si3 0.022203 0.168259 0.437541
Si Si4 0.079752 0.323092 0.116426
Si Si5 0.798907 0.173400 0.995426
Si Si6 0.945613 0.323748 0.208506
Si Si7 0.795181 0.827884 0.811121
O O1 0.145753 0.500000 0.542148
O O2 0.147192 0.725519 0.441118
O O3 0.099604 0.759197 0.527900
O O4 0.234287 0.726716 0.674155
O O5 0.911425 0.500000 0.704228
O O6 0.896053 0.739841 0.766371
O O7 0.989737 0.725795 0.767799
O O8 0.000000 0.167580 0.500000
O O9 0.963813 0.266890 0.319300
O O10 0.023966 0.000000 0.405396
O O11 0.082758 0.500000 0.115679
O O12 0.132907 0.261528 0.116279
O O13 0.000000 0.266959 0.000000
O O14 0.768511 0.199152 0.868408
O O15 0.803417 0.000000 0.022388
O O16 0.750000 0.250000 0.000000
O O17 0.876272 0.243605 0.090772
O O18 0.933227 0.500000 0.194728
O O19 0.812458 0.000000 0.818629
#
# Coordination Sequence:
#
# PCOD8100272 Si02
#       7
#     8   8   8   8   8   8   8
#     4   9  19  37  57  79 113 155 196 236 283 346
#     4   8  16  33  57  83 111 146 189 233 280 339
#     4  10  21  35  54  84 116 147 188 241 288 336
#     4  10  20  35  58  86 115 149 192 239 288 344
#     4  11  24  40  57  81 113 150 192 241 295 350
#     4  10  20  37  60  83 110 149 191 234 286 343
#     4  10  23  40  57  83 117 151 191 241 292 344
#
# _framework density 19.715252
#
# number of rings (size 3 to 8) (size 9 to 14) (size 15 to 20)
#    0.000    2.286    0.000    3.000    2.000    4.857 
#    0.000    3.571    0.000    0.000    0.000    0.000 
#    0.000    0.000    0.000    0.000    0.000    0.000 
#
# Total GULP energy -347149.847396 kJ/mol
# GULP energy per Si atom -12398.208836 kJ/mol
# Density = 1.967038 g / cm^3
# Si number density = 19.715252 Si / 1000 Ang^3
#
#
#
# Elastic Constant Matrix: (Units=GPa)
#
#
# Indices 1 2 3 4 5 6 
#
# 1 95.4873 35.1999 49.9441 0.0000 -9.9219 0.0000
# 2 35.1999 68.3357 38.0720 0.0000 -1.3147 0.0000
# 3 49.9441 38.0720 127.0637 0.0000 1.6047 0.0000
# 4 0.0000 0.0000 0.0000 28.7847 0.0000 2.2330
# 5 -9.9219 -1.3147 1.6047 0.0000 26.1230 0.0000
# 6 0.0000 0.0000 0.0000 2.2330 0.0000 24.7275
#
#
#
# Elastic Compliance Matrix: (Units=1/GPa)
#
#
# Indices 1 2 3 4 5 6 
#
# 1 0.015411 -0.005293 -0.004546 0.000000 0.005866 0.000000
# 2 -0.005293 0.019422 -0.003729 0.000000 -0.000804 0.000000
# 3 -0.004546 -0.003729 0.010807 0.000000 -0.002578 0.000000
# 4 0.000000 0.000000 0.000000 0.034986 0.000000 -0.003159
# 5 0.005866 -0.000804 -0.002578 0.000000 0.040626 0.000000
# 6 0.000000 0.000000 0.000000 -0.003159 0.000000 0.040726
#
#
# Mechanical properties :
#
#
# Convention : Reuss Voigt Hill
#
# Bulk Modulus (GPa) = 54.03982 59.70209 56.87095
# Shear Modulus (GPa) = 25.60422 27.10510 26.35466
#
# Velocity S-wave (km/s) = 3.60766 3.71189 3.66015
# Velocity P-wave (km/s) = 6.69502 6.97988 6.83893
#
# Compressibility (1/GPa) = 0.01850487
#
# Stress axis : x y z
#
# Youngs Moduli (GPa) = 64.88949 51.48820 92.53588
#
# Poissons Ratio (x) = 0.27252 0.42064
# Poissons Ratio (y) = 0.34345 0.34505
# Poissons Ratio (z) = 0.29496 0.19199
#
# Static dielectric constant tensor:
#      x y z
#    x 3.665000 0.000000 -0.257780 
#    y 0.000000 3.533600 0.000000 
#    z -0.257780 0.000000 3.912750 
# 
# 
# High freq. dielectric constant tensor:
#      x y z
#    x 1.765700 0.000000 -0.010630 
#    y 0.000000 1.755890 0.000000 
#    z -0.010630 0.000000 1.778680 
# 
# From -- ./inp_files/292567.got.cif
#   From: 2010.06.25/outbox.cif.g09.slc.cpg/sg12_147_cif.got.tgz:292567.got - 2010.06.28 00:19:55.
