data_PCOD8100559
_publ_section_title
;
Structure prediction by ZEFSAII (Michael W. Deem and Ramdas Pophale) SiO2 
 PCOD8100559
Probable space group: C 2/M
;
_chemical_formula_sum "Si O2"
_cell_formula_units_Z 56
_cell_length_a 26.879471
_cell_length_b 9.002011
_cell_length_c 12.562212
_cell_angle_alpha 90.000000
_cell_angle_beta 66.734005
_cell_angle_gamma 90.000000
_cell_volume 2792.486600
_symmetry_space_group_name_H-M "C 2/M"
_symmetry_group_IT_number 12
_symmetry_cell_setting 'monoclinic'
loop_
_space_group_symop_operation_xyz
x,y,z
-x,y,-z
-x,-y,-z
x,-y,z
1/2+x,1/2+y,z
1/2-x,1/2+y,-z
1/2-x,1/2-y,-z
1/2+x,1/2-y,z
loop_
_atom_site_type_symbol
_atom_site_label
_atom_site_fract_x
_atom_site_fract_y
_atom_site_fract_z
Si Si1 0.695437 0.169919 0.577037
Si Si2 0.147984 0.331530 0.839377
Si Si3 0.460846 0.324361 0.123562
Si Si4 0.193238 0.325087 0.026021
Si Si5 0.110744 0.324461 0.280426
Si Si6 0.999718 0.171822 0.681626
Si Si7 0.114845 0.172400 0.492561
O O1 0.750000 0.250000 0.500000
O O2 0.691681 0.178483 0.708023
O O3 0.644312 0.250364 0.566667
O O4 0.696744 0.000000 0.536741
O O5 0.127472 0.500000 0.872420
O O6 0.098765 0.229618 0.848421
O O7 0.173680 0.270838 0.926666
O O8 0.459479 0.500000 0.124302
O O9 0.482282 0.267533 0.218561
O O10 0.500000 0.259578 0.000000
O O11 0.202077 0.500000 0.021310
O O12 0.148707 0.274993 0.150342
O O13 0.250000 0.250000 0.000000
O O14 0.111164 0.500000 0.296098
O O15 0.134113 0.247600 0.366728
O O16 0.049655 0.271962 0.313921
O O17 0.050091 0.191135 0.558826
O O18 0.981098 0.000000 0.701147
O O19 0.131325 0.000000 0.477614
#
# Coordination Sequence:
#
# PCOD8100559 Si02
#       7
#     8   8   8   8   8   8   8
#     4  11  24  41  64  94 125 160 205 254 307 365
#     4  10  22  41  63  89 122 157 200 248 303 363
#     4  10  20  35  59  90 123 159 203 247 295 357
#     4  10  24  44  63  89 121 159 204 252 304 361
#     4  11  24  40  61  91 125 161 207 257 304 361
#     4  10  21  38  59  89 124 161 203 248 304 364
#     4  11  23  41  64  90 125 165 205 251 305 366
#
# _framework density 20.053811
#
# number of rings (size 3 to 8) (size 9 to 14) (size 15 to 20)
#    0.000    1.571    1.429    2.571    2.000    6.000 
#    0.000    0.000    0.000    0.000    0.000    0.000 
#    0.000    0.000    0.000    0.000    0.000    0.000 
#
# Total GULP energy -347326.813298 kJ/mol
# GULP energy per Si atom -12404.529046 kJ/mol
# Density = 2.000817 g / cm^3
# Si number density = 20.053811 Si / 1000 Ang^3
#
#
#
# Elastic Constant Matrix: (Units=GPa)
#
#
# Indices 1 2 3 4 5 6 
#
# 1 81.9825 37.0228 37.2609 0.0000 2.0716 0.0000
# 2 37.0228 78.3069 45.8794 0.0000 -0.7666 0.0000
# 3 37.2609 45.8794 136.1017 0.0000 11.6922 0.0000
# 4 0.0000 0.0000 0.0000 29.2675 0.0000 1.4676
# 5 2.0716 -0.7666 11.6922 0.0000 38.6087 0.0000
# 6 0.0000 0.0000 0.0000 1.4676 0.0000 34.5023
#
#
#
# Elastic Compliance Matrix: (Units=1/GPa)
#
#
# Indices 1 2 3 4 5 6 
#
# 1 0.016065 -0.006277 -0.002256 0.000000 -0.000303 0.000000
# 2 -0.006277 0.018516 -0.004706 0.000000 0.002130 0.000000
# 3 -0.002256 -0.004706 0.009804 0.000000 -0.002942 0.000000
# 4 0.000000 0.000000 0.000000 0.034241 0.000000 -0.001456
# 5 -0.000303 0.002130 -0.002942 0.000000 0.026850 0.000000
# 6 0.000000 0.000000 0.000000 -0.001456 0.000000 0.029046
#
#
# Mechanical properties :
#
#
# Convention : Reuss Voigt Hill
#
# Bulk Modulus (GPa) = 55.84323 59.63526 57.73924
# Shear Modulus (GPa) = 29.94557 32.22423 31.08490
#
# Velocity S-wave (km/s) = 3.86847 4.01295 3.94137
# Velocity P-wave (km/s) = 6.91813 7.16058 7.04040
#
# Compressibility (1/GPa) = 0.01790728
#
# Stress axis : x y z
#
# Youngs Moduli (GPa) = 62.24574 54.00746 101.99540
#
# Poissons Ratio (x) = 0.33898 0.23014
# Poissons Ratio (y) = 0.39069 0.48002
# Poissons Ratio (z) = 0.14045 0.25417
#
# Static dielectric constant tensor:
#      x y z
#    x 3.624740 0.000000 0.250770 
#    y 0.000000 3.592560 0.000000 
#    z 0.250770 0.000000 4.300840 
# 
# 
# High freq. dielectric constant tensor:
#      x y z
#    x 1.783360 0.000000 0.005510 
#    y 0.000000 1.780220 0.000000 
#    z 0.005510 0.000000 1.801990 
# 
# From -- ./inp_files/180854.got.cif
#   From: 2010.06.25/outbox.cif.g09.slc.cpg/sg12_91_cif.got.tgz:180854.got - 2010.06.28 00:19:55.
