data_PCOD8100708
_publ_section_title
;
Structure prediction by ZEFSAII (Michael W. Deem and Ramdas Pophale) SiO2 
 PCOD8100708
Probable space group: C 2/M
;
_chemical_formula_sum "Si O2"
_cell_formula_units_Z 56
_cell_length_a 23.418031
_cell_length_b 14.914688
_cell_length_c 9.117215
_cell_angle_alpha 90.000000
_cell_angle_beta 121.192509
_cell_angle_gamma 90.000000
_cell_volume 2724.032146
_symmetry_space_group_name_H-M "C 2/M"
_symmetry_group_IT_number 12
_symmetry_cell_setting 'monoclinic'
loop_
_space_group_symop_operation_xyz
x,y,z
-x,y,-z
-x,-y,-z
x,-y,z
1/2+x,1/2+y,z
1/2-x,1/2+y,-z
1/2-x,1/2-y,-z
1/2+x,1/2-y,z
loop_
_atom_site_type_symbol
_atom_site_label
_atom_site_fract_x
_atom_site_fract_y
_atom_site_fract_z
Si Si1 0.979990 0.398391 0.128572
Si Si2 0.172718 0.260406 0.716745
Si Si3 0.711856 0.698694 0.320525
Si Si4 0.490347 0.603189 0.156888
Si Si5 0.618896 0.748733 0.949026
Si Si6 0.362535 0.602413 0.541959
Si Si7 0.068134 0.596218 0.504432
O O1 0.953025 0.500000 0.078418
O O2 0.921304 0.340987 0.124040
O O3 0.049035 0.393785 0.308952
O O4 0.000000 0.355914 0.000000
O O5 0.233608 0.321375 0.734373
O O6 0.175377 0.243041 0.895649
O O7 0.168190 0.165929 0.624558
O O8 0.107062 0.317093 0.603297
O O9 0.750000 0.750000 0.500000
O O10 0.676411 0.614693 0.353518
O O11 0.653899 0.751878 0.155529
O O12 0.469216 0.500000 0.152622
O O13 0.431123 0.664910 0.139898
O O14 0.559184 0.624335 0.333415
O O15 0.500000 0.625117 0.000000
O O16 0.352149 0.500000 0.478653
O O17 0.105870 0.500000 0.578972
O O18 0.000000 0.592630 0.500000
#
# Coordination Sequence:
#
# PCOD8100708 Si02
#       7
#     8   8   8   8   8   8   8
#     4  10  22  36  58  93 124 153 195 248 305 359
#     4  11  24  39  61  93 124 163 204 246 311 366
#     4  10  24  42  60  84 116 164 212 247 292 361
#     4  10  20  35  61  94 118 154 205 253 305 363
#     4  12  22  38  64  87 126 161 199 257 309 356
#     4  10  22  42  64  91 127 159 203 255 302 364
#     4  10  20  38  61  90 125 156 195 247 304 367
#
# _framework density 20.557759999999998
#
# number of rings (size 3 to 8) (size 9 to 14) (size 15 to 20)
#    0.000    1.571    2.857    1.714    4.000    1.143 
#    0.000    4.286    0.000    5.143    0.000    0.000 
#    0.000    0.000    0.000    0.000    0.000    0.000 
#
# Total GULP energy -346976.875474 kJ/mol
# GULP energy per Si atom -12392.031267 kJ/mol
# Density = 2.051097 g / cm^3
# Si number density = 20.557760 Si / 1000 Ang^3
#
#
#
# Elastic Constant Matrix: (Units=GPa)
#
#
# Indices 1 2 3 4 5 6 
#
# 1 98.0036 29.9913 16.8540 0.0000 -14.2189 0.0000
# 2 29.9913 96.0397 22.2607 0.0000 -1.5486 0.0000
# 3 16.8540 22.2607 71.6997 0.0000 -9.1639 0.0000
# 4 0.0000 0.0000 0.0000 21.3037 0.0000 -6.8876
# 5 -14.2189 -1.5486 -9.1639 0.0000 34.8281 0.0000
# 6 0.0000 0.0000 0.0000 -6.8876 0.0000 18.8707
#
#
#
# Elastic Compliance Matrix: (Units=1/GPa)
#
#
# Indices 1 2 3 4 5 6 
#
# 1 0.012110 -0.003429 -0.001210 0.000000 0.004473 0.000000
# 2 -0.003429 0.012197 -0.003198 0.000000 -0.001699 0.000000
# 3 -0.001210 -0.003198 0.015670 0.000000 0.003487 0.000000
# 4 0.000000 0.000000 0.000000 0.053220 0.000000 0.019425
# 5 0.004473 -0.001699 0.003487 0.000000 0.031380 0.000000
# 6 0.000000 0.000000 0.000000 0.019425 0.000000 0.060082
#
#
# Mechanical properties :
#
#
# Convention : Reuss Voigt Hill
#
# Bulk Modulus (GPa) = 41.14787 44.88389 43.01588
# Shear Modulus (GPa) = 23.98822 28.10965 26.04893
#
# Velocity S-wave (km/s) = 3.41965 3.70178 3.56351
# Velocity P-wave (km/s) = 5.97086 6.33651 6.15640
#
# Compressibility (1/GPa) = 0.02430260
#
# Stress axis : x y z
#
# Youngs Moduli (GPa) = 82.57480 81.98709 63.81599
#
# Poissons Ratio (x) = 0.28114 0.07724
# Poissons Ratio (y) = 0.28316 0.20408
# Poissons Ratio (z) = 0.09994 0.26219
#
# Static dielectric constant tensor:
#      x y z
#    x 4.017060 0.000000 -0.044410 
#    y 0.000000 3.655300 0.000000 
#    z -0.044410 0.000000 4.088160 
# 
# 
# High freq. dielectric constant tensor:
#      x y z
#    x 1.800000 0.000000 -0.010950 
#    y 0.000000 1.793010 0.000000 
#    z -0.010950 0.000000 1.809230 
# 
# From -- ./inp_files/96993.got.cif
#   From: 2010.06.25/outbox.cif.g09.slc.cpg/sg12_49_cif.got.tgz:96993.got - 2010.06.28 00:19:55.
