data_PCOD8100827
_publ_section_title
;
Structure prediction by ZEFSAII (Michael W. Deem and Ramdas Pophale) SiO2 
 PCOD8100827
Probable space group: C 2/M
;
_chemical_formula_sum "Si O2"
_cell_formula_units_Z 60
_cell_length_a 11.531390
_cell_length_b 29.245487
_cell_length_c 9.963436
_cell_angle_alpha 90.000000
_cell_angle_beta 62.125638
_cell_angle_gamma 90.000000
_cell_volume 2970.226713
_symmetry_space_group_name_H-M "C 2/M"
_symmetry_group_IT_number 12
_symmetry_cell_setting 'monoclinic'
loop_
_space_group_symop_operation_xyz
x,y,z
-x,y,-z
-x,-y,-z
x,-y,z
1/2+x,1/2+y,z
1/2-x,1/2+y,-z
1/2-x,1/2-y,-z
1/2+x,1/2-y,z
loop_
_atom_site_type_symbol
_atom_site_label
_atom_site_fract_x
_atom_site_fract_y
_atom_site_fract_z
Si Si1 0.500000 0.762428 0.500000
Si Si2 0.205126 0.641345 0.131101
Si Si3 0.696723 0.641406 0.626242
Si Si4 0.694733 0.049636 0.479795
Si Si5 0.022154 0.720034 0.199321
Si Si6 0.237781 0.196159 0.347568
Si Si7 0.592420 0.323858 0.169070
Si Si8 0.926905 0.449663 0.746456
O O1 0.486009 0.792349 0.638996
O O2 0.632244 0.733423 0.449928
O O3 0.219616 0.649710 0.283281
O O4 0.116956 0.679245 0.099502
O O5 0.145372 0.591049 0.132693
O O6 0.348186 0.647006 0.985900
O O7 0.693201 0.588140 0.584689
O O8 0.767698 0.666751 0.464272
O O9 0.550573 0.657945 0.724071
O O10 0.628895 0.047871 0.371293
O O11 0.582547 0.061077 0.651274
O O12 0.758431 0.000000 0.477746
O O13 0.085002 0.769689 0.136694
O O14 0.875061 0.717824 0.218450
O O15 0.177817 0.167453 0.256677
O O16 0.905173 0.500000 0.827005
#
# Coordination Sequence:
#
# PCOD8100827 Si02
#       8
#     4   8   8   8   8   8   8   8
#     4  10  20  36  54  86 106 140 192 246 276 318
#     4  11  23  37  55  88 115 148 188 230 283 338
#     4  11  20  37  60  81 113 149 190 237 280 332
#     4   8  15  29  56  89 113 136 179 239 289 327
#     4  11  22  35  58  80 111 149 195 236 276 330
#     4  11  21  39  58  78 105 153 192 233 282 324
#     4  11  25  39  52  77 119 158 188 230 275 337
#     4   8  15  32  56  85 115 139 175 235 291 330
#
# _framework density 20.200476999999999
#
# number of rings (size 3 to 8) (size 9 to 14) (size 15 to 20)
#    0.000    1.867    2.667    3.600    3.733    2.667 
#    2.400    0.667    0.000    5.600    0.000    2.800 
#    0.000    0.000    0.000    0.000    0.000    0.000 
#
# Total GULP energy -371746.185580 kJ/mol
# GULP energy per Si atom -12391.539519 kJ/mol
# Density = 2.015450 g / cm^3
# Si number density = 20.200477 Si / 1000 Ang^3
#
#
#
# Elastic Constant Matrix: (Units=GPa)
#
#
# Indices 1 2 3 4 5 6 
#
# 1 59.5724 40.8169 19.2991 0.0000 -13.1701 0.0000
# 2 40.8169 145.6930 42.8161 0.0000 -20.5418 0.0000
# 3 19.2991 42.8161 46.1042 0.0000 -1.5352 0.0000
# 4 0.0000 0.0000 0.0000 -93.2354 0.0000 140.3033
# 5 -13.1701 -20.5418 -1.5352 0.0000 22.2207 0.0000
# 6 0.0000 0.0000 0.0000 140.3033 0.0000 -153.4179
#
#
#
# Elastic Compliance Matrix: (Units=1/GPa)
#
#
# Indices 1 2 3 4 5 6 
#
# 1 0.023375 -0.003160 -0.006501 0.000000 0.010484 0.000000
# 2 -0.003160 0.011607 -0.009183 0.000000 0.008223 0.000000
# 3 -0.006501 -0.009183 0.032603 0.000000 -0.010089 0.000000
# 4 0.000000 0.000000 0.000000 0.028511 0.000000 0.026074
# 5 0.010484 0.008223 -0.010089 0.000000 0.058121 0.000000
# 6 0.000000 0.000000 0.000000 0.026074 0.000000 0.017327
#
#
# Mechanical properties :
#
#
# Convention : Reuss Voigt Hill
#
# Bulk Modulus (GPa) = 33.44709 50.80374 42.12541
# Shear Modulus (GPa) = 22.81049 -34.99070 -6.09010
#
# Velocity S-wave (km/s) = 3.36401 -4.16645 -1.73821
# Velocity P-wave (km/s) = 5.62870 1.43478 4.10736
#
# Compressibility (1/GPa) = 0.02989797
#
# Stress axis : x y z
#
# Youngs Moduli (GPa) = 42.78024 86.15510 30.67198
#
# Poissons Ratio (x) = 0.27226 0.19940
# Poissons Ratio (y) = 0.13519 0.28165
# Poissons Ratio (z) = 0.27812 0.79113
#
# Static dielectric constant tensor:
#      x y z
#    x 3.608970 0.000000 -0.067700 
#    y 0.000000 4.016810 0.000000 
#    z -0.067700 0.000000 3.626980 
# 
# 
# High freq. dielectric constant tensor:
#      x y z
#    x 1.774470 0.000000 -0.014920 
#    y 0.000000 1.777970 0.000000 
#    z -0.014920 0.000000 1.775330 
# 
# From -- ./inp_files/136978.got.cif
#   From: 2010.06.25/outbox.cif.g09.slc.cpg/sg12_69_cif.got.tgz:136978.got - 2010.06.28 00:19:55.
