data_PCOD8100290
_publ_section_title
;
Structure prediction by ZEFSAII (Michael W. Deem and Ramdas Pophale) SiO2 
 PCOD8100290
Probable space group: C 2/M
;
_chemical_formula_sum "Si O2"
_cell_formula_units_Z 64
_cell_length_a 19.097873
_cell_length_b 13.714433
_cell_length_c 16.032365
_cell_angle_alpha 90.000000
_cell_angle_beta 133.498801
_cell_angle_gamma 90.000000
_cell_volume 3046.009693
_symmetry_space_group_name_H-M "C 2/M"
_symmetry_group_IT_number 12
_symmetry_cell_setting 'monoclinic'
loop_
_space_group_symop_operation_xyz
x,y,z
-x,y,-z
-x,-y,-z
x,-y,z
1/2+x,1/2+y,z
1/2-x,1/2+y,-z
1/2-x,1/2-y,-z
1/2+x,1/2-y,z
loop_
_atom_site_type_symbol
_atom_site_label
_atom_site_fract_x
_atom_site_fract_y
_atom_site_fract_z
Si Si1 0.157436 0.387124 0.424530
Si Si2 0.050687 0.387582 0.799206
Si Si3 0.760104 0.114441 0.924496
Si Si4 0.445126 0.893090 0.872879
Si Si5 0.340611 0.613853 0.167529
Si Si6 0.711638 0.722429 0.583673
Si Si7 0.520764 0.614865 0.421263
Si Si8 0.282452 0.231150 0.814201
O O1 0.185877 0.500000 0.455806
O O2 0.194015 0.342436 0.365471
O O3 0.213444 0.328825 0.542603
O O4 0.041173 0.372838 0.337551
O O5 0.078927 0.500000 0.830849
O O6 0.151337 0.339141 0.849768
O O7 0.018948 0.349517 0.864452
O O8 0.802591 0.165958 0.876639
O O9 0.757762 0.000000 0.903998
O O10 0.828746 0.138773 0.059847
O O11 0.373102 0.806760 0.837134
O O12 0.401620 0.000000 0.805010
O O13 0.500000 0.921087 0.000000
O O14 0.336124 0.500000 0.179135
O O15 0.439500 0.654600 0.289622
O O16 0.248795 0.654753 0.141352
O O17 0.619200 0.664862 0.473391
O O18 0.702680 0.740345 0.675441
O O19 0.500000 0.643059 0.500000
O O20 0.533107 0.500000 0.422005
#
# Coordination Sequence:
#
# PCOD8100290 Si02
#       8
#     8   8   8   8   8   8   8   8
#     4  10  22  40  60  84 115 157 205 250 305 368
#     4   9  18  36  60  83 115 155 195 246 300 355
#     4  10  23  41  60  89 127 166 203 245 303 365
#     4  10  20  35  59  91 120 149 195 253 310 360
#     4  10  21  37  57  85 122 160 197 243 303 362
#     4  11  23  37  59  86 120 157 198 254 303 360
#     4  10  20  35  58  86 117 154 194 245 299 349
#     4  12  22  36  61  92 122 157 200 258 304 358
#
# _framework density 21.011095000000001
#
# number of rings (size 3 to 8) (size 9 to 14) (size 15 to 20)
#    0.000    1.750    2.500    1.875    1.750    3.500 
#    0.000    0.000    0.000    3.000    0.000    1.750 
#    0.000    0.000    0.000    0.000    0.000    0.000 
#
# Total GULP energy -396611.943342 kJ/mol
# GULP energy per Si atom -12394.123229 kJ/mol
# Density = 2.096327 g / cm^3
# Si number density = 21.011095 Si / 1000 Ang^3
#
#
#
# Elastic Constant Matrix: (Units=GPa)
#
#
# Indices 1 2 3 4 5 6 
#
# 1 78.6840 39.5180 29.5268 0.0000 -3.7189 0.0000
# 2 39.5180 74.7283 48.4464 0.0000 -4.2433 0.0000
# 3 29.5268 48.4464 96.6542 0.0000 -0.1875 0.0000
# 4 0.0000 0.0000 0.0000 25.0238 0.0000 0.4402
# 5 -3.7189 -4.2433 -0.1875 0.0000 28.1015 0.0000
# 6 0.0000 0.0000 0.0000 0.4402 0.0000 28.5234
#
#
#
# Elastic Compliance Matrix: (Units=1/GPa)
#
#
# Indices 1 2 3 4 5 6 
#
# 1 0.017404 -0.008444 -0.001082 0.000000 0.001021 0.000000
# 2 -0.008444 0.024164 -0.009527 0.000000 0.002468 0.000000
# 3 -0.001082 -0.009527 0.015449 0.000000 -0.001479 0.000000
# 4 0.000000 0.000000 0.000000 0.039973 0.000000 -0.000617
# 5 0.001021 0.002468 -0.001479 0.000000 0.036083 0.000000
# 6 0.000000 0.000000 0.000000 -0.000617 0.000000 0.035069
#
#
# Mechanical properties :
#
#
# Convention : Reuss Voigt Hill
#
# Bulk Modulus (GPa) = 52.88232 53.89433 53.38833
# Shear Modulus (GPa) = 23.52344 25.16808 24.34576
#
# Velocity S-wave (km/s) = 3.34963 3.46475 3.40768
# Velocity P-wave (km/s) = 6.33904 6.45849 6.39904
#
# Compressibility (1/GPa) = 0.01890991
#
# Stress axis : x y z
#
# Youngs Moduli (GPa) = 57.45644 41.38368 64.72726
#
# Poissons Ratio (x) = 0.34945 0.07006
# Poissons Ratio (y) = 0.48517 0.61669
# Poissons Ratio (z) = 0.06219 0.39428
#
# Static dielectric constant tensor:
#      x y z
#    x 3.692040 0.000000 -0.062420 
#    y 0.000000 3.641130 0.000000 
#    z -0.062420 0.000000 4.108200 
# 
# 
# High freq. dielectric constant tensor:
#      x y z
#    x 1.804470 0.000000 -0.001030 
#    y 0.000000 1.817230 0.000000 
#    z -0.001030 0.000000 1.831600 
# 
# From -- ./inp_files/225738.got.cif
#   From: 2010.06.25/outbox.cif.g09.slc.cpg/sg12_113_cif.got.tgz:225738.got - 2010.06.28 00:19:55.
