data_PCOD8100812
_publ_section_title
;
Structure prediction by ZEFSAII (Michael W. Deem and Ramdas Pophale) SiO2 
 PCOD8100812
Probable space group: C 2/M
;
_chemical_formula_sum "Si O2"
_cell_formula_units_Z 60
_cell_length_a 17.087002
_cell_length_b 20.472351
_cell_length_c 9.440238
_cell_angle_alpha 90.000000
_cell_angle_beta 73.933713
_cell_angle_gamma 90.000000
_cell_volume 3173.319357
_symmetry_space_group_name_H-M "C 2/M"
_symmetry_group_IT_number 12
_symmetry_cell_setting 'monoclinic'
loop_
_space_group_symop_operation_xyz
x,y,z
-x,y,-z
-x,-y,-z
x,-y,z
1/2+x,1/2+y,z
1/2-x,1/2+y,-z
1/2-x,1/2-y,-z
1/2+x,1/2-y,z
loop_
_atom_site_type_symbol
_atom_site_label
_atom_site_fract_x
_atom_site_fract_y
_atom_site_fract_z
Si Si1 0.000311 0.070975 0.253137
Si Si2 0.414637 0.765409 0.961911
Si Si3 0.000000 0.172850 0.500000
Si Si4 0.229932 0.674488 0.804555
Si Si5 0.345681 0.378048 0.963681
Si Si6 0.871605 0.268518 0.676340
Si Si7 0.225946 0.673821 0.493037
Si Si8 0.321683 0.573371 0.265000
O O1 0.994708 0.129210 0.365360
O O2 0.919125 0.075255 0.201243
O O3 0.078033 0.076873 0.113185
O O4 0.004656 0.000000 0.327121
O O5 0.379268 0.693101 0.986185
O O6 0.422858 0.787938 0.791613
O O7 0.500000 0.769218 0.000000
O O8 0.353250 0.813772 0.070677
O O9 0.919434 0.216280 0.556231
O O10 0.283939 0.621629 0.861624
O O11 0.284050 0.740435 0.769744
O O12 0.206206 0.647365 0.660315
O O13 0.293525 0.406225 0.121478
O O14 0.850992 0.328552 0.578814
O O15 0.250000 0.750000 0.500000
O O16 0.294459 0.625624 0.396556
O O17 0.290381 0.500000 0.318962
#
# Coordination Sequence:
#
# PCOD8100812 Si02
#       8
#     8   8   4   8   8   8   8   8
#     4  11  22  34  52  78 119 164 201 235 278 341
#     4  11  21  33  55  82 113 148 189 246 298 352
#     4  12  21  36  52  84 117 150 204 236 296 336
#     4  10  20  36  54  79 110 152 192 240 300 342
#     4  11  20  35  53  76 115 159 199 235 282 348
#     4  10  21  34  56  79 112 152 191 240 293 350
#     4  10  20  37  59  80 113 155 193 250 293 343
#     4  11  23  37  56  84 120 161 202 240 289 354
#
# _framework density 18.907646
#
# number of rings (size 3 to 8) (size 9 to 14) (size 15 to 20)
#    0.000    1.333    2.667    7.400    1.867    1.067 
#    0.000    0.667    0.000    0.000    0.000    0.467 
#    0.000    5.067    0.000    0.000    0.000    0.000 
#
# Total GULP energy -371790.915331 kJ/mol
# GULP energy per Si atom -12393.030511 kJ/mol
# Density = 1.886461 g / cm^3
# Si number density = 18.907646 Si / 1000 Ang^3
#
#
#
# Elastic Constant Matrix: (Units=GPa)
#
#
# Indices 1 2 3 4 5 6 
#
# 1 81.8352 39.0385 37.5925 0.0000 11.9084 0.0000
# 2 39.0385 75.6698 41.8118 0.0000 -3.4242 0.0000
# 3 37.5925 41.8118 116.2755 0.0000 9.9073 0.0000
# 4 0.0000 0.0000 0.0000 41.1486 0.0000 3.4488
# 5 11.9084 -3.4242 9.9073 0.0000 35.3960 0.0000
# 6 0.0000 0.0000 0.0000 3.4488 0.0000 21.1349
#
#
#
# Elastic Compliance Matrix: (Units=1/GPa)
#
#
# Indices 1 2 3 4 5 6 
#
# 1 0.018208 -0.008388 -0.002335 0.000000 -0.006284 0.000000
# 2 -0.008388 0.020750 -0.005287 0.000000 0.006309 0.000000
# 3 -0.002335 -0.005287 0.011508 0.000000 -0.002947 0.000000
# 4 0.000000 0.000000 0.000000 0.024639 0.000000 -0.004021
# 5 -0.006284 0.006309 -0.002947 0.000000 0.031801 0.000000
# 6 0.000000 0.000000 0.000000 -0.004021 0.000000 0.047971
#
#
# Mechanical properties :
#
#
# Convention : Reuss Voigt Hill
#
# Bulk Modulus (GPa) = 54.21514 56.74069 55.47792
# Shear Modulus (GPa) = 25.90072 29.89172 27.89622
#
# Velocity S-wave (km/s) = 3.70517 3.98041 3.84525
# Velocity P-wave (km/s) = 6.85859 7.15538 7.00856
#
# Compressibility (1/GPa) = 0.01844503
#
# Stress axis : x y z
#
# Youngs Moduli (GPa) = 54.92093 48.19393 86.89935
#
# Poissons Ratio (x) = 0.40423 0.20293
# Poissons Ratio (y) = 0.46066 0.45945
# Poissons Ratio (z) = 0.12825 0.25481
#
# Static dielectric constant tensor:
#      x y z
#    x 3.598450 0.000000 0.335330 
#    y 0.000000 3.295960 0.000000 
#    z 0.335330 0.000000 3.825710 
# 
# 
# High freq. dielectric constant tensor:
#      x y z
#    x 1.720440 0.000000 0.018630 
#    y 0.000000 1.688960 0.000000 
#    z 0.018630 0.000000 1.754230 
# 
# From -- ./inp_files/77447.got.cif
#   From: 2010.06.25/outbox.cif.g09.slc.cpg/sg12_39_cif.got.tgz:77447.got - 2010.06.28 00:19:55.
