data_PCOD8100726
_publ_section_title
;
Structure prediction by ZEFSAII (Michael W. Deem and Ramdas Pophale) SiO2 
 PCOD8100726
Probable space group: C 2/M
;
_chemical_formula_sum "Si O2"
_cell_formula_units_Z 48
_cell_length_a 19.738579
_cell_length_b 13.595439
_cell_length_c 8.842822
_cell_angle_alpha 90.000000
_cell_angle_beta 70.978091
_cell_angle_gamma 90.000000
_cell_volume 2243.431694
_symmetry_space_group_name_H-M "C 2/M"
_symmetry_group_IT_number 12
_symmetry_cell_setting 'monoclinic'
loop_
_space_group_symop_operation_xyz
x,y,z
-x,y,-z
-x,-y,-z
x,-y,z
1/2+x,1/2+y,z
1/2-x,1/2+y,-z
1/2-x,1/2-y,-z
1/2+x,1/2-y,z
loop_
_atom_site_type_symbol
_atom_site_label
_atom_site_fract_x
_atom_site_fract_y
_atom_site_fract_z
Si Si1 0.447362 0.612949 0.905077
Si Si2 0.812495 0.610670 0.833780
Si Si3 0.327977 0.680067 0.195311
Si Si4 0.691902 0.326076 0.473796
Si Si5 0.931383 0.742973 0.643665
Si Si6 0.307560 0.894390 0.184589
O O1 0.462027 0.500000 0.851553
O O2 0.456961 0.675988 0.746711
O O3 0.500000 0.650250 0.000000
O O4 0.367719 0.624523 0.031116
O O5 0.810943 0.500000 0.769639
O O6 0.757237 0.678881 0.780484
O O7 0.893203 0.652650 0.758505
O O8 0.787053 0.612836 0.024418
O O9 0.341176 0.625885 0.347329
O O10 0.352565 0.795847 0.192221
O O11 0.750000 0.250000 0.500000
O O12 0.624763 0.284055 0.434521
O O13 0.734008 0.401001 0.334898
O O14 0.000000 0.705026 0.500000
O O15 0.348246 0.000000 0.183977
#
# Coordination Sequence:
#
# PCOD8100726 Si02
#       6
#     8   8   8   8   8   8
#     4  11  25  44  68  96 128 172 217 262 325 394
#     4  11  22  39  64  94 125 168 219 264 320 387
#     4  11  20  41  64  95 131 168 208 268 321 377
#     4  10  21  38  62  94 132 166 210 261 322 379
#     4  12  24  43  65  91 132 175 211 272 331 380
#     4  10  20  35  62  93 125 162 208 265 321 379
#
# _framework density 21.395793000000001
#
# number of rings (size 3 to 8) (size 9 to 14) (size 15 to 20)
#    0.000    1.167    5.000    3.000    0.000    4.000 
#    0.000    0.000    0.000    4.000    0.000    0.000 
#    0.000    0.000    0.000    0.000    0.000    0.000 
#
# Total GULP energy -297387.046486 kJ/mol
# GULP energy per Si atom -12391.126937 kJ/mol
# Density = 2.134710 g / cm^3
# Si number density = 21.395793 Si / 1000 Ang^3
#
#
#
# Elastic Constant Matrix: (Units=GPa)
#
#
# Indices 1 2 3 4 5 6 
#
# 1 91.2559 28.1852 33.7203 0.0000 5.5746 0.0000
# 2 28.1852 108.7723 41.8059 0.0000 2.8212 0.0000
# 3 33.7203 41.8059 143.3865 0.0000 2.8377 0.0000
# 4 0.0000 0.0000 0.0000 7.1706 0.0000 -3.2055
# 5 5.5746 2.8212 2.8377 0.0000 33.4885 0.0000
# 6 0.0000 0.0000 0.0000 -3.2055 0.0000 19.5199
#
#
#
# Elastic Compliance Matrix: (Units=1/GPa)
#
#
# Indices 1 2 3 4 5 6 
#
# 1 0.012622 -0.002363 -0.002245 0.000000 -0.001712 0.000000
# 2 -0.002363 0.010809 -0.002590 0.000000 -0.000298 0.000000
# 3 -0.002245 -0.002590 0.008259 0.000000 -0.000108 0.000000
# 4 0.000000 0.000000 0.000000 0.150508 0.000000 0.024716
# 5 -0.001712 -0.000298 -0.000108 0.000000 0.030180 0.000000
# 6 0.000000 0.000000 0.000000 0.024716 0.000000 0.055289
#
#
# Mechanical properties :
#
#
# Convention : Reuss Voigt Hill
#
# Bulk Modulus (GPa) = 57.82465 61.20417 59.51441
# Shear Modulus (GPa) = 17.37142 28.01602 22.69372
#
# Velocity S-wave (km/s) = 2.85249 3.62251 3.26031
# Velocity P-wave (km/s) = 6.15904 6.79445 6.48454
#
# Compressibility (1/GPa) = 0.01729366
#
# Stress axis : x y z
#
# Youngs Moduli (GPa) = 79.22406 92.51555 121.07332
#
# Poissons Ratio (x) = 0.21864 0.27187
# Poissons Ratio (y) = 0.18723 0.31356
# Poissons Ratio (z) = 0.17790 0.23960
#
# Static dielectric constant tensor:
#      x y z
#    x 3.596650 0.000000 -0.036990 
#    y 0.000000 3.831180 0.000000 
#    z -0.036990 0.000000 4.560630 
# 
# 
# High freq. dielectric constant tensor:
#      x y z
#    x 1.806460 0.000000 0.004240 
#    y 0.000000 1.826160 0.000000 
#    z 0.004240 0.000000 1.870640 
# 
# From -- ./inp_files/85712.got.cif
#   From: 2010.06.25/outbox.cif.g09.slc.cpg/sg12_43_cif.got.tgz:85712.got - 2010.06.28 00:19:55.
