data_PCOD8100392
_publ_section_title
;
Structure prediction by ZEFSAII (Michael W. Deem and Ramdas Pophale) SiO2 
 PCOD8100392
Probable space group: C 2/M
;
_chemical_formula_sum "Si O2"
_cell_formula_units_Z 40
_cell_length_a 25.836793
_cell_length_b 16.876484
_cell_length_c 9.006952
_cell_angle_alpha 90.000000
_cell_angle_beta 33.278438
_cell_angle_gamma 90.000000
_cell_volume 2154.963454
_symmetry_space_group_name_H-M "C 2/M"
_symmetry_group_IT_number 12
_symmetry_cell_setting 'monoclinic'
loop_
_space_group_symop_operation_xyz
x,y,z
-x,y,-z
-x,-y,-z
x,-y,z
1/2+x,1/2+y,z
1/2-x,1/2+y,-z
1/2-x,1/2-y,-z
1/2+x,1/2-y,z
loop_
_atom_site_type_symbol
_atom_site_label
_atom_site_fract_x
_atom_site_fract_y
_atom_site_fract_z
Si Si1 0.749656 0.088377 0.135227
Si Si2 0.309104 0.308080 0.754900
Si Si3 0.206776 0.232091 0.760903
Si Si4 0.033949 0.411579 0.579730
Si Si5 0.501953 0.239026 0.171013
O O1 0.755110 0.149733 0.259770
O O2 0.646053 0.089675 0.315360
O O3 0.777257 0.000000 0.124313
O O4 0.816611 0.111134 0.832981
O O5 0.243919 0.308938 0.764130
O O6 0.413709 0.279032 0.464476
O O7 0.250000 0.250000 0.000000
O O8 0.250000 0.250000 0.500000
O O9 0.094697 0.222700 0.020595
O O10 0.994577 0.500000 0.704531
O O11 0.994261 0.354612 0.803678
O O12 0.000000 0.381045 0.500000
O O13 0.500000 0.253557 0.000000
#
# Coordination Sequence:
#
# PCOD8100392 Si02
#       5
#     8   8   8   8   8
#     4  10  21  39  60  87 121 155 197 249 298 346
#     4  10  20  37  58  88 112 154 200 235 288 351
#     4  11  21  38  61  87 122 156 202 242 293 359
#     4  10  20  35  58  90 120 149 189 243 302 361
#     4  12  22  36  60  88 118 157 197 245 296 354
#
# _framework density 18.561800000000002
#
# number of rings (size 3 to 8) (size 9 to 14) (size 15 to 20)
#    0.000    1.400    6.000    1.200    2.800    0.400 
#    0.000    4.000    0.000    1.200    0.000    0.000 
#    0.000    0.000    0.000    0.000    0.000    0.000 
#
# Total GULP energy -247800.646703 kJ/mol
# GULP energy per Si atom -12390.032335 kJ/mol
# Density = 1.851955 g / cm^3
# Si number density = 18.561800 Si / 1000 Ang^3
#
#
#
# Elastic Constant Matrix: (Units=GPa)
#
#
# Indices 1 2 3 4 5 6 
#
# 1 119.3193 40.7224 52.1049 0.0000 -1.2865 0.0000
# 2 40.7224 100.4989 33.6359 0.0000 11.3198 0.0000
# 3 52.1049 33.6359 116.3316 0.0000 -0.3297 0.0000
# 4 0.0000 0.0000 0.0000 20.0098 0.0000 0.7357
# 5 -1.2865 11.3198 -0.3297 0.0000 39.8051 0.0000
# 6 0.0000 0.0000 0.0000 0.7357 0.0000 26.2172
#
#
#
# Elastic Compliance Matrix: (Units=1/GPa)
#
#
# Indices 1 2 3 4 5 6 
#
# 1 0.011334 -0.003366 -0.004100 0.000000 0.001289 0.000000
# 2 -0.003366 0.012428 -0.002096 0.000000 -0.003660 0.000000
# 3 -0.004100 -0.002096 0.011040 0.000000 0.000555 0.000000
# 4 0.000000 0.000000 0.000000 0.050027 0.000000 -0.001404
# 5 0.001289 -0.003660 0.000555 0.000000 0.026210 0.000000
# 6 0.000000 0.000000 0.000000 -0.001404 0.000000 0.038182
#
#
# Mechanical properties :
#
#
# Convention : Reuss Voigt Hill
#
# Bulk Modulus (GPa) = 63.78081 65.45292 64.61686
# Shear Modulus (GPa) = 28.80684 31.18553 29.99619
#
# Velocity S-wave (km/s) = 3.94374 4.10334 4.02433
# Velocity P-wave (km/s) = 7.42788 7.60188 7.51538
#
# Compressibility (1/GPa) = 0.01567870
#
# Stress axis : x y z
#
# Youngs Moduli (GPa) = 88.23307 80.46341 90.57960
#
# Poissons Ratio (x) = 0.27081 0.37134
# Poissons Ratio (y) = 0.29695 0.18989
# Poissons Ratio (z) = 0.36172 0.16868
#
# Static dielectric constant tensor:
#      x y z
#    x 3.614680 0.000000 0.120060 
#    y 0.000000 3.986900 0.000000 
#    z 0.120060 0.000000 3.591510 
# 
# 
# High freq. dielectric constant tensor:
#      x y z
#    x 1.737300 0.000000 -0.001340 
#    y 0.000000 1.696610 0.000000 
#    z -0.001340 0.000000 1.716790 
# 
# From -- ./inp_files/60379.got.cif
#   From: 2010.06.25/outbox.cif.g09.slc.cpg/sg12_31_cif.got.tgz:60379.got - 2010.06.28 00:19:55.
