data_PCOD8100518
_publ_section_title
;
Structure prediction by ZEFSAII (Michael W. Deem and Ramdas Pophale) SiO2 
 PCOD8100518
Probable space group: C 2/M
;
_chemical_formula_sum "Si O2"
_cell_formula_units_Z 56
_cell_length_a 24.966940
_cell_length_b 9.349687
_cell_length_c 14.462887
_cell_angle_alpha 90.000000
_cell_angle_beta 119.090335
_cell_angle_gamma 90.000000
_cell_volume 2950.233465
_symmetry_space_group_name_H-M "C 2/M"
_symmetry_group_IT_number 12
_symmetry_cell_setting 'monoclinic'
loop_
_space_group_symop_operation_xyz
x,y,z
-x,y,-z
-x,-y,-z
x,-y,z
1/2+x,1/2+y,z
1/2-x,1/2+y,-z
1/2-x,1/2-y,-z
1/2+x,1/2-y,z
loop_
_atom_site_type_symbol
_atom_site_label
_atom_site_fract_x
_atom_site_fract_y
_atom_site_fract_z
Si Si1 0.432828 0.666275 0.706267
Si Si2 0.519151 0.669555 0.614827
Si Si3 0.263509 0.331409 0.789496
Si Si4 0.346540 0.665550 0.216734
Si Si5 0.863913 0.834640 0.022033
Si Si6 0.292248 0.665375 0.605212
Si Si7 0.986692 0.338461 0.095831
O O1 0.445856 0.500000 0.738312
O O2 0.468391 0.720245 0.645358
O O3 0.361420 0.695473 0.632172
O O4 0.455831 0.757989 0.811526
O O5 0.500000 0.735729 0.500000
O O6 0.520079 0.500000 0.610343
O O7 0.585846 0.724625 0.701807
O O8 0.253282 0.500000 0.788975
O O9 0.200750 0.254515 0.762446
O O10 0.316549 0.281647 0.904524
O O11 0.282575 0.283761 0.702588
O O12 0.340023 0.500000 0.239125
O O13 0.333450 0.687314 0.096985
O O14 0.882300 0.000000 0.022537
O O15 0.924480 0.741680 0.067697
O O16 0.275217 0.500000 0.581951
O O17 0.250000 0.750000 0.500000
O O18 0.981906 0.500000 0.129749
O O19 0.000000 0.337383 0.000000
#
# Coordination Sequence:
#
# PCOD8100518 Si02
#       7
#     8   8   8   8   8   8   8
#     4  10  20  39  63  84 111 152 196 236 281 336
#     4   9  18  33  57  88 115 140 187 243 282 332
#     4  10  22  38  56  83 119 154 192 238 286 341
#     4  10  20  35  59  89 115 148 192 235 285 341
#     4  10  20  38  60  84 114 150 196 237 276 342
#     4  10  23  40  60  85 113 153 198 239 288 340
#     4  11  23  36  55  86 121 152 185 234 292 342
#
# _framework density 18.981549000000001
#
# number of rings (size 3 to 8) (size 9 to 14) (size 15 to 20)
#    0.000    2.000    1.429    1.714    2.000    4.571 
#    0.000    0.000    0.000    0.857    0.000    0.000 
#    0.000    0.000    0.000    0.000    0.000    0.000 
#
# Total GULP energy -347287.327246 kJ/mol
# GULP energy per Si atom -12403.118830 kJ/mol
# Density = 1.893835 g / cm^3
# Si number density = 18.981549 Si / 1000 Ang^3
#
#
#
# Elastic Constant Matrix: (Units=GPa)
#
#
# Indices 1 2 3 4 5 6 
#
# 1 101.8621 41.9964 45.4222 0.0000 8.2271 0.0000
# 2 41.9964 58.6567 42.0048 0.0000 6.0836 0.0000
# 3 45.4222 42.0048 149.0824 0.0000 4.0664 0.0000
# 4 0.0000 0.0000 0.0000 21.6190 0.0000 3.8649
# 5 8.2271 6.0836 4.0664 0.0000 27.6586 0.0000
# 6 0.0000 0.0000 0.0000 3.8649 0.0000 33.0489
#
#
#
# Elastic Compliance Matrix: (Units=1/GPa)
#
#
# Indices 1 2 3 4 5 6 
#
# 1 0.014441 -0.008785 -0.001868 0.000000 -0.002089 0.000000
# 2 -0.008785 0.027114 -0.004891 0.000000 -0.002632 0.000000
# 3 -0.001868 -0.004891 0.008645 0.000000 0.000360 0.000000
# 4 0.000000 0.000000 0.000000 0.047243 0.000000 -0.005525
# 5 -0.002089 -0.002632 0.000360 0.000000 0.037302 0.000000
# 6 0.000000 0.000000 0.000000 -0.005525 0.000000 0.030904
#
#
# Mechanical properties :
#
#
# Convention : Reuss Voigt Hill
#
# Bulk Modulus (GPa) = 52.32328 63.16089 57.74208
# Shear Modulus (GPa) = 24.61759 28.47717 26.54738
#
# Velocity S-wave (km/s) = 3.60519 3.87751 3.74383
# Velocity P-wave (km/s) = 6.70485 7.30712 7.01245
#
# Compressibility (1/GPa) = 0.01911195
#
# Stress axis : x y z
#
# Youngs Moduli (GPa) = 69.24913 36.88184 115.67462
#
# Poissons Ratio (x) = 0.32401 0.21603
# Poissons Ratio (y) = 0.60836 0.56577
# Poissons Ratio (z) = 0.12933 0.18039
#
# Static dielectric constant tensor:
#      x y z
#    x 3.684620 0.000000 -0.129540 
#    y 0.000000 3.378860 0.000000 
#    z -0.129540 0.000000 3.731720 
# 
# 
# High freq. dielectric constant tensor:
#      x y z
#    x 1.747650 0.000000 -0.001970 
#    y 0.000000 1.715510 0.000000 
#    z -0.001970 0.000000 1.749090 
# 
# From -- ./inp_files/238409.got.cif
#   From: 2010.06.25/outbox.cif.g09.slc.cpg/sg12_120_cif.got.tgz:238409.got - 2010.06.28 00:19:55.
