data_PCOD8100635
_publ_section_title
;
Structure prediction by ZEFSAII (Michael W. Deem and Ramdas Pophale) SiO2 
 PCOD8100635
Probable space group: C 2/M
;
_chemical_formula_sum "Si O2"
_cell_formula_units_Z 56
_cell_length_a 30.029174
_cell_length_b 8.690457
_cell_length_c 11.638685
_cell_angle_alpha 90.000000
_cell_angle_beta 63.853418
_cell_angle_gamma 90.000000
_cell_volume 2726.505861
_symmetry_space_group_name_H-M "C 2/M"
_symmetry_group_IT_number 12
_symmetry_cell_setting 'monoclinic'
loop_
_space_group_symop_operation_xyz
x,y,z
-x,y,-z
-x,-y,-z
x,-y,z
1/2+x,1/2+y,z
1/2-x,1/2+y,-z
1/2-x,1/2-y,-z
1/2+x,1/2-y,z
loop_
_atom_site_type_symbol
_atom_site_label
_atom_site_fract_x
_atom_site_fract_y
_atom_site_fract_z
Si Si1 0.725303 0.320628 0.193098
Si Si2 0.791290 0.821626 0.532505
Si Si3 0.574969 0.678515 0.177825
Si Si4 0.514199 0.819174 0.856205
Si Si5 0.557731 0.178560 0.431335
Si Si6 0.096787 0.820771 0.617604
Si Si7 0.326102 0.823133 0.961583
O O1 0.711477 0.500000 0.192780
O O2 0.712790 0.256465 0.333486
O O3 0.692747 0.222312 0.142916
O O4 0.783594 0.292508 0.103822
O O5 0.750000 0.750000 0.500000
O O6 0.845693 0.787236 0.419384
O O7 0.779662 0.000000 0.551751
O O8 0.563196 0.500000 0.173882
O O9 0.529666 0.777162 0.180597
O O10 0.582425 0.719997 0.303151
O O11 0.626100 0.722984 0.055706
O O12 0.564585 0.732426 0.763365
O O13 0.524078 0.000000 0.838798
O O14 0.500000 0.764893 0.000000
O O15 0.500000 0.217489 0.500000
O O16 0.581779 0.223537 0.524057
O O17 0.567687 0.000000 0.395030
O O18 0.087599 0.000000 0.602565
O O19 0.342348 0.000000 0.940531
#
# Coordination Sequence:
#
# PCOD8100635 Si02
#       7
#     8   8   8   8   8   8   8
#     4   9  19  38  60  86 120 157 198 246 301 358
#     4  10  23  41  61  87 119 157 202 248 295 355
#     4  12  24  38  60  89 123 160 200 247 303 363
#     4  11  25  44  63  84 116 159 205 250 298 358
#     4  11  22  37  62  93 125 158 200 248 299 361
#     4  11  23  40  64  94 126 159 199 251 310 364
#     4  10  20  35  60  90 121 156 197 245 300 361
#
# _framework density 20.539109
#
# number of rings (size 3 to 8) (size 9 to 14) (size 15 to 20)
#    0.000    1.429    1.429    3.857    0.000    6.286 
#    0.000    4.286    0.000    0.000    0.000    0.000 
#    0.000    0.000    0.000    0.000    0.000    0.000 
#
# Total GULP energy -347357.141182 kJ/mol
# GULP energy per Si atom -12405.612185 kJ/mol
# Density = 2.049236 g / cm^3
# Si number density = 20.539109 Si / 1000 Ang^3
#
#
#
# Elastic Constant Matrix: (Units=GPa)
#
#
# Indices 1 2 3 4 5 6 
#
# 1 96.8862 28.6778 39.0843 0.0000 -18.3008 0.0000
# 2 28.6778 59.7321 23.4951 0.0000 -9.7931 0.0000
# 3 39.0843 23.4951 116.3587 0.0000 -12.2068 0.0000
# 4 0.0000 0.0000 0.0000 32.2971 0.0000 -3.7004
# 5 -18.3008 -9.7931 -12.2068 0.0000 32.3049 0.0000
# 6 0.0000 0.0000 0.0000 -3.7004 0.0000 29.6789
#
#
#
# Elastic Compliance Matrix: (Units=1/GPa)
#
#
# Indices 1 2 3 4 5 6 
#
# 1 0.013976 -0.004574 -0.003213 0.000000 0.005317 0.000000
# 2 -0.004574 0.020274 -0.002274 0.000000 0.002695 0.000000
# 3 -0.003213 -0.002274 0.010277 0.000000 0.001374 0.000000
# 4 0.000000 0.000000 0.000000 0.031411 0.000000 0.003916
# 5 0.005317 0.002695 0.001374 0.000000 0.035303 0.000000
# 6 0.000000 0.000000 0.000000 0.003916 0.000000 0.034182
#
#
# Mechanical properties :
#
#
# Convention : Reuss Voigt Hill
#
# Bulk Modulus (GPa) = 40.97888 50.61017 45.79452
# Shear Modulus (GPa) = 28.78841 30.97085 29.87963
#
# Velocity S-wave (km/s) = 3.74791 3.88738 3.81828
# Velocity P-wave (km/s) = 6.22286 6.69651 6.46403
#
# Compressibility (1/GPa) = 0.02440282
#
# Stress axis : x y z
#
# Youngs Moduli (GPa) = 71.55243 49.32388 97.30756
#
# Poissons Ratio (x) = 0.22563 0.31265
# Poissons Ratio (y) = 0.32731 0.22133
# Poissons Ratio (z) = 0.22990 0.11219
#
# Static dielectric constant tensor:
#      x y z
#    x 3.826110 0.000000 -0.068170 
#    y 0.000000 3.679100 0.000000 
#    z -0.068170 0.000000 4.333060 
# 
# 
# High freq. dielectric constant tensor:
#      x y z
#    x 1.804490 0.000000 -0.017790 
#    y 0.000000 1.805060 0.000000 
#    z -0.017790 0.000000 1.806490 
# 
# From -- ./inp_files/186361.got.cif
#   From: 2010.06.25/outbox.cif.g09.slc.cpg/sg12_94_cif.got.tgz:186361.got - 2010.06.28 00:19:55.
