data_PCOD8100121
_publ_section_title
;
Structure prediction by ZEFSAII (Michael W. Deem and Ramdas Pophale) SiO2 
 PCOD8100121
Probable space group: C 2/M
;
_chemical_formula_sum "Si O2"
_cell_formula_units_Z 64
_cell_length_a 17.049285
_cell_length_b 13.585756
_cell_length_c 19.322544
_cell_angle_alpha 90.000000
_cell_angle_beta 140.845737
_cell_angle_gamma 90.000000
_cell_volume 2825.960459
_symmetry_space_group_name_H-M "C 2/M"
_symmetry_group_IT_number 12
_symmetry_cell_setting 'monoclinic'
loop_
_space_group_symop_operation_xyz
x,y,z
-x,y,-z
-x,-y,-z
x,-y,z
1/2+x,1/2+y,z
1/2-x,1/2+y,-z
1/2-x,1/2-y,-z
1/2+x,1/2-y,z
loop_
_atom_site_type_symbol
_atom_site_label
_atom_site_fract_x
_atom_site_fract_y
_atom_site_fract_z
Si Si1 0.783890 0.886277 0.005613
Si Si2 0.433904 0.890971 0.238436
Si Si3 0.474768 0.689451 0.666675
Si Si4 0.068463 0.114222 0.215780
Si Si5 0.885601 0.606701 0.764228
Si Si6 0.236725 0.886014 0.857122
Si Si7 0.882630 0.116383 0.465215
Si Si8 0.601299 0.255360 0.122436
O O1 0.739339 0.841966 0.049014
O O2 0.928664 0.867214 0.091790
O O3 0.756538 0.000000 0.996241
O O4 0.697455 0.851274 0.882948
O O5 0.480103 0.801920 0.318246
O O6 0.539408 0.903348 0.254129
O O7 0.418346 0.000000 0.263957
O O8 0.408913 0.675307 0.697433
O O9 0.588893 0.612870 0.743098
O O10 0.382144 0.663003 0.541612
O O11 0.150506 0.156258 0.206895
O O12 0.099538 0.000000 0.249617
O O13 0.873270 0.500000 0.791218
O O14 0.746543 0.650137 0.657659
O O15 0.962160 0.677134 0.868240
O O16 0.292550 0.807811 0.841996
O O17 0.282642 0.000000 0.878669
O O18 0.000000 0.153565 0.500000
O O19 0.885508 0.000000 0.475459
O O20 0.500000 0.296804 0.000000
#
# Coordination Sequence:
#
# PCOD8100121 Si02
#       8
#     8   8   8   8   8   8   8   8
#     4   8  17  35  59  81 113 157 203 253 299 349
#     4  10  20  35  57  89 122 156 198 251 306 359
#     4  11  21  38  68  90 116 160 209 256 303 364
#     4  10  22  40  59  87 121 163 214 257 293 358
#     4  10  21  38  57  86 124 154 197 253 309 365
#     4  10  21  35  57  89 119 153 207 260 306 357
#     4  10  21  39  64  91 120 155 197 253 315 367
#     4  12  24  36  56  88 124 170 199 247 309 369
#
# _framework density 22.647168000000001
#
# number of rings (size 3 to 8) (size 9 to 14) (size 15 to 20)
#    0.000    1.875    1.250    3.750    1.750    4.750 
#    0.000    0.625    0.000    0.375    0.000    0.000 
#    0.000    0.000    0.000    0.000    0.000    0.000 
#
# Total GULP energy -396440.737034 kJ/mol
# GULP energy per Si atom -12388.773032 kJ/mol
# Density = 2.259562 g / cm^3
# Si number density = 22.647168 Si / 1000 Ang^3
#
#
#
# Elastic Constant Matrix: (Units=GPa)
#
#
# Indices 1 2 3 4 5 6 
#
# 1 48.2601 0.1878 -0.1140 0.0000 -15.1624 0.0000
# 2 0.1878 97.3491 14.7305 0.0000 -16.8206 0.0000
# 3 -0.1140 14.7305 50.1414 0.0000 -20.2700 0.0001
# 4 0.0000 0.0000 0.0000 49.3976 0.0000 -34.8115
# 5 -15.1624 -16.8206 -20.2700 0.0000 29.5145 0.0000
# 6 0.0000 0.0000 0.0001 -34.8115 0.0000 78.8587
#
#
#
# Elastic Compliance Matrix: (Units=1/GPa)
#
#
# Indices 1 2 3 4 5 6 
#
# 1 0.027201 0.002341 0.007700 0.000000 0.020597 0.000000
# 2 0.002341 0.011632 -0.000340 0.000000 0.007598 0.000000
# 3 0.007700 -0.000340 0.029877 0.000000 0.024281 0.000000
# 4 0.000000 0.000000 0.000000 0.029386 0.000000 0.012972
# 5 0.020597 0.007598 0.024281 0.000000 0.065469 0.000000
# 6 0.000000 0.000000 0.000000 0.012972 0.000000 0.018407
#
#
# Mechanical properties :
#
#
# Convention : Reuss Voigt Hill
#
# Bulk Modulus (GPa) = 11.34912 25.03991 18.19452
# Shear Modulus (GPa) = 26.04984 43.61724 34.83354
#
# Velocity S-wave (km/s) = 3.39521 4.39332 3.92611
# Velocity P-wave (km/s) = 4.51576 6.06758 5.34825
#
# Compressibility (1/GPa) = 0.08811255
#
# Stress axis : x y z
#
# Youngs Moduli (GPa) = 36.76304 85.96852 33.47094
#
# Poissons Ratio (x) = -0.20127 -0.25774
# Poissons Ratio (y) = -0.08607 0.01139
# Poissons Ratio (z) = -0.28309 0.02926
#
# Static dielectric constant tensor:
#      x y z
#    x 3.933200 0.000000 -0.041950 
#    y 0.000000 4.395400 0.000000 
#    z -0.041950 0.000000 4.057030 
# 
# 
# High freq. dielectric constant tensor:
#      x y z
#    x 1.873990 0.000000 -0.006880 
#    y 0.000000 1.902740 0.000000 
#    z -0.006880 0.000000 1.864030 
# 
# From -- ./inp_files/278198.got.cif
#   From: 2010.06.25/outbox.cif.g09.slc.cpg/sg12_140_cif.got.tgz:278198.got - 2010.06.28 00:19:55.
