data_PCOD8100054
_publ_section_title
;
Structure prediction by ZEFSAII (Michael W. Deem and Ramdas Pophale) SiO2 
 PCOD8100054
Probable space group: C 2/M
;
_chemical_formula_sum "Si O2"
_cell_formula_units_Z 48
_cell_length_a 19.519483
_cell_length_b 10.425136
_cell_length_c 13.290693
_cell_angle_alpha 90.000000
_cell_angle_beta 116.755136
_cell_angle_gamma 90.000000
_cell_volume 2415.011815
_symmetry_space_group_name_H-M "C 2/M"
_symmetry_group_IT_number 12
_symmetry_cell_setting 'monoclinic'
loop_
_space_group_symop_operation_xyz
x,y,z
-x,y,-z
-x,-y,-z
x,-y,z
1/2+x,1/2+y,z
1/2-x,1/2+y,-z
1/2-x,1/2-y,-z
1/2+x,1/2-y,z
loop_
_atom_site_type_symbol
_atom_site_label
_atom_site_fract_x
_atom_site_fract_y
_atom_site_fract_z
Si Si1 0.708557 0.226253 0.626903
Si Si2 0.848630 0.357248 0.615913
Si Si3 0.521562 0.851617 0.745218
Si Si4 0.851216 0.642670 0.024670
Si Si5 0.235000 0.859318 0.128654
Si Si6 0.569853 0.643941 0.621365
O O1 0.789392 0.271991 0.637299
O O2 0.666824 0.142280 0.514009
O O3 0.726853 0.142238 0.736585
O O4 0.650981 0.342353 0.616960
O O5 0.841200 0.500000 0.652731
O O6 0.933904 0.305248 0.695146
O O7 0.560513 0.841724 0.881453
O O8 0.566387 0.754057 0.702554
O O9 0.527117 0.000000 0.709178
O O10 0.837685 0.500000 0.969982
O O11 0.801360 0.663341 0.091754
O O12 0.829488 0.748568 0.926655
O O13 0.197284 0.000000 0.088214
O O14 0.500000 0.665077 0.500000
O O15 0.566919 0.500000 0.666053
#
# Coordination Sequence:
#
# PCOD8100054 Si02
#       6
#     8   8   8   8   8   8
#     4  11  21  37  57  83 118 155 189 232 282 345
#     4  10  22  37  57  83 114 154 193 232 283 338
#     4  10  20  38  60  84 113 148 193 239 283 335
#     4   9  19  35  57  85 114 144 188 241 288 334
#     4  10  20  35  57  86 115 148 191 235 286 340
#     4  11  22  35  54  85 119 151 188 233 287 343
#
# _framework density 19.875679000000002
#
# number of rings (size 3 to 8) (size 9 to 14) (size 15 to 20)
#    0.000    1.833    3.333    1.000    0.000    3.000 
#    0.000    1.667    0.000    4.000    0.000    0.000 
#    0.000    0.000    0.000    0.000    0.000    0.000 
#
# Total GULP energy -297515.054327 kJ/mol
# GULP energy per Si atom -12396.460597 kJ/mol
# Density = 1.983044 g / cm^3
# Si number density = 19.875679 Si / 1000 Ang^3
#
#
#
# Elastic Constant Matrix: (Units=GPa)
#
#
# Indices 1 2 3 4 5 6 
#
# 1 86.5218 38.9311 30.3659 0.0000 20.2743 0.0000
# 2 38.9311 114.2239 38.8519 0.0000 12.7412 0.0000
# 3 30.3659 38.8519 82.5528 0.0000 22.2747 0.0000
# 4 0.0000 0.0000 0.0000 21.7311 0.0000 5.3320
# 5 20.2743 12.7412 22.2747 0.0000 27.0898 0.0000
# 6 0.0000 0.0000 0.0000 5.3320 0.0000 17.2818
#
#
#
# Elastic Compliance Matrix: (Units=1/GPa)
#
#
# Indices 1 2 3 4 5 6 
#
# 1 0.015941 -0.003889 -0.001681 0.000000 -0.008719 0.000000
# 2 -0.003889 0.011398 -0.004206 0.000000 0.001008 0.000000
# 3 -0.001681 -0.004206 0.017783 0.000000 -0.011387 0.000000
# 4 0.000000 0.000000 0.000000 0.049786 0.000000 -0.015361
# 5 -0.008719 0.001008 -0.011387 0.000000 0.052328 0.000000
# 6 0.000000 0.000000 0.000000 -0.015361 0.000000 0.062604
#
#
# Mechanical properties :
#
#
# Convention : Reuss Voigt Hill
#
# Bulk Modulus (GPa) = 39.10589 55.51070 47.30830
# Shear Modulus (GPa) = 21.01592 24.89717 22.95654
#
# Velocity S-wave (km/s) = 3.25525 3.54311 3.40223
# Velocity P-wave (km/s) = 5.81780 6.68788 6.26796
#
# Compressibility (1/GPa) = 0.02557159
#
# Stress axis : x y z
#
# Youngs Moduli (GPa) = 62.73309 87.73216 56.23206
#
# Poissons Ratio (x) = 0.34117 0.09451
# Poissons Ratio (y) = 0.24396 0.23650
# Poissons Ratio (z) = 0.10544 0.36899
#
# Static dielectric constant tensor:
#      x y z
#    x 3.522020 0.000000 0.266010 
#    y 0.000000 3.633370 0.000000 
#    z 0.266010 0.000000 3.627190 
# 
# 
# High freq. dielectric constant tensor:
#      x y z
#    x 1.759720 0.000000 0.022540 
#    y 0.000000 1.775260 0.000000 
#    z 0.022540 0.000000 1.769010 
# 
# From -- ./inp_files/154295.got.cif
#   From: 2010.06.25/outbox.cif.g09.slc.cpg/sg12_78_cif.got.tgz:154295.got - 2010.06.28 00:19:55.
