data_PCOD8100418
_publ_section_title
;
Structure prediction by ZEFSAII (Michael W. Deem and Ramdas Pophale) SiO2 
 PCOD8100418
Probable space group: C 2/M
;
_chemical_formula_sum "Si O2"
_cell_formula_units_Z 48
_cell_length_a 20.009757
_cell_length_b 8.712283
_cell_length_c 26.808074
_cell_angle_alpha 90.000000
_cell_angle_beta 147.452516
_cell_angle_gamma 90.000000
_cell_volume 2514.318989
_symmetry_space_group_name_H-M "C 2/M"
_symmetry_group_IT_number 12
_symmetry_cell_setting 'monoclinic'
loop_
_space_group_symop_operation_xyz
x,y,z
-x,y,-z
-x,-y,-z
x,-y,z
1/2+x,1/2+y,z
1/2-x,1/2+y,-z
1/2-x,1/2-y,-z
1/2+x,1/2-y,z
loop_
_atom_site_type_symbol
_atom_site_label
_atom_site_fract_x
_atom_site_fract_y
_atom_site_fract_z
Si Si1 0.876127 0.182335 0.740037
Si Si2 0.954157 0.179495 0.242770
Si Si3 0.673332 0.180243 0.085698
Si Si4 0.888645 0.682091 0.462683
Si Si5 0.118549 0.680204 0.429773
Si Si6 0.562980 0.682383 0.111101
O O1 0.743385 0.249433 0.638908
O O2 0.906390 0.243738 0.814300
O O3 0.981793 0.239597 0.767837
O O4 0.873599 0.000000 0.739009
O O5 0.808745 0.218395 0.149314
O O6 0.011201 0.263399 0.326061
O O7 0.978788 0.000000 0.265358
O O8 0.660321 0.240735 0.134155
O O9 0.644718 0.000000 0.066749
O O10 0.576814 0.268013 0.989668
O O11 0.884330 0.500000 0.454385
O O12 0.916727 0.731945 0.536727
O O13 0.000000 0.752498 0.500000
O O14 0.131228 0.500000 0.433584
O O15 0.250000 0.750000 0.500000
O O16 0.575220 0.500000 0.114660
#
# Coordination Sequence:
#
# PCOD8100418 Si02
#       6
#     8   8   8   8   8   8
#     4   9  18  34  54  78 109 143 180 225 271 316
#     4  10  21  38  57  79 109 147 184 221 272 327
#     4  10  21  37  57  79 111 147 177 218 282 337
#     4   9  18  32  53  80 108 142 180 218 265 318
#     4  11  21  35  58  82 111 146 182 224 268 321
#     4  10  20  35  59  83 108 139 183 232 267 317
#
# _framework density 19.090657
#
# number of rings (size 3 to 8) (size 9 to 14) (size 15 to 20)
#    0.000    2.167    1.667    2.500    2.333    2.000 
#    0.000    1.667    0.000    2.000    0.000    0.000 
#    0.000    0.000    0.000    0.000    0.000    0.000 
#
# Total GULP energy -297612.666740 kJ/mol
# GULP energy per Si atom -12400.527781 kJ/mol
# Density = 1.904721 g / cm^3
# Si number density = 19.090657 Si / 1000 Ang^3
#
#
#
# Elastic Constant Matrix: (Units=GPa)
#
#
# Indices 1 2 3 4 5 6 
#
# 1 171.2176 23.1782 76.7290 0.0000 2.2647 0.0000
# 2 23.1782 33.0422 13.4502 0.0000 -0.6425 -0.0003
# 3 76.7290 13.4502 97.3288 0.0000 -7.3824 0.0000
# 4 0.0000 0.0000 0.0000 26.8884 0.0000 -1.0098
# 5 2.2647 -0.6425 -7.3824 0.0000 44.2646 0.0000
# 6 0.0000 -0.0003 0.0000 -1.0098 0.0000 19.1575
#
#
#
# Elastic Compliance Matrix: (Units=1/GPa)
#
#
# Indices 1 2 3 4 5 6 
#
# 1 0.009595 -0.003848 -0.007165 0.000000 -0.001742 0.000000
# 2 -0.003848 0.033615 -0.001580 0.000000 0.000421 0.000000
# 3 -0.007165 -0.001580 0.016374 0.000000 0.003075 0.000000
# 4 0.000000 0.000000 0.000000 0.037265 0.000000 0.001964
# 5 -0.001742 0.000421 0.003075 0.000000 0.023199 0.000000
# 6 0.000000 0.000000 0.000000 0.001964 0.000000 0.052303
#
#
# Mechanical properties :
#
#
# Convention : Reuss Voigt Hill
#
# Bulk Modulus (GPa) = 29.07039 58.70039 43.88539
# Shear Modulus (GPa) = 23.92312 30.61082 27.26697
#
# Velocity S-wave (km/s) = 3.54380 4.00865 3.78337
# Velocity P-wave (km/s) = 5.65732 7.22777 6.49022
#
# Compressibility (1/GPa) = 0.03439926
#
# Stress axis : x y z
#
# Youngs Moduli (GPa) = 104.21777 29.74863 61.07139
#
# Poissons Ratio (x) = 0.11448 0.43756
# Poissons Ratio (y) = 0.40105 0.09647
# Poissons Ratio (z) = 0.74669 0.04699
#
# Static dielectric constant tensor:
#      x y z
#    x 3.744950 0.000000 0.022630 
#    y 0.000000 3.317830 0.000000 
#    z 0.022630 0.000000 3.471550 
# 
# 
# High freq. dielectric constant tensor:
#      x y z
#    x 1.756040 0.000000 0.000210 
#    y 0.000000 1.715360 0.000000 
#    z 0.000210 0.000000 1.748490 
# 
# From -- ./inp_files/365542.got.cif
#   From: 2010.06.25/outbox.cif.g09.slc.cpg/sg12_183_cif.got.tgz:365542.got - 2010.06.28 00:19:55.
