data_PCOD8100983
_publ_section_title
;
Structure prediction by ZEFSAII (Michael W. Deem and Ramdas Pophale) SiO2 
 PCOD8100983
Probable space group: C 2/M
;
_chemical_formula_sum "Si O2"
_cell_formula_units_Z 64
_cell_length_a 9.503989
_cell_length_b 23.910033
_cell_length_c 14.605353
_cell_angle_alpha 90.000000
_cell_angle_beta 78.041717
_cell_angle_gamma 90.000000
_cell_volume 3246.905468
_symmetry_space_group_name_H-M "C 2/M"
_symmetry_group_IT_number 12
_symmetry_cell_setting 'monoclinic'
loop_
_space_group_symop_operation_xyz
x,y,z
-x,y,-z
-x,-y,-z
x,-y,z
1/2+x,1/2+y,z
1/2-x,1/2+y,-z
1/2-x,1/2-y,-z
1/2+x,1/2-y,z
loop_
_atom_site_type_symbol
_atom_site_label
_atom_site_fract_x
_atom_site_fract_y
_atom_site_fract_z
Si Si1 0.333516 0.351503 0.995937
Si Si2 0.148299 0.562048 0.935448
Si Si3 0.399910 0.254973 0.432937
Si Si4 0.246680 0.436457 0.717850
Si Si5 0.005898 0.849950 0.296304
Si Si6 0.744812 0.662573 0.799856
Si Si7 0.752535 0.290007 0.163211
Si Si8 0.063895 0.340331 0.715534
O O1 0.295886 0.406247 0.942632
O O2 0.272780 0.299909 0.942248
O O3 0.500000 0.343732 0.000000
O O4 0.245606 0.362348 0.100293
O O5 0.161433 0.500000 0.974223
O O6 0.157147 0.561189 0.824566
O O7 0.000000 0.587929 0.000000
O O8 0.500000 0.233101 0.500000
O O9 0.250000 0.250000 0.500000
O O10 0.441283 0.318309 0.394649
O O11 0.393537 0.213346 0.348611
O O12 0.264355 0.500000 0.677131
O O13 0.404854 0.407034 0.697144
O O14 0.145158 0.396549 0.668087
O O15 0.877017 0.866497 0.245207
O O16 0.105516 0.803912 0.234979
O O17 0.705636 0.727083 0.820783
O O18 0.894718 0.650814 0.730619
O O19 0.881145 0.328557 0.187030
#
# Coordination Sequence:
#
# PCOD8100983 Si02
#       8
#     8   8   8   8   8   8   8   8
#     4  12  23  34  50  82 117 164 211 236 299 355
#     4  10  20  36  56  79 111 158 221 272 296 332
#     4  12  23  39  66  96 125 150 190 250 317 386
#     4  10  21  41  64  85 120 173 214 248 303 365
#     4  11  21  40  61  88 126 158 203 250 315 369
#     4  12  21  35  56  83 123 161 199 257 295 360
#     4  11  20  38  52  81 124 164 193 244 297 369
#     4  11  22  37  63  89 120 160 198 249 313 365
#
# _framework density 19.711077
#
# number of rings (size 3 to 8) (size 9 to 14) (size 15 to 20)
#    0.000    0.875    6.250    3.375    0.000    0.250 
#    0.000    1.250    0.000    3.750    0.000    0.000 
#    0.000    0.000    0.000    0.000    0.000    0.000 
#
# Total GULP energy -396473.338449 kJ/mol
# GULP energy per Si atom -12389.791827 kJ/mol
# Density = 1.966621 g / cm^3
# Si number density = 19.711077 Si / 1000 Ang^3
#
#
#
# Elastic Constant Matrix: (Units=GPa)
#
#
# Indices 1 2 3 4 5 6 
#
# 1 102.2787 36.7025 17.7597 0.0000 -2.0203 0.0000
# 2 36.7025 110.2090 10.1016 0.0000 2.2575 0.0000
# 3 17.7597 10.1016 61.4666 0.0000 -4.1730 0.0000
# 4 0.0000 0.0000 0.0000 16.8696 0.0000 -3.6486
# 5 -2.0203 2.2575 -4.1730 0.0000 34.7950 0.0000
# 6 0.0000 0.0000 0.0000 -3.6486 0.0000 24.0646
#
#
#
# Elastic Compliance Matrix: (Units=1/GPa)
#
#
# Indices 1 2 3 4 5 6 
#
# 1 0.011555 -0.003612 -0.002705 0.000000 0.000581 0.000000
# 2 -0.003612 0.010363 -0.000725 0.000000 -0.000969 0.000000
# 3 -0.002705 -0.000725 0.017303 0.000000 0.001965 0.000000
# 4 0.000000 0.000000 0.000000 0.061288 0.000000 0.009292
# 5 0.000581 -0.000969 0.001965 0.000000 0.029072 0.000000
# 6 0.000000 0.000000 0.000000 0.009292 0.000000 0.042964
#
#
# Mechanical properties :
#
#
# Convention : Reuss Voigt Hill
#
# Bulk Modulus (GPa) = 39.78441 44.78689 42.28565
# Shear Modulus (GPa) = 25.63994 29.10520 27.37257
#
# Velocity S-wave (km/s) = 3.61056 3.84681 3.73056
# Velocity P-wave (km/s) = 6.13263 6.51933 6.32893
#
# Compressibility (1/GPa) = 0.02513547
#
# Stress axis : x y z
#
# Youngs Moduli (GPa) = 86.54572 96.49850 57.79247
#
# Poissons Ratio (x) = 0.34854 0.15636
# Poissons Ratio (y) = 0.31259 0.04191
# Poissons Ratio (z) = 0.23415 0.06999
#
# Static dielectric constant tensor:
#      x y z
#    x 3.730370 0.000000 -0.172730 
#    y 0.000000 3.824740 0.000000 
#    z -0.172730 0.000000 3.806870 
# 
# 
# High freq. dielectric constant tensor:
#      x y z
#    x 1.778020 0.000000 -0.002500 
#    y 0.000000 1.749460 0.000000 
#    z -0.002500 0.000000 1.748780 
# 
# From -- ./inp_files/199811.got.cif
#   From: 2010.06.25/outbox.cif.g09.slc.cpg/sg12_100_cif.got.tgz:199811.got - 2010.06.28 00:19:55.
