data_PCOD8100180
_publ_section_title
;
Structure prediction by ZEFSAII (Michael W. Deem and Ramdas Pophale) SiO2 
 PCOD8100180
Probable space group: C 2/M
;
_chemical_formula_sum "Si O2"
_cell_formula_units_Z 56
_cell_length_a 15.113337
_cell_length_b 9.360618
_cell_length_c 23.641647
_cell_angle_alpha 90.000000
_cell_angle_beta 117.159772
_cell_angle_gamma 90.000000
_cell_volume 2975.803918
_symmetry_space_group_name_H-M "C 2/M"
_symmetry_group_IT_number 12
_symmetry_cell_setting 'monoclinic'
loop_
_space_group_symop_operation_xyz
x,y,z
-x,y,-z
-x,-y,-z
x,-y,z
1/2+x,1/2+y,z
1/2-x,1/2+y,-z
1/2-x,1/2-y,-z
1/2+x,1/2-y,z
loop_
_atom_site_type_symbol
_atom_site_label
_atom_site_fract_x
_atom_site_fract_y
_atom_site_fract_z
Si Si1 0.906348 0.169718 0.506193
Si Si2 0.743940 0.164621 0.371800
Si Si3 0.841771 0.164073 0.281127
Si Si4 0.225766 0.831478 0.153769
Si Si5 0.027484 0.334553 0.072099
Si Si6 0.569241 0.667168 0.360331
Si Si7 0.681013 0.165287 0.937492
O O1 0.806086 0.216466 0.444743
O O2 0.907976 0.229023 0.570428
O O3 0.000000 0.235315 0.500000
O O4 0.916749 0.000000 0.510156
O O5 0.810630 0.191534 0.336385
O O6 0.642691 0.254800 0.338062
O O7 0.714044 0.000000 0.368284
O O8 0.780363 0.269059 0.223866
O O9 0.957477 0.202273 0.309125
O O10 0.821335 0.000000 0.257690
O O11 0.117072 0.763819 0.118125
O O12 0.291647 0.791858 0.118329
O O13 0.213503 0.000000 0.157445
O O14 0.059093 0.500000 0.086396
O O15 0.934313 0.298419 0.085287
O O16 0.000000 0.295653 0.000000
O O17 0.590392 0.500000 0.363960
O O18 0.701949 0.000000 0.955599
O O19 0.750000 0.250000 0.000000
#
# Coordination Sequence:
#
# PCOD8100180 Si02
#       7
#     8   8   8   8   8   8   8
#     4   9  15  30  57  84 110 145 190 235 281 338
#     4  10  20  35  58  84 111 148 191 236 285 337
#     4  10  22  40  58  77 109 156 198 227 272 344
#     4  11  24  39  58  86 118 148 185 237 285 325
#     4  10  20  37  62  88 115 149 184 220 272 340
#     4  10  20  35  58  85 113 147 190 238 285 337
#     4  10  21  37  59  87 115 144 180 224 276 330
#
# _framework density 18.818444
#
# number of rings (size 3 to 8) (size 9 to 14) (size 15 to 20)
#    0.000    2.000    2.857    0.857    0.000    3.714 
#    0.000    4.286    0.000    0.857    0.000    0.000 
#    0.000    0.000    0.000    0.000    0.000    0.000 
#
# Total GULP energy -347270.828109 kJ/mol
# GULP energy per Si atom -12402.529575 kJ/mol
# Density = 1.877561 g / cm^3
# Si number density = 18.818444 Si / 1000 Ang^3
#
#
#
# Elastic Constant Matrix: (Units=GPa)
#
#
# Indices 1 2 3 4 5 6 
#
# 1 109.4637 43.8559 24.4172 0.0000 21.8761 0.0000
# 2 43.8559 62.9079 47.5110 0.0000 14.8953 0.0000
# 3 24.4172 47.5110 94.6535 0.0000 18.4990 0.0000
# 4 0.0000 0.0000 0.0000 27.1336 0.0000 0.8531
# 5 21.8761 14.8953 18.4990 0.0000 22.0867 0.0000
# 6 0.0000 0.0000 0.0000 0.8531 0.0000 31.6258
#
#
#
# Elastic Compliance Matrix: (Units=1/GPa)
#
#
# Indices 1 2 3 4 5 6 
#
# 1 0.014564 -0.010295 0.003435 0.000000 -0.010359 0.000000
# 2 -0.010295 0.034046 -0.014276 0.000000 -0.000807 0.000000
# 3 0.003435 -0.014276 0.018687 0.000000 -0.009426 0.000000
# 4 0.000000 0.000000 0.000000 0.036886 0.000000 -0.000995
# 5 -0.010359 -0.000807 -0.009426 0.000000 0.063976 0.000000
# 6 0.000000 0.000000 0.000000 -0.000995 0.000000 0.031647
#
#
# Mechanical properties :
#
#
# Convention : Reuss Voigt Hill
#
# Bulk Modulus (GPa) = 39.95886 55.39925 47.67905
# Shear Modulus (GPa) = 19.96665 26.25197 23.10931
#
# Velocity S-wave (km/s) = 3.26086 3.73904 3.50810
# Velocity P-wave (km/s) = 5.95462 6.93853 6.46532
#
# Compressibility (1/GPa) = 0.02502574
#
# Stress axis : x y z
#
# Youngs Moduli (GPa) = 68.66245 29.37206 53.51431
#
# Poissons Ratio (x) = 0.30237 -0.18382
# Poissons Ratio (y) = 0.70685 0.76396
# Poissons Ratio (z) = -0.23585 0.41931
#
# Static dielectric constant tensor:
#      x y z
#    x 3.138790 0.000000 -0.113820 
#    y 0.000000 3.257170 0.000000 
#    z -0.113820 0.000000 3.418710 
# 
# 
# High freq. dielectric constant tensor:
#      x y z
#    x 1.746070 0.000000 0.001570 
#    y 0.000000 1.711470 0.000000 
#    z 0.001570 0.000000 1.728280 
# 
# From -- ./inp_files/309013.got.cif
#   From: 2010.06.25/outbox.cif.g09.slc.cpg/sg12_155_cif.got.tgz:309013.got - 2010.06.28 00:19:55.
