data_PCOD8100037
_publ_section_title
;
Structure prediction by ZEFSAII (Michael W. Deem and Ramdas Pophale) SiO2 
 PCOD8100037
Probable space group: C 2/M
;
_chemical_formula_sum "Si O2"
_cell_formula_units_Z 64
_cell_length_a 30.361760
_cell_length_b 8.971568
_cell_length_c 22.627408
_cell_angle_alpha 90.000000
_cell_angle_beta 31.346901
_cell_angle_gamma 90.000000
_cell_volume 3206.385934
_symmetry_space_group_name_H-M "C 2/M"
_symmetry_group_IT_number 12
_symmetry_cell_setting 'monoclinic'
loop_
_space_group_symop_operation_xyz
x,y,z
-x,y,-z
-x,-y,-z
x,-y,z
1/2+x,1/2+y,z
1/2-x,1/2+y,-z
1/2-x,1/2-y,-z
1/2+x,1/2-y,z
loop_
_atom_site_type_symbol
_atom_site_label
_atom_site_fract_x
_atom_site_fract_y
_atom_site_fract_z
Si Si1 0.748724 0.325278 0.746489
Si Si2 0.178351 0.171028 0.545035
Si Si3 0.885668 0.324470 0.495633
Si Si4 0.225510 0.829093 0.160294
Si Si5 0.030214 0.169888 0.805321
Si Si6 0.416875 0.676779 0.128129
Si Si7 0.062268 0.824529 0.274755
Si Si8 0.890232 0.672326 0.900892
O O1 0.735906 0.500000 0.764741
O O2 0.835318 0.285752 0.613181
O O3 0.753384 0.267216 0.807207
O O4 0.667587 0.255142 0.805175
O O5 0.250000 0.250000 0.500000
O O6 0.169109 0.256493 0.494401
O O7 0.090075 0.182435 0.680229
O O8 0.203602 0.000000 0.504761
O O9 0.894372 0.500000 0.475141
O O10 0.977762 0.252832 0.395008
O O11 0.134536 0.783412 0.238924
O O12 0.226898 0.000000 0.178567
O O13 0.293725 0.800036 0.030592
O O14 0.079201 0.226099 0.807718
O O15 0.949398 0.274303 0.887093
O O16 0.998990 0.000000 0.850356
O O17 0.413431 0.500000 0.127345
O O18 0.500000 0.739749 0.000000
O O19 0.089926 0.768800 0.179104
O O20 0.046202 0.000000 0.288415
O O21 0.908334 0.500000 0.866122
#
# Coordination Sequence:
#
# PCOD8100037 Si02
#       8
#     8   8   8   8   8   8   8   8
#     4  10  22  40  62  88 119 159 204 251 301 360
#     4  11  22  36  57  85 119 160 204 247 299 356
#     4  11  23  40  61  88 123 158 202 256 305 361
#     4  10  24  42  61  88 121 157 200 252 309 372
#     4  10  20  35  57  85 118 157 200 241 291 359
#     4   9  17  32  56  85 116 153 197 242 287 344
#     4  11  23  41  63  88 119 159 204 249 308 370
#     4  11  22  38  61  91 124 155 195 252 311 364
#
# _framework density 19.960166999999998
#
# number of rings (size 3 to 8) (size 9 to 14) (size 15 to 20)
#    0.000    1.625    1.250    3.375    0.000    7.000 
#    0.000    3.125    0.000    2.250    0.000    0.000 
#    0.000    0.000    0.000    0.000    0.000    0.000 
#
# Total GULP energy -396922.009410 kJ/mol
# GULP energy per Si atom -12403.812794 kJ/mol
# Density = 1.991474 g / cm^3
# Si number density = 19.960167 Si / 1000 Ang^3
#
#
#
# Elastic Constant Matrix: (Units=GPa)
#
#
# Indices 1 2 3 4 5 6 
#
# 1 105.9211 35.2256 43.7611 0.0026 -7.7402 0.0023
# 2 35.2256 74.4991 46.0322 0.0441 -9.5821 -0.0080
# 3 43.7611 46.0322 99.9192 0.0142 -13.9759 0.0050
# 4 0.0026 0.0441 0.0142 27.5576 -0.0091 -0.7437
# 5 -7.7402 -9.5821 -13.9759 -0.0091 36.1304 -0.0020
# 6 0.0023 -0.0080 0.0050 -0.7437 -0.0020 34.4238
#
#
#
# Elastic Compliance Matrix: (Units=1/GPa)
#
#
# Indices 1 2 3 4 5 6 
#
# 1 0.012124 -0.003412 -0.003702 0.000006 0.000261 -0.000001
# 2 -0.003412 0.019827 -0.007407 -0.000027 0.001662 0.000005
# 3 -0.003702 -0.007407 0.015494 0.000005 0.003236 -0.000003
# 4 0.000006 -0.000027 0.000005 0.036309 0.000005 0.000784
# 5 0.000261 0.001662 0.003236 0.000005 0.029426 0.000002
# 6 -0.000001 0.000005 -0.000003 0.000784 0.000002 0.029067
#
#
# Mechanical properties :
#
#
# Convention : Reuss Voigt Hill
#
# Bulk Modulus (GPa) = 54.33718 58.93078 56.63398
# Shear Modulus (GPa) = 28.18123 29.97707 29.07915
#
# Velocity S-wave (km/s) = 3.76157 3.87957 3.82102
# Velocity P-wave (km/s) = 6.79321 7.04673 6.92113
#
# Compressibility (1/GPa) = 0.01840360
#
# Stress axis : x y z
#
# Youngs Moduli (GPa) = 82.48090 50.43635 64.53940
#
# Poissons Ratio (x) = 0.17209 0.23890
# Poissons Ratio (y) = 0.28142 0.47807
# Poissons Ratio (z) = 0.30531 0.37360
#
# Static dielectric constant tensor:
#      x y z
#    x 3.658510 -0.000010 -0.137870 
#    y -0.000010 3.541270 0.000050 
#    z -0.137870 0.000050 3.840570 
# 
# 
# High freq. dielectric constant tensor:
#      x y z
#    x 1.787670 0.000000 -0.005360 
#    y 0.000000 1.766700 0.000000 
#    z -0.005360 0.000000 1.788930 
# 
# From -- ./inp_files/249881.got.cif
#   From: 2010.06.25/outbox.cif.g09.slc.cpg/sg12_125_cif.got.tgz:249881.got - 2010.06.28 00:19:55.
