data_PCOD8100667
_publ_section_title
;
Structure prediction by ZEFSAII (Michael W. Deem and Ramdas Pophale) SiO2 
 PCOD8100667
Probable space group: C 2/M
;
_chemical_formula_sum "Si O2"
_cell_formula_units_Z 64
_cell_length_a 8.707474
_cell_length_b 21.519931
_cell_length_c 16.668269
_cell_angle_alpha 90.000000
_cell_angle_beta 96.581305
_cell_angle_gamma 90.000000
_cell_volume 3102.788572
_symmetry_space_group_name_H-M "C 2/M"
_symmetry_group_IT_number 12
_symmetry_cell_setting 'monoclinic'
loop_
_space_group_symop_operation_xyz
x,y,z
-x,y,-z
-x,-y,-z
x,-y,z
1/2+x,1/2+y,z
1/2-x,1/2+y,-z
1/2-x,1/2-y,-z
1/2+x,1/2-y,z
loop_
_atom_site_type_symbol
_atom_site_label
_atom_site_fract_x
_atom_site_fract_y
_atom_site_fract_z
Si Si1 0.342994 0.254573 0.185856
Si Si2 0.110742 0.159427 0.230819
Si Si3 0.217677 0.572210 0.646931
Si Si4 0.018238 0.069965 0.093529
Si Si5 0.684046 0.931378 0.150601
Si Si6 0.567971 0.812772 0.087099
Si Si7 0.378425 0.073595 0.674137
Si Si8 0.670469 0.427615 0.520230
O O1 0.238068 0.214572 0.240197
O O2 0.441581 0.309600 0.234572
O O3 0.461287 0.207552 0.153120
O O4 0.239128 0.285560 0.110153
O O5 0.144459 0.111113 0.303728
O O6 0.121285 0.121396 0.146309
O O7 0.245005 0.500000 0.670094
O O8 0.226339 0.583115 0.552463
O O9 0.053000 0.597181 0.668832
O O10 0.857217 0.068014 0.129938
O O11 0.091792 0.000000 0.100516
O O12 0.000000 0.091394 0.000000
O O13 0.578427 0.887621 0.088821
O O14 0.679845 0.905584 0.241716
O O15 0.610514 0.000000 0.142405
O O16 0.500000 0.788475 0.000000
O O17 0.262390 0.102774 0.600744
O O18 0.378355 0.000000 0.664499
O O19 0.500000 0.396989 0.500000
O O20 0.647176 0.500000 0.536889
#
# Coordination Sequence:
#
# PCOD8100667 Si02
#       8
#     8   8   8   8   8   8   8   8
#     4  10  24  39  56  82 110 149 200 250 299 334
#     4  11  22  40  61  84 115 153 199 252 291 354
#     4  10  20  35  60  93 123 157 192 235 299 359
#     4  10  22  38  58  85 121 157 192 241 303 361
#     4  10  21  37  58  86 117 157 193 234 297 356
#     4  11  22  38  58  81 108 147 192 249 294 344
#     4   9  18  34  54  83 127 161 191 232 284 355
#     4   9  18  30  52  89 129 161 190 230 284 352
#
# _framework density 20.626607
#
# number of rings (size 3 to 8) (size 9 to 14) (size 15 to 20)
#    0.000    2.000    1.250    1.875    3.500    3.750 
#    0.000    0.625    0.000    0.000    0.000   21.875 
#    0.000    0.000    0.000    0.000    0.000    0.000 
#
# Total GULP energy -396711.681455 kJ/mol
# GULP energy per Si atom -12397.240045 kJ/mol
# Density = 2.057966 g / cm^3
# Si number density = 20.626607 Si / 1000 Ang^3
#
#
#
# Elastic Constant Matrix: (Units=GPa)
#
#
# Indices 1 2 3 4 5 6 
#
# 1 101.5339 25.5954 28.9970 0.0000 6.0889 0.0000
# 2 25.5954 76.7889 17.8873 0.0000 10.8342 0.0000
# 3 28.9970 17.8873 77.0941 0.0000 1.3568 0.0000
# 4 0.0000 0.0000 0.0000 13.8973 0.0000 7.3354
# 5 6.0889 10.8342 1.3568 0.0000 34.8772 0.0000
# 6 0.0000 0.0000 0.0000 7.3354 0.0000 21.5153
#
#
#
# Elastic Compliance Matrix: (Units=1/GPa)
#
#
# Indices 1 2 3 4 5 6 
#
# 1 0.011698 -0.002894 -0.003711 0.000000 -0.000999 0.000000
# 2 -0.002894 0.015112 -0.002346 0.000000 -0.004098 0.000000
# 3 -0.003711 -0.002346 0.014897 0.000000 0.000797 0.000000
# 4 0.000000 0.000000 0.000000 0.087747 0.000000 -0.029916
# 5 -0.000999 -0.004098 0.000797 0.000000 0.030088 0.000000
# 6 0.000000 0.000000 0.000000 -0.029916 0.000000 0.056678
#
#
# Mechanical properties :
#
#
# Convention : Reuss Voigt Hill
#
# Bulk Modulus (GPa) = 42.00583 44.48623 43.24603
# Shear Modulus (GPa) = 20.65629 26.25378 23.45503
#
# Velocity S-wave (km/s) = 3.16799 3.57152 3.37579
# Velocity P-wave (km/s) = 5.81297 6.21465 6.01716
#
# Compressibility (1/GPa) = 0.02380622
#
# Stress axis : x y z
#
# Youngs Moduli (GPa) = 85.48361 66.17311 67.12689
#
# Poissons Ratio (x) = 0.19150 0.24910
# Poissons Ratio (y) = 0.24738 0.15746
# Poissons Ratio (z) = 0.31723 0.15522
#
# Static dielectric constant tensor:
#      x y z
#    x 3.829690 0.000000 0.097860 
#    y 0.000000 3.784590 0.000000 
#    z 0.097860 0.000000 3.589200 
# 
# 
# High freq. dielectric constant tensor:
#      x y z
#    x 1.810800 0.000000 0.000200 
#    y 0.000000 1.785960 0.000000 
#    z 0.000200 0.000000 1.791500 
# 
# From -- ./inp_files/258101.got.cif
#   From: 2010.06.25/outbox.cif.g09.slc.cpg/sg12_130_cif.got.tgz:258101.got - 2010.06.28 00:19:55.
