data_PCOD8100653
_publ_section_title
;
Structure prediction by ZEFSAII (Michael W. Deem and Ramdas Pophale) SiO2 
 PCOD8100653
Probable space group: C 2/M
;
_chemical_formula_sum "Si O2"
_cell_formula_units_Z 64
_cell_length_a 15.165833
_cell_length_b 8.638486
_cell_length_c 23.590420
_cell_angle_alpha 90.000000
_cell_angle_beta 91.962296
_cell_angle_gamma 90.000000
_cell_volume 3088.764670
_symmetry_space_group_name_H-M "C 2/M"
_symmetry_group_IT_number 12
_symmetry_cell_setting 'monoclinic'
loop_
_space_group_symop_operation_xyz
x,y,z
-x,y,-z
-x,-y,-z
x,-y,z
1/2+x,1/2+y,z
1/2-x,1/2+y,-z
1/2-x,1/2-y,-z
1/2+x,1/2-y,z
loop_
_atom_site_type_symbol
_atom_site_label
_atom_site_fract_x
_atom_site_fract_y
_atom_site_fract_z
Si Si1 0.572378 0.822648 0.115013
Si Si2 0.483789 0.317572 0.437239
Si Si3 0.894770 0.180583 0.132263
Si Si4 0.153077 0.677685 0.236396
Si Si5 0.171516 0.320077 0.631804
Si Si6 0.764239 0.181935 0.938694
Si Si7 0.660998 0.179102 0.759328
Si Si8 0.872755 0.183284 0.648861
O O1 0.472918 0.767392 0.100675
O O2 0.588076 0.800779 0.182268
O O3 0.636828 0.717565 0.079142
O O4 0.584090 0.000000 0.096305
O O5 0.500000 0.246266 0.500000
O O6 0.491285 0.500000 0.440133
O O7 0.386266 0.273173 0.414478
O O8 0.559334 0.253947 0.396749
O O9 0.801518 0.236536 0.106415
O O10 0.897595 0.218628 0.199424
O O11 0.906044 0.000000 0.122657
O O12 0.184841 0.500000 0.242374
O O13 0.236063 0.788452 0.228518
O O14 0.102336 0.730019 0.292191
O O15 0.160061 0.500000 0.618792
O O16 0.136576 0.279305 0.694109
O O17 0.273675 0.270941 0.627455
O O18 0.747217 0.000000 0.938746
O O19 0.750000 0.250000 0.000000
O O20 0.642785 0.000000 0.772393
O O21 0.879848 0.000000 0.658918
#
# Coordination Sequence:
#
# PCOD8100653 Si02
#       8
#     8   8   8   8   8   8   8   8
#     4  11  24  42  64  96 132 168 212 262 314 373
#     4  10  22  39  58  83 116 155 202 252 303 365
#     4  12  25  41  64  97 131 169 215 259 312 375
#     4  10  20  35  60  91 125 159 203 255 307 371
#     4   9  20  37  57  83 116 154 198 246 301 365
#     4  12  26  47  72  96 129 171 214 263 315 371
#     4  10  20  37  61  89 127 165 201 252 316 374
#     4   9  20  38  57  81 117 159 197 243 308 370
#
# _framework density 20.720258999999999
#
# number of rings (size 3 to 8) (size 9 to 14) (size 15 to 20)
#    0.000    1.625    1.250    4.125    1.750    5.750 
#    0.000    2.500    0.000    0.000    0.000    0.000 
#    0.000    0.000    0.000    0.000    0.000    0.000 
#
# Total GULP energy -396931.385624 kJ/mol
# GULP energy per Si atom -12404.105801 kJ/mol
# Density = 2.067310 g / cm^3
# Si number density = 20.720259 Si / 1000 Ang^3
#
#
#
# Elastic Constant Matrix: (Units=GPa)
#
#
# Indices 1 2 3 4 5 6 
#
# 1 66.3684 5.7652 17.9522 0.0000 -16.2670 0.0000
# 2 5.7652 65.7421 28.0019 0.0000 0.1693 0.0000
# 3 17.9522 28.0019 90.7679 0.0000 -16.5853 0.0000
# 4 0.0000 0.0000 0.0000 31.9460 0.0000 1.8614
# 5 -16.2670 0.1693 -16.5853 0.0000 29.0686 0.0000
# 6 0.0000 0.0000 0.0000 1.8614 0.0000 30.6688
#
#
#
# Elastic Compliance Matrix: (Units=1/GPa)
#
#
# Indices 1 2 3 4 5 6 
#
# 1 0.017795 -0.000909 -0.001584 0.000000 0.009060 0.000000
# 2 -0.000909 0.017894 -0.006087 0.000000 -0.004086 0.000000
# 3 -0.001584 -0.006087 0.014572 0.000000 0.007463 0.000000
# 4 0.000000 0.000000 0.000000 0.031414 0.000000 -0.001907
# 5 0.009060 -0.004086 0.007463 0.000000 0.043754 0.000000
# 6 0.000000 0.000000 0.000000 -0.001907 0.000000 0.032722
#
#
# Mechanical properties :
#
#
# Convention : Reuss Voigt Hill
#
# Bulk Modulus (GPa) = 30.21033 36.25745 33.23389
# Shear Modulus (GPa) = 26.83200 29.74728 28.28964
#
# Velocity S-wave (km/s) = 3.60247 3.79312 3.69902
# Velocity P-wave (km/s) = 5.64937 6.05972 5.85814
#
# Compressibility (1/GPa) = 0.03310126
#
# Stress axis : x y z
#
# Youngs Moduli (GPa) = 56.19428 55.88492 68.62523
#
# Poissons Ratio (x) = 0.05082 0.10867
# Poissons Ratio (y) = 0.05110 0.41773
# Poissons Ratio (z) = 0.08899 0.34017
#
# Static dielectric constant tensor:
#      x y z
#    x 3.691170 0.000000 -0.094960 
#    y 0.000000 3.692200 0.000000 
#    z -0.094960 0.000000 3.905100 
# 
# 
# High freq. dielectric constant tensor:
#      x y z
#    x 1.811520 0.000000 -0.006290 
#    y 0.000000 1.808210 0.000000 
#    z -0.006290 0.000000 1.809020 
# 
# From -- ./inp_files/338778.got.cif
#   From: 2010.06.25/outbox.cif.g09.slc.cpg/sg12_170_cif.got.tgz:338778.got - 2010.06.28 00:19:55.
