data_PCOD8100279
_publ_section_title
;
Structure prediction by ZEFSAII (Michael W. Deem and Ramdas Pophale) SiO2 
 PCOD8100279
Probable space group: C 2/M
;
_chemical_formula_sum "Si O2"
_cell_formula_units_Z 48
_cell_length_a 29.331814
_cell_length_b 9.005148
_cell_length_c 14.964881
_cell_angle_alpha 90.000000
_cell_angle_beta 140.044371
_cell_angle_gamma 90.000000
_cell_volume 2538.454645
_symmetry_space_group_name_H-M "C 2/M"
_symmetry_group_IT_number 12
_symmetry_cell_setting 'monoclinic'
loop_
_space_group_symop_operation_xyz
x,y,z
-x,y,-z
-x,-y,-z
x,-y,z
1/2+x,1/2+y,z
1/2-x,1/2+y,-z
1/2-x,1/2-y,-z
1/2+x,1/2-y,z
loop_
_atom_site_type_symbol
_atom_site_label
_atom_site_fract_x
_atom_site_fract_y
_atom_site_fract_z
Si Si1 0.076600 0.825508 0.146588
Si Si2 0.084187 0.675471 0.849109
Si Si3 0.570163 0.174298 0.319001
Si Si4 0.422762 0.675399 0.350066
Si Si5 0.838704 0.328182 0.375185
Si Si6 0.673451 0.671408 0.128546
O O1 0.098501 0.751323 0.272411
O O2 0.134453 0.778143 0.160387
O O3 0.074489 0.000000 0.158978
O O4 0.000000 0.765622 0.000000
O O5 0.087394 0.500000 0.841523
O O6 0.094894 0.749698 0.769888
O O7 0.009672 0.727224 0.779603
O O8 0.147506 0.728769 0.007636
O O9 0.620503 0.225520 0.475208
O O10 0.573955 0.000000 0.309673
O O11 0.500000 0.727299 0.500000
O O12 0.418594 0.500000 0.332518
O O13 0.363473 0.728553 0.330148
O O14 0.855945 0.500000 0.380154
O O15 0.756123 0.301144 0.267483
O O16 0.656153 0.500000 0.080815
#
# Coordination Sequence:
#
# PCOD8100279 Si02
#       6
#     8   8   8   8   8   8
#     4  10  20  35  58  86 116 153 194 237 286 340
#     4  11  22  37  61  88 116 152 194 239 288 345
#     4  10  21  36  58  87 115 150 194 238 287 343
#     4  11  23  38  61  90 117 149 193 241 288 345
#     4  10  22  41  61  84 119 156 191 238 292 345
#     4  10  22  40  60  85 119 156 194 238 289 343
#
# _framework density 18.909141000000002
#
# number of rings (size 3 to 8) (size 9 to 14) (size 15 to 20)
#    0.000    1.667    3.333    1.000    0.000    5.000 
#    0.000    0.000    0.000    0.000    0.000    0.000 
#    0.000    0.000    0.000    0.000    0.000    0.000 
#
# Total GULP energy -297755.512779 kJ/mol
# GULP energy per Si atom -12406.479699 kJ/mol
# Density = 1.886610 g / cm^3
# Si number density = 18.909141 Si / 1000 Ang^3
#
#
#
# Elastic Constant Matrix: (Units=GPa)
#
#
# Indices 1 2 3 4 5 6 
#
# 1 131.9443 43.8638 44.9445 0.0000 -15.5060 0.0000
# 2 43.8638 54.6927 34.8896 0.0000 -9.2018 0.0000
# 3 44.9445 34.8896 90.3707 0.0000 -13.9811 0.0000
# 4 0.0000 0.0000 0.0000 25.5934 0.0000 -10.2569
# 5 -15.5060 -9.2018 -13.9811 0.0000 39.3459 0.0000
# 6 0.0000 0.0000 0.0000 -10.2569 0.0000 32.9683
#
#
#
# Elastic Compliance Matrix: (Units=1/GPa)
#
#
# Indices 1 2 3 4 5 6 
#
# 1 0.010926 -0.006859 -0.002505 0.000000 0.001811 0.000000
# 2 -0.006859 0.028796 -0.007494 0.000000 0.001368 0.000000
# 3 -0.002505 -0.007494 0.015641 0.000000 0.002818 0.000000
# 4 0.000000 0.000000 0.000000 0.044638 0.000000 0.013888
# 5 0.001811 0.001368 0.002818 0.000000 0.027451 0.000000
# 6 0.000000 0.000000 0.000000 0.013888 0.000000 0.034653
#
#
# Mechanical properties :
#
#
# Convention : Reuss Voigt Hill
#
# Bulk Modulus (GPa) = 46.20085 58.26707 52.23396
# Shear Modulus (GPa) = 24.62606 29.80217 27.21412
#
# Velocity S-wave (km/s) = 3.61270 3.97428 3.79780
# Velocity P-wave (km/s) = 6.47212 7.20701 6.84943
#
# Compressibility (1/GPa) = 0.02164462
#
# Stress axis : x y z
#
# Youngs Moduli (GPa) = 91.52864 34.72675 63.93571
#
# Poissons Ratio (x) = 0.23821 0.16017
# Poissons Ratio (y) = 0.62784 0.47915
# Poissons Ratio (z) = 0.22930 0.26025
#
# Static dielectric constant tensor:
#      x y z
#    x 3.515560 0.000000 -0.037960 
#    y 0.000000 3.370620 0.000000 
#    z -0.037960 0.000000 3.500580 
# 
# 
# High freq. dielectric constant tensor:
#      x y z
#    x 1.743080 0.000000 -0.006680 
#    y 0.000000 1.730370 0.000000 
#    z -0.006680 0.000000 1.738490 
# 
# From -- ./inp_files/230391.got.cif
#   From: 2010.06.25/outbox.cif.g09.slc.cpg/sg12_116_cif.got.tgz:230391.got - 2010.06.28 00:19:55.
