data_PCOD8100709
_publ_section_title
;
Structure prediction by ZEFSAII (Michael W. Deem and Ramdas Pophale) SiO2 
 PCOD8100709
Probable space group: C 2/M
;
_chemical_formula_sum "Si O2"
_cell_formula_units_Z 56
_cell_length_a 20.357621
_cell_length_b 19.565339
_cell_length_c 17.348109
_cell_angle_alpha 90.000000
_cell_angle_beta 21.971358
_cell_angle_gamma 90.000000
_cell_volume 2585.259998
_symmetry_space_group_name_H-M "C 2/M"
_symmetry_group_IT_number 12
_symmetry_cell_setting 'monoclinic'
loop_
_space_group_symop_operation_xyz
x,y,z
-x,y,-z
-x,-y,-z
x,-y,z
1/2+x,1/2+y,z
1/2-x,1/2+y,-z
1/2-x,1/2-y,-z
1/2+x,1/2-y,z
loop_
_atom_site_type_symbol
_atom_site_label
_atom_site_fract_x
_atom_site_fract_y
_atom_site_fract_z
Si Si1 0.759031 0.076768 0.601808
Si Si2 0.054574 0.075464 0.746136
Si Si3 0.697511 0.196823 0.266320
Si Si4 0.212659 0.421186 0.368203
Si Si5 0.828268 0.613116 0.842634
Si Si6 0.874748 0.577221 0.959220
Si Si7 0.793151 0.844272 0.718636
O O1 0.901357 0.108372 0.386054
O O2 0.579194 0.075547 0.751497
O O3 0.735573 0.125600 0.699813
O O4 0.809840 0.000000 0.574667
O O5 0.163225 0.109141 0.698619
O O6 0.136647 0.000000 0.651631
O O7 0.846747 0.069877 0.986232
O O8 0.500000 0.213233 0.500000
O O9 0.758638 0.129262 0.246946
O O10 0.709853 0.184152 0.160659
O O11 0.795459 0.268301 0.179056
O O12 0.260636 0.500000 0.293927
O O13 0.005824 0.420532 0.615253
O O14 0.842882 0.623560 0.918155
O O15 0.805770 0.500000 0.018301
O O16 0.772619 0.607520 0.142046
O O17 0.000000 0.842852 0.500000
#
# Coordination Sequence:
#
# PCOD8100709 Si02
#       7
#     8   8   8   8   8   8   8
#     4  10  21  40  62  92 126 157 203 257 308 367
#     4  10  20  35  61  94 124 155 198 255 308 366
#     4   9  23  42  61  85 124 166 209 250 303 367
#     4  10  20  39  63  89 125 161 203 260 309 354
#     4  11  21  38  63  91 124 160 201 252 309 366
#     4  11  22  38  64  93 122 160 204 254 313 367
#     4  11  23  41  61  86 126 165 205 253 302 366
#
# _framework density 21.661263999999999
#
# number of rings (size 3 to 8) (size 9 to 14) (size 15 to 20)
#    0.000    1.714    1.429    3.000    0.000    8.286 
#    5.143    3.571    0.000    0.000    0.000    0.000 
#    0.000    0.000    0.000    0.000    0.000    0.000 
#
# Total GULP energy -346943.904347 kJ/mol
# GULP energy per Si atom -12390.853727 kJ/mol
# Density = 2.161196 g / cm^3
# Si number density = 21.661264 Si / 1000 Ang^3
#
#
#
# Elastic Constant Matrix: (Units=GPa)
#
#
# Indices 1 2 3 4 5 6 
#
# 1 158.4246 66.3909 40.8613 0.3834 16.3070 0.1975
# 2 66.3909 107.4201 22.4723 1.0718 10.5258 0.2964
# 3 40.8613 22.4723 78.5202 0.6957 4.3317 0.5822
# 4 0.3834 1.0718 0.6957 -16.5907 -0.1475 -23.8516
# 5 16.3070 10.5258 4.3317 -0.1475 33.9919 -0.2868
# 6 0.1975 0.2964 0.5822 -23.8516 -0.2868 -7.2612
#
#
#
# Elastic Compliance Matrix: (Units=1/GPa)
#
#
# Indices 1 2 3 4 5 6 
#
# 1 0.009518 -0.004915 -0.003401 0.000015 -0.002612 -0.000162
# 2 -0.004915 0.012696 -0.001000 -0.000042 -0.001442 0.000501
# 3 -0.003401 -0.001000 0.014785 0.000278 0.000060 0.000138
# 4 0.000015 -0.000042 0.000278 0.016203 -0.000408 -0.053187
# 5 -0.002612 -0.001442 0.000060 -0.000408 0.031109 -0.000014
# 6 -0.000162 0.000501 0.000138 -0.053187 -0.000014 0.037020
#
#
# Mechanical properties :
#
#
# Convention : Reuss Voigt Hill
#
# Bulk Modulus (GPa) = 54.44414 67.09043 60.76729
# Shear Modulus (GPa) = 34.22632 16.33737 25.28185
#
# Velocity S-wave (km/s) = 3.97932 2.74929 3.42006
# Velocity P-wave (km/s) = 6.80457 6.41232 6.61136
#
# Compressibility (1/GPa) = 0.01836745
#
# Stress axis : x y z
#
# Youngs Moduli (GPa) = 105.06236 78.76255 67.63612
#
# Poissons Ratio (x) = 0.38711 0.23006
# Poissons Ratio (y) = 0.51637 0.06762
# Poissons Ratio (z) = 0.35736 0.07875
#
# Static dielectric constant tensor:
#      x y z
#    x 4.061090 -0.000200 0.083920 
#    y -0.000200 4.049960 0.000380 
#    z 0.083920 0.000380 3.888320 
# 
# 
# High freq. dielectric constant tensor:
#      x y z
#    x 1.863300 -0.000010 0.002280 
#    y -0.000010 1.820780 0.000030 
#    z 0.002280 0.000030 1.855000 
# 
# From -- ./inp_files/286012.got.cif
#   From: 2010.06.25/outbox.cif.g09.slc.cpg/sg12_144_cif.got.tgz:286012.got - 2010.06.28 00:19:55.
