data_PCOD8100564
_publ_section_title
;
Structure prediction by ZEFSAII (Michael W. Deem and Ramdas Pophale) SiO2 
 PCOD8100564
Probable space group: C 2/M
;
_chemical_formula_sum "Si O2"
_cell_formula_units_Z 64
_cell_length_a 9.252806
_cell_length_b 27.917095
_cell_length_c 14.713992
_cell_angle_alpha 90.000000
_cell_angle_beta 46.715361
_cell_angle_gamma 90.000000
_cell_volume 2766.812214
_symmetry_space_group_name_H-M "C 2/M"
_symmetry_group_IT_number 12
_symmetry_cell_setting 'monoclinic'
loop_
_space_group_symop_operation_xyz
x,y,z
-x,y,-z
-x,-y,-z
x,-y,z
1/2+x,1/2+y,z
1/2-x,1/2+y,-z
1/2-x,1/2-y,-z
1/2+x,1/2-y,z
loop_
_atom_site_type_symbol
_atom_site_label
_atom_site_fract_x
_atom_site_fract_y
_atom_site_fract_z
Si Si1 0.031567 0.446278 0.757774
Si Si2 0.095886 0.055400 0.738730
Si Si3 0.390877 0.744523 0.286028
Si Si4 0.447633 0.187595 0.643340
Si Si5 0.694365 0.800703 0.859251
Si Si6 0.694197 0.086770 0.862595
Si Si7 0.704058 0.619060 0.859679
Si Si8 0.139650 0.410880 0.517289
O O1 0.947495 0.500000 0.796381
O O2 0.198448 0.438251 0.761926
O O3 0.129342 0.436539 0.617978
O O4 0.856862 0.408487 0.859800
O O5 0.204182 0.084146 0.772338
O O6 0.144302 0.080155 0.619801
O O7 0.863129 0.062849 0.851375
O O8 0.157142 0.000000 0.718370
O O9 0.405779 0.773579 0.374218
O O10 0.197499 0.708766 0.374039
O O11 0.339838 0.779844 0.225741
O O12 0.602746 0.718041 0.180307
O O13 0.293642 0.169828 0.789152
O O14 0.585211 0.145122 0.547592
O O15 0.722400 0.856959 0.839456
O O16 0.500000 0.786388 0.000000
O O17 0.500000 0.072379 0.000000
O O18 0.500000 0.628151 0.000000
O O19 0.000000 0.435558 0.500000
#
# Coordination Sequence:
#
# PCOD8100564 Si02
#       8
#     8   8   8   8   8   8   8   8
#     4  11  23  40  64  93 128 173 224 275 325 387
#     4  12  25  42  70  98 127 175 226 271 325 391
#     4  10  21  37  64  93 126 164 221 269 324 392
#     4  10  22  42  65  95 128 170 213 270 332 393
#     4  10  20  35  59  90 128 172 217 264 320 386
#     4  11  25  43  64  96 143 181 209 264 337 398
#     4  11  23  39  64  96 134 174 219 274 331 387
#     4  11  23  44  71  92 130 168 221 278 334 377
#
# _framework density 23.131314
#
# number of rings (size 3 to 8) (size 9 to 14) (size 15 to 20)
#    0.000    1.250    2.500    4.500    0.000    9.000 
#    0.000    1.875    0.000    0.000    0.000    0.000 
#    0.000    0.000    0.000    0.000    0.000    0.000 
#
# Total GULP energy -396746.423560 kJ/mol
# GULP energy per Si atom -12398.325736 kJ/mol
# Density = 2.307867 g / cm^3
# Si number density = 23.131314 Si / 1000 Ang^3
#
#
#
# Elastic Constant Matrix: (Units=GPa)
#
#
# Indices 1 2 3 4 5 6 
#
# 1 102.2177 28.8929 1.8281 0.0000 -0.9860 0.0000
# 2 28.8929 104.4462 18.9031 0.0000 -4.5239 0.0000
# 3 1.8281 18.9031 53.1634 0.0000 2.3044 0.0000
# 4 0.0000 0.0000 0.0000 24.2086 0.0000 -5.7403
# 5 -0.9860 -4.5239 2.3044 0.0000 36.0126 0.0000
# 6 0.0000 0.0000 0.0000 -5.7403 0.0000 31.0368
#
#
#
# Elastic Compliance Matrix: (Units=1/GPa)
#
#
# Indices 1 2 3 4 5 6 
#
# 1 0.010640 -0.003083 0.000736 0.000000 -0.000143 0.000000
# 2 -0.003083 0.011210 -0.003948 0.000000 0.001576 0.000000
# 3 0.000736 -0.003948 0.020265 0.000000 -0.001773 0.000000
# 4 0.000000 0.000000 0.000000 0.043202 0.000000 0.007990
# 5 -0.000143 0.001576 -0.001773 0.000000 0.028076 0.000000
# 6 0.000000 0.000000 0.000000 0.007990 0.000000 0.033698
#
#
# Mechanical properties :
#
#
# Convention : Reuss Voigt Hill
#
# Bulk Modulus (GPa) = 33.86837 39.89727 36.88282
# Shear Modulus (GPa) = 29.49474 32.26514 30.87994
#
# Velocity S-wave (km/s) = 3.57473 3.73885 3.65771
# Velocity P-wave (km/s) = 5.63132 5.99368 5.81533
#
# Compressibility (1/GPa) = 0.02952607
#
# Stress axis : x y z
#
# Youngs Moduli (GPa) = 93.98609 89.20654 49.34541
#
# Poissons Ratio (x) = 0.27500 -0.03634
# Poissons Ratio (y) = 0.28974 0.19483
# Poissons Ratio (z) = -0.06922 0.35221
#
# Static dielectric constant tensor:
#      x y z
#    x 4.305610 0.000000 -0.069040 
#    y 0.000000 4.192810 0.000000 
#    z -0.069040 0.000000 4.172850 
# 
# 
# High freq. dielectric constant tensor:
#      x y z
#    x 1.920820 0.000000 0.001440 
#    y 0.000000 1.920740 0.000000 
#    z 0.001440 0.000000 1.912330 
# 
# From -- ./inp_files/201260.got.cif
#   From: 2010.06.25/outbox.cif.g09.slc.cpg/sg12_101_cif.got.tgz:201260.got - 2010.06.28 00:19:55.
