data_PCOD8100508
_publ_section_title
;
Structure prediction by ZEFSAII (Michael W. Deem and Ramdas Pophale) SiO2 
 PCOD8100508
Probable space group: C 2/M
;
_chemical_formula_sum "Si O2"
_cell_formula_units_Z 48
_cell_length_a 13.501835
_cell_length_b 14.058430
_cell_length_c 13.261075
_cell_angle_alpha 90.000000
_cell_angle_beta 81.352641
_cell_angle_gamma 90.000000
_cell_volume 2488.531876
_symmetry_space_group_name_H-M "C 2/M"
_symmetry_group_IT_number 12
_symmetry_cell_setting 'monoclinic'
loop_
_space_group_symop_operation_xyz
x,y,z
-x,y,-z
-x,-y,-z
x,-y,z
1/2+x,1/2+y,z
1/2-x,1/2+y,-z
1/2-x,1/2-y,-z
1/2+x,1/2-y,z
loop_
_atom_site_type_symbol
_atom_site_label
_atom_site_fract_x
_atom_site_fract_y
_atom_site_fract_z
Si Si1 0.383298 0.500000 0.150952
Si Si2 0.000472 0.311387 0.658977
Si Si3 0.972456 0.204648 0.152510
Si Si4 0.805614 0.500000 0.953271
Si Si5 0.169354 0.320556 0.469893
Si Si6 0.761684 0.500000 0.633523
Si Si7 0.353665 0.206247 0.009001
Si Si8 0.440217 0.000000 0.742072
O O1 0.455721 0.592084 0.136288
O O2 0.311951 0.500000 0.061734
O O3 0.319183 0.500000 0.264201
O O4 0.023428 0.221469 0.727604
O O5 0.087120 0.336561 0.567883
O O6 0.893039 0.290217 0.621324
O O7 0.002462 0.402632 0.733414
O O8 0.070355 0.246790 0.082730
O O9 0.880065 0.263119 0.118754
O O10 0.842635 0.592085 0.009133
O O11 0.862336 0.500000 0.841516
O O12 0.250000 0.250000 0.500000
O O13 0.244596 0.407768 0.435770
O O14 0.877759 0.500000 0.648580
O O15 0.250000 0.250000 0.000000
#
# Coordination Sequence:
#
# PCOD8100508 Si02
#       8
#     4   8   8   4   8   4   8   4
#     4  11  22  39  65  87 125 175 205 243 306 388
#     4  10  20  36  58  90 122 153 203 256 303 363
#     4  11  24  39  62  91 124 166 210 254 312 364
#     4  11  20  40  65  88 122 162 204 255 307 355
#     4  10  20  35  59  88 121 158 198 250 307 362
#     4   9  19  34  58  90 114 158 203 240 297 374
#     4  11  24  40  62  92 125 161 207 260 303 364
#     4   9  17  33  60  83 115 153 190 254 304 349
#
# _framework density 19.288481999999998
#
# number of rings (size 3 to 8) (size 9 to 14) (size 15 to 20)
#    0.000    1.667    3.333    1.500    0.000    7.333 
#    0.000    0.833    0.000    5.000    0.000    0.000 
#    0.000    0.000    0.000    0.000    0.000    0.000 
#
# Total GULP energy -297346.531283 kJ/mol
# GULP energy per Si atom -12389.438803 kJ/mol
# Density = 1.924458 g / cm^3
# Si number density = 19.288482 Si / 1000 Ang^3
#
#
#
# Elastic Constant Matrix: (Units=GPa)
#
#
# Indices 1 2 3 4 5 6 
#
# 1 97.8952 50.9145 23.1975 0.0000 10.1408 0.0000
# 2 50.9145 162.4615 34.4155 0.0000 14.8727 0.0000
# 3 23.1975 34.4155 67.8397 0.0000 17.3707 0.0000
# 4 0.0000 0.0000 0.0000 16.2482 0.0000 3.4322
# 5 10.1408 14.8727 17.3707 0.0000 26.1136 0.0000
# 6 0.0000 0.0000 0.0000 3.4322 0.0000 31.6042
#
#
#
# Elastic Compliance Matrix: (Units=1/GPa)
#
#
# Indices 1 2 3 4 5 6 
#
# 1 0.012644 -0.003350 -0.002236 0.000000 -0.001515 0.000000
# 2 -0.003350 0.007866 -0.002448 0.000000 -0.001551 0.000000
# 3 -0.002236 -0.002448 0.019487 0.000000 -0.010700 0.000000
# 4 0.000000 0.000000 0.000000 0.062990 0.000000 -0.006841
# 5 -0.001515 -0.001551 -0.010700 0.000000 0.046883 0.000000
# 6 0.000000 0.000000 0.000000 -0.006841 0.000000 0.032384
#
#
# Mechanical properties :
#
#
# Convention : Reuss Voigt Hill
#
# Bulk Modulus (GPa) = 41.79115 60.58347 51.18731
# Shear Modulus (GPa) = 24.23669 29.43782 26.83726
#
# Velocity S-wave (km/s) = 3.54861 3.91088 3.73414
# Velocity P-wave (km/s) = 6.20513 7.20213 6.72214
#
# Compressibility (1/GPa) = 0.02392851
#
# Stress axis : x y z
#
# Youngs Moduli (GPa) = 79.08739 127.13386 51.31663
#
# Poissons Ratio (x) = 0.42593 0.11475
# Poissons Ratio (y) = 0.26496 0.12561
# Poissons Ratio (z) = 0.17686 0.31118
#
# Static dielectric constant tensor:
#      x y z
#    x 1.751440 0.000000 0.284060 
#    y 0.000000 3.737060 0.000000 
#    z 0.284060 0.000000 3.458330 
# 
# 
# High freq. dielectric constant tensor:
#      x y z
#    x 1.746050 0.000000 -0.002510 
#    y 0.000000 1.755350 0.000000 
#    z -0.002510 0.000000 1.747530 
# 
# From -- ./inp_files/212728.got.cif
#   From: 2010.06.25/outbox.cif.g09.slc.cpg/sg12_107_cif.got.tgz:212728.got - 2010.06.28 00:19:55.
