data_PCOD8100731
_publ_section_title
;
Structure prediction by ZEFSAII (Michael W. Deem and Ramdas Pophale) SiO2 
 PCOD8100731
Probable space group: C 2/M
;
_chemical_formula_sum "Si O2"
_cell_formula_units_Z 64
_cell_length_a 24.591129
_cell_length_b 9.400793
_cell_length_c 14.807382
_cell_angle_alpha 90.000000
_cell_angle_beta 78.286251
_cell_angle_gamma 90.000000
_cell_volume 3351.823681
_symmetry_space_group_name_H-M "C 2/M"
_symmetry_group_IT_number 12
_symmetry_cell_setting 'monoclinic'
loop_
_space_group_symop_operation_xyz
x,y,z
-x,y,-z
-x,-y,-z
x,-y,z
1/2+x,1/2+y,z
1/2-x,1/2+y,-z
1/2-x,1/2-y,-z
1/2+x,1/2-y,z
loop_
_atom_site_type_symbol
_atom_site_label
_atom_site_fract_x
_atom_site_fract_y
_atom_site_fract_z
Si Si1 0.451202 0.160276 0.786570
Si Si2 0.740858 0.655935 0.244695
Si Si3 0.061629 0.664090 0.514609
Si Si4 0.796453 0.844938 0.943267
Si Si5 0.358828 0.163786 0.675680
Si Si6 0.109581 0.658096 0.019947
Si Si7 0.631087 0.834639 0.809908
Si Si8 0.442617 0.670530 0.304534
O O1 0.393152 0.198841 0.755923
O O2 0.496556 0.274345 0.742337
O O3 0.469479 0.000000 0.749710
O O4 0.445487 0.161628 0.898318
O O5 0.742457 0.500000 0.290280
O O6 0.710883 0.644366 0.159871
O O7 0.700578 0.757704 0.315438
O O8 0.803996 0.710945 0.210279
O O9 0.069482 0.500000 0.541923
O O10 0.103747 0.707581 0.421734
O O11 0.074492 0.769385 0.592420
O O12 0.000000 0.690629 0.500000
O O13 0.793228 0.000000 0.989340
O O14 0.750000 0.750000 0.000000
O O15 0.854940 0.779446 0.946691
O O16 0.342960 0.000000 0.679219
O O17 0.137227 0.500000 0.018096
O O18 0.101180 0.690907 0.917019
O O19 0.601963 0.729451 0.750787
O O20 0.624076 0.000000 0.783882
O O21 0.442114 0.500000 0.305108
#
# Coordination Sequence:
#
# PCOD8100731 Si02
#       8
#     8   8   8   8   8   8   8   8
#     4  10  20  37  61  89 121 157 194 239 294 358
#     4  10  21  36  57  86 122 159 196 243 297 347
#     4  10  20  40  67  92 117 150 193 238 295 363
#     4  11  20  31  51  82 118 155 199 246 292 341
#     4  10  20  35  62  95 122 149 188 242 297 355
#     4  10  20  36  59  87 117 155 205 245 290 347
#     4  10  22  42  61  80 116 167 210 240 282 351
#     4  12  26  41  60  88 119 154 198 250 300 349
#
# _framework density 19.094083000000001
#
# number of rings (size 3 to 8) (size 9 to 14) (size 15 to 20)
#    0.000    1.625    3.750    1.500    0.000    3.750 
#    0.000    3.125    0.000    0.000    0.000    0.000 
#    0.000    0.000    0.000    0.000    0.000    0.000 
#
# Total GULP energy -396629.710898 kJ/mol
# GULP energy per Si atom -12394.678466 kJ/mol
# Density = 1.905062 g / cm^3
# Si number density = 19.094083 Si / 1000 Ang^3
#
#
#
# Elastic Constant Matrix: (Units=GPa)
#
#
# Indices 1 2 3 4 5 6 
#
# 1 53.7365 41.0361 40.4432 0.0000 -3.5473 0.0000
# 2 41.0361 118.8521 57.9979 0.0000 1.4798 0.0000
# 3 40.4432 57.9979 123.9965 0.0000 -9.4329 0.0000
# 4 0.0000 0.0000 0.0000 25.3529 0.0000 -2.5516
# 5 -3.5473 1.4798 -9.4329 0.0000 31.2079 0.0000
# 6 0.0000 0.0000 0.0000 -2.5516 0.0000 27.3146
#
#
#
# Elastic Compliance Matrix: (Units=1/GPa)
#
#
# Indices 1 2 3 4 5 6 
#
# 1 0.028496 -0.006987 -0.005890 0.000000 0.001790 0.000000
# 2 -0.006987 0.012752 -0.003882 0.000000 -0.002572 0.000000
# 3 -0.005890 -0.003882 0.012041 0.000000 0.003154 0.000000
# 4 0.000000 0.000000 0.000000 0.039818 0.000000 0.003720
# 5 0.001790 -0.002572 0.003154 0.000000 0.033322 0.000000
# 6 0.000000 0.000000 0.000000 0.003720 0.000000 0.036958
#
#
# Mechanical properties :
#
#
# Convention : Reuss Voigt Hill
#
# Bulk Modulus (GPa) = 50.57493 63.94882 57.26188
# Shear Modulus (GPa) = 24.57057 27.24893 25.90975
#
# Velocity S-wave (km/s) = 3.59111 3.78178 3.68768
# Velocity P-wave (km/s) = 6.61359 7.25488 6.94164
#
# Compressibility (1/GPa) = 0.01977264
#
# Stress axis : x y z
#
# Youngs Moduli (GPa) = 35.09252 78.41712 83.04649
#
# Poissons Ratio (x) = 0.54788 0.48916
# Poissons Ratio (y) = 0.24518 0.32235
# Poissons Ratio (z) = 0.20670 0.30438
#
# Static dielectric constant tensor:
#      x y z
#    x 4.087240 0.000000 -0.138000 
#    y 0.000000 3.559510 0.000000 
#    z -0.138000 0.000000 3.574640 
# 
# 
# High freq. dielectric constant tensor:
#      x y z
#    x 1.727990 0.000000 -0.012990 
#    y 0.000000 1.738890 0.000000 
#    z -0.012990 0.000000 1.741900 
# 
# From -- ./inp_files/243972.got.cif
#   From: 2010.06.25/outbox.cif.g09.slc.cpg/sg12_122_cif.got.tgz:243972.got - 2010.06.28 00:19:55.
