data_PCOD8100952
_publ_section_title
;
Structure prediction by ZEFSAII (Michael W. Deem and Ramdas Pophale) SiO2 
 PCOD8100952
Probable space group: C 2/M
;
_chemical_formula_sum "Si O2"
_cell_formula_units_Z 40
_cell_length_a 19.060301
_cell_length_b 8.632051
_cell_length_c 27.025632
_cell_angle_alpha 90.000000
_cell_angle_beta 151.601980
_cell_angle_gamma 90.000000
_cell_volume 2114.734278
_symmetry_space_group_name_H-M "C 2/M"
_symmetry_group_IT_number 12
_symmetry_cell_setting 'monoclinic'
loop_
_space_group_symop_operation_xyz
x,y,z
-x,y,-z
-x,-y,-z
x,-y,z
1/2+x,1/2+y,z
1/2-x,1/2+y,-z
1/2-x,1/2-y,-z
1/2+x,1/2-y,z
loop_
_atom_site_type_symbol
_atom_site_label
_atom_site_fract_x
_atom_site_fract_y
_atom_site_fract_z
Si Si1 0.176781 0.320907 0.842448
Si Si2 0.764580 0.177715 0.221503
Si Si3 0.846572 0.819415 0.381662
Si Si4 0.949781 0.679489 0.066396
Si Si5 0.454087 0.319736 0.774511
O O1 0.210731 0.500000 0.872642
O O2 0.167748 0.287313 0.778443
O O3 0.021677 0.274243 0.770477
O O4 0.305592 0.218521 0.946108
O O5 0.850622 0.214195 0.325656
O O6 0.591691 0.216117 0.120759
O O7 0.786506 0.000000 0.219147
O O8 0.716974 0.724086 0.327205
O O9 0.000000 0.763229 0.500000
O O10 0.816563 0.000000 0.373051
O O11 0.949445 0.500000 0.081826
O O12 0.954864 0.779052 0.119542
O O13 0.470023 0.500000 0.773515
#
# Coordination Sequence:
#
# PCOD8100952 Si02
#       5
#     8   8   8   8   8
#     4  12  23  34  51  78 113 147 181 221 265 313
#     4   9  19  35  55  80 109 141 177 217 264 319
#     4   9  19  39  64  84 105 136 174 219 272 326
#     4  10  20  36  56  78 109 147 183 218 263 318
#     4  11  22  36  55  80 110 142 181 223 264 315
#
# _framework density 18.914905999999998
#
# number of rings (size 3 to 8) (size 9 to 14) (size 15 to 20)
#    0.000    1.800    0.000    6.600    0.000    6.800 
#    0.000    1.000    0.000    0.000    0.000    0.000 
#    0.000    0.000    0.000    0.000    0.000    0.000 
#
# Total GULP energy -248110.887964 kJ/mol
# GULP energy per Si atom -12405.544398 kJ/mol
# Density = 1.887185 g / cm^3
# Si number density = 18.914906 Si / 1000 Ang^3
#
#
#
# Elastic Constant Matrix: (Units=GPa)
#
#
# Indices 1 2 3 4 5 6 
#
# 1 120.6902 37.9727 38.6838 -0.0001 5.2061 0.0000
# 2 37.9727 70.3192 16.5035 -0.0001 3.6254 0.0000
# 3 38.6838 16.5035 104.1566 0.0004 -1.6259 0.0001
# 4 -0.0001 -0.0001 0.0004 24.4922 0.0003 -0.0176
# 5 5.2061 3.6254 -1.6259 0.0003 10.1176 0.0000
# 6 0.0000 0.0000 0.0001 -0.0176 0.0000 34.6986
#
#
#
# Elastic Compliance Matrix: (Units=1/GPa)
#
#
# Indices 1 2 3 4 5 6 
#
# 1 0.011144 -0.004983 -0.003419 0.000000 -0.004498 0.000000
# 2 -0.004983 0.017332 -0.000955 0.000000 -0.003800 0.000000
# 3 -0.003419 -0.000955 0.011083 0.000000 0.003883 0.000000
# 4 0.000000 0.000000 0.000000 0.040829 -0.000002 0.000021
# 5 -0.004498 -0.003800 0.003883 -0.000002 0.103137 0.000000
# 6 0.000000 0.000000 0.000000 0.000021 0.000000 0.028820
#
#
# Mechanical properties :
#
#
# Convention : Reuss Voigt Hill
#
# Bulk Modulus (GPa) = 47.97654 53.49845 50.73749
# Shear Modulus (GPa) = 21.00783 27.32877 24.16830
#
# Velocity S-wave (km/s) = 3.33626 3.80521 3.57842
# Velocity P-wave (km/s) = 6.34510 6.90299 6.62992
#
# Compressibility (1/GPa) = 0.02084352
#
# Stress axis : x y z
#
# Youngs Moduli (GPa) = 89.73829 57.69751 90.23026
#
# Poissons Ratio (x) = 0.28752 0.30853
# Poissons Ratio (y) = 0.44718 0.08615
# Poissons Ratio (z) = 0.30685 0.05509
#
# Static dielectric constant tensor:
#      x y z
#    x 3.536290 0.000000 0.014510 
#    y 0.000000 3.383700 0.000000 
#    z 0.014510 0.000000 3.339360 
# 
# 
# High freq. dielectric constant tensor:
#      x y z
#    x 1.739720 0.000000 0.002730 
#    y 0.000000 1.737330 0.000000 
#    z 0.002730 0.000000 1.716720 
# 
# From -- ./inp_files/151719.got.cif
#   From: 2010.06.25/outbox.cif.g09.slc.cpg/sg12_76_cif.got.tgz:151719.got - 2010.06.28 00:19:55.
