data_PCOD8100577
_publ_section_title
;
Structure prediction by ZEFSAII (Michael W. Deem and Ramdas Pophale) SiO2 
 PCOD8100577
Probable space group: C 2/M
;
_chemical_formula_sum "Si O2"
_cell_formula_units_Z 52
_cell_length_a 12.975682
_cell_length_b 32.437509
_cell_length_c 7.992461
_cell_angle_alpha 90.000000
_cell_angle_beta 134.602441
_cell_angle_gamma 90.000000
_cell_volume 2395.167272
_symmetry_space_group_name_H-M "C 2/M"
_symmetry_group_IT_number 12
_symmetry_cell_setting 'monoclinic'
loop_
_space_group_symop_operation_xyz
x,y,z
-x,y,-z
-x,-y,-z
x,-y,z
1/2+x,1/2+y,z
1/2-x,1/2+y,-z
1/2-x,1/2-y,-z
1/2+x,1/2-y,z
loop_
_atom_site_type_symbol
_atom_site_label
_atom_site_fract_x
_atom_site_fract_y
_atom_site_fract_z
Si Si1 0.000000 0.399588 0.000000
Si Si2 0.426388 0.951683 0.590307
Si Si3 0.151843 0.197212 0.473414
Si Si4 0.901271 0.044370 0.730526
Si Si5 0.525948 0.376152 0.722403
Si Si6 0.704333 0.161389 0.062269
Si Si7 0.462697 0.779251 0.762302
O O1 0.013209 0.427392 0.180596
O O2 0.136478 0.369756 0.123689
O O3 0.500000 0.936609 0.500000
O O4 0.256336 0.941711 0.387047
O O5 0.458995 0.000000 0.654088
O O6 0.190007 0.192072 0.713866
O O7 0.301113 0.204001 0.543193
O O8 0.035568 0.234550 0.322691
O O9 0.077290 0.156975 0.303379
O O10 0.981630 0.077464 0.709142
O O11 0.890293 0.000000 0.622115
O O12 0.000000 0.037746 0.000000
O O13 0.500000 0.369141 0.500000
O O14 0.695923 0.365264 0.953067
O O15 0.581750 0.188246 0.823915
O O16 0.500000 0.774854 0.000000
#
# Coordination Sequence:
#
# PCOD8100577 Si02
#       7
#     4   8   8   8   8   8   8
#     4  12  21  40  70  92 134 174 218 280 325 386
#     4  10  23  42  67  98 131 173 224 272 331 400
#     4   9  17  33  53  81 120 155 201 260 318 371
#     4  10  23  43  62  89 130 168 206 266 332 390
#     4  10  21  36  59  89 120 160 210 266 318 384
#     4  10  20  35  59  93 118 164 216 263 318 387
#     4   9  17  32  55  83 117 166 203 253 325 380
#
# _framework density 21.710381999999999
#
# number of rings (size 3 to 8) (size 9 to 14) (size 15 to 20)
#    0.000    2.154    2.308    2.077    2.154    1.538 
#    0.000    0.769    0.000    2.769    0.000    0.000 
#    0.000    0.000    0.000    0.000    0.000    0.000 
#
# Total GULP energy -322095.704045 kJ/mol
# GULP energy per Si atom -12388.296309 kJ/mol
# Density = 2.166097 g / cm^3
# Si number density = 21.710382 Si / 1000 Ang^3
#
#
#
# Elastic Constant Matrix: (Units=GPa)
#
#
# Indices 1 2 3 4 5 6 
#
# 1 99.4614 69.9629 47.4105 0.0000 25.5243 0.0000
# 2 69.9629 147.1554 46.8176 0.0000 17.8625 0.0000
# 3 47.4105 46.8176 79.2826 0.0000 14.8931 0.0000
# 4 0.0000 0.0000 0.0000 30.4032 0.0000 10.5484
# 5 25.5243 17.8625 14.8931 0.0000 33.7899 0.0000
# 6 0.0000 0.0000 0.0000 10.5484 0.0000 34.4065
#
#
#
# Elastic Compliance Matrix: (Units=1/GPa)
#
#
# Indices 1 2 3 4 5 6 
#
# 1 0.019834 -0.006298 -0.006490 0.000000 -0.008793 0.000000
# 2 -0.006298 0.010557 -0.002522 0.000000 0.000288 0.000000
# 3 -0.006490 -0.002522 0.018330 0.000000 -0.001843 0.000000
# 4 0.000000 0.000000 0.000000 0.036806 0.000000 -0.011284
# 5 -0.008793 0.000288 -0.001843 0.000000 0.036897 0.000000
# 6 0.000000 0.000000 0.000000 -0.011284 0.000000 0.032524
#
#
# Mechanical properties :
#
#
# Convention : Reuss Voigt Hill
#
# Bulk Modulus (GPa) = 55.24586 72.69796 63.97191
# Shear Modulus (GPa) = 26.09579 30.50046 28.29812
#
# Velocity S-wave (km/s) = 3.47074 3.75224 3.61423
# Velocity P-wave (km/s) = 6.44697 7.23398 6.85178
#
# Compressibility (1/GPa) = 0.01810090
#
# Stress axis : x y z
#
# Youngs Moduli (GPa) = 50.41808 94.72199 54.55588
#
# Poissons Ratio (x) = 0.59653 0.35407
# Poissons Ratio (y) = 0.31752 0.13761
# Poissons Ratio (z) = 0.32722 0.23892
#
# Static dielectric constant tensor:
#      x y z
#    x 3.912350 0.000000 0.532480 
#    y 0.000000 7.608240 0.000000 
#    z 0.532480 0.000000 3.838210 
# 
# 
# High freq. dielectric constant tensor:
#      x y z
#    x 1.834510 0.000000 0.038250 
#    y 0.000000 1.867880 0.000000 
#    z 0.038250 0.000000 1.835820 
# 
# From -- ./inp_files/68667.got.cif
#   From: 2010.06.25/outbox.cif.g09.slc.cpg/sg12_35_cif.got.tgz:68667.got - 2010.06.28 00:19:55.
