data_PCOD8100231
_publ_section_title
;
Structure prediction by ZEFSAII (Michael W. Deem and Ramdas Pophale) SiO2 
 PCOD8100231
Probable space group: C 2/M
;
_chemical_formula_sum "Si O2"
_cell_formula_units_Z 56
_cell_length_a 18.561985
_cell_length_b 8.977626
_cell_length_c 19.122329
_cell_angle_alpha 90.000000
_cell_angle_beta 112.958564
_cell_angle_gamma 90.000000
_cell_volume 2934.174781
_symmetry_space_group_name_H-M "C 2/M"
_symmetry_group_IT_number 12
_symmetry_cell_setting 'monoclinic'
loop_
_space_group_symop_operation_xyz
x,y,z
-x,y,-z
-x,-y,-z
x,-y,z
1/2+x,1/2+y,z
1/2-x,1/2+y,-z
1/2-x,1/2-y,-z
1/2+x,1/2-y,z
loop_
_atom_site_type_symbol
_atom_site_label
_atom_site_fract_x
_atom_site_fract_y
_atom_site_fract_z
Si Si1 0.853960 0.836404 0.697168
Si Si2 0.629169 0.321526 0.743387
Si Si3 0.942818 0.325887 0.917525
Si Si4 0.570048 0.330761 0.571124
Si Si5 0.733285 0.668555 0.564469
Si Si6 0.793988 0.835260 0.826634
Si Si7 0.002078 0.325292 0.785460
O O1 0.778759 0.750159 0.642563
O O2 0.840747 0.857005 0.773297
O O3 0.931295 0.739519 0.711627
O O4 0.862984 0.000000 0.664792
O O5 0.632251 0.500000 0.744880
O O6 0.591876 0.260771 0.655560
O O7 0.716814 0.262556 0.786920
O O8 0.579883 0.259651 0.790024
O O9 0.925711 0.500000 0.916750
O O10 0.858671 0.247358 0.898866
O O11 0.985767 0.289920 0.860434
O O12 0.000000 0.269026 0.000000
O O13 0.500000 0.250907 0.500000
O O14 0.544838 0.500000 0.576735
O O15 0.642530 0.321468 0.546633
O O16 0.762764 0.500000 0.570710
O O17 0.750000 0.750000 0.500000
O O18 0.772593 0.000000 0.848665
O O19 0.010930 0.500000 0.774373
#
# Coordination Sequence:
#
# PCOD8100231 Si02
#       7
#     8   8   8   8   8   8   8
#     4  10  20  36  56  78 107 146 190 234 281 336
#     4  11  21  36  59  83 114 154 195 234 282 344
#     4   9  19  38  63  88 116 150 187 228 280 344
#     4   9  20  37  55  77 108 149 192 235 284 336
#     4  11  22  36  55  79 109 144 188 239 291 339
#     4  10  20  35  58  85 114 147 188 235 281 331
#     4  10  21  36  57  86 117 145 184 234 284 335
#
# _framework density 19.085433999999999
#
# number of rings (size 3 to 8) (size 9 to 14) (size 15 to 20)
#    0.000    2.000    1.429    2.143    2.000    2.000 
#    0.000    0.714    0.000    3.429    0.000    0.000 
#    0.000    0.000    0.000    0.000    0.000    0.000 
#
# Total GULP energy -347066.516496 kJ/mol
# GULP energy per Si atom -12395.232732 kJ/mol
# Density = 1.904200 g / cm^3
# Si number density = 19.085434 Si / 1000 Ang^3
#
#
#
# Elastic Constant Matrix: (Units=GPa)
#
#
# Indices 1 2 3 4 5 6 
#
# 1 92.9218 47.1445 47.0114 0.0000 19.2986 0.0000
# 2 47.1445 112.6387 49.9764 0.0000 13.1534 0.0000
# 3 47.0114 49.9764 116.8070 0.0000 31.3917 0.0000
# 4 0.0000 0.0000 0.0000 22.6899 0.0000 4.7590
# 5 19.2986 13.1534 31.3917 0.0000 31.3967 0.0000
# 6 0.0000 0.0000 0.0000 4.7590 0.0000 33.9459
#
#
#
# Elastic Compliance Matrix: (Units=1/GPa)
#
#
# Indices 1 2 3 4 5 6 
#
# 1 0.015622 -0.004641 -0.003068 0.000000 -0.004591 0.000000
# 2 -0.004641 0.012338 -0.003813 0.000000 0.001496 0.000000
# 3 -0.003068 -0.003813 0.014346 0.000000 -0.010861 0.000000
# 4 0.000000 0.000000 0.000000 0.045408 0.000000 -0.006366
# 5 -0.004591 0.001496 -0.010861 0.000000 0.044904 0.000000
# 6 0.000000 0.000000 0.000000 -0.006366 0.000000 0.030351
#
#
# Mechanical properties :
#
#
# Convention : Reuss Voigt Hill
#
# Bulk Modulus (GPa) = 51.91717 67.84800 59.88259
# Shear Modulus (GPa) = 25.98309 29.48885 27.73597
#
# Velocity S-wave (km/s) = 3.69373 3.93504 3.81629
# Velocity P-wave (km/s) = 6.74189 7.50152 7.13183
#
# Compressibility (1/GPa) = 0.01926145
#
# Stress axis : x y z
#
# Youngs Moduli (GPa) = 64.01209 81.05367 69.70607
#
# Poissons Ratio (x) = 0.37619 0.21385
# Poissons Ratio (y) = 0.29710 0.26578
# Poissons Ratio (z) = 0.19638 0.30904
#
# Static dielectric constant tensor:
#      x y z
#    x 3.355000 0.000000 0.044950 
#    y 0.000000 3.647280 0.000000 
#    z 0.044950 0.000000 3.262800 
# 
# 
# High freq. dielectric constant tensor:
#      x y z
#    x 1.740270 0.000000 0.014560 
#    y 0.000000 1.740700 0.000000 
#    z 0.014560 0.000000 1.733110 
# 
# From -- ./inp_files/275158.got.cif
#   From: 2010.06.25/outbox.cif.g09.slc.cpg/sg12_138_cif.got.tgz:275158.got - 2010.06.28 00:19:55.
