data_PCOD8100062
_publ_section_title
;
Structure prediction by ZEFSAII (Michael W. Deem and Ramdas Pophale) SiO2 
 PCOD8100062
Probable space group: C 2/M
;
_chemical_formula_sum "Si O2"
_cell_formula_units_Z 64
_cell_length_a 29.813432
_cell_length_b 14.875896
_cell_length_c 9.773023
_cell_angle_alpha 90.000000
_cell_angle_beta 132.643407
_cell_angle_gamma 90.000000
_cell_volume 3188.279213
_symmetry_space_group_name_H-M "C 2/M"
_symmetry_group_IT_number 12
_symmetry_cell_setting 'monoclinic'
loop_
_space_group_symop_operation_xyz
x,y,z
-x,y,-z
-x,-y,-z
x,-y,z
1/2+x,1/2+y,z
1/2-x,1/2+y,-z
1/2-x,1/2-y,-z
1/2+x,1/2-y,z
loop_
_atom_site_type_symbol
_atom_site_label
_atom_site_fract_x
_atom_site_fract_y
_atom_site_fract_z
Si Si1 0.134220 0.656362 0.508215
Si Si2 0.295791 0.397136 0.237329
Si Si3 0.961434 0.779161 0.213169
Si Si4 0.087851 0.804789 0.589194
Si Si5 0.303046 0.296471 0.525419
Si Si6 0.740330 0.398818 0.123984
Si Si7 0.995350 0.399385 0.832243
Si Si8 0.138291 0.105691 0.118039
O O1 0.122166 0.714135 0.618368
O O2 0.146512 0.720869 0.403579
O O3 0.194758 0.600014 0.666329
O O4 0.076057 0.595236 0.355322
O O5 0.279932 0.500000 0.239086
O O6 0.367737 0.389016 0.347340
O O7 0.276988 0.336706 0.328892
O O8 0.258693 0.358070 0.028311
O O9 0.926977 0.789240 0.284387
O O10 0.028823 0.820078 0.371219
O O11 0.967210 0.674519 0.178257
O O12 0.924550 0.838768 0.027765
O O13 0.250000 0.250000 0.500000
O O14 0.335314 0.375832 0.676436
O O15 0.718517 0.500000 0.057042
O O16 0.688261 0.355602 0.113250
O O17 0.022325 0.500000 0.861321
O O18 0.000000 0.372590 0.000000
O O19 0.125111 0.000000 0.075554
#
# Coordination Sequence:
#
# PCOD8100062 Si02
#       8
#     8   8   8   8   8   8   8   8
#     4  10  20  37  59  85 117 157 200 249 305 367
#     4  10  21  38  57  84 122 160 203 256 308 365
#     4  10  20  38  59  89 121 154 204 255 302 364
#     4   9  20  35  59  86 114 156 202 246 308 362
#     4  11  22  37  57  85 120 165 205 248 308 368
#     4  10  20  35  57  86 117 153 199 247 302 368
#     4  10  21  39  62  86 118 161 202 251 308 364
#     4  11  22  37  59  90 123 159 202 251 305 365
#
# _framework density 20.073523999999999
#
# number of rings (size 3 to 8) (size 9 to 14) (size 15 to 20)
#    0.000    1.875    2.500    1.500    0.000    3.500 
#    0.000    6.875    0.000   11.625    0.000    0.000 
#    0.000    0.000    0.000    0.000    0.000    0.000 
#
# Total GULP energy -396622.929744 kJ/mol
# GULP energy per Si atom -12394.466555 kJ/mol
# Density = 2.002784 g / cm^3
# Si number density = 20.073524 Si / 1000 Ang^3
#
#
#
# Elastic Constant Matrix: (Units=GPa)
#
#
# Indices 1 2 3 4 5 6 
#
# 1 79.3482 31.8024 30.6556 0.0000 -5.2650 0.0000
# 2 31.8024 83.7072 35.9563 0.0000 -1.5969 0.0000
# 3 30.6556 35.9563 120.1735 0.0000 -2.9107 0.0000
# 4 0.0000 0.0000 0.0000 29.3175 0.0000 2.9390
# 5 -5.2650 -1.5969 -2.9107 0.0000 33.5776 0.0000
# 6 0.0000 0.0000 0.0000 2.9390 0.0000 23.4449
#
#
#
# Elastic Compliance Matrix: (Units=1/GPa)
#
#
# Indices 1 2 3 4 5 6 
#
# 1 0.015636 -0.004831 -0.002495 0.000000 0.002006 0.000000
# 2 -0.004831 0.015204 -0.003325 0.000000 -0.000323 0.000000
# 3 -0.002495 -0.003325 0.009960 0.000000 0.000314 0.000000
# 4 0.000000 0.000000 0.000000 0.034543 0.000000 -0.004330
# 5 0.002006 -0.000323 0.000314 0.000000 0.030108 0.000000
# 6 0.000000 0.000000 0.000000 -0.004330 0.000000 0.043196
#
#
# Mechanical properties :
#
#
# Convention : Reuss Voigt Hill
#
# Bulk Modulus (GPa) = 51.28279 53.33973 52.31126
# Shear Modulus (GPa) = 28.33727 29.58896 28.96312
#
# Velocity S-wave (km/s) = 3.76130 3.84347 3.80261
# Velocity P-wave (km/s) = 6.66829 6.80634 6.73767
#
# Compressibility (1/GPa) = 0.01949972
#
# Stress axis : x y z
#
# Youngs Moduli (GPa) = 63.95656 65.77418 100.40163
#
# Poissons Ratio (x) = 0.31772 0.25047
# Poissons Ratio (y) = 0.30894 0.33379
# Poissons Ratio (z) = 0.15955 0.21867
#
# Static dielectric constant tensor:
#      x y z
#    x 3.707150 0.000000 -0.048700 
#    y 0.000000 3.464370 0.000000 
#    z -0.048700 0.000000 3.805710 
# 
# 
# High freq. dielectric constant tensor:
#      x y z
#    x 1.775370 0.000000 -0.005630 
#    y 0.000000 1.773150 0.000000 
#    z -0.005630 0.000000 1.794110 
# 
# From -- ./inp_files/112047.got.cif
#   From: 2010.06.25/outbox.cif.g09.slc.cpg/sg12_57_cif.got.tgz:112047.got - 2010.06.28 00:19:55.
