data_PCOD8100751
_publ_section_title
;
Structure prediction by ZEFSAII (Michael W. Deem and Ramdas Pophale) SiO2 
 PCOD8100751
Probable space group: C 2/M
;
_chemical_formula_sum "Si O2"
_cell_formula_units_Z 48
_cell_length_a 8.820537
_cell_length_b 30.364793
_cell_length_c 17.163024
_cell_angle_alpha 90.000000
_cell_angle_beta 34.042841
_cell_angle_gamma 90.000000
_cell_volume 2573.367755
_symmetry_space_group_name_H-M "C 2/M"
_symmetry_group_IT_number 12
_symmetry_cell_setting 'monoclinic'
loop_
_space_group_symop_operation_xyz
x,y,z
-x,y,-z
-x,-y,-z
x,-y,z
1/2+x,1/2+y,z
1/2-x,1/2+y,-z
1/2-x,1/2-y,-z
1/2+x,1/2-y,z
loop_
_atom_site_type_symbol
_atom_site_label
_atom_site_fract_x
_atom_site_fract_y
_atom_site_fract_z
Si Si1 0.559629 0.797875 0.144738
Si Si2 0.641803 0.707578 0.823873
Si Si3 0.228422 0.050697 0.791906
Si Si4 0.760827 0.371853 0.661911
Si Si5 0.669291 0.126272 0.851658
Si Si6 0.622583 0.950080 0.100331
O O1 0.367269 0.756710 0.206453
O O2 0.638090 0.795075 0.201398
O O3 0.384045 0.840412 0.197095
O O4 0.835842 0.802546 0.978809
O O5 0.742432 0.672458 0.719255
O O6 0.327966 0.084888 0.684644
O O7 0.400732 0.058404 0.797174
O O8 0.261088 0.000000 0.749371
O O9 0.919638 0.061962 0.943331
O O10 0.484445 0.377474 0.733229
O O11 0.000000 0.365398 0.500000
O O12 0.589075 0.078018 0.857737
O O13 0.500000 0.141250 0.000000
O O14 0.551166 0.000000 0.111399
#
# Coordination Sequence:
#
# PCOD8100751 Si02
#       6
#     8   8   8   8   8   8
#     4  10  20  35  64  87 111 141 195 245 284 332
#     4  10  20  37  59  88 114 148 186 240 290 337
#     4   9  18  36  60  86 117 154 194 238 293 341
#     4  12  25  39  55  84 125 158 189 233 292 352
#     4  12  21  35  58  88 116 149 197 239 281 339
#     4   9  18  34  61  91 115 145 196 253 288 327
#
# _framework density 18.6526
#
# number of rings (size 3 to 8) (size 9 to 14) (size 15 to 20)
#    0.000    1.667    3.333    3.000    2.333    4.000 
#    0.000    6.667    0.000    2.000    0.000    0.000 
#    0.000    0.000    0.000    0.000    0.000    0.000 
#
# Total GULP energy -297594.110306 kJ/mol
# GULP energy per Si atom -12399.754596 kJ/mol
# Density = 1.861015 g / cm^3
# Si number density = 18.652600 Si / 1000 Ang^3
#
#
#
# Elastic Constant Matrix: (Units=GPa)
#
#
# Indices 1 2 3 4 5 6 
#
# 1 121.7043 61.8763 46.4779 0.0000 0.8066 0.0000
# 2 61.8763 120.3409 44.6437 0.0000 13.4195 0.0000
# 3 46.4779 44.6437 82.3582 0.0000 6.9080 0.0000
# 4 0.0000 0.0000 0.0000 0.6600 0.0000 -10.4152
# 5 0.8066 13.4195 6.9080 0.0000 20.6030 0.0000
# 6 0.0000 0.0000 0.0000 -10.4152 0.0000 34.4412
#
#
#
# Elastic Compliance Matrix: (Units=1/GPa)
#
#
# Indices 1 2 3 4 5 6 
#
# 1 0.012648 -0.005279 -0.004654 0.000000 0.004504 0.000000
# 2 -0.005279 0.013136 -0.003541 0.000000 -0.007162 0.000000
# 3 -0.004654 -0.003541 0.016956 0.000000 -0.003197 0.000000
# 4 0.000000 0.000000 0.000000 -0.401669 0.000000 -0.121467
# 5 0.004504 -0.007162 -0.003197 0.000000 0.054097 0.000000
# 6 0.000000 0.000000 0.000000 -0.121467 0.000000 -0.007697
#
#
# Mechanical properties :
#
#
# Convention : Reuss Voigt Hill
#
# Bulk Modulus (GPa) = 63.32036 70.04436 66.68236
# Shear Modulus (GPa) = -17.83694 22.56788 2.36547
#
# Velocity S-wave (km/s) = -3.09572 3.48214 1.12735
# Velocity P-wave (km/s) = 4.60901 7.33489 6.12550
#
# Compressibility (1/GPa) = 0.01579271
#
# Stress axis : x y z
#
# Youngs Moduli (GPa) = 79.06369 76.12466 58.97610
#
# Poissons Ratio (x) = 0.40186 0.27447
# Poissons Ratio (y) = 0.41738 0.20883
# Poissons Ratio (z) = 0.36796 0.26955
#
# Static dielectric constant tensor:
#      x y z
#    x 3.582110 0.000000 0.026180 
#    y 0.000000 3.572640 0.000000 
#    z 0.026180 0.000000 2.963450 
# 
# 
# High freq. dielectric constant tensor:
#      x y z
#    x 1.741740 0.000000 -0.000230 
#    y 0.000000 1.742510 0.000000 
#    z -0.000230 0.000000 1.669920 
# 
# From -- ./inp_files/200240.got.cif
#   From: 2010.06.25/outbox.cif.g09.slc.cpg/sg12_101_cif.got.tgz:200240.got - 2010.06.28 00:19:55.
