data_PCOD8100371
_publ_section_title
;
Structure prediction by ZEFSAII (Michael W. Deem and Ramdas Pophale) SiO2 
 PCOD8100371
Probable space group: C 2/M
;
_chemical_formula_sum "Si O2"
_cell_formula_units_Z 56
_cell_length_a 18.136951
_cell_length_b 18.216270
_cell_length_c 8.867582
_cell_angle_alpha 90.000000
_cell_angle_beta 67.437936
_cell_angle_gamma 90.000000
_cell_volume 2705.509938
_symmetry_space_group_name_H-M "C 2/M"
_symmetry_group_IT_number 12
_symmetry_cell_setting 'monoclinic'
loop_
_space_group_symop_operation_xyz
x,y,z
-x,y,-z
-x,-y,-z
x,-y,z
1/2+x,1/2+y,z
1/2-x,1/2+y,-z
1/2-x,1/2-y,-z
1/2+x,1/2-y,z
loop_
_atom_site_type_symbol
_atom_site_label
_atom_site_fract_x
_atom_site_fract_y
_atom_site_fract_z
Si Si1 0.130755 0.779181 0.695817
Si Si2 0.593716 0.582091 0.907788
Si Si3 0.663251 0.916272 0.535279
Si Si4 0.018156 0.350585 0.814505
Si Si5 0.292116 0.584114 0.912676
Si Si6 0.270802 0.318011 0.644448
Si Si7 0.868943 0.585155 0.778685
O O1 0.119930 0.861975 0.758613
O O2 0.200824 0.740125 0.739942
O O3 0.155162 0.778401 0.498947
O O4 0.048522 0.733608 0.778060
O O5 0.620949 0.500000 0.837259
O O6 0.500000 0.586112 0.000000
O O7 0.635073 0.602395 0.033317
O O8 0.585220 0.905241 0.698989
O O9 0.737382 0.873353 0.545011
O O10 0.648585 0.889145 0.376996
O O11 0.688353 0.000000 0.515637
O O12 0.937785 0.361158 0.783054
O O13 0.000000 0.372415 0.000000
O O14 0.296963 0.500000 0.851242
O O15 0.301117 0.639756 0.767166
O O16 0.208664 0.598219 0.059995
O O17 0.896555 0.500000 0.762705
#
# Coordination Sequence:
#
# PCOD8100371 Si02
#       7
#     8   8   8   8   8   8   8
#     4  10  22  40  58  83 118 159 197 236 295 348
#     4  10  22  42  64  84 110 147 195 247 298 353
#     4  10  20  35  58  88 125 164 195 232 287 349
#     4  11  22  36  55  82 123 162 198 240 283 339
#     4  10  21  38  64  94 117 146 192 243 294 348
#     4  10  21  38  59  88 122 152 195 245 285 342
#     4  10  20  35  58  90 125 161 196 229 281 354
#
# _framework density 20.698502000000001
#
# number of rings (size 3 to 8) (size 9 to 14) (size 15 to 20)
#    0.000    1.857    0.000    4.286    0.000    6.286 
#    0.000   13.571    0.000    2.571    0.000    0.000 
#    0.000    0.000    0.000    0.000    0.000    0.000 
#
# Total GULP energy -347237.352397 kJ/mol
# GULP energy per Si atom -12401.334014 kJ/mol
# Density = 2.065139 g / cm^3
# Si number density = 20.698502 Si / 1000 Ang^3
#
#
#
# Elastic Constant Matrix: (Units=GPa)
#
#
# Indices 1 2 3 4 5 6 
#
# 1 101.3160 33.3277 25.2676 0.0000 7.7345 0.0000
# 2 33.3277 92.3439 25.9161 0.0000 12.2436 0.0000
# 3 25.2676 25.9161 87.8446 0.0000 9.2331 0.0000
# 4 0.0000 0.0000 0.0000 -38.2594 0.0000 27.3446
# 5 7.7345 12.2436 9.2331 0.0000 21.0539 0.0000
# 6 0.0000 0.0000 0.0000 27.3446 0.0000 13.3985
#
#
#
# Elastic Compliance Matrix: (Units=1/GPa)
#
#
# Indices 1 2 3 4 5 6 
#
# 1 0.011642 -0.003407 -0.002204 0.000000 -0.001329 0.000000
# 2 -0.003407 0.013468 -0.002413 0.000000 -0.005522 0.000000
# 3 -0.002204 -0.002413 0.013101 0.000000 -0.003532 0.000000
# 4 0.000000 0.000000 0.000000 -0.010631 0.000000 0.021696
# 5 -0.001329 -0.005522 -0.003532 0.000000 0.052746 0.000000
# 6 0.000000 0.000000 0.000000 0.021696 0.000000 0.030356
#
#
# Mechanical properties :
#
#
# Convention : Reuss Voigt Hill
#
# Bulk Modulus (GPa) = 45.11969 50.05859 47.58914
# Shear Modulus (GPa) = 37.28077 12.37148 24.82612
#
# Velocity S-wave (km/s) = 4.24858 2.44744 3.46702
# Velocity P-wave (km/s) = 6.77592 5.67660 6.25047
#
# Compressibility (1/GPa) = 0.02216327
#
# Stress axis : x y z
#
# Youngs Moduli (GPa) = 85.89661 74.24973 76.33107
#
# Poissons Ratio (x) = 0.25296 0.16822
# Poissons Ratio (y) = 0.29264 0.18418
# Poissons Ratio (z) = 0.18930 0.17916
#
# Static dielectric constant tensor:
#      x y z
#    x 3.719730 0.000000 -0.059670 
#    y 0.000000 3.891600 0.000000 
#    z -0.059670 0.000000 3.677860 
# 
# 
# High freq. dielectric constant tensor:
#      x y z
#    x 1.803570 0.000000 -0.006780 
#    y 0.000000 1.817240 0.000000 
#    z -0.006780 0.000000 1.809690 
# 
# From -- ./inp_files/75904.got.cif
#   From: 2010.06.25/outbox.cif.g09.slc.cpg/sg12_38_cif.got.tgz:75904.got - 2010.06.28 00:19:55.
