data_PCOD8100263
_publ_section_title
;
Structure prediction by ZEFSAII (Michael W. Deem and Ramdas Pophale) SiO2 
 PCOD8100263
Probable space group: C 2/M
;
_chemical_formula_sum "Si O2"
_cell_formula_units_Z 64
_cell_length_a 18.393851
_cell_length_b 8.872463
_cell_length_c 34.278292
_cell_angle_alpha 90.000000
_cell_angle_beta 144.392423
_cell_angle_gamma 90.000000
_cell_volume 3257.099167
_symmetry_space_group_name_H-M "C 2/M"
_symmetry_group_IT_number 12
_symmetry_cell_setting 'monoclinic'
loop_
_space_group_symop_operation_xyz
x,y,z
-x,y,-z
-x,-y,-z
x,-y,z
1/2+x,1/2+y,z
1/2-x,1/2+y,-z
1/2-x,1/2-y,-z
1/2+x,1/2-y,z
loop_
_atom_site_type_symbol
_atom_site_label
_atom_site_fract_x
_atom_site_fract_y
_atom_site_fract_z
Si Si1 0.884805 0.821838 0.370614
Si Si2 0.189968 0.823573 0.010783
Si Si3 0.404639 0.325477 0.892511
Si Si4 0.698523 0.825077 0.740572
Si Si5 0.262570 0.326196 0.119375
Si Si6 0.255453 0.824531 0.386987
Si Si7 0.848348 0.677183 0.513758
Si Si8 0.470787 0.674618 0.271490
O O1 0.793229 0.767582 0.296043
O O2 0.830930 0.771685 0.388584
O O3 0.017601 0.747703 0.419633
O O4 0.898457 0.000000 0.376134
O O5 0.045989 0.774214 0.948549
O O6 0.203862 0.000000 0.013534
O O7 0.250000 0.750000 0.000000
O O8 0.265218 0.768823 0.081237
O O9 0.393198 0.500000 0.899939
O O10 0.328245 0.294332 0.819564
O O11 0.353281 0.224342 0.904922
O O12 0.581564 0.772000 0.715630
O O13 0.680647 0.000000 0.723037
O O14 0.246447 0.500000 0.101672
O O15 0.391852 0.294527 0.198082
O O16 0.311063 0.786380 0.453282
O O17 0.111176 0.775272 0.323507
O O18 0.271041 0.000000 0.383351
O O19 0.852941 0.500000 0.523647
O O20 0.750000 0.750000 0.500000
O O21 0.464144 0.500000 0.281263
#
# Coordination Sequence:
#
# PCOD8100263 Si02
#       8
#     8   8   8   8   8   8   8   8
#     4  12  25  39  57  84 119 154 189 231 281 336
#     4  11  23  38  55  78 112 149 188 234 285 340
#     4   9  20  38  59  82 109 146 188 233 284 335
#     4  10  20  37  61  85 111 145 189 236 282 335
#     4  10  20  35  58  86 114 146 185 229 279 338
#     4  10  22  40  60  83 114 151 188 229 280 333
#     4  11  23  40  64  90 116 149 191 237 283 333
#     4   9  19  37  60  86 116 147 183 231 284 337
#
# _framework density 19.649386
#
# number of rings (size 3 to 8) (size 9 to 14) (size 15 to 20)
#    0.000    1.750    0.000    4.125    0.000    8.500 
#    0.000    5.000    0.000    0.000    0.000    0.000 
#    0.000    0.000    0.000    0.000    0.000    0.000 
#
# Total GULP energy -396983.238354 kJ/mol
# GULP energy per Si atom -12405.726199 kJ/mol
# Density = 1.960466 g / cm^3
# Si number density = 19.649386 Si / 1000 Ang^3
#
#
#
# Elastic Constant Matrix: (Units=GPa)
#
#
# Indices 1 2 3 4 5 6 
#
# 1 69.0305 39.5662 29.4771 0.0000 -17.8403 0.0000
# 2 39.5662 86.5872 38.9254 -0.0001 -13.3649 0.0000
# 3 29.4771 38.9254 83.5079 0.0000 -15.8096 0.0000
# 4 0.0000 -0.0001 0.0000 31.7874 0.0000 -4.6591
# 5 -17.8403 -13.3649 -15.8096 0.0000 31.0535 0.0000
# 6 0.0000 0.0000 0.0000 -4.6591 0.0000 40.2802
#
#
#
# Elastic Compliance Matrix: (Units=1/GPa)
#
#
# Indices 1 2 3 4 5 6 
#
# 1 0.022099 -0.007636 -0.002722 0.000000 0.008024 0.000000
# 2 -0.007636 0.017528 -0.005397 0.000000 0.000409 0.000000
# 3 -0.002722 -0.005397 0.016286 0.000000 0.004404 0.000000
# 4 0.000000 0.000000 0.000000 0.032002 0.000000 0.003702
# 5 0.008024 0.000409 0.004404 0.000000 0.039230 0.000000
# 6 0.000000 0.000000 0.000000 0.003702 0.000000 0.025254
#
#
# Mechanical properties :
#
#
# Convention : Reuss Voigt Hill
#
# Bulk Modulus (GPa) = 40.98165 50.56254 45.77210
# Shear Modulus (GPa) = 26.03573 29.36802 27.70187
#
# Velocity S-wave (km/s) = 3.64402 3.87020 3.75882
# Velocity P-wave (km/s) = 6.21345 6.76458 6.49486
#
# Compressibility (1/GPa) = 0.02440116
#
# Stress axis : x y z
#
# Youngs Moduli (GPa) = 45.25055 57.05202 61.40418
#
# Poissons Ratio (x) = 0.43565 0.16716
# Poissons Ratio (y) = 0.34553 0.33142
# Poissons Ratio (z) = 0.12319 0.30793
#
# Static dielectric constant tensor:
#      x y z
#    x 3.544560 0.000000 0.031020 
#    y 0.000000 3.627960 0.000000 
#    z 0.031020 0.000000 4.089150 
# 
# 
# High freq. dielectric constant tensor:
#      x y z
#    x 1.763730 0.000000 -0.003280 
#    y 0.000000 1.770780 0.000000 
#    z -0.003280 0.000000 1.782110 
# 
# From -- ./inp_files/378444.got.cif
#   From: 2010.06.25/outbox.cif.g09.slc.cpg/sg12_190_cif.got.tgz:378444.got - 2010.06.28 00:19:55.
