data_PCOD8100077
_publ_section_title
;
Structure prediction by ZEFSAII (Michael W. Deem and Ramdas Pophale) SiO2 
 PCOD8100077
Probable space group: C 2/M
;
_chemical_formula_sum "Si O2"
_cell_formula_units_Z 56
_cell_length_a 26.839145
_cell_length_b 17.588183
_cell_length_c 8.968361
_cell_angle_alpha 90.000000
_cell_angle_beta 40.304150
_cell_angle_gamma 90.000000
_cell_volume 2738.438373
_symmetry_space_group_name_H-M "C 2/M"
_symmetry_group_IT_number 12
_symmetry_cell_setting 'monoclinic'
loop_
_space_group_symop_operation_xyz
x,y,z
-x,y,-z
-x,-y,-z
x,-y,z
1/2+x,1/2+y,z
1/2-x,1/2+y,-z
1/2-x,1/2-y,-z
1/2+x,1/2-y,z
loop_
_atom_site_type_symbol
_atom_site_label
_atom_site_fract_x
_atom_site_fract_y
_atom_site_fract_z
Si Si1 0.834452 0.758646 0.871858
Si Si2 0.602726 0.810149 0.984581
Si Si3 0.171593 0.914711 0.763440
Si Si4 0.656745 0.911093 0.614202
Si Si5 0.589112 0.413508 0.254672
Si Si6 0.431476 0.190380 0.414975
Si Si7 0.919557 0.812387 0.213777
O O1 0.839655 0.734082 0.034283
O O2 0.861786 0.846118 0.781188
O O3 0.887613 0.695137 0.671585
O O4 0.750000 0.750000 0.000000
O O5 0.520405 0.829052 0.247667
O O6 0.641763 0.883930 0.819401
O O7 0.582049 0.757684 0.894165
O O8 0.255424 0.889140 0.632206
O O9 0.150830 0.868241 0.661190
O O10 0.177976 0.000000 0.692062
O O11 0.105439 0.905085 0.040239
O O12 0.601522 0.874245 0.617546
O O13 0.641033 0.000000 0.644262
O O14 0.500000 0.400098 0.500000
O O15 0.613804 0.500000 0.248295
O O16 0.416156 0.275864 0.385111
O O17 0.000000 0.856764 0.000000
#
# Coordination Sequence:
#
# PCOD8100077 Si02
#       7
#     8   8   8   8   8   8   8
#     4  12  24  38  62  94 125 167 204 258 315 374
#     4  10  21  39  60  86 119 156 206 254 301 370
#     4  10  20  35  57  86 120 158 198 250 307 363
#     4  10  22  40  64  90 120 161 207 261 320 375
#     4  10  21  39  63  88 123 171 209 247 306 378
#     4  10  22  37  61  90 118 157 204 255 308 368
#     4   9  19  34  56  83 115 153 194 245 299 360
#
# _framework density 20.449611000000001
#
# number of rings (size 3 to 8) (size 9 to 14) (size 15 to 20)
#    0.000    1.857    1.429    3.429    4.000    2.571 
#    0.000    2.143    0.000    1.714    0.000    0.000 
#    0.000    0.000    0.000    0.000    0.000    0.000 
#
# Total GULP energy -346980.584804 kJ/mol
# GULP energy per Si atom -12392.163743 kJ/mol
# Density = 2.040307 g / cm^3
# Si number density = 20.449611 Si / 1000 Ang^3
#
#
#
# Elastic Constant Matrix: (Units=GPa)
#
#
# Indices 1 2 3 4 5 6 
#
# 1 83.7689 43.8436 16.8612 0.0000 -15.8413 0.0000
# 2 43.8436 103.7725 29.8532 0.0000 -14.3386 0.0000
# 3 16.8612 29.8532 85.9934 0.0000 -9.4222 0.0000
# 4 0.0000 0.0000 0.0000 28.8105 0.0000 -3.6839
# 5 -15.8413 -14.3386 -9.4222 0.0000 31.2504 0.0000
# 6 0.0000 0.0000 0.0000 -3.6839 0.0000 27.4787
#
#
#
# Elastic Compliance Matrix: (Units=1/GPa)
#
#
# Indices 1 2 3 4 5 6 
#
# 1 0.016156 -0.005942 -0.000524 0.000000 0.005306 0.000000
# 2 -0.005942 0.013377 -0.003243 0.000000 0.002148 0.000000
# 3 -0.000524 -0.003243 0.013098 0.000000 0.002196 0.000000
# 4 0.000000 0.000000 0.000000 0.035315 0.000000 0.004734
# 5 0.005306 0.002148 0.002196 0.000000 0.036336 0.000000
# 6 0.000000 0.000000 0.000000 0.004734 0.000000 0.037027
#
#
# Mechanical properties :
#
#
# Convention : Reuss Voigt Hill
#
# Bulk Modulus (GPa) = 43.08016 50.51677 46.79846
# Shear Modulus (GPa) = 28.01659 29.70635 28.86147
#
# Velocity S-wave (km/s) = 3.70541 3.81551 3.76086
# Velocity P-wave (km/s) = 6.27845 6.64587 6.46477
#
# Compressibility (1/GPa) = 0.02321254
#
# Stress axis : x y z
#
# Youngs Moduli (GPa) = 61.89468 74.75584 76.34749
#
# Poissons Ratio (x) = 0.44422 0.03998
# Poissons Ratio (y) = 0.36780 0.24763
# Poissons Ratio (z) = 0.03241 0.24247
#
# Static dielectric constant tensor:
#      x y z
#    x 3.566550 0.000000 -0.135860 
#    y 0.000000 3.732910 0.000000 
#    z -0.135860 0.000000 3.937370 
# 
# 
# High freq. dielectric constant tensor:
#      x y z
#    x 1.786540 0.000000 -0.009600 
#    y 0.000000 1.789410 0.000000 
#    z -0.009600 0.000000 1.803440 
# 
# From -- ./inp_files/105975.got.cif
#   From: 2010.06.25/outbox.cif.g09.slc.cpg/sg12_53_cif.got.tgz:105975.got - 2010.06.28 00:19:55.
