data_PCOD8100415
_publ_section_title
;
Structure prediction by ZEFSAII (Michael W. Deem and Ramdas Pophale) SiO2 
 PCOD8100415
Probable space group: C 2/M
;
_chemical_formula_sum "Si O2"
_cell_formula_units_Z 56
_cell_length_a 23.673162
_cell_length_b 18.033906
_cell_length_c 8.054404
_cell_angle_alpha 90.000000
_cell_angle_beta 116.829227
_cell_angle_gamma 90.000000
_cell_volume 3068.438946
_symmetry_space_group_name_H-M "C 2/M"
_symmetry_group_IT_number 12
_symmetry_cell_setting 'monoclinic'
loop_
_space_group_symop_operation_xyz
x,y,z
-x,y,-z
-x,-y,-z
x,-y,z
1/2+x,1/2+y,z
1/2-x,1/2+y,-z
1/2-x,1/2-y,-z
1/2+x,1/2-y,z
loop_
_atom_site_type_symbol
_atom_site_label
_atom_site_fract_x
_atom_site_fract_y
_atom_site_fract_z
Si Si1 0.390774 0.586809 0.570645
Si Si2 0.765774 0.087126 0.019332
Si Si3 0.066864 0.303891 0.521264
Si Si4 0.485625 0.308297 0.805256
Si Si5 0.749438 0.913002 0.369122
Si Si6 0.824655 0.587186 0.410422
Si Si7 0.605201 0.664987 0.756398
O O1 0.393634 0.500000 0.595631
O O2 0.436787 0.623496 0.766589
O O3 0.319571 0.617787 0.498981
O O4 0.414788 0.611276 0.420731
O O5 0.731732 0.106163 0.152656
O O6 0.827845 0.138375 0.079105
O O7 0.785410 0.000000 0.045430
O O8 0.720604 0.106043 0.805486
O O9 0.049980 0.255111 0.340923
O O10 0.108283 0.374324 0.527684
O O11 0.106252 0.251574 0.700931
O O12 0.000000 0.334471 0.500000
O O13 0.549646 0.342032 0.815236
O O14 0.500000 0.271765 0.000000
O O15 0.703192 0.880929 0.451190
O O16 0.749683 0.000000 0.395105
O O17 0.837207 0.500000 0.436551
#
# Coordination Sequence:
#
# PCOD8100415 Si02
#       7
#     8   8   8   8   8   8   8
#     4   9  17  31  51  74 106 145 178 210 253 304
#     4   9  18  33  55  82 110 140 172 209 258 312
#     4   9  20  40  55  72 103 138 175 215 266 315
#     4  10  21  34  50  73 106 141 179 220 258 301
#     4   8  16  32  50  76 112 136 162 213 262 307
#     4  10  20  35  59  82 103 133 172 222 271 316
#     4   9  18  34  53  71 106 146 172 211 255 311
#
# _framework density 18.250323000000002
#
# number of rings (size 3 to 8) (size 9 to 14) (size 15 to 20)
#    0.000    2.857    0.000    2.571    2.000    2.857 
#    5.143    6.429    0.000    0.429    0.000    0.000 
#    0.000    0.000    0.000    0.000    0.000    0.000 
#
# Total GULP energy -346957.889799 kJ/mol
# GULP energy per Si atom -12391.353207 kJ/mol
# Density = 1.820878 g / cm^3
# Si number density = 18.250323 Si / 1000 Ang^3
#
#
#
# Elastic Constant Matrix: (Units=GPa)
#
#
# Indices 1 2 3 4 5 6 
#
# 1 114.6032 50.0249 57.5860 0.0000 8.3222 0.0000
# 2 50.0249 53.5352 30.6753 0.0000 9.9096 0.0000
# 3 57.5860 30.6753 86.9469 0.0000 -1.1934 0.0000
# 4 0.0000 0.0000 0.0000 12.5795 0.0000 10.3718
# 5 8.3222 9.9096 -1.1934 0.0000 18.1138 0.0000
# 6 0.0000 0.0000 0.0000 10.3718 0.0000 32.1954
#
#
#
# Elastic Compliance Matrix: (Units=1/GPa)
#
#
# Indices 1 2 3 4 5 6 
#
# 1 0.017998 -0.011980 -0.007724 0.000000 -0.002224 0.000000
# 2 -0.011980 0.035137 -0.004654 0.000000 -0.014025 0.000000
# 3 -0.007724 -0.004654 0.018359 0.000000 0.007305 0.000000
# 4 0.000000 0.000000 0.000000 0.108246 0.000000 -0.034872
# 5 -0.002224 -0.014025 0.007305 0.000000 0.064382 0.000000
# 6 0.000000 0.000000 0.000000 -0.034872 0.000000 0.042294
#
#
# Mechanical properties :
#
#
# Convention : Reuss Voigt Hill
#
# Bulk Modulus (GPa) = 43.90403 59.07306 51.48854
# Shear Modulus (GPa) = 14.58887 20.36435 17.47661
#
# Velocity S-wave (km/s) = 2.83039 3.34404 3.09788
# Velocity P-wave (km/s) = 5.89833 6.88103 6.40854
#
# Compressibility (1/GPa) = 0.02277695
#
# Stress axis : x y z
#
# Youngs Moduli (GPa) = 55.56191 28.45989 54.46827
#
# Poissons Ratio (x) = 0.34096 0.42071
# Poissons Ratio (y) = 0.66565 0.25351
# Poissons Ratio (z) = 0.42916 0.13246
#
# Static dielectric constant tensor:
#      x y z
#    x 3.479660 0.000000 -0.092580 
#    y 0.000000 3.096430 0.000000 
#    z -0.092580 0.000000 3.422700 
# 
# 
# High freq. dielectric constant tensor:
#      x y z
#    x 1.706350 0.000000 -0.004910 
#    y 0.000000 1.681580 0.000000 
#    z -0.004910 0.000000 1.702250 
# 
# From -- ./inp_files/88062.got.cif
#   From: 2010.06.25/outbox.cif.g09.slc.cpg/sg12_45_cif.got.tgz:88062.got - 2010.06.28 00:19:55.
