data_PCOD8100086
_publ_section_title
;
Structure prediction by ZEFSAII (Michael W. Deem and Ramdas Pophale) SiO2 
 PCOD8100086
Probable space group: C 2/M
;
_chemical_formula_sum "Si O2"
_cell_formula_units_Z 56
_cell_length_a 29.689403
_cell_length_b 8.515405
_cell_length_c 12.380350
_cell_angle_alpha 90.000000
_cell_angle_beta 58.971177
_cell_angle_gamma 90.000000
_cell_volume 2682.093683
_symmetry_space_group_name_H-M "C 2/M"
_symmetry_group_IT_number 12
_symmetry_cell_setting 'monoclinic'
loop_
_space_group_symop_operation_xyz
x,y,z
-x,y,-z
-x,-y,-z
x,-y,z
1/2+x,1/2+y,z
1/2-x,1/2+y,-z
1/2-x,1/2-y,-z
1/2+x,1/2-y,z
loop_
_atom_site_type_symbol
_atom_site_label
_atom_site_fract_x
_atom_site_fract_y
_atom_site_fract_z
Si Si1 0.414619 0.688087 0.875568
Si Si2 0.790257 0.315259 0.536365
Si Si3 0.284491 0.823722 0.215870
Si Si4 0.600956 0.178587 0.867867
Si Si5 0.597349 0.316541 0.649520
Si Si6 0.698654 0.674320 0.016931
Si Si7 0.007466 0.315387 0.615980
O O1 0.421009 0.500000 0.865239
O O2 0.359495 0.744331 0.887350
O O3 0.457378 0.771767 0.749436
O O4 0.417439 0.742210 0.997225
O O5 0.782243 0.500000 0.559165
O O6 0.750000 0.250000 0.500000
O O7 0.771580 0.222045 0.665514
O O8 0.850357 0.279393 0.440215
O O9 0.335593 0.818138 0.230811
O O10 0.280016 0.000000 0.171589
O O11 0.295979 0.687145 0.117269
O O12 0.575681 0.266363 0.795199
O O13 0.580495 0.000000 0.894985
O O14 0.609502 0.500000 0.634617
O O15 0.556374 0.277335 0.605907
O O16 0.698959 0.500000 0.059607
O O17 0.750000 0.750000 0.000000
O O18 0.018324 0.500000 0.610178
O O19 0.000000 0.263955 0.500000
#
# Coordination Sequence:
#
# PCOD8100086 Si02
#       7
#     8   8   8   8   8   8   8
#     4  10  22  41  66  94 126 164 208 262 323 381
#     4  12  23  37  59  90 129 169 209 254 311 374
#     4  10  20  35  57  86 123 165 205 254 312 371
#     4  10  20  37  63  94 129 163 205 257 314 381
#     4  12  25  41  65  95 130 170 215 266 321 383
#     4  10  21  37  59  89 125 163 208 260 312 375
#     4  11  26  48  70  92 123 165 216 270 322 380
#
# _framework density 20.87921
#
# number of rings (size 3 to 8) (size 9 to 14) (size 15 to 20)
#    0.000    1.286    1.429    4.714    0.000    5.714 
#    0.000    5.714    0.000    0.000    0.000    0.000 
#    0.000    0.000    0.000    0.000    0.000    0.000 
#
# Total GULP energy -346953.708871 kJ/mol
# GULP energy per Si atom -12391.203888 kJ/mol
# Density = 2.083169 g / cm^3
# Si number density = 20.879210 Si / 1000 Ang^3
#
#
#
# Elastic Constant Matrix: (Units=GPa)
#
#
# Indices 1 2 3 4 5 6 
#
# 1 109.4523 15.1734 40.6071 0.0000 3.4307 0.0000
# 2 15.1734 80.4916 17.9821 0.0000 7.1230 0.0000
# 3 40.6071 17.9821 105.3361 0.0000 -6.7342 0.0000
# 4 0.0000 0.0000 0.0000 35.9907 0.0000 -0.0115
# 5 3.4307 7.1230 -6.7342 0.0000 30.7926 0.0000
# 6 0.0000 0.0000 0.0000 -0.0115 0.0000 35.0806
#
#
#
# Elastic Compliance Matrix: (Units=1/GPa)
#
#
# Indices 1 2 3 4 5 6 
#
# 1 0.010867 -0.000954 -0.004148 0.000000 -0.001897 0.000000
# 2 -0.000954 0.013387 -0.002139 0.000000 -0.003458 0.000000
# 3 -0.004148 -0.002139 0.011682 0.000000 0.003512 0.000000
# 4 0.000000 0.000000 0.000000 0.027785 0.000000 0.000009
# 5 -0.001897 -0.003458 0.003512 0.000000 0.034255 0.000000
# 6 0.000000 0.000000 0.000000 0.000009 0.000000 0.028506
#
#
# Mechanical properties :
#
#
# Convention : Reuss Voigt Hill
#
# Bulk Modulus (GPa) = 46.60809 49.20057 47.90433
# Shear Modulus (GPa) = 33.75778 35.14060 34.44919
#
# Velocity S-wave (km/s) = 4.02532 4.10694 4.06634
# Velocity P-wave (km/s) = 6.63140 6.79005 6.71120
#
# Compressibility (1/GPa) = 0.02145550
#
# Stress axis : x y z
#
# Youngs Moduli (GPa) = 92.02260 74.69755 85.60240
#
# Poissons Ratio (x) = 0.07126 0.35505
# Poissons Ratio (y) = 0.08779 0.18308
# Poissons Ratio (z) = 0.38167 0.15975
#
# Static dielectric constant tensor:
#      x y z
#    x 4.053720 0.000000 -0.454620 
#    y 0.000000 3.750680 0.000000 
#    z -0.454620 0.000000 4.545460 
# 
# 
# High freq. dielectric constant tensor:
#      x y z
#    x 1.816170 0.000000 -0.004780 
#    y 0.000000 1.828420 0.000000 
#    z -0.004780 0.000000 1.816780 
# 
# From -- ./inp_files/187181.got.cif
#   From: 2010.06.25/outbox.cif.g09.slc.cpg/sg12_94_cif.got.tgz:187181.got - 2010.06.28 00:19:55.
