data_PCOD8100772
_publ_section_title
;
Structure prediction by ZEFSAII (Michael W. Deem and Ramdas Pophale) SiO2 
 PCOD8100772
Probable space group: C 2/M
;
_chemical_formula_sum "Si O2"
_cell_formula_units_Z 56
_cell_length_a 15.111617
_cell_length_b 17.370113
_cell_length_c 11.764471
_cell_angle_alpha 90.000000
_cell_angle_beta 70.025082
_cell_angle_gamma 90.000000
_cell_volume 2902.290979
_symmetry_space_group_name_H-M "C 2/M"
_symmetry_group_IT_number 12
_symmetry_cell_setting 'monoclinic'
loop_
_space_group_symop_operation_xyz
x,y,z
-x,y,-z
-x,-y,-z
x,-y,z
1/2+x,1/2+y,z
1/2-x,1/2+y,-z
1/2-x,1/2-y,-z
1/2+x,1/2-y,z
loop_
_atom_site_type_symbol
_atom_site_label
_atom_site_fract_x
_atom_site_fract_y
_atom_site_fract_z
Si Si1 0.235734 0.339079 0.338619
Si Si2 0.109420 0.911212 0.350839
Si Si3 0.399730 0.181413 0.392012
Si Si4 0.786524 0.324281 0.223084
Si Si5 0.398036 0.086472 0.994594
Si Si6 0.083892 0.855488 0.611982
Si Si7 0.578109 0.911789 0.272192
O O1 0.171580 0.312205 0.471806
O O2 0.263239 0.266209 0.247294
O O3 0.329296 0.381949 0.345626
O O4 0.177070 0.400023 0.292157
O O5 0.192728 0.873737 0.243367
O O6 0.108404 0.865521 0.469446
O O7 0.012144 0.902527 0.322096
O O8 0.128768 0.000000 0.367490
O O9 0.344021 0.146589 0.308463
O O10 0.436098 0.266814 0.350746
O O11 0.493097 0.131730 0.373920
O O12 0.844534 0.345538 0.084920
O O13 0.350607 0.000000 0.020668
O O14 0.500000 0.077788 0.000000
O O15 0.407159 0.117163 0.862249
O O16 0.549126 0.000000 0.287783
#
# Coordination Sequence:
#
# PCOD8100772 Si02
#       7
#     8   8   8   8   8   8   8
#     4  11  22  38  58  84 123 157 188 236 295 362
#     4  11  21  33  55  85 112 151 197 235 281 336
#     4  11  20  37  60  84 119 154 187 236 301 355
#     4  11  20  38  63  88 113 153 200 241 294 342
#     4  10  21  40  61  86 120 151 195 253 290 335
#     4  10  20  36  52  80 116 154 188 232 285 342
#     4  11  25  39  58  88 119 160 197 235 300 356
#
# _framework density 19.295102
#
# number of rings (size 3 to 8) (size 9 to 14) (size 15 to 20)
#    0.000    1.286    4.286    3.429    2.000    3.429 
#    0.000    0.000    0.000    0.000    0.000    3.000 
#    0.000    0.000    0.000    0.000    0.000    0.000 
#
# Total GULP energy -347120.509450 kJ/mol
# GULP energy per Si atom -12397.161052 kJ/mol
# Density = 1.925119 g / cm^3
# Si number density = 19.295102 Si / 1000 Ang^3
#
#
#
# Elastic Constant Matrix: (Units=GPa)
#
#
# Indices 1 2 3 4 5 6 
#
# 1 111.4433 14.4109 10.2250 0.0000 5.2078 0.0000
# 2 14.4109 49.3447 16.9142 0.0000 -7.4604 0.0000
# 3 10.2250 16.9142 53.1687 0.0000 -6.0308 0.0000
# 4 0.0000 0.0000 0.0000 34.2161 0.0000 1.9036
# 5 5.2078 -7.4604 -6.0308 0.0000 27.3076 0.0000
# 6 0.0000 0.0000 0.0000 1.9036 0.0000 23.5031
#
#
#
# Elastic Compliance Matrix: (Units=1/GPa)
#
#
# Indices 1 2 3 4 5 6 
#
# 1 0.009586 -0.002795 -0.001280 0.000000 -0.002875 0.000000
# 2 -0.002795 0.024174 -0.006506 0.000000 0.005701 0.000000
# 3 -0.001280 -0.006506 0.021488 0.000000 0.003212 0.000000
# 4 0.000000 0.000000 0.000000 0.029358 0.000000 -0.002378
# 5 -0.002875 0.005701 0.003212 0.000000 0.039435 0.000000
# 6 0.000000 0.000000 0.000000 -0.002378 0.000000 0.042740
#
#
# Mechanical properties :
#
#
# Convention : Reuss Voigt Hill
#
# Bulk Modulus (GPa) = 29.33838 33.00632 31.17235
# Shear Modulus (GPa) = 25.08686 28.49915 26.79300
#
# Velocity S-wave (km/s) = 3.60969 3.84736 3.73042
# Velocity P-wave (km/s) = 5.71063 6.07285 5.89452
#
# Compressibility (1/GPa) = 0.03408505
#
# Stress axis : x y z
#
# Youngs Moduli (GPa) = 104.31372 41.36677 46.53678
#
# Poissons Ratio (x) = 0.11564 0.05958
# Poissons Ratio (y) = 0.29160 0.30277
# Poissons Ratio (z) = 0.13356 0.26914
#
# Static dielectric constant tensor:
#      x y z
#    x 4.636730 0.000000 -1.872660 
#    y 0.000000 3.371410 0.000000 
#    z -1.872660 0.000000 7.768480 
# 
# 
# High freq. dielectric constant tensor:
#      x y z
#    x 1.766130 0.000000 -0.002490 
#    y 0.000000 1.741990 0.000000 
#    z -0.002490 0.000000 1.723080 
# 
# From -- ./inp_files/145470.got.cif
#   From: 2010.06.25/outbox.cif.g09.slc.cpg/sg12_73_cif.got.tgz:145470.got - 2010.06.28 00:19:55.
