data_PCOD8100569
_publ_section_title
;
Structure prediction by ZEFSAII (Michael W. Deem and Ramdas Pophale) SiO2 
 PCOD8100569
Probable space group: C 2/M
;
_chemical_formula_sum "Si O2"
_cell_formula_units_Z 48
_cell_length_a 12.254689
_cell_length_b 19.655173
_cell_length_c 14.622460
_cell_angle_alpha 90.000000
_cell_angle_beta 138.194573
_cell_angle_gamma 90.000000
_cell_volume 2347.831481
_symmetry_space_group_name_H-M "C 2/M"
_symmetry_group_IT_number 12
_symmetry_cell_setting 'monoclinic'
loop_
_space_group_symop_operation_xyz
x,y,z
-x,y,-z
-x,-y,-z
x,-y,z
1/2+x,1/2+y,z
1/2-x,1/2+y,-z
1/2-x,1/2-y,-z
1/2+x,1/2-y,z
loop_
_atom_site_type_symbol
_atom_site_label
_atom_site_fract_x
_atom_site_fract_y
_atom_site_fract_z
Si Si1 0.868726 0.079792 0.988890
Si Si2 0.605694 0.578148 0.790727
Si Si3 0.680791 0.751361 0.597721
Si Si4 0.133017 0.336455 0.156236
Si Si5 0.213104 0.860824 0.472790
Si Si6 0.501634 0.920710 0.243961
O O1 0.683855 0.095511 0.840255
O O2 0.902723 0.000000 0.015159
O O3 0.893698 0.109599 0.106564
O O4 0.000000 0.112671 0.000000
O O5 0.660421 0.500000 0.826612
O O6 0.732589 0.616894 0.806864
O O7 0.425262 0.583860 0.634834
O O8 0.500000 0.780522 0.500000
O O9 0.779103 0.731824 0.751102
O O10 0.779211 0.809952 0.607830
O O11 0.661903 0.681838 0.529246
O O12 0.042592 0.378541 0.178923
O O13 0.000000 0.311603 0.000000
O O14 0.383243 0.899474 0.599238
O O15 0.523859 0.000000 0.234677
#
# Coordination Sequence:
#
# PCOD8100569 Si02
#       6
#     8   8   8   8   8   8
#     4   9  19  35  54  82 124 162 193 237 297 370
#     4  11  21  36  62  95 128 156 195 253 317 375
#     4  10  21  41  60  80 120 164 208 253 295 348
#     4  11  21  37  62  96 125 157 199 256 313 369
#     4  10  22  38  58  87 118 163 205 247 299 361
#     4  10  20  35  59  91 125 158 197 249 311 372
#
# _framework density 20.444396999999999
#
# number of rings (size 3 to 8) (size 9 to 14) (size 15 to 20)
#    0.000    1.833    3.333    1.000    0.000    2.000 
#    0.000    5.833    0.000    5.000    0.000    0.000 
#    0.000    0.000    0.000    0.000    0.000    0.000 
#
# Total GULP energy -297619.487568 kJ/mol
# GULP energy per Si atom -12400.811982 kJ/mol
# Density = 2.039786 g / cm^3
# Si number density = 20.444397 Si / 1000 Ang^3
#
#
#
# Elastic Constant Matrix: (Units=GPa)
#
#
# Indices 1 2 3 4 5 6 
#
# 1 115.5290 18.0911 45.8394 -0.0001 7.5940 0.0000
# 2 18.0911 34.8549 28.2071 0.0000 -5.9369 0.0000
# 3 45.8394 28.2071 158.7164 0.0001 7.8100 -0.0002
# 4 -0.0001 0.0000 0.0001 13.8319 0.0001 0.0611
# 5 7.5940 -5.9369 7.8100 0.0001 29.5992 -0.0002
# 6 0.0000 0.0000 -0.0002 0.0611 -0.0002 7.0418
#
#
#
# Elastic Compliance Matrix: (Units=1/GPa)
#
#
# Indices 1 2 3 4 5 6 
#
# 1 0.010334 -0.004163 -0.002100 0.000000 -0.002932 0.000000
# 2 -0.004163 0.037385 -0.005940 0.000000 0.010134 0.000000
# 3 -0.002100 -0.005940 0.008100 0.000000 -0.002790 0.000000
# 4 0.000000 0.000000 0.000000 0.072300 0.000000 -0.000627
# 5 -0.002932 0.010134 -0.002790 0.000000 0.037306 0.000001
# 6 0.000000 0.000000 0.000000 -0.000627 0.000001 0.142014
#
#
# Mechanical properties :
#
#
# Convention : Reuss Voigt Hill
#
# Bulk Modulus (GPa) = 31.83617 54.81950 43.32784
# Shear Modulus (GPa) = 14.60636 24.55875 19.58255
#
# Velocity S-wave (km/s) = 2.67581 3.46966 3.09826
# Velocity P-wave (km/s) = 5.01522 6.55161 5.83421
#
# Compressibility (1/GPa) = 0.03141081
#
# Stress axis : x y z
#
# Youngs Moduli (GPa) = 96.76874 26.74886 123.45449
#
# Poissons Ratio (x) = 0.11137 0.25930
# Poissons Ratio (y) = 0.40288 0.73335
# Poissons Ratio (z) = 0.20325 0.15890
#
# Static dielectric constant tensor:
#      x y z
#    x 3.810990 0.000000 -0.014770 
#    y 0.000000 3.380750 0.000000 
#    z -0.014770 0.000000 3.933550 
# 
# 
# High freq. dielectric constant tensor:
#      x y z
#    x 1.801120 0.000000 0.005330 
#    y 0.000000 1.773810 0.000000 
#    z 0.005330 0.000000 1.812880 
# 
# From -- ./inp_files/50723.got.cif
#   From: 2010.06.25/outbox.cif.g09.slc.cpg/sg12_26_cif.got.tgz:50723.got - 2010.06.28 00:19:55.
