data_PCOD8100166
_publ_section_title
;
Structure prediction by ZEFSAII (Michael W. Deem and Ramdas Pophale) SiO2 
 PCOD8100166
Probable space group: C 2/M
;
_chemical_formula_sum "Si O2"
_cell_formula_units_Z 48
_cell_length_a 18.747681
_cell_length_b 8.985993
_cell_length_c 14.962139
_cell_angle_alpha 90.000000
_cell_angle_beta 89.852436
_cell_angle_gamma 90.000000
_cell_volume 2520.611282
_symmetry_space_group_name_H-M "C 2/M"
_symmetry_group_IT_number 12
_symmetry_cell_setting 'monoclinic'
loop_
_space_group_symop_operation_xyz
x,y,z
-x,y,-z
-x,-y,-z
x,-y,z
1/2+x,1/2+y,z
1/2-x,1/2+y,-z
1/2-x,1/2-y,-z
1/2+x,1/2-y,z
loop_
_atom_site_type_symbol
_atom_site_label
_atom_site_fract_x
_atom_site_fract_y
_atom_site_fract_z
Si Si1 0.671072 0.828125 0.091298
Si Si2 0.821269 0.826551 0.392943
Si Si3 0.175419 0.826845 0.400234
Si Si4 0.081216 0.327311 0.262911
Si Si5 0.664075 0.327638 0.909184
Si Si6 0.084205 0.673776 0.750482
O O1 0.624679 0.776955 0.175544
O O2 0.753423 0.799479 0.114670
O O3 0.657623 0.000000 0.066496
O O4 0.646379 0.728098 0.008549
O O5 0.838632 0.793525 0.495880
O O6 0.745555 0.757573 0.365317
O O7 0.883797 0.753575 0.335994
O O8 0.817740 0.000000 0.370783
O O9 0.107140 0.767786 0.347298
O O10 0.186854 0.000000 0.382176
O O11 0.094406 0.500000 0.284033
O O12 0.999187 0.291122 0.246647
O O13 0.643719 0.500000 0.901671
O O14 0.617196 0.234693 0.841108
O O15 0.100347 0.500000 0.743227
#
# Coordination Sequence:
#
# PCOD8100166 Si02
#       6
#     8   8   8   8   8   8
#     4   9  19  37  58  79 106 142 183 227 277 332
#     4  10  21  38  59  83 112 145 183 229 279 329
#     4  10  21  37  60  86 110 142 185 231 276 327
#     4  10  22  38  56  80 113 152 188 226 275 329
#     4  10  20  35  58  84 108 140 183 233 283 329
#     4  11  23  37  55  81 113 150 189 228 274 329
#
# _framework density 19.042999999999999
#
# number of rings (size 3 to 8) (size 9 to 14) (size 15 to 20)
#    0.000    2.000    0.000    3.000    0.000    7.333 
#    0.000    6.667    0.000    0.000    0.000    0.000 
#    0.000    0.000    0.000    0.000    0.000    0.000 
#
# Total GULP energy -297753.671489 kJ/mol
# GULP energy per Si atom -12406.402979 kJ/mol
# Density = 1.899966 g / cm^3
# Si number density = 19.043000 Si / 1000 Ang^3
#
#
#
# Elastic Constant Matrix: (Units=GPa)
#
#
# Indices 1 2 3 4 5 6 
#
# 1 103.3573 57.4602 67.0691 0.0000 8.7864 0.0000
# 2 57.4602 95.3324 58.3049 0.0000 6.1395 0.0000
# 3 67.0691 58.3049 102.5911 0.0000 10.9427 0.0000
# 4 0.0000 0.0000 0.0000 34.6676 0.0000 1.9005
# 5 8.7864 6.1395 10.9427 0.0000 14.3926 0.0000
# 6 0.0000 0.0000 0.0000 1.9005 0.0000 32.5398
#
#
#
# Elastic Compliance Matrix: (Units=1/GPa)
#
#
# Indices 1 2 3 4 5 6 
#
# 1 0.018766 -0.005839 -0.008699 0.000000 -0.002352 0.000000
# 2 -0.005839 0.017895 -0.006441 0.000000 0.000828 0.000000
# 3 -0.008699 -0.006441 0.019845 0.000000 -0.007030 0.000000
# 4 0.000000 0.000000 0.000000 0.028938 0.000000 -0.001690
# 5 -0.002352 0.000828 -0.007030 0.000000 0.075907 0.000000
# 6 0.000000 0.000000 0.000000 -0.001690 0.000000 0.030830
#
#
# Mechanical properties :
#
#
# Convention : Reuss Voigt Hill
#
# Bulk Modulus (GPa) = 68.74086 74.10547 71.42316
# Shear Modulus (GPa) = 20.92136 24.21643 22.56889
#
# Velocity S-wave (km/s) = 3.31817 3.56992 3.44634
# Velocity P-wave (km/s) = 7.13137 7.48276 7.30918
#
# Compressibility (1/GPa) = 0.01454739
#
# Stress axis : x y z
#
# Youngs Moduli (GPa) = 53.28731 55.88079 50.39080
#
# Poissons Ratio (x) = 0.32631 0.43835
# Poissons Ratio (y) = 0.31116 0.32458
# Poissons Ratio (z) = 0.46354 0.35994
#
# Static dielectric constant tensor:
#      x y z
#    x 3.436260 0.000000 -0.044880 
#    y 0.000000 3.555430 0.000000 
#    z -0.044880 0.000000 3.513330 
# 
# 
# High freq. dielectric constant tensor:
#      x y z
#    x 1.736310 0.000000 0.000440 
#    y 0.000000 1.749600 0.000000 
#    z 0.000440 0.000000 1.750020 
# 
# From -- ./inp_files/221588.got.cif
#   From: 2010.06.25/outbox.cif.g09.slc.cpg/sg12_111_cif.got.tgz:221588.got - 2010.06.28 00:19:55.
