data_PCOD8100386
_publ_section_title
;
Structure prediction by ZEFSAII (Michael W. Deem and Ramdas Pophale) SiO2 
 PCOD8100386
Probable space group: C 2/M
;
_chemical_formula_sum "Si O2"
_cell_formula_units_Z 56
_cell_length_a 20.241156
_cell_length_b 8.621814
_cell_length_c 17.379748
_cell_angle_alpha 90.000000
_cell_angle_beta 108.371321
_cell_angle_gamma 90.000000
_cell_volume 2878.453098
_symmetry_space_group_name_H-M "C 2/M"
_symmetry_group_IT_number 12
_symmetry_cell_setting 'monoclinic'
loop_
_space_group_symop_operation_xyz
x,y,z
-x,y,-z
-x,-y,-z
x,-y,z
1/2+x,1/2+y,z
1/2-x,1/2+y,-z
1/2-x,1/2-y,-z
1/2+x,1/2-y,z
loop_
_atom_site_type_symbol
_atom_site_label
_atom_site_fract_x
_atom_site_fract_y
_atom_site_fract_z
Si Si1 0.577448 0.820714 0.243461
Si Si2 0.822974 0.819794 0.269355
Si Si3 0.083397 0.679003 0.821350
Si Si4 0.819897 0.181087 0.838826
Si Si5 0.822885 0.681819 0.000222
Si Si6 0.809853 0.680118 0.425861
Si Si7 0.347475 0.320065 0.593739
O O1 0.497355 0.781814 0.199407
O O2 0.622215 0.714302 0.203427
O O3 0.596399 0.779010 0.338222
O O4 0.594043 0.000000 0.233147
O O5 0.885529 0.785222 0.234196
O O6 0.750966 0.770753 0.204326
O O7 0.838120 0.727247 0.353155
O O8 0.820422 0.000000 0.288255
O O9 0.096038 0.500000 0.803783
O O10 0.119153 0.719543 0.915203
O O11 0.848436 0.235898 0.931715
O O12 0.802564 0.000000 0.833142
O O13 0.814610 0.500000 0.982556
O O14 0.750000 0.750000 0.000000
O O15 0.822555 0.500000 0.445514
O O16 0.728332 0.721854 0.400324
O O17 0.852248 0.773866 0.506102
O O18 0.364864 0.500000 0.609364
#
# Coordination Sequence:
#
# PCOD8100386 Si02
#       7
#     8   8   8   8   8   8   8
#     4  11  23  41  63  89 122 163 203 245 303 365
#     4  12  23  37  62  92 121 157 204 252 299 359
#     4  10  24  43  63  87 123 162 199 247 307 367
#     4  12  24  39  61  89 123 160 202 253 301 355
#     4  11  22  39  63  91 121 157 202 254 304 357
#     4  10  20  35  59  89 123 158 198 248 299 353
#     4  10  20  35  58  89 124 159 197 248 300 352
#
# _framework density 19.454893999999999
#
# number of rings (size 3 to 8) (size 9 to 14) (size 15 to 20)
#    0.000    1.143    2.857    4.286    0.000    3.429 
#    0.000    3.571    0.000    4.286    0.000    0.000 
#    0.000    0.000    0.000    0.000    0.000    0.000 
#
# Total GULP energy -347410.237037 kJ/mol
# GULP energy per Si atom -12407.508466 kJ/mol
# Density = 1.941061 g / cm^3
# Si number density = 19.454894 Si / 1000 Ang^3
#
#
#
# Elastic Constant Matrix: (Units=GPa)
#
#
# Indices 1 2 3 4 5 6 
#
# 1 57.3280 20.7683 33.6737 0.0000 6.1601 0.0000
# 2 20.7683 60.8244 20.3693 0.0000 4.1815 0.0000
# 3 33.6737 20.3693 119.1930 0.0000 -0.5595 0.0000
# 4 0.0000 0.0000 0.0000 36.8325 0.0000 -5.5843
# 5 6.1601 4.1815 -0.5595 0.0000 32.4309 0.0000
# 6 0.0000 0.0000 0.0000 -5.5843 0.0000 29.1903
#
#
#
# Elastic Compliance Matrix: (Units=1/GPa)
#
#
# Indices 1 2 3 4 5 6 
#
# 1 0.023233 -0.005802 -0.005590 0.000000 -0.003761 0.000000
# 2 -0.005802 0.019061 -0.001625 0.000000 -0.001384 0.000000
# 3 -0.005590 -0.001625 0.010253 0.000000 0.001448 0.000000
# 4 0.000000 0.000000 0.000000 0.027961 0.000000 0.005349
# 5 -0.003761 -0.001384 0.001448 0.000000 0.031753 0.000000
# 6 0.000000 0.000000 0.000000 0.005349 0.000000 0.035281
#
#
# Mechanical properties :
#
#
# Convention : Reuss Voigt Hill
#
# Bulk Modulus (GPa) = 37.71585 42.99646 40.35615
# Shear Modulus (GPa) = 27.41020 30.52635 28.96827
#
# Velocity S-wave (km/s) = 3.75762 3.96546 3.86294
# Velocity P-wave (km/s) = 6.18503 6.56621 6.37847
#
# Compressibility (1/GPa) = 0.02651405
#
# Stress axis : x y z
#
# Youngs Moduli (GPa) = 43.04218 52.46268 97.52883
#
# Poissons Ratio (x) = 0.30441 0.54516
# Poissons Ratio (y) = 0.24975 0.15845
# Poissons Ratio (z) = 0.24059 0.08523
#
# Static dielectric constant tensor:
#      x y z
#    x 3.366670 0.000000 -0.001300 
#    y 0.000000 3.640540 0.000000 
#    z -0.001300 0.000000 3.855160 
# 
# 
# High freq. dielectric constant tensor:
#      x y z
#    x 1.735170 0.000000 -0.006910 
#    y 0.000000 1.769800 0.000000 
#    z -0.006910 0.000000 1.773560 
# 
# From -- ./inp_files/275595.got.cif
#   From: 2010.06.25/outbox.cif.g09.slc.cpg/sg12_138_cif.got.tgz:275595.got - 2010.06.28 00:19:55.
