data_PCOD8100822
_publ_section_title
;
Structure prediction by ZEFSAII (Michael W. Deem and Ramdas Pophale) SiO2 
 PCOD8100822
Probable space group: C 2/M
;
_chemical_formula_sum "Si O2"
_cell_formula_units_Z 64
_cell_length_a 27.143775
_cell_length_b 13.776022
_cell_length_c 9.224832
_cell_angle_alpha 90.000000
_cell_angle_beta 99.850093
_cell_angle_gamma 90.000000
_cell_volume 3398.621675
_symmetry_space_group_name_H-M "C 2/M"
_symmetry_group_IT_number 12
_symmetry_cell_setting 'monoclinic'
loop_
_space_group_symop_operation_xyz
x,y,z
-x,y,-z
-x,-y,-z
x,-y,z
1/2+x,1/2+y,z
1/2-x,1/2+y,-z
1/2-x,1/2-y,-z
1/2+x,1/2-y,z
loop_
_atom_site_type_symbol
_atom_site_label
_atom_site_fract_x
_atom_site_fract_y
_atom_site_fract_z
Si Si1 0.375765 0.108576 0.655373
Si Si2 0.554087 0.110186 0.582322
Si Si3 0.869030 0.810561 0.764819
Si Si4 0.836845 0.116317 0.436034
Si Si5 0.945368 0.888836 0.007593
Si Si6 0.302966 0.771480 0.958836
Si Si7 0.770892 0.608119 0.689046
Si Si8 0.110370 0.236264 0.785204
O O1 0.404763 0.117783 0.521328
O O2 0.390762 0.199115 0.766115
O O3 0.315767 0.121280 0.594359
O O4 0.385529 0.000000 0.728794
O O5 0.500000 0.146677 0.500000
O O6 0.572999 0.178168 0.720274
O O7 0.549243 0.000000 0.637757
O O8 0.851759 0.852344 0.604050
O O9 0.822627 0.811785 0.856260
O O10 0.912810 0.878713 0.845379
O O11 0.780755 0.160379 0.382399
O O12 0.872754 0.169533 0.340186
O O13 0.842274 0.000000 0.422169
O O14 0.921169 0.830412 0.125113
O O15 0.948443 0.000000 0.057624
O O16 0.000000 0.847143 0.000000
O O17 0.294148 0.866588 0.857526
O O18 0.250000 0.750000 0.000000
O O19 0.342851 0.785267 0.107873
O O20 0.752158 0.500000 0.691675
#
# Coordination Sequence:
#
# PCOD8100822 Si02
#       8
#     8   8   8   8   8   8   8   8
#     4   9  18  35  58  83 112 148 188 235 293 343
#     4  10  22  39  60  87 119 150 192 252 306 346
#     4  10  21  36  58  85 113 152 192 240 287 342
#     4  11  21  35  57  88 118 149 193 240 288 347
#     4  10  23  42  60  81 116 157 194 237 291 346
#     4  10  20  36  54  82 117 155 191 228 285 350
#     4   9  19  34  55  81 115 152 188 234 286 344
#     4  11  22  37  62  87 116 155 196 241 294 355
#
# _framework density 18.831163
#
# number of rings (size 3 to 8) (size 9 to 14) (size 15 to 20)
#    0.000    2.000    2.500    0.750    1.750    3.500 
#    0.000    2.500    0.000    3.750    0.000    0.000 
#    0.000    0.000    0.000    0.000    0.000    0.000 
#
# Total GULP energy -396491.307124 kJ/mol
# GULP energy per Si atom -12390.353348 kJ/mol
# Density = 1.878830 g / cm^3
# Si number density = 18.831163 Si / 1000 Ang^3
#
#
#
# Elastic Constant Matrix: (Units=GPa)
#
#
# Indices 1 2 3 4 5 6 
#
# 1 128.2960 40.5747 65.0741 0.0000 12.3340 0.0000
# 2 40.5747 66.0588 33.7223 0.0000 8.4859 0.0000
# 3 65.0741 33.7223 119.7376 0.0000 13.9199 0.0000
# 4 0.0000 0.0000 0.0000 27.1047 0.0000 4.5953
# 5 12.3340 8.4859 13.9199 0.0000 25.7583 0.0000
# 6 0.0000 0.0000 0.0000 4.5953 0.0000 22.0724
#
#
#
# Elastic Compliance Matrix: (Units=1/GPa)
#
#
# Indices 1 2 3 4 5 6 
#
# 1 0.011932 -0.004573 -0.005023 0.000000 -0.001492 0.000000
# 2 -0.004573 0.019706 -0.002737 0.000000 -0.002824 0.000000
# 3 -0.005023 -0.002737 0.012237 0.000000 -0.003306 0.000000
# 4 0.000000 0.000000 0.000000 0.038244 0.000000 -0.007962
# 5 -0.001492 -0.002824 -0.003306 0.000000 0.042254 0.000000
# 6 0.000000 0.000000 0.000000 -0.007962 0.000000 0.046963
#
#
# Mechanical properties :
#
#
# Convention : Reuss Voigt Hill
#
# Bulk Modulus (GPa) = 52.05714 65.87052 58.96383
# Shear Modulus (GPa) = 24.70294 26.63516 25.66905
#
# Velocity S-wave (km/s) = 3.62582 3.76496 3.69604
# Velocity P-wave (km/s) = 6.72554 7.34543 7.04231
#
# Compressibility (1/GPa) = 0.01920966
#
# Stress axis : x y z
#
# Youngs Moduli (GPa) = 83.80740 50.74473 81.72134
#
# Poissons Ratio (x) = 0.23205 0.41052
# Poissons Ratio (y) = 0.38324 0.22364
# Poissons Ratio (z) = 0.42100 0.13887
#
# Static dielectric constant tensor:
#      x y z
#    x 3.714760 0.000000 -0.015400 
#    y 0.000000 3.649450 0.000000 
#    z -0.015400 0.000000 3.522010 
# 
# 
# High freq. dielectric constant tensor:
#      x y z
#    x 1.746100 0.000000 -0.007740 
#    y 0.000000 1.729110 0.000000 
#    z -0.007740 0.000000 1.718840 
# 
# From -- ./inp_files/104607.got.cif
#   From: 2010.06.25/outbox.cif.g09.slc.cpg/sg12_53_cif.got.tgz:104607.got - 2010.06.28 00:19:55.
