data_PCOD8100270
_publ_section_title
;
Structure prediction by ZEFSAII (Michael W. Deem and Ramdas Pophale) SiO2 
 PCOD8100270
Probable space group: C 2/M
;
_chemical_formula_sum "Si O2"
_cell_formula_units_Z 56
_cell_length_a 27.972884
_cell_length_b 8.777058
_cell_length_c 17.504281
_cell_angle_alpha 90.000000
_cell_angle_beta 39.774322
_cell_angle_gamma 90.000000
_cell_volume 2749.483903
_symmetry_space_group_name_H-M "C 2/M"
_symmetry_group_IT_number 12
_symmetry_cell_setting 'monoclinic'
loop_
_space_group_symop_operation_xyz
x,y,z
-x,y,-z
-x,-y,-z
x,-y,z
1/2+x,1/2+y,z
1/2-x,1/2+y,-z
1/2-x,1/2-y,-z
1/2+x,1/2-y,z
loop_
_atom_site_type_symbol
_atom_site_label
_atom_site_fract_x
_atom_site_fract_y
_atom_site_fract_z
Si Si1 0.915204 0.180617 0.120890
Si Si2 0.169205 0.818751 0.620403
Si Si3 0.687284 0.677508 0.192806
Si Si4 0.068298 0.819316 0.605784
Si Si5 0.668396 0.673688 0.927753
Si Si6 0.592412 0.672379 0.172424
Si Si7 0.423034 0.177228 0.559876
O O1 0.872083 0.239919 0.250451
O O2 0.862300 0.231743 0.115573
O O3 0.921885 0.000000 0.116905
O O4 0.000000 0.244973 0.000000
O O5 0.250000 0.750000 0.500000
O O6 0.116296 0.759813 0.617700
O O7 0.178007 0.000000 0.613255
O O8 0.671534 0.500000 0.228657
O O9 0.772316 0.711951 0.108336
O O10 0.663985 0.727736 0.134695
O O11 0.641052 0.790383 0.301958
O O12 0.103443 0.762658 0.483911
O O13 0.985259 0.743866 0.711989
O O14 0.067301 0.000000 0.609643
O O15 0.698930 0.500000 0.884262
O O16 0.601378 0.683320 0.070655
O O17 0.580093 0.500000 0.213033
O O18 0.500000 0.243613 0.500000
O O19 0.430378 0.000000 0.533049
#
# Coordination Sequence:
#
# PCOD8100270 Si02
#       7
#     8   8   8   8   8   8   8
#     4   9  18  36  62  88 113 148 199 249 290 340
#     4  10  22  38  59  88 119 154 194 245 298 347
#     4  11  22  36  55  81 117 155 188 228 282 348
#     4  10  20  37  60  83 112 154 197 234 281 344
#     4  10  20  35  58  86 115 148 189 239 284 334
#     4   9  18  34  57  83 112 150 193 232 276 336
#     4  11  23  38  57  84 114 147 189 240 290 341
#
# _framework density 20.367459
#
# number of rings (size 3 to 8) (size 9 to 14) (size 15 to 20)
#    0.000    2.000    1.429    2.143    2.000    4.571 
#    0.000    1.429    0.000    3.429    0.000    0.000 
#    0.000    0.000    0.000    0.000    0.000    0.000 
#
# Total GULP energy -346942.104354 kJ/mol
# GULP energy per Si atom -12390.789441 kJ/mol
# Density = 2.032110 g / cm^3
# Si number density = 20.367459 Si / 1000 Ang^3
#
#
#
# Elastic Constant Matrix: (Units=GPa)
#
#
# Indices 1 2 3 4 5 6 
#
# 1 169.8543 31.2081 58.2721 -0.0001 15.8432 0.0065
# 2 31.2081 20.3264 15.4461 -0.0085 -3.3842 0.0137
# 3 58.2721 15.4461 104.7728 -0.0090 5.0880 0.0130
# 4 -0.0001 -0.0085 -0.0090 7.1506 -0.0020 -16.1982
# 5 15.8432 -3.3842 5.0880 -0.0020 39.7261 -0.0039
# 6 0.0065 0.0137 0.0130 -16.1982 -0.0039 16.2652
#
#
#
# Elastic Compliance Matrix: (Units=1/GPa)
#
#
# Indices 1 2 3 4 5 6 
#
# 1 0.009949 -0.013543 -0.003309 0.000001 -0.004698 0.000010
# 2 -0.013543 0.075201 -0.004153 0.000024 0.012339 -0.000028
# 3 -0.003309 -0.004153 0.012025 0.000001 -0.000574 -0.000004
# 4 0.000001 0.000024 0.000001 -0.111347 -0.000015 -0.110888
# 5 -0.004698 0.012339 -0.000574 -0.000015 0.028171 -0.000016
# 6 0.000010 -0.000028 -0.000004 -0.110888 -0.000016 -0.048951
#
#
# Mechanical properties :
#
#
# Convention : Reuss Voigt Hill
#
# Bulk Modulus (GPa) = 18.12754 56.08959 37.10856
# Shear Modulus (GPa) = 196.48833 25.29685 110.89259
#
# Velocity S-wave (km/s) = 9.83266 3.52806 7.38676
# Velocity P-wave (km/s) = 11.74001 6.64792 9.53998
#
# Compressibility (1/GPa) = 0.05516468
#
# Stress axis : x y z
#
# Youngs Moduli (GPa) = 100.51213 13.29768 83.16091
#
# Poissons Ratio (x) = 0.18009 0.27515
# Poissons Ratio (y) = 1.36125 0.34540
# Poissons Ratio (z) = 0.33256 0.05523
#
# Static dielectric constant tensor:
#      x y z
#    x 4.095880 -0.000020 -0.094590 
#    y -0.000020 3.240040 0.000030 
#    z -0.094590 0.000030 3.905010 
# 
# 
# High freq. dielectric constant tensor:
#      x y z
#    x 1.811900 0.000000 0.004780 
#    y 0.000000 1.751090 0.000000 
#    z 0.004780 0.000000 1.803190 
# 
# From -- ./inp_files/288422.got.cif
#   From: 2010.06.25/outbox.cif.g09.slc.cpg/sg12_145_cif.got.tgz:288422.got - 2010.06.28 00:19:55.
