data_PCOD8100471
_publ_section_title
;
Structure prediction by ZEFSAII (Michael W. Deem and Ramdas Pophale) SiO2 
 PCOD8100471
Probable space group: C 2/M
;
_chemical_formula_sum "Si O2"
_cell_formula_units_Z 64
_cell_length_a 18.761992
_cell_length_b 9.134581
_cell_length_c 31.733532
_cell_angle_alpha 90.000000
_cell_angle_beta 37.613474
_cell_angle_gamma 90.000000
_cell_volume 3319.340090
_symmetry_space_group_name_H-M "C 2/M"
_symmetry_group_IT_number 12
_symmetry_cell_setting 'monoclinic'
loop_
_space_group_symop_operation_xyz
x,y,z
-x,y,-z
-x,-y,-z
x,-y,z
1/2+x,1/2+y,z
1/2-x,1/2+y,-z
1/2-x,1/2-y,-z
1/2+x,1/2-y,z
loop_
_atom_site_type_symbol
_atom_site_label
_atom_site_fract_x
_atom_site_fract_y
_atom_site_fract_z
Si Si1 0.356964 0.169334 0.301883
Si Si2 0.740113 0.169538 0.200398
Si Si3 0.718335 0.827142 0.971988
Si Si4 0.321583 0.671770 0.685494
Si Si5 0.624202 0.167984 0.168501
Si Si6 0.711058 0.671411 0.582347
Si Si7 0.586570 0.329878 0.554742
Si Si8 0.496184 0.663179 0.051469
O O1 0.268036 0.228986 0.308035
O O2 0.487632 0.191029 0.223289
O O3 0.342810 0.261416 0.350607
O O4 0.331888 0.000000 0.324123
O O5 0.705206 0.259080 0.257329
O O6 0.651563 0.208913 0.204061
O O7 0.869710 0.214573 0.125926
O O8 0.731992 0.000000 0.215794
O O9 0.803831 0.773565 0.895304
O O10 0.729684 0.000000 0.971160
O O11 0.750000 0.750000 0.000000
O O12 0.585286 0.785160 0.025318
O O13 0.308221 0.500000 0.697727
O O14 0.452364 0.714023 0.610309
O O15 0.662585 0.000000 0.141791
O O16 0.725663 0.500000 0.581916
O O17 0.623693 0.710050 0.585019
O O18 0.838429 0.738418 0.513786
O O19 0.608992 0.500000 0.535130
O O20 0.526362 0.500000 0.054927
O O21 0.500000 0.657124 0.000000
#
# Coordination Sequence:
#
# PCOD8100471 Si02
#       8
#     8   8   8   8   8   8   8   8
#     4  10  22  38  58  83 116 154 190 231 285 347
#     4  10  21  37  61  86 114 152 190 238 292 343
#     4  12  26  41  61  88 119 156 198 245 298 354
#     4  10  22  38  56  84 117 151 192 238 286 341
#     4  10  21  41  62  84 115 155 197 236 289 351
#     4  10  20  35  59  87 113 147 191 237 282 337
#     4   9  19  37  59  82 114 151 189 234 284 335
#     4  10  20  40  64  87 119 154 194 243 297 355
#
# _framework density 19.280940999999999
#
# number of rings (size 3 to 8) (size 9 to 14) (size 15 to 20)
#    0.000    1.875    1.250    2.250    1.750    3.750 
#    0.000    2.500    0.000    0.000    0.000    0.000 
#    0.000    0.000    0.000    0.000    0.000    0.000 
#
# Total GULP energy -396913.696928 kJ/mol
# GULP energy per Si atom -12403.553029 kJ/mol
# Density = 1.923706 g / cm^3
# Si number density = 19.280941 Si / 1000 Ang^3
#
#
#
# Elastic Constant Matrix: (Units=GPa)
#
#
# Indices 1 2 3 4 5 6 
#
# 1 101.6899 36.9088 31.6331 0.0038 -19.2151 0.0226
# 2 36.9088 79.7358 34.8904 0.0369 -3.6267 0.0111
# 3 31.6331 34.8904 61.6868 0.0016 -15.5025 0.0050
# 4 0.0038 0.0369 0.0016 40.1200 0.0001 2.2770
# 5 -19.2151 -3.6267 -15.5025 0.0001 32.0192 0.0053
# 6 0.0226 0.0111 0.0050 2.2770 0.0053 30.4894
#
#
#
# Elastic Compliance Matrix: (Units=1/GPa)
#
#
# Indices 1 2 3 4 5 6 
#
# 1 0.013618 -0.004860 -0.002640 0.000004 0.006343 -0.000009
# 2 -0.004860 0.018666 -0.009412 -0.000016 -0.005359 0.000001
# 3 -0.002640 -0.009412 0.025301 0.000008 0.009599 -0.000001
# 4 0.000004 -0.000016 0.000008 0.025031 0.000004 -0.001869
# 5 0.006343 -0.005359 0.009599 0.000004 0.039079 -0.000011
# 6 -0.000009 0.000001 -0.000001 -0.001869 -0.000011 0.032938
#
#
# Mechanical properties :
#
#
# Convention : Reuss Voigt Hill
#
# Bulk Modulus (GPa) = 42.08790 49.99744 46.04267
# Shear Modulus (GPa) = 25.46135 29.83774 27.64954
#
# Velocity S-wave (km/s) = 3.63787 3.93813 3.79097
# Velocity P-wave (km/s) = 6.28662 6.83124 6.56458
#
# Compressibility (1/GPa) = 0.02375980
#
# Stress axis : x y z
#
# Youngs Moduli (GPa) = 73.43449 53.57432 39.52429
#
# Poissons Ratio (x) = 0.26035 0.10436
# Poissons Ratio (y) = 0.35686 0.37201
# Poissons Ratio (z) = 0.19390 0.50425
#
# Static dielectric constant tensor:
#      x y z
#    x 3.595380 -0.000110 -0.050790 
#    y -0.000110 3.544890 0.000120 
#    z -0.050790 0.000120 3.437510 
# 
# 
# High freq. dielectric constant tensor:
#      x y z
#    x 1.756360 0.000000 -0.006850 
#    y 0.000000 1.743730 0.000000 
#    z -0.006850 0.000000 1.758680 
# 
# From -- ./inp_files/377983.got.cif
#   From: 2010.06.25/outbox.cif.g09.slc.cpg/sg12_189_cif.got.tgz:377983.got - 2010.06.28 00:19:55.
