data_PCOD8100639
_publ_section_title
;
Structure prediction by ZEFSAII (Michael W. Deem and Ramdas Pophale) SiO2 
 PCOD8100639
Probable space group: C 2/M
;
_chemical_formula_sum "Si O2"
_cell_formula_units_Z 48
_cell_length_a 22.036535
_cell_length_b 9.217833
_cell_length_c 12.257671
_cell_angle_alpha 90.000000
_cell_angle_beta 77.292983
_cell_angle_gamma 90.000000
_cell_volume 2428.906329
_symmetry_space_group_name_H-M "C 2/M"
_symmetry_group_IT_number 12
_symmetry_cell_setting 'monoclinic'
loop_
_space_group_symop_operation_xyz
x,y,z
-x,y,-z
-x,-y,-z
x,-y,z
1/2+x,1/2+y,z
1/2-x,1/2+y,-z
1/2-x,1/2-y,-z
1/2+x,1/2-y,z
loop_
_atom_site_type_symbol
_atom_site_label
_atom_site_fract_x
_atom_site_fract_y
_atom_site_fract_z
Si Si1 0.188265 0.327820 0.071047
Si Si2 0.491829 0.334692 0.622236
Si Si3 0.811755 0.166191 0.487559
Si Si4 0.427376 0.170642 0.038848
Si Si5 0.593521 0.668798 0.738190
Si Si6 0.148286 0.164909 0.292776
O O1 0.199558 0.500000 0.064207
O O2 0.183377 0.273187 0.197531
O O3 0.250000 0.250000 0.000000
O O4 0.122153 0.288099 0.037592
O O5 0.500000 0.258717 0.500000
O O6 0.516267 0.500000 0.597542
O O7 0.534743 0.262624 0.697285
O O8 0.424538 0.326661 0.701067
O O9 0.750000 0.250000 0.500000
O O10 0.849246 0.197397 0.363623
O O11 0.845194 0.218232 0.585068
O O12 0.795561 0.000000 0.506555
O O13 0.396266 0.242768 0.156187
O O14 0.428884 0.000000 0.054568
O O15 0.500000 0.226483 0.000000
O O16 0.585110 0.500000 0.771589
O O17 0.172578 0.000000 0.265098
#
# Coordination Sequence:
#
# PCOD8100639 Si02
#       6
#     8   8   8   8   8   8
#     4  11  25  43  63  87 118 157 202 249 298 352
#     4   9  15  30  57  87 117 147 182 230 286 342
#     4  10  22  37  55  84 119 154 192 236 288 345
#     4  10  23  43  63  85 119 160 198 243 300 355
#     4  10  20  35  60  91 117 147 192 240 287 345
#     4  10  20  37  62  88 117 151 191 239 294 350
#
# _framework density 19.761980999999999
#
# number of rings (size 3 to 8) (size 9 to 14) (size 15 to 20)
#    0.000    2.000    1.667    1.500    2.333    3.000 
#    0.000    0.000    0.000    1.000    0.000    0.000 
#    0.000    0.000    0.000    0.000    0.000    0.000 
#
# Total GULP energy -297413.490929 kJ/mol
# GULP energy per Si atom -12392.228789 kJ/mol
# Density = 1.971700 g / cm^3
# Si number density = 19.761981 Si / 1000 Ang^3
#
#
#
# Elastic Constant Matrix: (Units=GPa)
#
#
# Indices 1 2 3 4 5 6 
#
# 1 103.7618 39.1376 21.1201 0.0000 -5.8047 0.0000
# 2 39.1376 42.6277 49.5535 0.0000 -3.4603 0.0000
# 3 21.1201 49.5535 111.9895 0.0000 0.0372 0.0000
# 4 0.0000 0.0000 0.0000 34.0431 0.0000 -1.7277
# 5 -5.8047 -3.4603 0.0372 0.0000 25.2148 0.0000
# 6 0.0000 0.0000 0.0000 -1.7277 0.0000 28.0093
#
#
#
# Elastic Compliance Matrix: (Units=1/GPa)
#
#
# Indices 1 2 3 4 5 6 
#
# 1 0.017582 -0.025207 0.007838 0.000000 0.000577 0.000000
# 2 -0.025207 0.085589 -0.033120 0.000000 0.005992 0.000000
# 3 0.007838 -0.033120 0.022107 0.000000 -0.002774 0.000000
# 4 0.000000 0.000000 0.000000 0.029467 0.000000 0.001818
# 5 0.000577 0.005992 -0.002774 0.000000 0.040618 0.000000
# 6 0.000000 0.000000 0.000000 0.001818 0.000000 0.035814
#
#
# Mechanical properties :
#
#
# Convention : Reuss Voigt Hill
#
# Bulk Modulus (GPa) = 41.15174 53.11128 47.13151
# Shear Modulus (GPa) = 14.69477 27.35797 21.02637
#
# Velocity S-wave (km/s) = 2.72984 3.72475 3.26541
# Velocity P-wave (km/s) = 5.55022 6.74034 6.17402
#
# Compressibility (1/GPa) = 0.02430031
#
# Stress axis : x y z
#
# Youngs Moduli (GPa) = 56.87620 11.68369 45.23369
#
# Poissons Ratio (x) = 0.29451 -0.35452
# Poissons Ratio (y) = 1.43365 1.49815
# Poissons Ratio (z) = -0.44577 0.38697
#
# Static dielectric constant tensor:
#      x y z
#    x 3.723460 0.000000 0.086510 
#    y 0.000000 3.339120 0.000000 
#    z 0.086510 0.000000 3.649490 
# 
# 
# High freq. dielectric constant tensor:
#      x y z
#    x 1.782550 0.000000 0.002430 
#    y 0.000000 1.738700 0.000000 
#    z 0.002430 0.000000 1.781450 
# 
# From -- ./inp_files/172958.got.cif
#   From: 2010.06.25/outbox.cif.g09.slc.cpg/sg12_87_cif.got.tgz:172958.got - 2010.06.28 00:19:55.
