data_PCOD8100133
_publ_section_title
;
Structure prediction by ZEFSAII (Michael W. Deem and Ramdas Pophale) SiO2 
 PCOD8100133
Probable space group: C 2/M
;
_chemical_formula_sum "Si O2"
_cell_formula_units_Z 40
_cell_length_a 11.196481
_cell_length_b 20.520177
_cell_length_c 8.299953
_cell_angle_alpha 90.000000
_cell_angle_beta 96.155581
_cell_angle_gamma 90.000000
_cell_volume 1895.950809
_symmetry_space_group_name_H-M "C 2/M"
_symmetry_group_IT_number 12
_symmetry_cell_setting 'monoclinic'
loop_
_space_group_symop_operation_xyz
x,y,z
-x,y,-z
-x,-y,-z
x,-y,z
1/2+x,1/2+y,z
1/2-x,1/2+y,-z
1/2-x,1/2-y,-z
1/2+x,1/2-y,z
loop_
_atom_site_type_symbol
_atom_site_label
_atom_site_fract_x
_atom_site_fract_y
_atom_site_fract_z
Si Si1 0.000000 0.794587 0.500000
Si Si2 0.655560 0.638247 0.761051
Si Si3 0.095783 0.000000 0.782338
Si Si4 0.661443 0.757202 0.281230
Si Si5 0.240119 0.363608 0.886441
Si Si6 0.000000 0.683788 0.000000
Si Si7 0.164516 0.000000 0.161150
O O1 0.031542 0.835515 0.665806
O O2 0.113856 0.752476 0.457165
O O3 0.659513 0.562365 0.711801
O O4 0.764673 0.676106 0.695359
O O5 0.661586 0.646017 0.955659
O O6 0.950854 0.000000 0.736117
O O7 0.119704 0.000000 0.973930
O O8 0.742316 0.696399 0.233473
O O9 0.550214 0.768693 0.144989
O O10 0.105755 0.361487 0.941282
O O11 0.258344 0.433444 0.800017
#
# Coordination Sequence:
#
# PCOD8100133 Si02
#       7
#     4   8   4   8   8   4   4
#     4  12  22  33  54  79 110 144 178 224 268 311
#     4  10  21  35  55  80 108 141 179 221 266 318
#     4   9  18  35  54  77 107 141 175 220 270 309
#     4  11  21  36  56  81 109 141 181 222 266 317
#     4  10  20  36  56  81 109 141 180 219 265 318
#     4  10  20  35  58  79 106 142 178 224 266 313
#     4   9  18  31  54  82 109 136 173 220 266 318
#
# _framework density 21.097594999999998
#
# number of rings (size 3 to 8) (size 9 to 14) (size 15 to 20)
#    0.000    1.800    0.000    6.600    0.000    4.000 
#    0.000    2.000    0.000    0.600    0.000    0.000 
#    0.000    0.000    0.000    0.000    0.000    0.000 
#
# Total GULP energy -247888.623445 kJ/mol
# GULP energy per Si atom -12394.431172 kJ/mol
# Density = 2.104958 g / cm^3
# Si number density = 21.097595 Si / 1000 Ang^3
#
#
#
# Elastic Constant Matrix: (Units=GPa)
#
#
# Indices 1 2 3 4 5 6 
#
# 1 101.4110 74.9029 28.2525 0.0000 -19.2016 0.0000
# 2 74.9029 184.8913 40.9419 0.0000 -29.0340 0.0000
# 3 28.2525 40.9419 52.6828 0.0000 -12.8123 0.0000
# 4 0.0000 0.0000 0.0000 5.8132 0.0000 -3.1492
# 5 -19.2016 -29.0340 -12.8123 0.0000 32.6348 0.0000
# 6 0.0000 0.0000 0.0000 -3.1492 0.0000 33.2234
#
#
#
# Elastic Compliance Matrix: (Units=1/GPa)
#
#
# Indices 1 2 3 4 5 6 
#
# 1 0.014985 -0.004789 -0.003545 0.000000 0.003165 0.000000
# 2 -0.004789 0.008635 -0.003272 0.000000 0.003580 0.000000
# 3 -0.003545 -0.003272 0.024555 0.000000 0.004643 0.000000
# 4 0.000000 0.000000 0.000000 0.181332 0.000000 0.017188
# 5 0.003165 0.003580 0.004643 0.000000 0.037512 0.000000
# 6 0.000000 0.000000 0.000000 0.017188 0.000000 0.031729
#
#
# Mechanical properties :
#
#
# Convention : Reuss Voigt Hill
#
# Bulk Modulus (GPa) = 40.05843 69.68661 54.87252
# Shear Modulus (GPa) = 15.13868 27.32681 21.23274
#
# Velocity S-wave (km/s) = 2.68163 3.60287 3.17583
# Velocity P-wave (km/s) = 5.34945 7.09999 6.28596
#
# Compressibility (1/GPa) = 0.02496354
#
# Stress axis : x y z
#
# Youngs Moduli (GPa) = 66.73552 115.80302 40.72548
#
# Poissons Ratio (x) = 0.55454 0.14436
# Poissons Ratio (y) = 0.31957 0.13326
# Poissons Ratio (z) = 0.23656 0.37892
#
# Static dielectric constant tensor:
#      x y z
#    x 3.768910 0.000000 0.127420 
#    y 0.000000 4.072470 0.000000 
#    z 0.127420 0.000000 3.622660 
# 
# 
# High freq. dielectric constant tensor:
#      x y z
#    x 1.820630 0.000000 0.003470 
#    y 0.000000 1.826110 0.000000 
#    z 0.003470 0.000000 1.806710 
# 
# From -- ./inp_files/48668.got.cif
#   From: 2010.06.25/outbox.cif.g09.slc.cpg/sg12_25_cif.got.tgz:48668.got - 2010.06.28 00:19:55.
