data_PCOD8100715
_publ_section_title
;
Structure prediction by ZEFSAII (Michael W. Deem and Ramdas Pophale) SiO2 
 PCOD8100715
Probable space group: C 2/M
;
_chemical_formula_sum "Si O2"
_cell_formula_units_Z 48
_cell_length_a 14.602118
_cell_length_b 17.601350
_cell_length_c 14.185366
_cell_angle_alpha 90.000000
_cell_angle_beta 137.120471
_cell_angle_gamma 90.000000
_cell_volume 2480.872261
_symmetry_space_group_name_H-M "C 2/M"
_symmetry_group_IT_number 12
_symmetry_cell_setting 'monoclinic'
loop_
_space_group_symop_operation_xyz
x,y,z
-x,y,-z
-x,-y,-z
x,-y,z
1/2+x,1/2+y,z
1/2-x,1/2+y,-z
1/2-x,1/2-y,-z
1/2+x,1/2-y,z
loop_
_atom_site_type_symbol
_atom_site_label
_atom_site_fract_x
_atom_site_fract_y
_atom_site_fract_z
Si Si1 0.648775 0.410872 0.585649
Si Si2 0.798539 0.833564 0.566522
Si Si3 0.841578 0.585716 0.369968
Si Si4 0.742399 0.697674 0.142523
Si Si5 0.946270 0.771736 0.165869
Si Si6 0.105264 0.325241 0.151587
O O1 0.500000 0.377734 0.500000
O O2 0.646736 0.500000 0.597529
O O3 0.695417 0.389883 0.516609
O O4 0.765640 0.378753 0.741104
O O5 0.750000 0.750000 0.500000
O O6 0.701993 0.865876 0.573053
O O7 0.947437 0.833668 0.721226
O O8 0.783631 0.500000 0.329059
O O9 0.792381 0.621870 0.233387
O O10 0.000000 0.584760 0.500000
O O11 0.869078 0.745638 0.201442
O O12 0.655655 0.744351 0.151766
O O13 0.649053 0.683600 0.980198
O O14 0.021663 0.695980 0.182642
O O15 0.000000 0.364587 0.000000
#
# Coordination Sequence:
#
# PCOD8100715 Si02
#       6
#     8   8   8   8   8   8
#     4  11  24  40  58  86 124 158 193 244 302 356
#     4  12  21  37  63  88 113 155 203 246 290 347
#     4  11  24  39  57  86 126 162 195 240 302 368
#     4  10  20  38  60  87 119 150 197 248 293 349
#     4  10  20  35  62  89 112 148 201 248 290 343
#     4  10  20  38  62  88 115 150 201 251 294 353
#
# _framework density 19.348033000000001
#
# number of rings (size 3 to 8) (size 9 to 14) (size 15 to 20)
#    0.000    1.333    3.333    2.500    0.000    1.667 
#    0.000    2.500    0.000    6.000    0.000    0.000 
#    0.000    0.000    0.000    0.000    0.000    0.000 
#
# Total GULP energy -297525.192952 kJ/mol
# GULP energy per Si atom -12396.883040 kJ/mol
# Density = 1.930400 g / cm^3
# Si number density = 19.348033 Si / 1000 Ang^3
#
#
#
# Elastic Constant Matrix: (Units=GPa)
#
#
# Indices 1 2 3 4 5 6 
#
# 1 85.9535 20.2642 28.8774 0.0000 1.3971 0.0000
# 2 20.2642 83.8041 50.8056 0.0000 -4.1634 0.0000
# 3 28.8774 50.8056 128.4060 0.0001 9.2177 0.0001
# 4 0.0000 0.0000 0.0001 25.2878 0.0001 4.1376
# 5 1.3971 -4.1634 9.2177 0.0001 33.2974 0.0000
# 6 0.0000 0.0000 0.0001 4.1376 0.0000 26.5296
#
#
#
# Elastic Compliance Matrix: (Units=1/GPa)
#
#
# Indices 1 2 3 4 5 6 
#
# 1 0.012783 -0.001794 -0.002153 0.000000 -0.000165 0.000000
# 2 -0.001794 0.016424 -0.006375 0.000000 0.003894 0.000000
# 3 -0.002153 -0.006375 0.011065 0.000000 -0.003770 0.000000
# 4 0.000000 0.000000 0.000000 0.040580 0.000000 -0.006329
# 5 -0.000165 0.003894 -0.003770 0.000000 0.031570 0.000000
# 6 0.000000 0.000000 0.000000 -0.006329 0.000000 0.038681
#
#
# Mechanical properties :
#
#
# Convention : Reuss Voigt Hill
#
# Bulk Modulus (GPa) = 50.94496 55.33978 53.14237
# Shear Modulus (GPa) = 28.04429 30.23741 29.14085
#
# Velocity S-wave (km/s) = 3.81131 3.95754 3.88511
# Velocity P-wave (km/s) = 6.76433 7.03897 6.90302
#
# Compressibility (1/GPa) = 0.01962903
#
# Stress axis : x y z
#
# Youngs Moduli (GPa) = 78.22769 60.88532 90.37615
#
# Poissons Ratio (x) = 0.10922 0.19460
# Poissons Ratio (y) = 0.14033 0.57611
# Poissons Ratio (z) = 0.16845 0.38812
#
# Static dielectric constant tensor:
#      x y z
#    x 3.842000 0.000000 0.116090 
#    y 0.000000 3.313390 0.000000 
#    z 0.116090 0.000000 3.903410 
# 
# 
# High freq. dielectric constant tensor:
#      x y z
#    x 1.772150 0.000000 0.006290 
#    y 0.000000 1.716840 0.000000 
#    z 0.006290 0.000000 1.773070 
# 
# From -- ./inp_files/216487.got.cif
#   From: 2010.06.25/outbox.cif.g09.slc.cpg/sg12_109_cif.got.tgz:216487.got - 2010.06.28 00:19:55.
