data_PCOD8100326
_publ_section_title
;
Structure prediction by ZEFSAII (Michael W. Deem and Ramdas Pophale) SiO2 
 PCOD8100326
Probable space group: C 2/M
;
_chemical_formula_sum "Si O2"
_cell_formula_units_Z 64
_cell_length_a 15.334361
_cell_length_b 8.864787
_cell_length_c 25.144785
_cell_angle_alpha 90.000000
_cell_angle_beta 108.183063
_cell_angle_gamma 90.000000
_cell_volume 3247.393607
_symmetry_space_group_name_H-M "C 2/M"
_symmetry_group_IT_number 12
_symmetry_cell_setting 'monoclinic'
loop_
_space_group_symop_operation_xyz
x,y,z
-x,y,-z
-x,-y,-z
x,-y,z
1/2+x,1/2+y,z
1/2-x,1/2+y,-z
1/2-x,1/2-y,-z
1/2+x,1/2-y,z
loop_
_atom_site_type_symbol
_atom_site_label
_atom_site_fract_x
_atom_site_fract_y
_atom_site_fract_z
Si Si1 0.275823 0.676781 0.862380
Si Si2 0.073500 0.324723 0.856518
Si Si3 0.016752 0.173500 0.741817
Si Si4 0.027908 0.679476 0.562822
Si Si5 0.898307 0.678184 0.631962
Si Si6 0.274373 0.821328 0.363954
Si Si7 0.043859 0.324063 0.063952
Si Si8 0.276903 0.326014 0.253584
O O1 0.282894 0.500000 0.853428
O O2 0.181783 0.717638 0.876005
O O3 0.362040 0.731996 0.912837
O O4 0.279779 0.759726 0.806437
O O5 0.060450 0.500000 0.840222
O O6 0.017618 0.228548 0.802674
O O7 0.030980 0.282666 0.905355
O O8 0.115690 0.198111 0.734826
O O9 0.945789 0.274139 0.695875
O O10 0.985612 0.000000 0.733947
O O11 0.029302 0.500000 0.561810
O O12 0.955749 0.738025 0.592589
O O13 0.000000 0.745107 0.500000
O O14 0.127460 0.741513 0.598319
O O15 0.886910 0.500000 0.628829
O O16 0.799400 0.756607 0.608578
O O17 0.248171 0.762531 0.300679
O O18 0.272130 0.000000 0.363250
O O19 0.068676 0.500000 0.070071
O O20 0.000000 0.275482 0.000000
O O21 0.250215 0.500000 0.255141
#
# Coordination Sequence:
#
# PCOD8100326 Si02
#       8
#     8   8   8   8   8   8   8   8
#     4  10  21  37  58  85 116 151 193 241 292 348
#     4   9  20  38  58  82 115 154 193 235 293 355
#     4  10  20  35  58  87 119 151 193 244 293 350
#     4   9  20  40  63  85 116 159 202 243 291 349
#     4  11  22  37  59  87 119 157 196 239 296 352
#     4  11  22  37  59  88 119 154 196 242 292 349
#     4  10  22  40  60  83 115 156 199 242 291 351
#     4  10  20  36  59  86 119 154 192 240 296 355
#
# _framework density 19.708113000000001
#
# number of rings (size 3 to 8) (size 9 to 14) (size 15 to 20)
#    0.000    2.000    1.250    1.875    1.750    3.250 
#    0.000    0.000    0.000    5.250    0.000    0.000 
#    0.000    0.000    0.000    0.000    0.000    0.000 
#
# Total GULP energy -396934.370082 kJ/mol
# GULP energy per Si atom -12404.199065 kJ/mol
# Density = 1.966326 g / cm^3
# Si number density = 19.708113 Si / 1000 Ang^3
#
#
#
# Elastic Constant Matrix: (Units=GPa)
#
#
# Indices 1 2 3 4 5 6 
#
# 1 126.1467 39.6097 69.2915 0.0000 -11.1329 0.0000
# 2 39.6097 72.8452 35.5701 0.0000 -2.3759 0.0000
# 3 69.2915 35.5701 128.0761 0.0000 -9.2756 0.0000
# 4 0.0000 0.0000 0.0000 18.0862 0.0000 2.3777
# 5 -11.1329 -2.3759 -9.2756 0.0000 22.8479 0.0000
# 6 0.0000 0.0000 0.0000 2.3777 0.0000 32.3515
#
#
#
# Elastic Compliance Matrix: (Units=1/GPa)
#
#
# Indices 1 2 3 4 5 6 
#
# 1 0.012446 -0.004036 -0.005361 0.000000 0.003468 0.000000
# 2 -0.004036 0.017191 -0.002682 0.000000 -0.001268 0.000000
# 3 -0.005361 -0.002682 0.011585 0.000000 0.001812 0.000000
# 4 0.000000 0.000000 0.000000 0.055830 0.000000 -0.004103
# 5 0.003468 -0.001268 0.001812 0.000000 0.046061 0.000000
# 6 0.000000 0.000000 0.000000 -0.004103 0.000000 0.031212
#
#
# Mechanical properties :
#
#
# Convention : Reuss Voigt Hill
#
# Bulk Modulus (GPa) = 58.61260 68.44563 63.52911
# Shear Modulus (GPa) = 24.48921 26.83024 25.65972
#
# Velocity S-wave (km/s) = 3.52887 3.69369 3.61222
# Velocity P-wave (km/s) = 6.81240 7.27985 7.05000
#
# Compressibility (1/GPa) = 0.01706118
#
# Stress axis : x y z
#
# Youngs Moduli (GPa) = 80.34973 58.16988 86.32206
#
# Poissons Ratio (x) = 0.23480 0.46278
# Poissons Ratio (y) = 0.32432 0.23156
# Poissons Ratio (z) = 0.43076 0.15604
#
# Static dielectric constant tensor:
#      x y z
#    x 3.795360 0.000000 -0.015100 
#    y 0.000000 3.465070 0.000000 
#    z -0.015100 0.000000 3.565810 
# 
# 
# High freq. dielectric constant tensor:
#      x y z
#    x 1.780020 0.000000 -0.000090 
#    y 0.000000 1.759850 0.000000 
#    z -0.000090 0.000000 1.761430 
# 
# From -- ./inp_files/359970.got.cif
#   From: 2010.06.25/outbox.cif.g09.slc.cpg/sg12_180_cif.got.tgz:359970.got - 2010.06.28 00:19:55.
