data_PCOD8100381
_publ_section_title
;
Structure prediction by ZEFSAII (Michael W. Deem and Ramdas Pophale) SiO2 
 PCOD8100381
Probable space group: C 2/M
;
_chemical_formula_sum "Si O2"
_cell_formula_units_Z 52
_cell_length_a 8.635978
_cell_length_b 20.154768
_cell_length_c 20.636653
_cell_angle_alpha 90.000000
_cell_angle_beta 46.827911
_cell_angle_gamma 90.000000
_cell_volume 2619.606161
_symmetry_space_group_name_H-M "C 2/M"
_symmetry_group_IT_number 12
_symmetry_cell_setting 'monoclinic'
loop_
_space_group_symop_operation_xyz
x,y,z
-x,y,-z
-x,-y,-z
x,-y,z
1/2+x,1/2+y,z
1/2-x,1/2+y,-z
1/2-x,1/2-y,-z
1/2+x,1/2-y,z
loop_
_atom_site_type_symbol
_atom_site_label
_atom_site_fract_x
_atom_site_fract_y
_atom_site_fract_z
Si Si1 0.224456 0.182064 0.194600
Si Si2 0.450179 0.683111 0.151550
Si Si3 0.542865 0.073905 0.144294
Si Si4 0.603419 0.075670 0.272207
Si Si5 0.000000 0.130433 0.000000
Si Si6 0.912266 0.331335 0.422050
Si Si7 0.179865 0.805115 0.611883
O O1 0.311431 0.250907 0.197496
O O2 0.404207 0.125857 0.143772
O O3 0.152051 0.190137 0.140878
O O4 0.029617 0.162095 0.297296
O O5 0.316321 0.619447 0.212607
O O6 0.526044 0.676580 0.055724
O O7 0.488963 0.081730 0.235590
O O8 0.793494 0.084478 0.062954
O O9 0.486838 0.000000 0.135820
O O10 0.437200 0.101333 0.373733
O O11 0.667224 0.000000 0.269591
O O12 0.841282 0.273292 0.394064
O O13 0.736399 0.342778 0.528509
O O14 0.135321 0.311377 0.389058
#
# Coordination Sequence:
#
# PCOD8100381 Si02
#       7
#     8   8   8   8   4   8   8
#     4  12  22  39  63  91 126 156 200 252 299 363
#     4  11  23  38  64  91 120 159 200 248 310 352
#     4  10  24  42  64  88 120 161 201 248 305 365
#     4  10  20  38  59  85 121 162 205 246 302 361
#     4  10  23  44  66  90 119 154 200 252 301 372
#     4  10  20  35  58  90 116 162 203 247 298 342
#     4  10  20  35  58  89 122 152 205 248 291 352
#
# _framework density 19.850311000000001
#
# number of rings (size 3 to 8) (size 9 to 14) (size 15 to 20)
#    0.000    1.538    3.077    2.077    2.154    4.308 
#    0.000    3.077    0.000    1.846    0.000    0.000 
#    0.000    0.000    0.000    0.000    0.000    0.000 
#
# Total GULP energy -322457.224848 kJ/mol
# GULP energy per Si atom -12402.200956 kJ/mol
# Density = 1.980513 g / cm^3
# Si number density = 19.850311 Si / 1000 Ang^3
#
#
#
# Elastic Constant Matrix: (Units=GPa)
#
#
# Indices 1 2 3 4 5 6 
#
# 1 111.4712 55.8071 44.9750 0.0000 3.9336 0.0000
# 2 55.8071 126.1403 49.4135 0.0000 -2.0042 0.0000
# 3 44.9750 49.4135 122.5149 0.0000 8.7930 0.0000
# 4 0.0000 0.0000 0.0000 22.0357 0.0000 -1.2169
# 5 3.9336 -2.0042 8.7930 0.0000 24.8326 0.0000
# 6 0.0000 0.0000 0.0000 -1.2169 0.0000 24.5531
#
#
#
# Elastic Compliance Matrix: (Units=1/GPa)
#
#
# Indices 1 2 3 4 5 6 
#
# 1 0.012300 -0.004434 -0.002628 0.000000 -0.001376 0.000000
# 2 -0.004434 0.011128 -0.003053 0.000000 0.002681 0.000000
# 3 -0.002628 -0.003053 0.010616 0.000000 -0.003589 0.000000
# 4 0.000000 0.000000 0.000000 0.045506 0.000000 0.002255
# 5 -0.001376 0.002681 -0.003589 0.000000 0.041975 0.000000
# 6 0.000000 0.000000 0.000000 0.002255 0.000000 0.040840
#
#
# Mechanical properties :
#
#
# Convention : Reuss Voigt Hill
#
# Bulk Modulus (GPa) = 72.39290 73.39084 72.89187
# Shear Modulus (GPa) = 26.70967 28.27967 27.49467
#
# Velocity S-wave (km/s) = 3.67216 3.77854 3.72573
# Velocity P-wave (km/s) = 7.38432 7.48925 7.43697
#
# Compressibility (1/GPa) = 0.01381351
#
# Stress axis : x y z
#
# Youngs Moduli (GPa) = 81.30316 89.86424 94.19773
#
# Poissons Ratio (x) = 0.39845 0.24756
# Poissons Ratio (y) = 0.36049 0.28758
# Poissons Ratio (z) = 0.21367 0.27435
#
# Static dielectric constant tensor:
#      x y z
#    x 3.559310 0.000000 0.139320 
#    y 0.000000 3.452960 0.000000 
#    z 0.139320 0.000000 3.876880 
# 
# 
# High freq. dielectric constant tensor:
#      x y z
#    x 1.772230 0.000000 0.009550 
#    y 0.000000 1.754870 0.000000 
#    z 0.009550 0.000000 1.783430 
# 
# From -- ./inp_files/301076.got.cif
#   From: 2010.06.25/outbox.cif.g09.slc.cpg/sg12_151_cif.got.tgz:301076.got - 2010.06.28 00:19:55.
