data_PCOD8100250
_publ_section_title
;
Structure prediction by ZEFSAII (Michael W. Deem and Ramdas Pophale) SiO2 
 PCOD8100250
Probable space group: C 2/M
;
_chemical_formula_sum "Si O2"
_cell_formula_units_Z 56
_cell_length_a 21.203269
_cell_length_b 8.752005
_cell_length_c 18.005974
_cell_angle_alpha 90.000000
_cell_angle_beta 122.957384
_cell_angle_gamma 90.000000
_cell_volume 2803.677165
_symmetry_space_group_name_H-M "C 2/M"
_symmetry_group_IT_number 12
_symmetry_cell_setting 'monoclinic'
loop_
_space_group_symop_operation_xyz
x,y,z
-x,y,-z
-x,-y,-z
x,-y,z
1/2+x,1/2+y,z
1/2-x,1/2+y,-z
1/2-x,1/2-y,-z
1/2+x,1/2-y,z
loop_
_atom_site_type_symbol
_atom_site_label
_atom_site_fract_x
_atom_site_fract_y
_atom_site_fract_z
Si Si1 0.649621 0.324647 0.269965
Si Si2 0.792404 0.822978 0.297237
Si Si3 0.917321 0.320198 0.469893
Si Si4 0.332273 0.323653 0.551981
Si Si5 0.236509 0.674394 0.873642
Si Si6 0.356803 0.173137 0.044957
Si Si7 0.481533 0.176067 0.904675
O O1 0.670650 0.500000 0.266555
O O2 0.721695 0.220102 0.302367
O O3 0.627721 0.302517 0.342198
O O4 0.583079 0.278019 0.172250
O O5 0.863750 0.725051 0.367815
O O6 0.775206 0.788515 0.201109
O O7 0.810545 0.000000 0.319457
O O8 0.917013 0.500000 0.481216
O O9 0.888529 0.247835 0.528150
O O10 0.000000 0.261026 0.500000
O O11 0.321089 0.500000 0.524770
O O12 0.250000 0.250000 0.500000
O O13 0.238474 0.500000 0.846916
O O14 0.168832 0.704163 0.887501
O O15 0.315945 0.711656 0.962863
O O16 0.445440 0.200455 0.099232
O O17 0.336273 0.000000 0.007832
O O18 0.454889 0.000000 0.888495
O O19 0.500000 0.230868 0.000000
#
# Coordination Sequence:
#
# PCOD8100250 Si02
#       7
#     8   8   8   8   8   8   8
#     4  11  24  40  62  92 123 158 205 255 309 374
#     4  12  24  39  62  88 118 157 203 253 307 374
#     4  11  25  44  66  93 127 164 205 260 321 378
#     4  11  23  41  67  95 127 166 209 261 315 379
#     4  10  20  35  58  85 118 158 201 250 302 364
#     4   9  19  36  56  83 119 160 202 246 302 365
#     4  10  21  37  58  86 122 160 202 251 302 361
#
# _framework density 19.973770999999999
#
# number of rings (size 3 to 8) (size 9 to 14) (size 15 to 20)
#    0.000    1.429    1.429    3.857    0.000    6.571 
#    0.000    4.286    0.000    0.000    0.000    0.000 
#    0.000    0.000    0.000    0.000    0.000    0.000 
#
# Total GULP energy -347315.231885 kJ/mol
# GULP energy per Si atom -12404.115424 kJ/mol
# Density = 1.992831 g / cm^3
# Si number density = 19.973771 Si / 1000 Ang^3
#
#
#
# Elastic Constant Matrix: (Units=GPa)
#
#
# Indices 1 2 3 4 5 6 
#
# 1 126.8266 47.0124 40.3633 0.0000 0.2698 0.0000
# 2 47.0124 78.0539 39.7162 0.0000 -5.5033 0.0000
# 3 40.3633 39.7162 80.8593 0.0000 -4.1555 0.0000
# 4 0.0000 0.0000 0.0000 31.6097 0.0000 6.3078
# 5 0.2698 -5.5033 -4.1555 0.0000 31.9142 0.0000
# 6 0.0000 0.0000 0.0000 6.3078 0.0000 21.6594
#
#
#
# Elastic Compliance Matrix: (Units=1/GPa)
#
#
# Indices 1 2 3 4 5 6 
#
# 1 0.010689 -0.005043 -0.002928 0.000000 -0.001341 0.000000
# 2 -0.005043 0.019571 -0.006966 0.000000 0.002510 0.000000
# 3 -0.002928 -0.006966 0.017306 0.000000 0.001077 0.000000
# 4 0.000000 0.000000 0.000000 0.033588 0.000000 -0.009782
# 5 -0.001341 0.002510 0.001077 0.000000 0.031918 0.000000
# 6 0.000000 0.000000 0.000000 -0.009782 0.000000 0.049018
#
#
# Mechanical properties :
#
#
# Convention : Reuss Voigt Hill
#
# Bulk Modulus (GPa) = 56.52455 59.99152 58.25804
# Shear Modulus (GPa) = 25.27044 27.61321 26.44182
#
# Velocity S-wave (km/s) = 3.56080 3.72220 3.64239
# Velocity P-wave (km/s) = 6.72804 6.96946 6.84981
#
# Compressibility (1/GPa) = 0.01769143
#
# Stress axis : x y z
#
# Youngs Moduli (GPa) = 93.55762 51.09690 57.78464
#
# Poissons Ratio (x) = 0.25767 0.16917
# Poissons Ratio (y) = 0.47179 0.40255
# Poissons Ratio (z) = 0.27390 0.35596
#
# Static dielectric constant tensor:
#      x y z
#    x 3.807860 0.000000 -0.076780 
#    y 0.000000 3.677090 0.000000 
#    z -0.076780 0.000000 3.630700 
# 
# 
# High freq. dielectric constant tensor:
#      x y z
#    x 1.784300 0.000000 -0.009850 
#    y 0.000000 1.785640 0.000000 
#    z -0.009850 0.000000 1.782310 
# 
# From -- ./inp_files/281758.got.cif
#   From: 2010.06.25/outbox.cif.g09.slc.cpg/sg12_141_cif.got.tgz:281758.got - 2010.06.28 00:19:55.
