data_PCOD8100450
_publ_section_title
;
Structure prediction by ZEFSAII (Michael W. Deem and Ramdas Pophale) SiO2 
 PCOD8100450
Probable space group: C 2/M
;
_chemical_formula_sum "Si O2"
_cell_formula_units_Z 48
_cell_length_a 27.719056
_cell_length_b 9.283722
_cell_length_c 9.747625
_cell_angle_alpha 90.000000
_cell_angle_beta 90.100650
_cell_angle_gamma 90.000000
_cell_volume 2508.411054
_symmetry_space_group_name_H-M "C 2/M"
_symmetry_group_IT_number 12
_symmetry_cell_setting 'monoclinic'
loop_
_space_group_symop_operation_xyz
x,y,z
-x,y,-z
-x,-y,-z
x,-y,z
1/2+x,1/2+y,z
1/2-x,1/2+y,-z
1/2-x,1/2-y,-z
1/2+x,1/2-y,z
loop_
_atom_site_type_symbol
_atom_site_label
_atom_site_fract_x
_atom_site_fract_y
_atom_site_fract_z
Si Si1 0.689098 0.666320 0.733971
Si Si2 0.297637 0.165881 0.770174
Si Si3 0.140895 0.167838 0.447028
Si Si4 0.641947 0.834986 0.968826
Si Si5 0.457465 0.828975 0.904509
Si Si6 0.454191 0.831441 0.592996
O O1 0.686403 0.500000 0.774986
O O2 0.743399 0.724457 0.754109
O O3 0.674454 0.694446 0.578093
O O4 0.652146 0.749289 0.830707
O O5 0.333281 0.262685 0.682523
O O6 0.302044 0.000000 0.721021
O O7 0.313042 0.181497 0.928221
O O8 0.089800 0.243443 0.472050
O O9 0.132556 0.000000 0.418714
O O10 0.633750 0.000000 0.926918
O O11 0.593663 0.772096 0.039053
O O12 0.464589 0.777188 0.747964
O O13 0.458619 0.000000 0.908674
O O14 0.500000 0.764656 0.000000
O O15 0.500000 0.797218 0.500000
O O16 0.440909 0.000000 0.591371
#
# Coordination Sequence:
#
# PCOD8100450 Si02
#       6
#     8   8   8   8   8   8
#     4  10  23  38  55  83 119 154 189 234 282 337
#     4  10  20  39  61  82 112 150 196 241 279 332
#     4  11  23  38  57  84 119 154 187 233 288 337
#     4  10  20  35  59  86 113 147 188 239 287 332
#     4   9  18  34  56  85 114 138 180 237 283 329
#     4  10  21  38  62  86 110 147 190 233 283 336
#
# _framework density 19.135618999999998
#
# number of rings (size 3 to 8) (size 9 to 14) (size 15 to 20)
#    0.000    2.000    1.667    1.500    2.333    3.000 
#    0.000    0.000    0.000    1.000    0.000    0.000 
#    0.000    0.000    0.000    0.000    0.000    0.000 
#
# Total GULP energy -297695.407586 kJ/mol
# GULP energy per Si atom -12403.975316 kJ/mol
# Density = 1.909207 g / cm^3
# Si number density = 19.135619 Si / 1000 Ang^3
#
#
#
# Elastic Constant Matrix: (Units=GPa)
#
#
# Indices 1 2 3 4 5 6 
#
# 1 107.5567 27.1955 21.0687 0.0000 1.3188 0.0000
# 2 27.1955 52.1133 25.1437 0.0000 -7.1726 0.0000
# 3 21.0687 25.1437 55.5647 0.0000 -9.5635 0.0000
# 4 0.0000 0.0000 0.0000 27.1365 0.0000 -0.6735
# 5 1.3188 -7.1726 -9.5635 0.0000 38.2317 0.0000
# 6 0.0000 0.0000 0.0000 -0.6735 0.0000 26.8906
#
#
#
# Elastic Compliance Matrix: (Units=1/GPa)
#
#
# Indices 1 2 3 4 5 6 
#
# 1 0.011006 -0.004902 -0.002276 0.000000 -0.001869 0.000000
# 2 -0.004902 0.026866 -0.009825 0.000000 0.002752 0.000000
# 3 -0.002276 -0.009825 0.024037 0.000000 0.004248 0.000000
# 4 0.000000 0.000000 0.000000 0.036874 0.000000 0.000924
# 5 -0.001869 0.002752 0.004248 0.000000 0.027800 0.000000
# 6 0.000000 0.000000 0.000000 0.000924 0.000000 0.037211
#
#
# Mechanical properties :
#
#
# Convention : Reuss Voigt Hill
#
# Bulk Modulus (GPa) = 35.83950 40.22781 38.03365
# Shear Modulus (GPa) = 24.14277 27.90688 26.02483
#
# Velocity S-wave (km/s) = 3.55585 3.82301 3.69185
# Velocity P-wave (km/s) = 5.96897 6.36830 6.17187
#
# Compressibility (1/GPa) = 0.02790217
#
# Stress axis : x y z
#
# Youngs Moduli (GPa) = 90.86131 37.22140 41.60217
#
# Poissons Ratio (x) = 0.18247 0.09470
# Poissons Ratio (y) = 0.44543 0.40874
# Poissons Ratio (z) = 0.20684 0.36569
#
# Static dielectric constant tensor:
#      x y z
#    x 3.697640 0.000000 0.109380 
#    y 0.000000 3.278210 0.000000 
#    z 0.109380 0.000000 3.475370 
# 
# 
# High freq. dielectric constant tensor:
#      x y z
#    x 1.756290 0.000000 0.002930 
#    y 0.000000 1.717710 0.000000 
#    z 0.002930 0.000000 1.751050 
# 
# From -- ./inp_files/108614.got.cif
#   From: 2010.06.25/outbox.cif.g09.slc.cpg/sg12_55_cif.got.tgz:108614.got - 2010.06.28 00:19:55.
