data_PCOD8100971
_publ_section_title
;
Structure prediction by ZEFSAII (Michael W. Deem and Ramdas Pophale) SiO2 
 PCOD8100971
Probable space group: C 2/M
;
_chemical_formula_sum "Si O2"
_cell_formula_units_Z 56
_cell_length_a 28.328981
_cell_length_b 8.809113
_cell_length_c 12.322681
_cell_angle_alpha 90.000000
_cell_angle_beta 103.688914
_cell_angle_gamma 90.000000
_cell_volume 2987.814142
_symmetry_space_group_name_H-M "C 2/M"
_symmetry_group_IT_number 12
_symmetry_cell_setting 'monoclinic'
loop_
_space_group_symop_operation_xyz
x,y,z
-x,y,-z
-x,-y,-z
x,-y,z
1/2+x,1/2+y,z
1/2-x,1/2+y,-z
1/2-x,1/2-y,-z
1/2+x,1/2-y,z
loop_
_atom_site_type_symbol
_atom_site_label
_atom_site_fract_x
_atom_site_fract_y
_atom_site_fract_z
Si Si1 0.345048 0.320086 0.447375
Si Si2 0.753657 0.824617 0.670771
Si Si3 0.281668 0.173386 0.108199
Si Si4 0.565781 0.680002 0.133728
Si Si5 0.377686 0.320747 0.231664
Si Si6 0.959149 0.820534 0.118838
Si Si7 0.644514 0.179403 0.328863
O O1 0.341224 0.500000 0.454352
O O2 0.291138 0.250485 0.416889
O O3 0.375042 0.270257 0.356166
O O4 0.373075 0.252266 0.566475
O O5 0.746496 0.808105 0.794780
O O6 0.801583 0.734958 0.666274
O O7 0.758140 0.000000 0.637808
O O8 0.333729 0.252284 0.139651
O O9 0.290135 0.000000 0.081846
O O10 0.250000 0.250000 0.000000
O O11 0.573866 0.500000 0.150234
O O12 0.514814 0.734314 0.160082
O O13 0.609250 0.767330 0.214510
O O14 0.565060 0.732246 0.007592
O O15 0.373432 0.500000 0.219364
O O16 0.427701 0.260929 0.204238
O O17 0.960163 0.000000 0.116581
O O18 0.643410 0.000000 0.337493
#
# Coordination Sequence:
#
# PCOD8100971 Si02
#       7
#     8   8   8   8   8   8   8
#     4  10  20  36  56  79 108 142 181 224 267 320
#     4  10  21  37  55  76 106 145 183 220 266 316
#     4  10  21  34  50  76 110 144 178 216 259 314
#     4   9  18  35  58  83 109 138 176 219 268 324
#     4   9  18  34  57  81 105 138 179 220 268 319
#     4   8  16  34  60  84 107 137 174 219 270 324
#     4  12  24  36  53  78 110 143 182 226 268 318
#
# _framework density 18.742798000000001
#
# number of rings (size 3 to 8) (size 9 to 14) (size 15 to 20)
#    0.000    2.286    0.000    3.857    2.000    2.286 
#    0.000    2.857    0.000    4.286    0.000    0.000 
#    0.000    0.000    0.000    0.000    0.000    0.000 
#
# Total GULP energy -347185.381111 kJ/mol
# GULP energy per Si atom -12399.477897 kJ/mol
# Density = 1.870014 g / cm^3
# Si number density = 18.742798 Si / 1000 Ang^3
#
#
#
# Elastic Constant Matrix: (Units=GPa)
#
#
# Indices 1 2 3 4 5 6 
#
# 1 80.6263 0.8034 27.0293 0.0000 -21.2757 0.0000
# 2 0.8034 24.4795 9.9870 0.0000 -2.1476 0.0000
# 3 27.0293 9.9870 71.2680 0.0000 2.1827 0.0000
# 4 0.0000 0.0000 0.0000 26.7952 0.0000 3.9017
# 5 -21.2757 -2.1476 2.1827 0.0000 19.3821 0.0000
# 6 0.0000 0.0000 0.0000 3.9017 0.0000 21.0087
#
#
#
# Elastic Compliance Matrix: (Units=1/GPa)
#
#
# Indices 1 2 3 4 5 6 
#
# 1 0.022932 0.005834 -0.010341 0.000000 0.026983 0.000000
# 2 0.005834 0.045405 -0.008956 0.000000 0.012443 0.000000
# 3 -0.010341 -0.008956 0.019654 0.000000 -0.014557 0.000000
# 4 0.000000 0.000000 0.000000 0.038357 0.000000 -0.007124
# 5 0.026983 0.012443 -0.014557 0.000000 0.084232 0.000000
# 6 0.000000 0.000000 0.000000 -0.007124 0.000000 0.048922
#
#
# Mechanical properties :
#
#
# Convention : Reuss Voigt Hill
#
# Bulk Modulus (GPa) = 16.37639 28.00146 22.18893
# Shear Modulus (GPa) = 16.29809 22.67414 19.48611
#
# Velocity S-wave (km/s) = 2.95204 3.48192 3.22787
# Velocity P-wave (km/s) = 4.51395 5.58008 5.07509
#
# Compressibility (1/GPa) = 0.06106350
#
# Stress axis : x y z
#
# Youngs Moduli (GPa) = 43.60727 22.02419 50.87906
#
# Poissons Ratio (x) = -0.12848 0.52615
# Poissons Ratio (y) = -0.25439 0.45569
# Poissons Ratio (z) = 0.45095 0.19725
#
# Static dielectric constant tensor:
#      x y z
#    x 3.725030 0.000000 -0.244020 
#    y 0.000000 3.351450 0.000000 
#    z -0.244020 0.000000 3.631680 
# 
# 
# High freq. dielectric constant tensor:
#      x y z
#    x 1.723080 0.000000 -0.010530 
#    y 0.000000 1.718490 0.000000 
#    z -0.010530 0.000000 1.733530 
# 
# From -- ./inp_files/186871.got.cif
#   From: 2010.06.25/outbox.cif.g09.slc.cpg/sg12_94_cif.got.tgz:186871.got - 2010.06.28 00:19:55.
