data_PCOD8100160
_publ_section_title
;
Structure prediction by ZEFSAII (Michael W. Deem and Ramdas Pophale) SiO2 
 PCOD8100160
Probable space group: C 2/M
;
_chemical_formula_sum "Si O2"
_cell_formula_units_Z 40
_cell_length_a 23.180022
_cell_length_b 13.764418
_cell_length_c 13.762636
_cell_angle_alpha 90.000000
_cell_angle_beta 153.027341
_cell_angle_gamma 90.000000
_cell_volume 1991.650416
_symmetry_space_group_name_H-M "C 2/M"
_symmetry_group_IT_number 12
_symmetry_cell_setting 'monoclinic'
loop_
_space_group_symop_operation_xyz
x,y,z
-x,y,-z
-x,-y,-z
x,-y,z
1/2+x,1/2+y,z
1/2-x,1/2+y,-z
1/2-x,1/2-y,-z
1/2+x,1/2-y,z
loop_
_atom_site_type_symbol
_atom_site_label
_atom_site_fract_x
_atom_site_fract_y
_atom_site_fract_z
Si Si1 0.343613 0.270210 0.367995
Si Si2 0.960918 0.111178 0.212733
Si Si3 0.359157 0.888908 0.026597
Si Si4 0.925849 0.765927 0.987893
Si Si5 0.666357 0.110283 0.793299
O O1 0.454640 0.316810 0.596840
O O2 0.227093 0.230590 0.261379
O O3 0.396403 0.181334 0.380944
O O4 0.285996 0.353012 0.209834
O O5 0.003503 0.000000 0.291553
O O6 0.972967 0.138085 0.116329
O O7 0.816682 0.130902 0.028230
O O8 0.395029 0.872883 0.193028
O O9 0.371698 0.000000 0.014106
O O10 0.455297 0.826111 0.103565
O O11 0.000000 0.754196 0.000000
O O12 0.642100 0.000000 0.721511
#
# Coordination Sequence:
#
# PCOD8100160 Si02
#       5
#     8   8   8   8   8
#     4   9  19  33  56  81 110 133 178 220 262 310
#     4  10  20  35  58  84 106 136 177 220 270 320
#     4   9  18  34  54  78 109 144 175 214 263 315
#     4   9  21  37  54  77 107 144 178 223 262 308
#     4   9  18  35  56  80 111 141 170 212 271 322
#
# _framework density 20.083845
#
# number of rings (size 3 to 8) (size 9 to 14) (size 15 to 20)
#    1.200    1.600    0.000    1.200    0.000    2.400 
#    0.000    4.000    0.000    2.400    0.000    0.000 
#    0.000    0.000    0.000    0.000    0.000    0.000 
#
# Total GULP energy -247813.847262 kJ/mol
# GULP energy per Si atom -12390.692363 kJ/mol
# Density = 2.003813 g / cm^3
# Si number density = 20.083845 Si / 1000 Ang^3
#
#
#
# Elastic Constant Matrix: (Units=GPa)
#
#
# Indices 1 2 3 4 5 6 
#
# 1 121.2072 34.6620 31.2270 0.0000 -25.8158 0.0000
# 2 34.6620 98.5846 49.2182 0.0000 -22.1360 0.0000
# 3 31.2270 49.2182 104.8024 0.0000 -9.0469 0.0000
# 4 0.0000 0.0000 0.0000 4.3148 0.0000 -5.3027
# 5 -25.8158 -22.1360 -9.0469 0.0000 18.2497 0.0000
# 6 0.0000 0.0000 0.0000 -5.3027 0.0000 24.7069
#
#
#
# Elastic Compliance Matrix: (Units=1/GPa)
#
#
# Indices 1 2 3 4 5 6 
#
# 1 0.012336 0.000794 -0.002569 0.000000 0.017139 0.000000
# 2 0.000794 0.017548 -0.006836 0.000000 0.019018 0.000000
# 3 -0.002569 -0.006836 0.013046 0.000000 -0.005458 0.000000
# 4 0.000000 0.000000 0.000000 0.314787 0.000000 0.067561
# 5 0.017139 0.019018 -0.005458 0.000000 0.099403 0.000000
# 6 0.000000 0.000000 0.000000 0.067561 0.000000 0.054975
#
#
# Mechanical properties :
#
#
# Convention : Reuss Voigt Hill
#
# Bulk Modulus (GPa) = 38.89831 61.64540 50.27186
# Shear Modulus (GPa) = 9.29567 23.42008 16.35787
#
# Velocity S-wave (km/s) = 2.15371 3.41855 2.85700
# Velocity P-wave (km/s) = 5.05911 6.80754 5.99739
#
# Compressibility (1/GPa) = 0.02570806
#
# Stress axis : x y z
#
# Youngs Moduli (GPa) = 81.06604 56.98808 76.65058
#
# Poissons Ratio (x) = -0.04523 0.19690
# Poissons Ratio (y) = -0.06434 0.52395
# Poissons Ratio (z) = 0.20824 0.38955
#
# Static dielectric constant tensor:
#      x y z
#    x 3.290080 0.000000 -0.016310 
#    y 0.000000 3.874240 0.000000 
#    z -0.016310 0.000000 3.415460 
# 
# 
# High freq. dielectric constant tensor:
#      x y z
#    x 1.753110 0.000000 -0.002830 
#    y 0.000000 1.794890 0.000000 
#    z -0.002830 0.000000 1.777640 
# 
# From -- ./inp_files/176542.got.cif
#   From: 2010.06.25/outbox.cif.g09.slc.cpg/sg12_89_cif.got.tgz:176542.got - 2010.06.28 00:19:55.
