data_PCOD8100937
_publ_section_title
;
Structure prediction by ZEFSAII (Michael W. Deem and Ramdas Pophale) SiO2 
 PCOD8100937
Probable space group: C 2/M
;
_chemical_formula_sum "Si O2"
_cell_formula_units_Z 40
_cell_length_a 25.413237
_cell_length_b 9.078357
_cell_length_c 9.105993
_cell_angle_alpha 90.000000
_cell_angle_beta 90.784677
_cell_angle_gamma 90.000000
_cell_volume 2100.650621
_symmetry_space_group_name_H-M "C 2/M"
_symmetry_group_IT_number 12
_symmetry_cell_setting 'monoclinic'
loop_
_space_group_symop_operation_xyz
x,y,z
-x,y,-z
-x,-y,-z
x,-y,z
1/2+x,1/2+y,z
1/2-x,1/2+y,-z
1/2-x,1/2-y,-z
1/2+x,1/2-y,z
loop_
_atom_site_type_symbol
_atom_site_label
_atom_site_fract_x
_atom_site_fract_y
_atom_site_fract_z
Si Si1 0.658819 0.825213 0.348191
Si Si2 0.743826 0.328565 0.846319
Si Si3 0.144002 0.173296 0.652964
Si Si4 0.945012 0.325743 0.179465
Si Si5 0.937028 0.326327 0.850106
O O1 0.710550 0.776980 0.262139
O O2 0.661875 0.745259 0.502685
O O3 0.608165 0.763797 0.257403
O O4 0.655687 0.000000 0.372702
O O5 0.749280 0.500000 0.877110
O O6 0.687705 0.287063 0.775590
O O7 0.750000 0.250000 0.000000
O O8 0.088698 0.240548 0.701250
O O9 0.138178 0.000000 0.630066
O O10 0.935851 0.500000 0.196523
O O11 0.005858 0.283006 0.211162
O O12 0.929285 0.268286 0.016205
O O13 0.932723 0.500000 0.859704
#
# Coordination Sequence:
#
# PCOD8100937 Si02
#       5
#     8   8   8   8   8
#     4  10  20  36  56  78 104 139 179 218 258 307
#     4  10  22  38  58  81 105 134 174 218 262 312
#     4  11  23  36  50  78 114 142 170 211 261 316
#     4   9  17  34  58  80 103 137 177 220 263 306
#     4   8  16  32  57  83 102 128 180 231 259 295
#
# _framework density 19.041717999999999
#
# number of rings (size 3 to 8) (size 9 to 14) (size 15 to 20)
#    0.000    2.400    0.000    3.600    0.000    4.800 
#    0.000    8.000    0.000    0.000    0.000    0.000 
#    0.000    0.000    0.000    0.000    0.000    0.000 
#
# Total GULP energy -248020.386842 kJ/mol
# GULP energy per Si atom -12401.019342 kJ/mol
# Density = 1.899838 g / cm^3
# Si number density = 19.041718 Si / 1000 Ang^3
#
#
#
# Elastic Constant Matrix: (Units=GPa)
#
#
# Indices 1 2 3 4 5 6 
#
# 1 97.0718 34.9357 33.2348 0.0000 -22.1827 0.0000
# 2 34.9357 48.4968 42.6561 0.0000 -8.5237 0.0000
# 3 33.2348 42.6561 100.8207 0.0000 -23.7756 0.0000
# 4 0.0000 0.0000 0.0000 31.8061 0.0000 -2.6751
# 5 -22.1827 -8.5237 -23.7756 0.0000 31.9650 0.0000
# 6 0.0000 0.0000 0.0000 -2.6751 0.0000 22.9190
#
#
#
# Elastic Compliance Matrix: (Units=1/GPa)
#
#
# Indices 1 2 3 4 5 6 
#
# 1 0.015928 -0.011390 0.001769 0.000000 0.009332 0.000000
# 2 -0.011390 0.041082 -0.015653 0.000000 -0.008592 0.000000
# 3 0.001769 -0.015653 0.018510 0.000000 0.010821 0.000000
# 4 0.000000 0.000000 0.000000 0.031752 0.000000 0.003706
# 5 0.009332 -0.008592 0.010821 0.000000 0.043518 0.000000
# 6 0.000000 0.000000 0.000000 0.003706 0.000000 0.044065
#
#
# Mechanical properties :
#
#
# Convention : Reuss Voigt Hill
#
# Bulk Modulus (GPa) = 40.04378 52.00472 46.02425
# Shear Modulus (GPa) = 19.70624 26.37553 23.04089
#
# Velocity S-wave (km/s) = 3.22047 3.72579 3.48231
# Velocity P-wave (km/s) = 5.90794 6.77340 6.35542
#
# Compressibility (1/GPa) = 0.02497267
#
# Stress axis : x y z
#
# Youngs Moduli (GPa) = 62.78427 24.34126 54.02474
#
# Poissons Ratio (x) = 0.27724 -0.09557
# Poissons Ratio (y) = 0.71509 0.84566
# Poissons Ratio (z) = -0.11107 0.38102
#
# Static dielectric constant tensor:
#      x y z
#    x 3.916710 0.000000 0.154680 
#    y 0.000000 3.165470 0.000000 
#    z 0.154680 0.000000 3.535320 
# 
# 
# High freq. dielectric constant tensor:
#      x y z
#    x 1.757200 0.000000 -0.001710 
#    y 0.000000 1.710940 0.000000 
#    z -0.001710 0.000000 1.745550 
# 
# From -- ./inp_files/92774.got.cif
#   From: 2010.06.25/outbox.cif.g09.slc.cpg/sg12_47_cif.got.tgz:92774.got - 2010.06.28 00:19:55.
