data_PCOD8100887
_publ_section_title
;
Structure prediction by ZEFSAII (Michael W. Deem and Ramdas Pophale) SiO2 
 PCOD8100887
Probable space group: C 2/M
;
_chemical_formula_sum "Si O2"
_cell_formula_units_Z 64
_cell_length_a 32.406664
_cell_length_b 8.846603
_cell_length_c 15.582771
_cell_angle_alpha 90.000000
_cell_angle_beta 133.782311
_cell_angle_gamma 90.000000
_cell_volume 3225.351408
_symmetry_space_group_name_H-M "C 2/M"
_symmetry_group_IT_number 12
_symmetry_cell_setting 'monoclinic'
loop_
_space_group_symop_operation_xyz
x,y,z
-x,y,-z
-x,-y,-z
x,-y,z
1/2+x,1/2+y,z
1/2-x,1/2+y,-z
1/2-x,1/2-y,-z
1/2+x,1/2-y,z
loop_
_atom_site_type_symbol
_atom_site_label
_atom_site_fract_x
_atom_site_fract_y
_atom_site_fract_z
Si Si1 0.164774 0.175266 0.346470
Si Si2 0.779209 0.676757 0.418770
Si Si3 0.849026 0.673185 0.013801
Si Si4 0.962129 0.826231 0.361531
Si Si5 0.464248 0.323491 0.865616
Si Si6 0.157063 0.673250 0.800051
Si Si7 0.235146 0.178647 0.776222
Si Si8 0.975706 0.680683 0.207167
O O1 0.172864 0.267475 0.445814
O O2 0.214983 0.225410 0.353860
O O3 0.103048 0.209988 0.215614
O O4 0.171014 0.000000 0.378816
O O5 0.785315 0.500000 0.417623
O O6 0.793321 0.751783 0.348668
O O7 0.856413 0.500000 0.999883
O O8 0.825355 0.692067 0.075856
O O9 0.911949 0.745545 0.092938
O O10 0.800084 0.743744 0.881868
O O11 0.907405 0.726788 0.304269
O O12 0.994437 0.756348 0.324471
O O13 0.000000 0.813895 0.500000
O O14 0.945906 0.000000 0.318707
O O15 0.475542 0.500000 0.865073
O O16 0.482348 0.230319 0.808091
O O17 0.500000 0.267754 0.000000
O O18 0.162185 0.500000 0.776972
O O19 0.198000 0.778595 0.804426
O O20 0.236098 0.000000 0.769398
O O21 0.976610 0.500000 0.219150
#
# Coordination Sequence:
#
# PCOD8100887 Si02
#       8
#     8   8   8   8   8   8   8   8
#     4   9  20  40  60  80 113 149 186 233 286 343
#     4  10  21  37  58  84 110 145 191 236 286 337
#     4   8  18  35  54  78 112 148 183 226 276 332
#     4  10  21  38  60  84 112 150 192 233 283 342
#     4  10  22  39  61  88 118 153 193 238 291 350
#     4  10  20  36  55  80 114 146 184 231 277 328
#     4  11  21  34  55  82 112 147 187 228 278 336
#     4  10  21  38  58  85 117 150 191 237 287 341
#
# _framework density 19.842798999999999
#
# number of rings (size 3 to 8) (size 9 to 14) (size 15 to 20)
#    0.000    2.250    0.000    3.000    1.750    3.250 
#    0.000    7.500    0.000    0.000    0.000    0.000 
#    0.000    0.000    0.000    0.000    0.000    0.000 
#
# Total GULP energy -396760.114928 kJ/mol
# GULP energy per Si atom -12398.753592 kJ/mol
# Density = 1.979764 g / cm^3
# Si number density = 19.842799 Si / 1000 Ang^3
#
#
#
# Elastic Constant Matrix: (Units=GPa)
#
#
# Indices 1 2 3 4 5 6 
#
# 1 61.2400 15.0186 23.1314 0.0000 0.6365 0.0000
# 2 15.0186 55.2017 40.0871 0.0000 -9.8429 0.0000
# 3 23.1314 40.0871 96.8965 0.0000 4.9224 0.0000
# 4 0.0000 0.0000 0.0000 25.2680 0.0000 -2.1274
# 5 0.6365 -9.8429 4.9224 0.0000 18.3460 0.0000
# 6 0.0000 0.0000 0.0000 -2.1274 0.0000 32.8035
#
#
#
# Elastic Compliance Matrix: (Units=1/GPa)
#
#
# Indices 1 2 3 4 5 6 
#
# 1 0.018228 -0.003014 -0.003032 0.000000 -0.001436 0.000000
# 2 -0.003014 0.032946 -0.014005 0.000000 0.021538 0.000000
# 3 -0.003032 -0.014005 0.017452 0.000000 -0.012091 0.000000
# 4 0.000000 0.000000 0.000000 0.039793 0.000000 0.002581
# 5 -0.001436 0.021538 -0.012091 0.000000 0.069358 0.000000
# 6 0.000000 0.000000 0.000000 0.002581 0.000000 0.030652
#
#
# Mechanical properties :
#
#
# Convention : Reuss Voigt Hill
#
# Bulk Modulus (GPa) = 35.05579 41.09027 38.07303
# Shear Modulus (GPa) = 19.37695 24.29023 21.83359
#
# Velocity S-wave (km/s) = 3.12833 3.50256 3.32072
# Velocity P-wave (km/s) = 5.54560 6.09180 5.82511
#
# Compressibility (1/GPa) = 0.02852596
#
# Stress axis : x y z
#
# Youngs Moduli (GPa) = 54.85961 30.35266 57.29914
#
# Poissons Ratio (x) = 0.09147 0.17372
# Poissons Ratio (y) = 0.16533 0.80247
# Poissons Ratio (z) = 0.16632 0.42509
#
# Static dielectric constant tensor:
#      x y z
#    x 3.581310 0.000000 0.062110 
#    y 0.000000 3.555330 0.000000 
#    z 0.062110 0.000000 3.740710 
# 
# 
# High freq. dielectric constant tensor:
#      x y z
#    x 1.768720 0.000000 -0.000160 
#    y 0.000000 1.768690 0.000000 
#    z -0.000160 0.000000 1.777430 
# 
# From -- ./inp_files/250108.got.cif
#   From: 2010.06.25/outbox.cif.g09.slc.cpg/sg12_126_cif.got.tgz:250108.got - 2010.06.28 00:19:55.
