data_PCOD8100516
_publ_section_title
;
Structure prediction by ZEFSAII (Michael W. Deem and Ramdas Pophale) SiO2 
 PCOD8100516
Probable space group: C 2/M
;
_chemical_formula_sum "Si O2"
_cell_formula_units_Z 64
_cell_length_a 30.155124
_cell_length_b 9.180244
_cell_length_c 11.992499
_cell_angle_alpha 90.000000
_cell_angle_beta 92.436223
_cell_angle_gamma 90.000000
_cell_volume 3316.899570
_symmetry_space_group_name_H-M "C 2/M"
_symmetry_group_IT_number 12
_symmetry_cell_setting 'monoclinic'
loop_
_space_group_symop_operation_xyz
x,y,z
-x,y,-z
-x,-y,-z
x,-y,z
1/2+x,1/2+y,z
1/2-x,1/2+y,-z
1/2-x,1/2-y,-z
1/2+x,1/2-y,z
loop_
_atom_site_type_symbol
_atom_site_label
_atom_site_fract_x
_atom_site_fract_y
_atom_site_fract_z
Si Si1 0.268702 0.832045 0.838529
Si Si2 0.435071 0.164978 0.801419
Si Si3 0.282716 0.171723 0.587284
Si Si4 0.045555 0.832388 0.555971
Si Si5 0.182130 0.831524 0.967319
Si Si6 0.594871 0.832633 0.955612
Si Si7 0.616711 0.168757 0.425014
Si Si8 0.524909 0.667903 0.806249
O O1 0.270957 0.779462 0.711576
O O2 0.218707 0.808894 0.875686
O O3 0.283693 0.000000 0.852360
O O4 0.302333 0.736387 0.914355
O O5 0.400605 0.202123 0.700554
O O6 0.474559 0.279312 0.797922
O O7 0.453759 0.000000 0.792525
O O8 0.408122 0.183638 0.912170
O O9 0.250000 0.250000 0.500000
O O10 0.332558 0.221337 0.563206
O O11 0.276755 0.000000 0.573767
O O12 0.088483 0.752724 0.513787
O O13 0.046845 0.811483 0.688172
O O14 0.000000 0.765304 0.500000
O O15 0.048556 0.000000 0.520245
O O16 0.138248 0.751894 0.917729
O O17 0.171426 0.000000 0.986448
O O18 0.551106 0.763194 0.898157
O O19 0.598144 0.000000 0.918472
O O20 0.612688 0.000000 0.453562
O O21 0.525607 0.500000 0.843505
#
# Coordination Sequence:
#
# PCOD8100516 Si02
#       8
#     8   8   8   8   8   8   8   8
#     4   9  19  38  61  82 114 153 188 233 291 345
#     4  10  21  38  59  82 111 149 190 232 284 345
#     4  10  22  40  59  84 118 154 193 239 291 343
#     4  10  21  39  59  82 114 150 188 234 290 341
#     4  10  20  35  59  89 114 145 191 237 283 339
#     4  11  23  38  56  81 118 156 188 228 286 345
#     4  10  21  37  61  88 112 146 195 241 282 340
#     4  11  23  38  57  82 114 149 189 238 285 336
#
# _framework density 19.295127000000001
#
# number of rings (size 3 to 8) (size 9 to 14) (size 15 to 20)
#    0.000    1.875    1.250    2.250    0.000    8.250 
#    0.000    5.000    0.000    0.000    0.000    0.000 
#    0.000    0.000    0.000    0.000    0.000    0.000 
#
# Total GULP energy -396973.569678 kJ/mol
# GULP energy per Si atom -12405.424052 kJ/mol
# Density = 1.925121 g / cm^3
# Si number density = 19.295127 Si / 1000 Ang^3
#
#
#
# Elastic Constant Matrix: (Units=GPa)
#
#
# Indices 1 2 3 4 5 6 
#
# 1 132.4400 58.2992 40.7300 0.0000 2.4007 0.0000
# 2 58.2992 93.1408 33.3829 0.0000 0.0086 0.0000
# 3 40.7300 33.3829 62.5140 0.0000 -4.3243 0.0000
# 4 0.0000 0.0000 0.0000 28.7413 0.0000 3.5856
# 5 2.4007 0.0086 -4.3243 0.0000 28.7052 0.0000
# 6 0.0000 0.0000 0.0000 3.5856 0.0000 37.1601
#
#
#
# Elastic Compliance Matrix: (Units=1/GPa)
#
#
# Indices 1 2 3 4 5 6 
#
# 1 0.011419 -0.005491 -0.004622 0.000000 -0.001650 0.000000
# 2 -0.005491 0.015951 -0.004961 0.000000 -0.000293 0.000000
# 3 -0.004622 -0.004961 0.021912 0.000000 0.003689 0.000000
# 4 0.000000 0.000000 0.000000 0.035217 0.000000 -0.003398
# 5 -0.001650 -0.000293 0.003689 0.000000 0.035531 0.000000
# 6 0.000000 0.000000 0.000000 -0.003398 0.000000 0.027238
#
#
# Mechanical properties :
#
#
# Convention : Reuss Voigt Hill
#
# Bulk Modulus (GPa) = 52.25963 61.43544 56.84753
# Shear Modulus (GPa) = 27.20443 29.30019 28.25231
#
# Velocity S-wave (km/s) = 3.75895 3.90106 3.83066
# Velocity P-wave (km/s) = 6.78106 7.22496 7.00652
#
# Compressibility (1/GPa) = 0.01913523
#
# Stress axis : x y z
#
# Youngs Moduli (GPa) = 87.57473 62.69085 45.63699
#
# Poissons Ratio (x) = 0.34421 0.21093
# Poissons Ratio (y) = 0.48084 0.22640
# Poissons Ratio (z) = 0.40475 0.31101
#
# Static dielectric constant tensor:
#      x y z
#    x 3.517380 0.000000 -0.034820 
#    y 0.000000 3.546290 0.000000 
#    z -0.034820 0.000000 3.507870 
# 
# 
# High freq. dielectric constant tensor:
#      x y z
#    x 1.757670 0.000000 -0.002970 
#    y 0.000000 1.751070 0.000000 
#    z -0.002970 0.000000 1.752600 
# 
# From -- ./inp_files/187496.got.cif
#   From: 2010.06.25/outbox.cif.g09.slc.cpg/sg12_94_cif.got.tgz:187496.got - 2010.06.28 00:19:55.
