data_PCOD8100672
_publ_section_title
;
Structure prediction by ZEFSAII (Michael W. Deem and Ramdas Pophale) SiO2 
 PCOD8100672
Probable space group: C 2/M
;
_chemical_formula_sum "Si O2"
_cell_formula_units_Z 40
_cell_length_a 4.956830
_cell_length_b 23.331448
_cell_length_c 19.105813
_cell_angle_alpha 90.000000
_cell_angle_beta 63.203069
_cell_angle_gamma 90.000000
_cell_volume 1972.299990
_symmetry_space_group_name_H-M "C 2/M"
_symmetry_group_IT_number 12
_symmetry_cell_setting 'monoclinic'
loop_
_space_group_symop_operation_xyz
x,y,z
-x,y,-z
-x,-y,-z
x,-y,z
1/2+x,1/2+y,z
1/2-x,1/2+y,-z
1/2-x,1/2-y,-z
1/2+x,1/2-y,z
loop_
_atom_site_type_symbol
_atom_site_label
_atom_site_fract_x
_atom_site_fract_y
_atom_site_fract_z
Si Si1 0.158320 0.789422 0.410016
Si Si2 0.036507 0.630865 0.728291
Si Si3 0.037188 0.934736 0.216714
Si Si4 0.782392 0.212450 0.135869
Si Si5 0.853433 0.894233 0.949610
O O1 0.447533 0.750751 0.389066
O O2 0.241820 0.847303 0.358679
O O3 0.000000 0.809900 0.500000
O O4 0.223645 0.604555 0.770747
O O5 0.804804 0.584002 0.724160
O O6 0.836576 0.684365 0.778317
O O7 0.085539 0.929934 0.127695
O O8 0.083915 0.000000 0.234965
O O9 0.490032 0.232329 0.126524
O O10 0.975370 0.166571 0.070655
O O11 0.500000 0.884601 0.000000
O O12 0.000000 0.927081 0.000000
#
# Coordination Sequence:
#
# PCOD8100672 Si02
#       5
#     8   8   8   8   8
#     4  10  20  35  60  94 127 156 183 218 272 333
#     4  11  21  38  60  84 116 147 190 236 273 335
#     4  11  24  41  61  81 105 147 196 244 293 331
#     4  11  21  34  54  79 110 148 180 215 272 339
#     4  11  23  38  55  80 111 143 188 239 289 343
#
# _framework density 20.280889999999999
#
# number of rings (size 3 to 8) (size 9 to 14) (size 15 to 20)
#    0.000    1.200    0.000    9.000    0.000    3.200 
#    0.000    0.000    0.000    3.600    0.000    0.000 
#    0.000    0.000    0.000    0.000    0.000    0.000 
#
# Total GULP energy -248052.756533 kJ/mol
# GULP energy per Si atom -12402.637827 kJ/mol
# Density = 2.023473 g / cm^3
# Si number density = 20.280890 Si / 1000 Ang^3
#
#
#
# Elastic Constant Matrix: (Units=GPa)
#
#
# Indices 1 2 3 4 5 6 
#
# 1 139.5623 34.5277 39.1634 0.0000 -9.8236 0.0000
# 2 34.5277 87.5466 46.2490 0.0000 -5.5250 0.0000
# 3 39.1634 46.2490 108.8074 0.0000 -9.5938 0.0000
# 4 0.0000 0.0000 0.0000 13.4174 0.0000 -1.9331
# 5 -9.8236 -5.5250 -9.5938 0.0000 31.1997 0.0000
# 6 0.0000 0.0000 0.0000 -1.9331 0.0000 30.2413
#
#
#
# Elastic Compliance Matrix: (Units=1/GPa)
#
#
# Indices 1 2 3 4 5 6 
#
# 1 0.008363 -0.002168 -0.001943 0.000000 0.001652 0.000000
# 2 -0.002168 0.015307 -0.005702 0.000000 0.000275 0.000000
# 3 -0.001943 -0.005702 0.012510 0.000000 0.002225 0.000000
# 4 0.000000 0.000000 0.000000 0.075223 0.000000 0.004809
# 5 0.001652 0.000275 0.002225 0.000000 0.033305 0.000000
# 6 0.000000 0.000000 0.000000 0.004809 0.000000 0.033375
#
#
# Mechanical properties :
#
#
# Convention : Reuss Voigt Hill
#
# Bulk Modulus (GPa) = 60.40629 63.97740 62.19185
# Shear Modulus (GPa) = 24.60325 29.37008 26.98666
#
# Velocity S-wave (km/s) = 3.48677 3.80961 3.65176
# Velocity P-wave (km/s) = 6.78672 7.13897 6.96507
#
# Compressibility (1/GPa) = 0.01655457
#
# Stress axis : x y z
#
# Youngs Moduli (GPa) = 119.57333 65.33018 79.93757
#
# Poissons Ratio (x) = 0.14161 0.15533
# Poissons Ratio (y) = 0.25918 0.45579
# Poissons Ratio (z) = 0.23235 0.37250
#
# Static dielectric constant tensor:
#      x y z
#    x 3.892910 0.000000 -0.115180 
#    y 0.000000 3.460340 0.000000 
#    z -0.115180 0.000000 3.644550 
# 
# 
# High freq. dielectric constant tensor:
#      x y z
#    x 1.817210 0.000000 -0.008850 
#    y 0.000000 1.771100 0.000000 
#    z -0.008850 0.000000 1.780780 
# 
# From -- ./inp_files/252802.got.cif
#   From: 2010.06.25/outbox.cif.g09.slc.cpg/sg12_127_cif.got.tgz:252802.got - 2010.06.28 00:19:55.
