data_PCOD8100976
_publ_section_title
;
Structure prediction by ZEFSAII (Michael W. Deem and Ramdas Pophale) SiO2 
 PCOD8100976
Probable space group: C 2/M
;
_chemical_formula_sum "Si O2"
_cell_formula_units_Z 56
_cell_length_a 9.986568
_cell_length_b 24.950125
_cell_length_c 19.792680
_cell_angle_alpha 90.000000
_cell_angle_beta 40.395584
_cell_angle_gamma 90.000000
_cell_volume 3196.020941
_symmetry_space_group_name_H-M "C 2/M"
_symmetry_group_IT_number 12
_symmetry_cell_setting 'monoclinic'
loop_
_space_group_symop_operation_xyz
x,y,z
-x,y,-z
-x,-y,-z
x,-y,z
1/2+x,1/2+y,z
1/2-x,1/2+y,-z
1/2-x,1/2-y,-z
1/2+x,1/2-y,z
loop_
_atom_site_type_symbol
_atom_site_label
_atom_site_fract_x
_atom_site_fract_y
_atom_site_fract_z
Si Si1 0.512054 0.248187 0.073867
Si Si2 0.477033 0.438864 0.085577
Si Si3 0.464852 0.188962 0.439566
Si Si4 0.436610 0.061841 0.949899
Si Si5 0.098475 0.651434 0.792468
Si Si6 0.296122 0.844203 0.781637
Si Si7 0.999547 0.188488 0.424767
O O1 0.412740 0.198296 0.149147
O O2 0.390270 0.301742 0.142083
O O3 0.500000 0.237741 0.000000
O O4 0.750000 0.250000 0.000000
O O5 0.401430 0.500000 0.118510
O O6 0.300056 0.403140 0.186465
O O7 0.500000 0.419638 0.000000
O O8 0.691619 0.429942 0.041225
O O9 0.500000 0.163020 0.500000
O O10 0.577911 0.158305 0.336086
O O11 0.221257 0.184244 0.524546
O O12 0.560439 0.248812 0.401754
O O13 0.548782 0.095314 0.847915
O O14 0.498300 0.000000 0.913950
O O15 0.500000 0.081519 0.000000
O O16 0.335967 0.651832 0.677785
O O17 0.946846 0.662758 0.787757
O O18 0.000000 0.165592 0.500000
#
# Coordination Sequence:
#
# PCOD8100976 Si02
#       7
#     8   8   8   8   8   8   8
#     4  12  24  35  51  82 121 150 181 229 290 345
#     4  10  20  37  61  85 112 151 196 231 274 342
#     4  10  22  36  56  80 112 146 194 242 282 341
#     4  10  22  40  60  87 118 151 193 238 280 338
#     4  12  22  36  60  84 114 157 192 232 290 346
#     4  12  22  37  58  84 116 152 192 241 286 340
#     4  10  20  36  56  79 109 150 195 235 282 341
#
# _framework density 17.521788000000001
#
# number of rings (size 3 to 8) (size 9 to 14) (size 15 to 20)
#    0.000    1.143    5.714    1.714    0.000    2.286 
#    0.000    0.000    0.000    1.714    0.000    0.000 
#    0.000    0.000    0.000    0.000    0.000    0.000 
#
# Total GULP energy -347218.453539 kJ/mol
# GULP energy per Si atom -12400.659055 kJ/mol
# Density = 1.748191 g / cm^3
# Si number density = 17.521788 Si / 1000 Ang^3
#
#
#
# Elastic Constant Matrix: (Units=GPa)
#
#
# Indices 1 2 3 4 5 6 
#
# 1 115.4821 22.7958 41.7216 0.0001 11.7150 -0.0001
# 2 22.7958 77.0147 52.4771 0.0001 4.8496 0.0000
# 3 41.7216 52.4771 120.4762 0.0010 9.0571 -0.0001
# 4 0.0001 0.0001 0.0010 10.4931 -0.0002 8.3006
# 5 11.7150 4.8496 9.0571 -0.0002 33.2473 0.0000
# 6 -0.0001 0.0000 -0.0001 8.3006 0.0000 17.8780
#
#
#
# Elastic Compliance Matrix: (Units=1/GPa)
#
#
# Indices 1 2 3 4 5 6 
#
# 1 0.010161 -0.000823 -0.002961 0.000000 -0.002654 0.000000
# 2 -0.000823 0.018540 -0.007768 0.000001 -0.000298 0.000000
# 3 -0.002961 -0.007768 0.012808 -0.000002 -0.001313 0.000001
# 4 0.000000 0.000001 -0.000002 0.150619 0.000001 -0.069931
# 5 -0.002654 -0.000298 -0.001313 0.000001 0.031414 -0.000001
# 6 0.000000 0.000000 0.000001 -0.069931 -0.000001 0.088403
#
#
# Mechanical properties :
#
#
# Convention : Reuss Voigt Hill
#
# Bulk Modulus (GPa) = 54.33332 60.77354 57.55343
# Shear Modulus (GPa) = 14.65487 25.38892 20.02190
#
# Velocity S-wave (km/s) = 2.89516 3.81069 3.38403
# Velocity P-wave (km/s) = 6.50017 7.35674 6.94168
#
# Compressibility (1/GPa) = 0.01840491
#
# Stress axis : x y z
#
# Youngs Moduli (GPa) = 98.41883 53.93697 78.07539
#
# Poissons Ratio (x) = 0.04439 0.23116
# Poissons Ratio (y) = 0.08100 0.60651
# Poissons Ratio (z) = 0.29139 0.41900
#
# Static dielectric constant tensor:
#      x y z
#    x 3.441640 0.000000 0.031920 
#    y 0.000000 3.162630 0.000000 
#    z 0.031920 0.000000 3.061930 
# 
# 
# High freq. dielectric constant tensor:
#      x y z
#    x 1.697950 0.000000 0.001390 
#    y 0.000000 1.655990 0.000000 
#    z 0.001390 0.000000 1.676500 
# 
# From -- ./inp_files/198392.got.cif
#   From: 2010.06.25/outbox.cif.g09.slc.cpg/sg12_100_cif.got.tgz:198392.got - 2010.06.28 00:19:55.
