data_PCOD8100926
_publ_section_title
;
Structure prediction by ZEFSAII (Michael W. Deem and Ramdas Pophale) SiO2 
 PCOD8100926
Probable space group: C 2/M
;
_chemical_formula_sum "Si O2"
_cell_formula_units_Z 56
_cell_length_a 19.017693
_cell_length_b 8.957996
_cell_length_c 17.252721
_cell_angle_alpha 90.000000
_cell_angle_beta 109.882983
_cell_angle_gamma 90.000000
_cell_volume 2763.973781
_symmetry_space_group_name_H-M "C 2/M"
_symmetry_group_IT_number 12
_symmetry_cell_setting 'monoclinic'
loop_
_space_group_symop_operation_xyz
x,y,z
-x,y,-z
-x,-y,-z
x,-y,z
1/2+x,1/2+y,z
1/2-x,1/2+y,-z
1/2-x,1/2-y,-z
1/2+x,1/2-y,z
loop_
_atom_site_type_symbol
_atom_site_label
_atom_site_fract_x
_atom_site_fract_y
_atom_site_fract_z
Si Si1 0.580514 0.325918 0.000717
Si Si2 0.183231 0.672209 0.931056
Si Si3 0.692238 0.824038 0.316413
Si Si4 0.215769 0.170116 0.167591
Si Si5 0.412681 0.675495 0.619418
Si Si6 0.038764 0.663917 0.597678
Si Si7 0.674602 0.824394 0.553988
O O1 0.574681 0.500000 0.980268
O O2 0.643764 0.290480 0.088089
O O3 0.500000 0.264883 0.000000
O O4 0.604632 0.246538 0.928423
O O5 0.180792 0.500000 0.953819
O O6 0.205051 0.690599 0.848404
O O7 0.250000 0.750000 0.000000
O O8 0.717121 0.781740 0.239739
O O9 0.613224 0.745357 0.308054
O O10 0.748658 0.761328 0.402543
O O11 0.685698 0.000000 0.321460
O O12 0.209062 0.000000 0.194934
O O13 0.400871 0.500000 0.614089
O O14 0.500347 0.714623 0.639536
O O15 0.364970 0.753171 0.534487
O O16 0.030233 0.500000 0.632912
O O17 0.125481 0.700990 0.613960
O O18 0.000000 0.663128 0.500000
O O19 0.688127 0.000000 0.543948
#
# Coordination Sequence:
#
# PCOD8100926 Si02
#       7
#     8   8   8   8   8   8   8
#     4   9  18  34  58  86 113 140 172 213 258 307
#     4   9  17  31  54  80 106 137 171 207 249 304
#     4  12  24  36  52  75 105 141 182 224 267 315
#     4   9  19  36  54  75 106 142 177 215 265 315
#     4  11  21  34  54  78 106 139 178 223 269 318
#     4   8  16  32  53  75  99 128 164 211 264 314
#     4  10  20  36  56  77 104 137 177 224 271 319
#
# _framework density 20.260684999999999
#
# number of rings (size 3 to 8) (size 9 to 14) (size 15 to 20)
#    0.000    2.286    0.000    5.571    0.000    6.286 
#    0.000    1.429    0.000    3.429    0.000    0.000 
#    0.000    0.000    0.000    0.000    0.000    0.000 
#
# Total GULP energy -347041.470137 kJ/mol
# GULP energy per Si atom -12394.338219 kJ/mol
# Density = 2.021457 g / cm^3
# Si number density = 20.260685 Si / 1000 Ang^3
#
#
#
# Elastic Constant Matrix: (Units=GPa)
#
#
# Indices 1 2 3 4 5 6 
#
# 1 122.0522 53.6741 15.4276 0.0000 -35.2599 0.0000
# 2 53.6741 130.7745 28.0510 0.0000 -23.7763 0.0000
# 3 15.4276 28.0510 36.8241 0.0000 -21.9688 0.0000
# 4 0.0000 0.0000 0.0000 28.3729 0.0000 -8.2931
# 5 -35.2599 -23.7763 -21.9688 0.0000 29.2131 0.0000
# 6 0.0000 0.0000 0.0000 -8.2931 0.0000 35.6571
#
#
#
# Elastic Compliance Matrix: (Units=1/GPa)
#
#
# Indices 1 2 3 4 5 6 
#
# 1 0.015463 -0.004440 0.010669 0.000000 0.023073 0.000000
# 2 -0.004440 0.010680 -0.007775 0.000000 -0.002514 0.000000
# 3 0.010669 -0.007775 0.058975 0.000000 0.050900 0.000000
# 4 0.000000 0.000000 0.000000 0.037816 0.000000 0.008795
# 5 0.023073 -0.002514 0.050900 0.000000 0.098313 0.000000
# 6 0.000000 0.000000 0.000000 0.008795 0.000000 0.030091
#
#
# Mechanical properties :
#
#
# Convention : Reuss Voigt Hill
#
# Bulk Modulus (GPa) = 12.19116 53.77292 32.98204
# Shear Modulus (GPa) = 17.74496 31.48182 24.61339
#
# Velocity S-wave (km/s) = 2.96266 3.94615 3.48923
# Velocity P-wave (km/s) = 4.21110 6.88193 5.70501
#
# Compressibility (1/GPa) = 0.08202662
#
# Stress axis : x y z
#
# Youngs Moduli (GPa) = 64.67103 93.63514 16.95627
#
# Poissons Ratio (x) = 0.41574 -0.18091
# Poissons Ratio (y) = 0.28714 0.13183
# Poissons Ratio (z) = -0.68999 0.72800
#
# Static dielectric constant tensor:
#      x y z
#    x 4.442450 0.000000 -0.452280 
#    y 0.000000 3.663830 0.000000 
#    z -0.452280 0.000000 3.355060 
# 
# 
# High freq. dielectric constant tensor:
#      x y z
#    x 1.805640 0.000000 -0.031380 
#    y 0.000000 1.791660 0.000000 
#    z -0.031380 0.000000 1.749940 
# 
# From -- ./inp_files/280409.got.cif
#   From: 2010.06.25/outbox.cif.g09.slc.cpg/sg12_141_cif.got.tgz:280409.got - 2010.06.28 00:19:55.
