data_PCOD8100904
_publ_section_title
;
Structure prediction by ZEFSAII (Michael W. Deem and Ramdas Pophale) SiO2 
 PCOD8100904
Probable space group: C 2/M
;
_chemical_formula_sum "Si O2"
_cell_formula_units_Z 36
_cell_length_a 13.199082
_cell_length_b 30.627965
_cell_length_c 7.614307
_cell_angle_alpha 90.000000
_cell_angle_beta 145.986058
_cell_angle_gamma 90.000000
_cell_volume 1721.910353
_symmetry_space_group_name_H-M "C 2/M"
_symmetry_group_IT_number 12
_symmetry_cell_setting 'monoclinic'
loop_
_space_group_symop_operation_xyz
x,y,z
-x,y,-z
-x,-y,-z
x,-y,z
1/2+x,1/2+y,z
1/2-x,1/2+y,-z
1/2-x,1/2-y,-z
1/2+x,1/2-y,z
loop_
_atom_site_type_symbol
_atom_site_label
_atom_site_fract_x
_atom_site_fract_y
_atom_site_fract_z
Si Si1 0.801722 0.048171 0.661503
Si Si2 0.000000 0.232437 0.000000
Si Si3 0.002087 0.387735 0.212304
Si Si4 0.199747 0.048436 0.751567
Si Si5 0.403339 0.206692 0.537845
O O1 0.666925 0.085174 0.534682
O O2 0.767646 0.044754 0.406815
O O3 0.764309 0.000000 0.690476
O O4 0.000000 0.064110 0.000000
O O5 0.181851 0.204039 0.217113
O O6 0.036353 0.261705 0.220852
O O7 0.007400 0.340467 0.305237
O O8 0.000000 0.382546 0.000000
O O9 0.826456 0.415054 0.020885
O O10 0.000000 0.065429 0.500000
O O11 0.231685 0.000000 0.881303
O O12 0.500000 0.224928 0.500000
#
# Coordination Sequence:
#
# PCOD8100904 Si02
#       5
#     8   4   8   8   8
#     4   9  18  32  53  78 113 159 198 239 297 348
#     4  10  24  46  68  90 128 160 198 260 314 384
#     4  10  20  36  55  84 121 155 201 251 300 357
#     4   9  18  34  54  79 116 162 205 244 294 355
#     4  11  23  43  68  96 122 161 205 252 314 380
#
# _framework density 20.907011000000001
#
# number of rings (size 3 to 8) (size 9 to 14) (size 15 to 20)
#    0.000    2.222    1.111    1.333    1.556    4.444 
#    4.000    1.111    0.000    6.667    0.000    0.000 
#    0.000    0.000    0.000    0.000    0.000    0.000 
#
# Total GULP energy -223060.083046 kJ/mol
# GULP energy per Si atom -12392.226836 kJ/mol
# Density = 2.085943 g / cm^3
# Si number density = 20.907011 Si / 1000 Ang^3
#
#
#
# Elastic Constant Matrix: (Units=GPa)
#
#
# Indices 1 2 3 4 5 6 
#
# 1 85.1824 28.0508 36.1351 0.0000 11.8762 0.0000
# 2 28.0508 112.1555 59.6747 0.0000 19.5363 0.0000
# 3 36.1351 59.6747 129.1869 0.0000 24.9601 0.0000
# 4 0.0000 0.0000 0.0000 10.7964 0.0000 12.1424
# 5 11.8762 19.5363 24.9601 0.0000 35.3797 0.0000
# 6 0.0000 0.0000 0.0000 12.1424 0.0000 -0.8572
#
#
#
# Elastic Compliance Matrix: (Units=1/GPa)
#
#
# Indices 1 2 3 4 5 6 
#
# 1 0.013687 -0.001672 -0.002717 0.000000 -0.001754 0.000000
# 2 -0.001672 0.012327 -0.004654 0.000000 -0.002962 0.000000
# 3 -0.002717 -0.004654 0.011553 0.000000 -0.004668 0.000000
# 4 0.000000 0.000000 0.000000 0.005471 0.000000 0.077492
# 5 -0.001754 -0.002962 -0.004668 0.000000 0.033783 0.000000
# 6 0.000000 0.000000 0.000000 0.077492 0.000000 -0.068902
#
#
# Mechanical properties :
#
#
# Convention : Reuss Voigt Hill
#
# Bulk Modulus (GPa) = 51.33463 63.80513 57.56988
# Shear Modulus (GPa) = 153.85951 22.57473 88.21712
#
# Velocity S-wave (km/s) = 8.58790 3.28955 6.50281
# Velocity P-wave (km/s) = 11.08797 6.70917 9.16395
#
# Compressibility (1/GPa) = 0.01948003
#
# Stress axis : x y z
#
# Youngs Moduli (GPa) = 73.06008 81.12554 86.56125
#
# Poissons Ratio (x) = 0.13564 0.23521
# Poissons Ratio (y) = 0.12215 0.40286
# Poissons Ratio (z) = 0.19852 0.37756
#
# Static dielectric constant tensor:
#      x y z
#    x 3.631760 0.000000 0.111730 
#    y 0.000000 3.797590 0.000000 
#    z 0.111730 0.000000 3.979250 
# 
# 
# High freq. dielectric constant tensor:
#      x y z
#    x 1.809010 0.000000 0.003580 
#    y 0.000000 1.808710 0.000000 
#    z 0.003580 0.000000 1.830280 
# 
# From -- ./inp_files/41326.got.cif
#   From: 2010.06.25/outbox.cif.g09.slc.cpg/sg12_21_cif.got.tgz:41326.got - 2010.06.28 00:19:55.
