data_PCOD8100274
_publ_section_title
;
Structure prediction by ZEFSAII (Michael W. Deem and Ramdas Pophale) SiO2 
 PCOD8100274
Probable space group: C 2/M
;
_chemical_formula_sum "Si O2"
_cell_formula_units_Z 56
_cell_length_a 17.224817
_cell_length_b 16.430458
_cell_length_c 9.749505
_cell_angle_alpha 90.000000
_cell_angle_beta 98.978846
_cell_angle_gamma 90.000000
_cell_volume 2725.411884
_symmetry_space_group_name_H-M "C 2/M"
_symmetry_group_IT_number 12
_symmetry_cell_setting 'monoclinic'
loop_
_space_group_symop_operation_xyz
x,y,z
-x,y,-z
-x,-y,-z
x,-y,z
1/2+x,1/2+y,z
1/2-x,1/2+y,-z
1/2-x,1/2-y,-z
1/2+x,1/2-y,z
loop_
_atom_site_type_symbol
_atom_site_label
_atom_site_fract_x
_atom_site_fract_y
_atom_site_fract_z
Si Si1 0.298104 0.669190 0.557339
Si Si2 0.789964 0.592928 0.241279
Si Si3 0.044718 0.090486 0.374655
Si Si4 0.938165 0.095418 0.096971
Si Si5 0.296695 0.093094 0.686745
Si Si6 0.238923 0.841619 0.954649
Si Si7 0.414687 0.903845 0.493377
O O1 0.250000 0.750000 0.500000
O O2 0.277463 0.647295 0.708279
O O3 0.392586 0.664534 0.587580
O O4 0.274556 0.599220 0.441484
O O5 0.772462 0.500000 0.270209
O O6 0.870232 0.619623 0.340181
O O7 0.789472 0.605932 0.077997
O O8 0.000000 0.076989 0.500000
O O9 0.979018 0.119512 0.249680
O O10 0.079540 0.000000 0.340457
O O11 0.853430 0.138358 0.065715
O O12 0.921087 0.000000 0.076977
O O13 0.000000 0.126017 0.000000
O O14 0.278155 0.145184 0.816710
O O15 0.372040 0.128382 0.621304
O O16 0.307693 0.000000 0.735262
O O17 0.250000 0.750000 0.000000
O O18 0.500000 0.863341 0.500000
O O19 0.420694 0.000000 0.512135
#
# Coordination Sequence:
#
# PCOD8100274 Si02
#       7
#     8   8   8   8   8   8   8
#     4  11  21  36  57  87 121 153 194 250 312 370
#     4  10  20  36  59  81 108 155 203 242 294 369
#     4  10  20  35  58  86 115 150 196 248 298 357
#     4  10  21  38  61  85 114 157 204 251 301 362
#     4  10  20  36  60  85 114 159 205 248 303 373
#     4  12  24  39  57  87 125 158 198 257 322 380
#     4   8  16  34  59  85 110 140 190 248 292 343
#
# _framework density 20.547352
#
# number of rings (size 3 to 8) (size 9 to 14) (size 15 to 20)
#    0.000    1.857    0.000    6.000    0.000    2.286 
#    0.000    7.857    0.000    3.429    0.000    0.000 
#    0.000    0.000    0.000    0.000    0.000    0.000 
#
# Total GULP energy -346870.894881 kJ/mol
# GULP energy per Si atom -12388.246246 kJ/mol
# Density = 2.050059 g / cm^3
# Si number density = 20.547352 Si / 1000 Ang^3
#
#
#
# Elastic Constant Matrix: (Units=GPa)
#
#
# Indices 1 2 3 4 5 6 
#
# 1 161.1609 42.1957 73.2808 0.0000 9.2529 0.0000
# 2 42.1957 74.9649 25.2958 0.0000 11.8539 0.0000
# 3 73.2808 25.2958 150.4006 0.0000 -6.5450 0.0000
# 4 0.0000 0.0000 0.0000 30.5125 0.0000 5.7413
# 5 9.2529 11.8539 -6.5450 0.0000 29.9807 0.0000
# 6 0.0000 0.0000 0.0000 5.7413 0.0000 30.3073
#
#
#
# Elastic Compliance Matrix: (Units=1/GPa)
#
#
# Indices 1 2 3 4 5 6 
#
# 1 0.009004 -0.003383 -0.003918 0.000000 -0.002297 0.000000
# 2 -0.003383 0.016642 -0.001405 0.000000 -0.005843 0.000000
# 3 -0.003918 -0.001405 0.008956 0.000000 0.003720 0.000000
# 4 0.000000 0.000000 0.000000 0.033985 0.000000 -0.006438
# 5 -0.002297 -0.005843 0.003720 0.000000 0.037186 0.000000
# 6 0.000000 0.000000 0.000000 -0.006438 0.000000 0.034215
#
#
# Mechanical properties :
#
#
# Convention : Reuss Voigt Hill
#
# Bulk Modulus (GPa) = 58.17328 74.23013 66.20170
# Shear Modulus (GPa) = 30.65049 34.54369 32.59709
#
# Velocity S-wave (km/s) = 3.86644 4.10466 3.98733
# Velocity P-wave (km/s) = 6.95024 7.65958 7.31351
#
# Compressibility (1/GPa) = 0.01719002
#
# Stress axis : x y z
#
# Youngs Moduli (GPa) = 111.05953 60.09015 111.65500
#
# Poissons Ratio (x) = 0.20328 0.43748
# Poissons Ratio (y) = 0.37570 0.15687
# Poissons Ratio (z) = 0.43515 0.08442
#
# Static dielectric constant tensor:
#      x y z
#    x 3.930970 0.000000 0.083000 
#    y 0.000000 3.585090 0.000000 
#    z 0.083000 0.000000 4.145860 
# 
# 
# High freq. dielectric constant tensor:
#      x y z
#    x 1.795550 0.000000 -0.001620 
#    y 0.000000 1.785560 0.000000 
#    z -0.001620 0.000000 1.814180 
# 
# From -- ./inp_files/75983.got.cif
#   From: 2010.06.25/outbox.cif.g09.slc.cpg/sg12_38_cif.got.tgz:75983.got - 2010.06.28 00:19:55.
