data_PCOD8100346
_publ_section_title
;
Structure prediction by ZEFSAII (Michael W. Deem and Ramdas Pophale) SiO2 
 PCOD8100346
Probable space group: C 2/M
;
_chemical_formula_sum "Si O2"
_cell_formula_units_Z 56
_cell_length_a 14.983388
_cell_length_b 9.009494
_cell_length_c 24.400843
_cell_angle_alpha 90.000000
_cell_angle_beta 117.296820
_cell_angle_gamma 90.000000
_cell_volume 2927.132813
_symmetry_space_group_name_H-M "C 2/M"
_symmetry_group_IT_number 12
_symmetry_cell_setting 'monoclinic'
loop_
_space_group_symop_operation_xyz
x,y,z
-x,y,-z
-x,-y,-z
x,-y,z
1/2+x,1/2+y,z
1/2-x,1/2+y,-z
1/2-x,1/2-y,-z
1/2+x,1/2-y,z
loop_
_atom_site_type_symbol
_atom_site_label
_atom_site_fract_x
_atom_site_fract_y
_atom_site_fract_z
Si Si1 0.163106 0.168997 0.005653
Si Si2 0.326080 0.175001 0.792273
Si Si3 0.729524 0.672846 0.650021
Si Si4 0.537819 0.675716 0.872965
Si Si5 0.778096 0.675336 0.139504
Si Si6 0.474072 0.826018 0.432230
Si Si7 0.678640 0.173339 0.436846
O O1 0.175682 0.202858 0.074081
O O2 0.187998 0.000000 0.002229
O O3 0.250000 0.250000 0.000000
O O4 0.058906 0.206402 0.944575
O O5 0.291673 0.212623 0.721402
O O6 0.434048 0.247710 0.829916
O O7 0.243649 0.248406 0.808768
O O8 0.332399 0.000000 0.805399
O O9 0.706569 0.500000 0.639705
O O10 0.623645 0.753818 0.621041
O O11 0.795430 0.727518 0.616970
O O12 0.531750 0.500000 0.859106
O O13 0.624904 0.748315 0.860359
O O14 0.799093 0.500000 0.153124
O O15 0.500000 0.762672 0.500000
O O16 0.563803 0.784181 0.416390
O O17 0.454706 0.000000 0.430884
O O18 0.750000 0.250000 0.500000
O O19 0.696051 0.000000 0.449001
#
# Coordination Sequence:
#
# PCOD8100346 Si02
#       7
#     8   8   8   8   8   8   8
#     4   8  16  31  54  83 113 144 186 238 292 349
#     4  11  24  40  55  80 117 157 202 244 282 339
#     4  10  23  40  57  80 113 150 190 231 276 332
#     4  10  20  37  60  86 116 151 191 241 296 349
#     4  10  20  37  60  85 114 152 194 241 297 349
#     4  10  20  35  58  88 116 141 176 224 279 337
#     4  10  20  36  58  84 112 142 175 219 274 329
#
# _framework density 19.131349
#
# number of rings (size 3 to 8) (size 9 to 14) (size 15 to 20)
#    0.000    2.143    1.429    1.286    0.000    4.857 
#    0.000    4.286    0.000    0.000    0.000    0.000 
#    0.000    0.000    0.000    0.000    0.000    0.000 
#
# Total GULP energy -347025.398268 kJ/mol
# GULP energy per Si atom -12393.764224 kJ/mol
# Density = 1.908781 g / cm^3
# Si number density = 19.131349 Si / 1000 Ang^3
#
#
#
# Elastic Constant Matrix: (Units=GPa)
#
#
# Indices 1 2 3 4 5 6 
#
# 1 82.4309 28.2844 27.3732 0.0000 2.2223 0.0000
# 2 28.2844 62.8235 38.0485 0.0000 3.4397 0.0000
# 3 27.3732 38.0485 82.2031 0.0000 1.4378 0.0000
# 4 0.0000 0.0000 0.0000 31.1106 0.0000 4.1916
# 5 2.2223 3.4397 1.4378 0.0000 34.6398 0.0000
# 6 0.0000 0.0000 0.0000 4.1916 0.0000 31.9437
#
#
#
# Elastic Compliance Matrix: (Units=1/GPa)
#
#
# Indices 1 2 3 4 5 6 
#
# 1 0.014726 -0.005065 -0.002553 0.000000 -0.000336 0.000000
# 2 -0.005065 0.023969 -0.009379 0.000000 -0.001666 0.000000
# 3 -0.002553 -0.009379 0.017350 0.000000 0.000375 0.000000
# 4 0.000000 0.000000 0.000000 0.032722 0.000000 -0.004294
# 5 -0.000336 -0.001666 0.000375 0.000000 0.029040 0.000000
# 6 0.000000 0.000000 0.000000 -0.004294 0.000000 0.031869
#
#
# Mechanical properties :
#
#
# Convention : Reuss Voigt Hill
#
# Bulk Modulus (GPa) = 45.34972 46.09661 45.72316
# Shear Modulus (GPa) = 26.17517 28.45558 27.31538
#
# Velocity S-wave (km/s) = 3.70291 3.86084 3.78270
# Velocity P-wave (km/s) = 6.48366 6.63490 6.55972
#
# Compressibility (1/GPa) = 0.02205085
#
# Stress axis : x y z
#
# Youngs Moduli (GPa) = 67.90534 41.71988 57.63789
#
# Poissons Ratio (x) = 0.21132 0.14717
# Poissons Ratio (y) = 0.34396 0.54056
# Poissons Ratio (z) = 0.17339 0.39127
#
# Static dielectric constant tensor:
#      x y z
#    x 3.466760 0.000000 -0.132100 
#    y 0.000000 3.518880 0.000000 
#    z -0.132100 0.000000 3.848090 
# 
# 
# High freq. dielectric constant tensor:
#      x y z
#    x 1.742130 0.000000 -0.001620 
#    y 0.000000 1.746940 0.000000 
#    z -0.001620 0.000000 1.750670 
# 
# From -- ./inp_files/339029.got.cif
#   From: 2010.06.25/outbox.cif.g09.slc.cpg/sg12_170_cif.got.tgz:339029.got - 2010.06.28 00:19:55.
