data_PCOD8100340
_publ_section_title
;
Structure prediction by ZEFSAII (Michael W. Deem and Ramdas Pophale) SiO2 
 PCOD8100340
Probable space group: C 2/M
;
_chemical_formula_sum "Si O2"
_cell_formula_units_Z 56
_cell_length_a 12.478149
_cell_length_b 28.352394
_cell_length_c 14.217386
_cell_angle_alpha 90.000000
_cell_angle_beta 31.565667
_cell_angle_gamma 90.000000
_cell_volume 2633.030957
_symmetry_space_group_name_H-M "C 2/M"
_symmetry_group_IT_number 12
_symmetry_cell_setting 'monoclinic'
loop_
_space_group_symop_operation_xyz
x,y,z
-x,y,-z
-x,-y,-z
x,-y,z
1/2+x,1/2+y,z
1/2-x,1/2+y,-z
1/2-x,1/2-y,-z
1/2+x,1/2-y,z
loop_
_atom_site_type_symbol
_atom_site_label
_atom_site_fract_x
_atom_site_fract_y
_atom_site_fract_z
Si Si1 0.159654 0.052429 0.958025
Si Si2 0.668031 0.448818 0.650296
Si Si3 0.931557 0.230224 0.296956
Si Si4 0.193791 0.946729 0.414967
Si Si5 0.152568 0.350893 0.467128
Si Si6 0.024463 0.376437 0.211936
Si Si7 0.878794 0.297240 0.995080
O O1 0.055690 0.052453 0.137238
O O2 0.240060 0.000000 0.871085
O O3 0.345803 0.088007 0.820855
O O4 0.000000 0.070635 0.000000
O O5 0.772417 0.500000 0.595037
O O6 0.623994 0.443391 0.574096
O O7 0.804559 0.405964 0.586412
O O8 0.750000 0.250000 0.500000
O O9 0.857573 0.180477 0.308405
O O10 0.976569 0.262972 0.173724
O O11 0.150269 0.222914 0.187237
O O12 0.368757 0.908007 0.266608
O O13 0.000000 0.931063 0.500000
O O14 0.267599 0.000000 0.333551
O O15 0.000000 0.332502 0.500000
O O16 0.073190 0.343245 0.634023
O O17 0.149314 0.345217 0.044403
O O18 0.000000 0.307560 0.000000
#
# Coordination Sequence:
#
# PCOD8100340 Si02
#       7
#     8   8   8   8   8   8   8
#     4  10  20  35  58  87 128 175 215 269 330 383
#     4   9  19  36  56  88 128 165 212 265 316 388
#     4  11  25  48  69  96 131 168 224 276 330 406
#     4   9  19  36  58  84 122 175 224 267 320 384
#     4  11  23  38  66  94 124 174 215 267 330 392
#     4  11  22  38  58  96 129 164 221 272 327 402
#     4  11  27  45  71 100 132 172 215 280 345 398
#
# _framework density 21.268266000000001
#
# number of rings (size 3 to 8) (size 9 to 14) (size 15 to 20)
#    0.000    1.714    1.429    2.143    2.000    4.286 
#    0.000    1.429    0.000    4.286    0.000    0.000 
#    0.000    0.000    0.000    0.000    0.000    0.000 
#
# Total GULP energy -347076.383941 kJ/mol
# GULP energy per Si atom -12395.585141 kJ/mol
# Density = 2.121986 g / cm^3
# Si number density = 21.268266 Si / 1000 Ang^3
#
#
#
# Elastic Constant Matrix: (Units=GPa)
#
#
# Indices 1 2 3 4 5 6 
#
# 1 107.7663 50.8332 35.8715 0.0001 -21.3433 -0.0003
# 2 50.8332 101.6615 44.3904 0.0000 -9.2564 0.0002
# 3 35.8715 44.3904 102.3391 0.0000 -8.4855 0.0003
# 4 0.0001 0.0000 0.0000 35.0964 -0.0001 -4.9447
# 5 -21.3433 -9.2564 -8.4855 -0.0001 29.1680 0.0000
# 6 -0.0003 0.0002 0.0003 -4.9447 0.0000 64.6997
#
#
#
# Elastic Compliance Matrix: (Units=1/GPa)
#
#
# Indices 1 2 3 4 5 6 
#
# 1 0.014085 -0.005487 -0.001893 0.000000 0.008014 0.000000
# 2 -0.005487 0.014435 -0.004397 0.000000 -0.000713 0.000000
# 3 -0.001893 -0.004397 0.012411 0.000000 0.000830 0.000000
# 4 0.000000 0.000000 0.000000 0.028803 0.000000 0.002201
# 5 0.008014 -0.000713 0.000830 0.000000 0.040164 0.000000
# 6 0.000000 0.000000 0.000000 0.002201 0.000000 0.015624
#
#
# Mechanical properties :
#
#
# Convention : Reuss Voigt Hill
#
# Bulk Modulus (GPa) = 57.54428 63.77301 60.65865
# Shear Modulus (GPa) = 32.28570 37.83763 35.06166
#
# Velocity S-wave (km/s) = 3.90041 4.22247 4.06463
# Velocity P-wave (km/s) = 6.88472 7.33638 7.11414
#
# Compressibility (1/GPa) = 0.01737792
#
# Stress axis : x y z
#
# Youngs Moduli (GPa) = 70.99976 69.27543 80.57357
#
# Poissons Ratio (x) = 0.38008 0.15249
# Poissons Ratio (y) = 0.38954 0.35431
# Poissons Ratio (z) = 0.13437 0.30463
#
# Static dielectric constant tensor:
#      x y z
#    x 3.662220 0.000000 0.050820 
#    y 0.000000 4.126240 0.000000 
#    z 0.050820 0.000000 3.843360 
# 
# 
# High freq. dielectric constant tensor:
#      x y z
#    x 1.825140 0.000000 0.002640 
#    y 0.000000 1.847620 0.000000 
#    z 0.002640 0.000000 1.826640 
# 
# From -- ./inp_files/210013.got.cif
#   From: 2010.06.25/outbox.cif.g09.slc.cpg/sg12_106_cif.got.tgz:210013.got - 2010.06.28 00:19:55.
