data_PCOD8100507
_publ_section_title
;
Structure prediction by ZEFSAII (Michael W. Deem and Ramdas Pophale) SiO2 
 PCOD8100507
Probable space group: C 2/M
;
_chemical_formula_sum "Si O2"
_cell_formula_units_Z 60
_cell_length_a 9.309821
_cell_length_b 24.564669
_cell_length_c 20.992459
_cell_angle_alpha 90.000000
_cell_angle_beta 36.156638
_cell_angle_gamma 90.000000
_cell_volume 2832.459655
_symmetry_space_group_name_H-M "C 2/M"
_symmetry_group_IT_number 12
_symmetry_cell_setting 'monoclinic'
loop_
_space_group_symop_operation_xyz
x,y,z
-x,y,-z
-x,-y,-z
x,-y,z
1/2+x,1/2+y,z
1/2-x,1/2+y,-z
1/2-x,1/2-y,-z
1/2+x,1/2-y,z
loop_
_atom_site_type_symbol
_atom_site_label
_atom_site_fract_x
_atom_site_fract_y
_atom_site_fract_z
Si Si1 0.178418 0.135971 0.079006
Si Si2 0.232700 0.361000 0.597385
Si Si3 0.499358 0.937377 0.574450
Si Si4 0.945418 0.937835 0.768536
Si Si5 0.738033 0.441773 0.298658
Si Si6 0.000000 0.268968 0.000000
Si Si7 0.227640 0.679950 0.175428
Si Si8 0.261439 0.915279 0.923289
O O1 0.210115 0.105208 0.134801
O O2 0.899171 0.149984 0.164583
O O3 0.319617 0.192841 0.024981
O O4 0.283419 0.093487 0.990549
O O5 0.500000 0.331731 0.500000
O O6 0.276956 0.405166 0.635248
O O7 0.154818 0.393699 0.560738
O O8 0.032704 0.316645 0.693747
O O9 0.500000 0.920351 0.500000
O O10 0.219808 0.935005 0.696488
O O11 0.596979 0.000000 0.547832
O O12 0.920092 0.918513 0.703979
O O13 0.847152 0.000000 0.810096
O O14 0.627408 0.500000 0.357327
O O15 0.018216 0.452557 0.177915
O O16 0.839219 0.236481 0.110049
O O17 0.208707 0.644028 0.119000
O O18 0.000000 0.942238 0.000000
#
# Coordination Sequence:
#
# PCOD8100507 Si02
#       8
#     8   8   8   8   8   4   8   8
#     4  11  20  37  61  92 121 162 203 249 315 364
#     4  11  22  39  62  85 122 165 204 256 311 363
#     4  10  20  35  59  88 119 160 209 256 303 361
#     4  10  21  37  56  87 131 165 202 251 302 371
#     4  10  21  35  53  85 121 163 211 251 294 360
#     4  12  22  36  67  92 117 156 204 270 304 360
#     4  10  21  38  58  90 121 151 207 256 306 367
#     4   9  19  35  53  80 122 158 199 250 303 365
#
# _framework density 21.183001999999998
#
# number of rings (size 3 to 8) (size 9 to 14) (size 15 to 20)
#    0.000    1.733    3.333    2.400    0.000    2.933 
#    0.000    1.667    0.000    1.600    0.000    0.000 
#    0.000    0.000    0.000    0.000    0.000    0.000 
#
# Total GULP energy -371698.529779 kJ/mol
# GULP energy per Si atom -12389.950993 kJ/mol
# Density = 2.113479 g / cm^3
# Si number density = 21.183002 Si / 1000 Ang^3
#
#
#
# Elastic Constant Matrix: (Units=GPa)
#
#
# Indices 1 2 3 4 5 6 
#
# 1 104.6136 27.3907 31.7140 0.0007 8.0511 -0.0008
# 2 27.3907 74.5479 29.6156 0.0002 14.6442 0.0000
# 3 31.7140 29.6156 99.9460 0.0079 -7.2553 -0.0055
# 4 0.0007 0.0002 0.0079 14.4360 0.0010 -6.0865
# 5 8.0511 14.6442 -7.2553 0.0010 39.5298 -0.0002
# 6 -0.0008 0.0000 -0.0055 -6.0865 -0.0002 -6.2004
#
#
#
# Elastic Compliance Matrix: (Units=1/GPa)
#
#
# Indices 1 2 3 4 5 6 
#
# 1 0.011277 -0.002607 -0.002942 0.000001 -0.001871 0.000000
# 2 -0.002607 0.017685 -0.004915 0.000004 -0.006923 0.000001
# 3 -0.002942 -0.004915 0.012741 -0.000008 0.004759 -0.000003
# 4 0.000001 0.000004 -0.000008 0.048994 -0.000005 -0.048094
# 5 -0.001871 -0.006923 0.004759 -0.000005 0.029116 0.000000
# 6 0.000000 0.000001 -0.000003 -0.048094 0.000000 -0.114070
#
#
# Mechanical properties :
#
#
# Convention : Reuss Voigt Hill
#
# Bulk Modulus (GPa) = 48.13715 50.72755 49.43235
# Shear Modulus (GPa) = 148.82099 22.24556 85.53328
#
# Velocity S-wave (km/s) = 8.39091 3.24413 6.36128
# Velocity P-wave (km/s) = 10.80048 6.16699 8.79438
#
# Compressibility (1/GPa) = 0.02077398
#
# Stress axis : x y z
#
# Youngs Moduli (GPa) = 88.67256 56.54541 78.48808
#
# Poissons Ratio (x) = 0.14744 0.23088
# Poissons Ratio (y) = 0.23121 0.38581
# Poissons Ratio (z) = 0.26084 0.27795
#
# Static dielectric constant tensor:
#      x y z
#    x 4.016510 0.000000 -0.270760 
#    y 0.000000 3.384040 0.000000 
#    z -0.270760 0.000000 4.129720 
# 
# 
# High freq. dielectric constant tensor:
#      x y z
#    x 1.847220 0.000000 -0.008640 
#    y 0.000000 1.787010 0.000000 
#    z -0.008640 0.000000 1.834660 
# 
# From -- ./inp_files/302757.got.cif
#   From: 2010.06.25/outbox.cif.g09.slc.cpg/sg12_152_cif.got.tgz:302757.got - 2010.06.28 00:19:55.
