data_PCOD8100814
_publ_section_title
;
Structure prediction by ZEFSAII (Michael W. Deem and Ramdas Pophale) SiO2 
 PCOD8100814
Probable space group: C 2/M
;
_chemical_formula_sum "Si O2"
_cell_formula_units_Z 40
_cell_length_a 8.645095
_cell_length_b 19.153163
_cell_length_c 12.127816
_cell_angle_alpha 90.000000
_cell_angle_beta 112.934927
_cell_angle_gamma 90.000000
_cell_volume 1849.387834
_symmetry_space_group_name_H-M "C 2/M"
_symmetry_group_IT_number 12
_symmetry_cell_setting 'monoclinic'
loop_
_space_group_symop_operation_xyz
x,y,z
-x,y,-z
-x,-y,-z
x,-y,z
1/2+x,1/2+y,z
1/2-x,1/2+y,-z
1/2-x,1/2-y,-z
1/2+x,1/2-y,z
loop_
_atom_site_type_symbol
_atom_site_label
_atom_site_fract_x
_atom_site_fract_y
_atom_site_fract_z
Si Si1 0.149672 0.418366 0.117683
Si Si2 0.964868 0.844134 0.193483
Si Si3 0.215714 0.723824 0.744353
Si Si4 0.626576 0.159313 0.343479
Si Si5 0.867177 0.077818 0.558373
O O1 0.133595 0.500000 0.129379
O O2 0.331275 0.400863 0.110361
O O3 0.136772 0.384467 0.233809
O O4 0.000000 0.389308 0.000000
O O5 0.124020 0.820870 0.162299
O O6 0.049709 0.874120 0.326908
O O7 0.850171 0.775853 0.180741
O O8 0.278567 0.766674 0.653031
O O9 0.065525 0.671290 0.671921
O O10 0.704590 0.117027 0.466206
O O11 0.000000 0.068760 0.500000
O O12 0.819120 0.000000 0.589547
#
# Coordination Sequence:
#
# PCOD8100814 Si02
#       5
#     8   8   8   8   8
#     4  10  20  37  59  78 102 138 177 215 257 311
#     4  10  20  36  54  81 107 137 177 214 261 314
#     4   9  20  35  55  79 109 140 171 216 265 307
#     4  10  20  36  54  81 107 137 177 214 261 314
#     4  11  20  32  54  77 106 145 177 215 256 308
#
# _framework density 21.628778000000001
#
# number of rings (size 3 to 8) (size 9 to 14) (size 15 to 20)
#    0.000    2.000    4.000    1.200    0.000    5.600 
#    0.000   22.000    0.000    2.400    0.000    0.000 
#    0.000    0.000    0.000    0.000    0.000    0.000 
#
# Total GULP energy -247814.421542 kJ/mol
# GULP energy per Si atom -12390.721077 kJ/mol
# Density = 2.157955 g / cm^3
# Si number density = 21.628778 Si / 1000 Ang^3
#
#
#
# Elastic Constant Matrix: (Units=GPa)
#
#
# Indices 1 2 3 4 5 6 
#
# 1 114.4075 35.3562 29.9387 0.0000 47.9105 0.0000
# 2 35.3562 86.8961 34.1476 0.0000 21.5791 0.0000
# 3 29.9387 34.1476 98.1821 0.0000 40.8033 0.0000
# 4 0.0000 0.0000 0.0000 31.2408 0.0000 22.0979
# 5 47.9105 21.5791 40.8033 0.0000 36.8686 0.0000
# 6 0.0000 0.0000 0.0000 22.0979 0.0000 20.2109
#
#
#
# Elastic Compliance Matrix: (Units=1/GPa)
#
#
# Indices 1 2 3 4 5 6 
#
# 1 0.024890 -0.004058 0.011622 0.000000 -0.042832 0.000000
# 2 -0.004058 0.014497 -0.004573 0.000000 0.001849 0.000000
# 3 0.011622 -0.004573 0.024805 0.000000 -0.039878 0.000000
# 4 0.000000 0.000000 0.000000 0.141250 0.000000 -0.154439
# 5 -0.042832 0.001849 -0.039878 0.000000 0.125835 0.000000
# 6 0.000000 0.000000 0.000000 -0.154439 0.000000 0.218336
#
#
# Mechanical properties :
#
#
# Convention : Reuss Voigt Hill
#
# Bulk Modulus (GPa) = 14.25037 55.37451 34.81244
# Shear Modulus (GPa) = 8.81799 31.00027 19.90913
#
# Velocity S-wave (km/s) = 2.02134 3.78999 3.03725
# Velocity P-wave (km/s) = 3.47141 6.69401 5.33200
#
# Compressibility (1/GPa) = 0.07017364
#
# Stress axis : x y z
#
# Youngs Moduli (GPa) = 40.17639 68.98016 40.31508
#
# Poissons Ratio (x) = 0.27991 -0.46854
# Poissons Ratio (y) = 0.16303 0.18437
# Poissons Ratio (z) = -0.46693 0.31546
#
# Static dielectric constant tensor:
#      x y z
#    x 2.102250 0.000000 0.956150 
#    y 0.000000 4.373020 0.000000 
#    z 0.956150 0.000000 3.752040 
# 
# 
# High freq. dielectric constant tensor:
#      x y z
#    x 1.839010 0.000000 0.042360 
#    y 0.000000 1.860260 0.000000 
#    z 0.042360 0.000000 1.822340 
# 
# From -- ./inp_files/119031.got.cif
#   From: 2010.06.25/outbox.cif.g09.slc.cpg/sg12_60_cif.got.tgz:119031.got - 2010.06.28 00:19:55.
