data_PCOD8100596
_publ_section_title
;
Structure prediction by ZEFSAII (Michael W. Deem and Ramdas Pophale) SiO2 
 PCOD8100596
Probable space group: C 2/M
;
_chemical_formula_sum "Si O2"
_cell_formula_units_Z 64
_cell_length_a 11.271945
_cell_length_b 17.712625
_cell_length_c 16.659250
_cell_angle_alpha 90.000000
_cell_angle_beta 80.623964
_cell_angle_gamma 90.000000
_cell_volume 3281.679192
_symmetry_space_group_name_H-M "C 2/M"
_symmetry_group_IT_number 12
_symmetry_cell_setting 'monoclinic'
loop_
_space_group_symop_operation_xyz
x,y,z
-x,y,-z
-x,-y,-z
x,-y,z
1/2+x,1/2+y,z
1/2-x,1/2+y,-z
1/2-x,1/2-y,-z
1/2+x,1/2-y,z
loop_
_atom_site_type_symbol
_atom_site_label
_atom_site_fract_x
_atom_site_fract_y
_atom_site_fract_z
Si Si1 0.059338 0.317643 0.193129
Si Si2 0.548795 0.340267 0.851827
Si Si3 0.308393 0.585628 0.882525
Si Si4 0.744923 0.330274 0.958556
Si Si5 0.369315 0.586700 0.598018
Si Si6 0.762753 0.179553 0.292137
Si Si7 0.805464 0.650500 0.256870
Si Si8 0.636321 0.410326 0.580385
O O1 0.145092 0.348798 0.113262
O O2 0.129148 0.317913 0.270274
O O3 0.016897 0.235823 0.168948
O O4 0.944128 0.371644 0.222751
O O5 0.452148 0.406477 0.872555
O O6 0.616856 0.329407 0.928262
O O7 0.646264 0.366094 0.775442
O O8 0.275018 0.500000 0.862601
O O9 0.262799 0.644293 0.820258
O O10 0.249435 0.605265 0.974395
O O11 0.750000 0.250000 0.000000
O O12 0.393136 0.500000 0.580558
O O13 0.259664 0.597651 0.671264
O O14 0.337186 0.618215 0.513351
O O15 0.498688 0.616237 0.617055
O O16 0.804647 0.266000 0.293794
O O17 0.768633 0.136778 0.376420
O O18 0.657496 0.500000 0.590848
#
# Coordination Sequence:
#
# PCOD8100596 Si02
#       8
#     8   8   8   8   8   8   8   8
#     4  10  21  38  56  84 114 155 198 236 289 354
#     4  10  20  36  57  84 114 149 190 242 297 342
#     4  12  24  38  58  88 116 150 201 253 299 344
#     4  11  21  37  61  83 114 156 196 241 297 354
#     4   9  19  38  62  88 119 156 194 238 299 352
#     4  10  20  35  60  86 117 151 195 242 289 350
#     4  11  22  37  58  83 121 157 196 238 294 358
#     4   9  19  37  63  91 117 150 196 247 294 347
#
# _framework density 19.502210000000002
#
# number of rings (size 3 to 8) (size 9 to 14) (size 15 to 20)
#    0.000    1.750    2.500    3.750    1.750    4.500 
#    0.000    5.625    0.000    1.500    0.000    0.000 
#    0.000    0.000    0.000    0.000    0.000    0.000 
#
# Total GULP energy -396625.108144 kJ/mol
# GULP energy per Si atom -12394.534630 kJ/mol
# Density = 1.945782 g / cm^3
# Si number density = 19.502210 Si / 1000 Ang^3
#
#
#
# Elastic Constant Matrix: (Units=GPa)
#
#
# Indices 1 2 3 4 5 6 
#
# 1 110.5154 21.9219 57.2667 0.0000 -5.9830 0.0000
# 2 21.9219 54.9834 27.9885 0.0000 14.4839 0.0000
# 3 57.2667 27.9885 119.7418 0.0000 14.9750 0.0000
# 4 0.0000 0.0000 0.0000 31.4786 0.0000 -0.0241
# 5 -5.9830 14.4839 14.9750 0.0000 33.4371 0.0000
# 6 0.0000 0.0000 0.0000 -0.0241 0.0000 23.4297
#
#
#
# Elastic Compliance Matrix: (Units=1/GPa)
#
#
# Indices 1 2 3 4 5 6 
#
# 1 0.013550 -0.003981 -0.006429 0.000000 0.007028 0.000000
# 2 -0.003981 0.023582 -0.002374 0.000000 -0.009864 0.000000
# 3 -0.006429 -0.002374 0.012708 0.000000 -0.005813 0.000000
# 4 0.000000 0.000000 0.000000 0.031768 0.000000 0.000033
# 5 0.007028 -0.009864 -0.005813 0.000000 0.038041 0.000000
# 6 0.000000 0.000000 0.000000 0.000033 0.000000 0.042681
#
#
# Mechanical properties :
#
#
# Convention : Reuss Voigt Hill
#
# Bulk Modulus (GPa) = 41.20189 55.51054 48.35622
# Shear Modulus (GPa) = 25.51187 29.53998 27.52593
#
# Velocity S-wave (km/s) = 3.62076 3.89614 3.76097
# Velocity P-wave (km/s) = 6.21712 6.98322 6.61127
#
# Compressibility (1/GPa) = 0.02427073
#
# Stress axis : x y z
#
# Youngs Moduli (GPa) = 73.80125 42.40590 78.69215
#
# Poissons Ratio (x) = 0.16883 0.50588
# Poissons Ratio (y) = 0.29383 0.18684
# Poissons Ratio (z) = 0.47444 0.10069
#
# Static dielectric constant tensor:
#      x y z
#    x 3.865480 0.000000 -0.077240 
#    y 0.000000 3.172270 0.000000 
#    z -0.077240 0.000000 3.688150 
# 
# 
# High freq. dielectric constant tensor:
#      x y z
#    x 1.761840 0.000000 0.003620 
#    y 0.000000 1.725500 0.000000 
#    z 0.003620 0.000000 1.767380 
# 
# From -- ./inp_files/206703.got.cif
#   From: 2010.06.25/outbox.cif.g09.slc.cpg/sg12_104_cif.got.tgz:206703.got - 2010.06.28 00:19:55.
