data_PCOD8100681
_publ_section_title
;
Structure prediction by ZEFSAII (Michael W. Deem and Ramdas Pophale) SiO2 
 PCOD8100681
Probable space group: C 2/M
;
_chemical_formula_sum "Si O2"
_cell_formula_units_Z 56
_cell_length_a 16.281370
_cell_length_b 15.147417
_cell_length_c 20.354334
_cell_angle_alpha 90.000000
_cell_angle_beta 27.875497
_cell_angle_gamma 90.000000
_cell_volume 2347.016689
_symmetry_space_group_name_H-M "C 2/M"
_symmetry_group_IT_number 12
_symmetry_cell_setting 'monoclinic'
loop_
_space_group_symop_operation_xyz
x,y,z
-x,y,-z
-x,-y,-z
x,-y,z
1/2+x,1/2+y,z
1/2-x,1/2+y,-z
1/2-x,1/2-y,-z
1/2+x,1/2-y,z
loop_
_atom_site_type_symbol
_atom_site_label
_atom_site_fract_x
_atom_site_fract_y
_atom_site_fract_z
Si Si1 0.784410 0.821185 0.783364
Si Si2 0.958046 0.711088 0.929883
Si Si3 0.476740 0.099428 0.236950
Si Si4 0.261215 0.098364 0.590357
Si Si5 0.883695 0.369783 0.721244
Si Si6 0.363076 0.399094 0.456291
Si Si7 0.072767 0.100421 0.851914
O O1 0.654149 0.815699 0.813946
O O2 0.901640 0.734659 0.708119
O O3 0.933835 0.894586 0.664903
O O4 0.679493 0.837348 0.925107
O O5 0.929449 0.669901 0.878002
O O6 0.929817 0.818750 0.956805
O O7 0.583831 0.093225 0.229166
O O8 0.278103 0.136690 0.390563
O O9 0.476418 0.000000 0.206340
O O10 0.471767 0.096628 0.433254
O O11 0.170405 0.146969 0.591547
O O12 0.196571 0.138124 0.705256
O O13 0.187089 0.000000 0.646541
O O14 0.690220 0.402002 0.835120
O O15 0.306049 0.500000 0.487901
O O16 0.994486 0.000000 0.897438
#
# Coordination Sequence:
#
# PCOD8100681 Si02
#       7
#     8   8   8   8   8   8   8
#     4  10  23  41  59  85 121 162 203 246 298 362
#     4  10  24  42  59  88 123 160 204 248 300 357
#     4  10  22  40  63  93 124 155 199 253 301 354
#     4   9  18  33  57  91 121 149 195 247 298 355
#     4  10  20  35  61  88 122 158 195 244 303 356
#     4   9  20  38  61  89 121 158 200 249 305 355
#     4  10  20  37  61  89 122 161 201 244 297 359
#
# _framework density 23.860078000000001
#
# number of rings (size 3 to 8) (size 9 to 14) (size 15 to 20)
#    0.000    2.286    0.000    2.571    4.000    4.571 
#    0.000   10.000    0.000    0.000    0.000    0.000 
#    0.000    0.000    0.000    0.000    0.000    0.000 
#
# Total GULP energy -346964.500900 kJ/mol
# GULP energy per Si atom -12391.589318 kJ/mol
# Density = 2.380577 g / cm^3
# Si number density = 23.860078 Si / 1000 Ang^3
#
#
#
# Elastic Constant Matrix: (Units=GPa)
#
#
# Indices 1 2 3 4 5 6 
#
# 1 56.2452 21.5411 15.7567 0.0147 14.0027 -0.0108
# 2 21.5411 66.9376 18.4679 0.0291 6.4058 -0.0133
# 3 15.7567 18.4679 43.8747 0.0390 10.3577 -0.0192
# 4 0.0147 0.0291 0.0390 23.2301 -0.0174 4.3058
# 5 14.0027 6.4058 10.3577 -0.0174 38.1600 0.0061
# 6 -0.0108 -0.0133 -0.0192 4.3058 0.0061 24.6250
#
#
#
# Elastic Compliance Matrix: (Units=1/GPa)
#
#
# Indices 1 2 3 4 5 6 
#
# 1 0.022648 -0.005493 -0.004357 -0.000006 -0.006206 0.000006
# 2 -0.005493 0.018268 -0.005843 -0.000010 0.000535 0.000005
# 3 -0.004357 -0.005843 0.028002 -0.000046 -0.005021 0.000026
# 4 -0.000006 -0.000010 -0.000046 0.044490 0.000038 -0.007779
# 5 -0.006206 0.000535 -0.005021 0.000038 0.029756 -0.000020
# 6 0.000006 0.000005 0.000026 -0.007779 -0.000020 0.041969
#
#
# Mechanical properties :
#
#
# Convention : Reuss Voigt Hill
#
# Bulk Modulus (GPa) = 26.64300 30.95432 28.79866
# Shear Modulus (GPa) = 21.83137 24.62247 23.22692
#
# Velocity S-wave (km/s) = 3.02814 3.21589 3.12342
# Velocity P-wave (km/s) = 4.83908 5.17597 5.01036
#
# Compressibility (1/GPa) = 0.03753331
#
# Stress axis : x y z
#
# Youngs Moduli (GPa) = 44.15314 54.74136 35.71226
#
# Poissons Ratio (x) = 0.30067 0.15559
# Poissons Ratio (y) = 0.24251 0.20867
# Poissons Ratio (z) = 0.19236 0.31986
#
# Static dielectric constant tensor:
#      x y z
#    x 4.022390 -0.000010 0.213870 
#    y -0.000010 4.093120 0.000080 
#    z 0.213870 0.000080 4.200170 
# 
# 
# High freq. dielectric constant tensor:
#      x y z
#    x 1.928830 0.000000 0.009850 
#    y 0.000000 1.929830 0.000010 
#    z 0.009850 0.000010 1.947770 
# 
# From -- ./inp_files/317155.got.cif
#   From: 2010.06.25/outbox.cif.g09.slc.cpg/sg12_159_cif.got.tgz:317155.got - 2010.06.28 00:19:55.
