data_PCOD8100321
_publ_section_title
;
Structure prediction by ZEFSAII (Michael W. Deem and Ramdas Pophale) SiO2 
 PCOD8100321
Probable space group: C 2/M
;
_chemical_formula_sum "Si O2"
_cell_formula_units_Z 40
_cell_length_a 27.464743
_cell_length_b 8.826921
_cell_length_c 18.887359
_cell_angle_alpha 90.000000
_cell_angle_beta 153.378681
_cell_angle_gamma 90.000000
_cell_volume 2051.743054
_symmetry_space_group_name_H-M "C 2/M"
_symmetry_group_IT_number 12
_symmetry_cell_setting 'monoclinic'
loop_
_space_group_symop_operation_xyz
x,y,z
-x,y,-z
-x,-y,-z
x,-y,z
1/2+x,1/2+y,z
1/2-x,1/2+y,-z
1/2-x,1/2-y,-z
1/2+x,1/2-y,z
loop_
_atom_site_type_symbol
_atom_site_label
_atom_site_fract_x
_atom_site_fract_y
_atom_site_fract_z
Si Si1 0.375600 0.677047 0.352541
Si Si2 0.676859 0.824349 0.345918
Si Si3 0.181923 0.324081 0.575412
Si Si4 0.777853 0.822757 0.961824
Si Si5 0.999212 0.671671 0.220402
O O1 0.500000 0.717908 0.500000
O O2 0.352389 0.500000 0.314361
O O3 0.344416 0.729191 0.389845
O O4 0.304756 0.765318 0.203990
O O5 0.750000 0.750000 0.500000
O O6 0.703089 0.737569 0.306634
O O7 0.552672 0.806297 0.211700
O O8 0.707648 0.000000 0.377589
O O9 0.194539 0.500000 0.610729
O O10 0.086451 0.294408 0.395042
O O11 0.764082 0.000000 0.951788
O O12 0.750000 0.750000 0.000000
O O13 0.900465 0.786626 0.098453
O O14 0.955976 0.500000 0.172072
#
# Coordination Sequence:
#
# PCOD8100321 Si02
#       5
#     8   8   8   8   8
#     4  11  24  41  61  84 111 146 188 233 282 337
#     4   9  17  31  54  83 115 151 189 231 276 326
#     4  10  20  35  58  87 118 151 187 231 280 331
#     4  12  25  40  60  84 113 148 186 232 282 335
#     4   9  19  36  58  85 117 151 188 231 278 328
#
# _framework density 19.495618
#
# number of rings (size 3 to 8) (size 9 to 14) (size 15 to 20)
#    0.000    1.800    0.000    6.000    0.000    9.600 
#    0.000    1.000    0.000    6.000    0.000    0.000 
#    0.000    0.000    0.000    0.000    0.000    0.000 
#
# Total GULP energy -247991.325972 kJ/mol
# GULP energy per Si atom -12399.566299 kJ/mol
# Density = 1.945125 g / cm^3
# Si number density = 19.495618 Si / 1000 Ang^3
#
#
#
# Elastic Constant Matrix: (Units=GPa)
#
#
# Indices 1 2 3 4 5 6 
#
# 1 149.8344 50.9021 48.3959 0.0000 14.6007 0.0000
# 2 50.9021 102.8627 52.1529 0.0000 10.9652 0.0000
# 3 48.3959 52.1529 79.4127 0.0000 9.1298 0.0000
# 4 0.0000 0.0000 0.0000 21.2076 0.0000 -7.8958
# 5 14.6007 10.9652 9.1298 0.0000 24.3461 0.0000
# 6 0.0000 0.0000 0.0000 -7.8958 0.0000 33.2512
#
#
#
# Elastic Compliance Matrix: (Units=1/GPa)
#
#
# Indices 1 2 3 4 5 6 
#
# 1 0.008892 -0.002263 -0.003592 0.000000 -0.002967 0.000000
# 2 -0.002263 0.015379 -0.008445 0.000000 -0.002403 0.000000
# 3 -0.003592 -0.008445 0.020527 0.000000 -0.001740 0.000000
# 4 0.000000 0.000000 0.000000 0.051726 0.000000 0.012283
# 5 -0.002967 -0.002403 -0.001740 0.000000 0.044588 0.000000
# 6 0.000000 0.000000 0.000000 0.012283 0.000000 0.032991
#
#
# Mechanical properties :
#
#
# Convention : Reuss Voigt Hill
#
# Bulk Modulus (GPa) = 61.72949 70.55685 66.14317
# Shear Modulus (GPa) = 24.02662 27.80488 25.91575
#
# Velocity S-wave (km/s) = 3.51438 3.78062 3.64993
# Velocity P-wave (km/s) = 6.94261 7.43822 7.19468
#
# Compressibility (1/GPa) = 0.01619971
#
# Stress axis : x y z
#
# Youngs Moduli (GPa) = 112.46038 65.02256 48.71538
#
# Poissons Ratio (x) = 0.14714 0.17498
# Poissons Ratio (y) = 0.25449 0.41139
# Poissons Ratio (z) = 0.40394 0.54910
#
# Static dielectric constant tensor:
#      x y z
#    x 3.928030 0.000000 0.305270 
#    y 0.000000 3.759820 0.000000 
#    z 0.305270 0.000000 3.400960 
# 
# 
# High freq. dielectric constant tensor:
#      x y z
#    x 1.779760 0.000000 0.014990 
#    y 0.000000 1.773850 0.000000 
#    z 0.014990 0.000000 1.734610 
# 
# From -- ./inp_files/249505.got.cif
#   From: 2010.06.25/outbox.cif.g09.slc.cpg/sg12_125_cif.got.tgz:249505.got - 2010.06.28 00:19:55.
