data_PCOD8100781
_publ_section_title
;
Structure prediction by ZEFSAII (Michael W. Deem and Ramdas Pophale) SiO2 
 PCOD8100781
Probable space group: C 2/M
;
_chemical_formula_sum "Si O2"
_cell_formula_units_Z 44
_cell_length_a 8.675392
_cell_length_b 24.887490
_cell_length_c 13.883338
_cell_angle_alpha 90.000000
_cell_angle_beta 46.527802
_cell_angle_gamma 90.000000
_cell_volume 2175.335231
_symmetry_space_group_name_H-M "C 2/M"
_symmetry_group_IT_number 12
_symmetry_cell_setting 'monoclinic'
loop_
_space_group_symop_operation_xyz
x,y,z
-x,y,-z
-x,-y,-z
x,-y,z
1/2+x,1/2+y,z
1/2-x,1/2+y,-z
1/2-x,1/2-y,-z
1/2+x,1/2-y,z
loop_
_atom_site_type_symbol
_atom_site_label
_atom_site_fract_x
_atom_site_fract_y
_atom_site_fract_z
Si Si1 0.048315 0.305290 0.642700
Si Si2 0.519064 0.000000 0.270587
Si Si3 0.066572 0.085777 0.232878
Si Si4 0.199051 0.500000 0.981850
Si Si5 0.834432 0.806006 0.331931
Si Si6 0.260138 0.402696 0.640753
Si Si7 0.263005 0.000000 0.636015
O O1 0.054853 0.251576 0.704275
O O2 0.214519 0.312607 0.484576
O O3 0.109753 0.351176 0.691850
O O4 0.815226 0.308748 0.697202
O O5 0.362520 0.950427 0.359463
O O6 0.720868 0.000000 0.254835
O O7 0.630293 0.000000 0.120455
O O8 0.166314 0.054371 0.098735
O O9 0.232514 0.083275 0.249336
O O10 0.009411 0.147907 0.238713
O O11 0.852474 0.053542 0.353396
O O12 0.000000 0.500000 0.000000
O O13 0.500000 0.393308 0.500000
O O14 0.500000 0.000000 0.500000
#
# Coordination Sequence:
#
# PCOD8100781 Si02
#       7
#     8   4   8   4   8   8   4
#     4  10  21  33  57  84 126 154 200 235 326 369
#     4  12  24  40  64  83 123 166 207 250 310 357
#     4  11  22  37  60  82 123 156 208 252 299 357
#     4  11  23  45  60  88 114 170 218 255 290 357
#     4  10  20  36  53  87 119 162 192 256 293 385
#     4  12  21  35  57  91 119 160 196 251 310 383
#     4  11  24  38  56  93 125 156 189 257 316 379
#
# _framework density 20.226768
#
# number of rings (size 3 to 8) (size 9 to 14) (size 15 to 20)
#    0.000    1.091    3.636    4.091    5.091    1.455 
#    0.000    0.000    0.000    1.091    0.000    0.000 
#    0.000    0.000    0.000    0.000    0.000    0.000 
#
# Total GULP energy -272712.273789 kJ/mol
# GULP energy per Si atom -12396.012445 kJ/mol
# Density = 2.018073 g / cm^3
# Si number density = 20.226768 Si / 1000 Ang^3
#
#
#
# Elastic Constant Matrix: (Units=GPa)
#
#
# Indices 1 2 3 4 5 6 
#
# 1 128.8332 57.3266 13.2789 0.0000 7.9364 0.0000
# 2 57.3266 172.8392 21.7266 0.0000 -6.7278 0.0000
# 3 13.2789 21.7266 60.7703 0.0000 3.6646 0.0000
# 4 0.0000 0.0000 0.0000 14.7257 0.0000 -0.9897
# 5 7.9364 -6.7278 3.6646 0.0000 26.4455 0.0000
# 6 0.0000 0.0000 0.0000 -0.9897 0.0000 44.5872
#
#
#
# Elastic Compliance Matrix: (Units=1/GPa)
#
#
# Indices 1 2 3 4 5 6 
#
# 1 0.009475 -0.003191 -0.000715 0.000000 -0.003556 0.000000
# 2 -0.003191 0.007225 -0.002072 0.000000 0.003083 0.000000
# 3 -0.000715 -0.002072 0.017517 0.000000 -0.002740 0.000000
# 4 0.000000 0.000000 0.000000 0.068010 0.000000 0.001510
# 5 -0.003556 0.003083 -0.002740 0.000000 0.040045 0.000000
# 6 0.000000 0.000000 0.000000 0.001510 0.000000 0.022461
#
#
# Mechanical properties :
#
#
# Convention : Reuss Voigt Hill
#
# Bulk Modulus (GPa) = 44.92064 60.78965 52.85514
# Shear Modulus (GPa) = 27.15792 35.15906 31.15849
#
# Velocity S-wave (km/s) = 3.66822 4.17375 3.92913
# Velocity P-wave (km/s) = 6.34018 7.30385 6.83901
#
# Compressibility (1/GPa) = 0.02226148
#
# Stress axis : x y z
#
# Youngs Moduli (GPa) = 105.54484 138.41762 57.08592
#
# Poissons Ratio (x) = 0.44170 0.04082
# Poissons Ratio (y) = 0.33680 0.11825
# Poissons Ratio (z) = 0.07546 0.28673
#
# Static dielectric constant tensor:
#      x y z
#    x 2.908330 0.000000 -0.683960 
#    y 0.000000 3.783710 0.000000 
#    z -0.683960 0.000000 2.776840 
# 
# 
# High freq. dielectric constant tensor:
#      x y z
#    x 1.815790 0.000000 0.000700 
#    y 0.000000 1.800620 0.000000 
#    z 0.000700 0.000000 1.737580 
# 
# From -- ./inp_files/198258.got.cif
#   From: 2010.06.25/outbox.cif.g09.slc.cpg/sg12_100_cif.got.tgz:198258.got - 2010.06.28 00:19:55.
