data_PCOD8100255
_publ_section_title
;
Structure prediction by ZEFSAII (Michael W. Deem and Ramdas Pophale) SiO2 
 PCOD8100255
Probable space group: C 2/M
;
_chemical_formula_sum "Si O2"
_cell_formula_units_Z 40
_cell_length_a 12.550737
_cell_length_b 13.794972
_cell_length_c 16.190886
_cell_angle_alpha 90.000000
_cell_angle_beta 134.571310
_cell_angle_gamma 90.000000
_cell_volume 1996.967015
_symmetry_space_group_name_H-M "C 2/M"
_symmetry_group_IT_number 12
_symmetry_cell_setting 'monoclinic'
loop_
_space_group_symop_operation_xyz
x,y,z
-x,y,-z
-x,-y,-z
x,-y,z
1/2+x,1/2+y,z
1/2-x,1/2+y,-z
1/2-x,1/2-y,-z
1/2+x,1/2-y,z
loop_
_atom_site_type_symbol
_atom_site_label
_atom_site_fract_x
_atom_site_fract_y
_atom_site_fract_z
Si Si1 0.383724 0.771123 0.318216
Si Si2 0.120429 0.237332 0.864200
Si Si3 0.856867 0.888888 0.712396
Si Si4 0.074298 0.610916 0.311436
Si Si5 0.896406 0.890052 0.542658
O O1 0.310428 0.733541 0.191361
O O2 0.262675 0.818246 0.311340
O O3 0.508464 0.852626 0.363803
O O4 0.467789 0.681041 0.408869
O O5 0.024919 0.140415 0.832481
O O6 0.002107 0.327376 0.804161
O O7 0.250000 0.250000 0.000000
O O8 0.845122 0.870234 0.608579
O O9 0.827029 0.000000 0.721216
O O10 0.030629 0.500000 0.274708
O O11 0.252420 0.627200 0.406569
O O12 0.955741 0.000000 0.565218
#
# Coordination Sequence:
#
# PCOD8100255 Si02
#       5
#     8   8   8   8   8
#     4   9  19  33  56  81 113 143 182 225 275 323
#     4   9  21  37  52  75 110 146 182 228 276 316
#     4  10  20  35  58  86 111 143 183 225 277 330
#     4   9  18  34  55  80 111 147 183 223 273 327
#     4   9  18  35  56  81 116 149 176 217 276 334
#
# _framework density 20.030374999999999
#
# number of rings (size 3 to 8) (size 9 to 14) (size 15 to 20)
#    1.200    1.600    0.000    1.200    0.000    2.400 
#    0.000    5.000    0.000    2.400    0.000    7.000 
#    0.000    0.000    0.000    0.000    0.000    0.000 
#
# Total GULP energy -247812.125168 kJ/mol
# GULP energy per Si atom -12390.606258 kJ/mol
# Density = 1.998479 g / cm^3
# Si number density = 20.030375 Si / 1000 Ang^3
#
#
#
# Elastic Constant Matrix: (Units=GPa)
#
#
# Indices 1 2 3 4 5 6 
#
# 1 86.6112 44.3527 37.5199 0.0000 17.7272 0.0000
# 2 44.3527 132.7681 69.9475 0.0000 12.7327 0.0000
# 3 37.5199 69.9475 150.0396 0.0000 -5.0147 0.0000
# 4 0.0000 0.0000 0.0000 27.8482 0.0000 1.3031
# 5 17.7272 12.7327 -5.0147 0.0000 21.6963 0.0000
# 6 0.0000 0.0000 0.0000 1.3031 0.0000 10.2509
#
#
#
# Elastic Compliance Matrix: (Units=1/GPa)
#
#
# Indices 1 2 3 4 5 6 
#
# 1 0.017112 -0.002592 -0.003514 0.000000 -0.013273 0.000000
# 2 -0.002592 0.011552 -0.004931 0.000000 -0.005801 0.000000
# 3 -0.003514 -0.004931 0.010113 0.000000 0.008103 0.000000
# 4 0.000000 0.000000 0.000000 0.036124 0.000000 -0.004592
# 5 -0.013273 -0.005801 0.008103 0.000000 0.062213 0.000000
# 6 0.000000 0.000000 0.000000 -0.004592 0.000000 0.098136
#
#
# Mechanical properties :
#
#
# Convention : Reuss Voigt Hill
#
# Bulk Modulus (GPa) = 59.87151 74.78435 67.32793
# Shear Modulus (GPa) = 19.01905 26.46566 22.74235
#
# Velocity S-wave (km/s) = 3.08476 3.63888 3.37322
# Velocity P-wave (km/s) = 6.53015 7.42104 6.98980
#
# Compressibility (1/GPa) = 0.01670244
#
# Stress axis : x y z
#
# Youngs Moduli (GPa) = 58.43732 86.56350 98.87785
#
# Poissons Ratio (x) = 0.22439 0.34750
# Poissons Ratio (y) = 0.15148 0.48759
# Poissons Ratio (z) = 0.20537 0.42687
#
# Static dielectric constant tensor:
#      x y z
#    x 3.387990 0.000000 0.046120 
#    y 0.000000 3.914560 0.000000 
#    z 0.046120 0.000000 3.307830 
# 
# 
# High freq. dielectric constant tensor:
#      x y z
#    x 1.770690 0.000000 0.009360 
#    y 0.000000 1.793030 0.000000 
#    z 0.009360 0.000000 1.755870 
# 
# From -- ./inp_files/339804.got.cif
#   From: 2010.06.25/outbox.cif.g09.slc.cpg/sg12_170_cif.got.tgz:339804.got - 2010.06.28 00:19:55.
