data_PCOD8100248
_publ_section_title
;
Structure prediction by ZEFSAII (Michael W. Deem and Ramdas Pophale) SiO2 
 PCOD8100248
Probable space group: C 2/M
;
_chemical_formula_sum "Si O2"
_cell_formula_units_Z 64
_cell_length_a 17.341059
_cell_length_b 17.702598
_cell_length_c 16.293709
_cell_angle_alpha 90.000000
_cell_angle_beta 137.248821
_cell_angle_gamma 90.000000
_cell_volume 3395.350062
_symmetry_space_group_name_H-M "C 2/M"
_symmetry_group_IT_number 12
_symmetry_cell_setting 'monoclinic'
loop_
_space_group_symop_operation_xyz
x,y,z
-x,y,-z
-x,-y,-z
x,-y,z
1/2+x,1/2+y,z
1/2-x,1/2+y,-z
1/2-x,1/2-y,-z
1/2+x,1/2-y,z
loop_
_atom_site_type_symbol
_atom_site_label
_atom_site_fract_x
_atom_site_fract_y
_atom_site_fract_z
Si Si1 0.852541 0.205506 0.041051
Si Si2 0.712198 0.088615 0.321823
Si Si3 0.254212 0.703980 0.790365
Si Si4 0.598025 0.658642 0.639900
Si Si5 0.550809 0.204322 0.128257
Si Si6 0.527713 0.411238 0.752937
Si Si7 0.129739 0.411249 0.589401
Si Si8 0.772146 0.089143 0.547463
O O1 0.885243 0.132479 0.119894
O O2 0.958176 0.262409 0.117710
O O3 0.750000 0.250000 0.000000
O O4 0.814583 0.179615 0.921396
O O5 0.812014 0.106408 0.336350
O O6 0.595195 0.126698 0.201781
O O7 0.743346 0.122946 0.435576
O O8 0.690272 0.000000 0.307607
O O9 0.155947 0.766949 0.724166
O O10 0.347205 0.735556 0.799552
O O11 0.202738 0.626657 0.717385
O O12 0.500000 0.683852 0.500000
O O13 0.547397 0.608725 0.673381
O O14 0.500000 0.184511 0.000000
O O15 0.548438 0.500000 0.782282
O O16 0.398728 0.387117 0.674625
O O17 0.145778 0.500000 0.612003
O O18 0.177792 0.382731 0.539025
O O19 0.000000 0.386462 0.500000
O O20 0.767877 0.000000 0.536061
#
# Coordination Sequence:
#
# PCOD8100248 Si02
#       8
#     8   8   8   8   8   8   8   8
#     4  11  22  40  59  80 114 153 190 240 288 332
#     4  10  20  35  58  85 117 156 192 230 285 349
#     4  10  21  39  59  81 117 154 194 232 288 350
#     4  11  20  35  58  91 122 155 190 235 291 343
#     4   9  21  39  56  78 113 153 193 239 288 338
#     4  11  22  37  60  89 119 152 194 240 287 341
#     4  10  21  38  60  85 115 149 190 242 290 339
#     4   9  19  36  56  84 118 148 185 238 291 335
#
# _framework density 18.849309000000002
#
# number of rings (size 3 to 8) (size 9 to 14) (size 15 to 20)
#    0.000    1.875    2.500    1.500    0.000    2.250 
#    2.250    2.500    0.000    4.500    0.000    0.000 
#    0.000    0.000    0.000    0.000    0.000    0.000 
#
# Total GULP energy -396858.041160 kJ/mol
# GULP energy per Si atom -12401.813786 kJ/mol
# Density = 1.880641 g / cm^3
# Si number density = 18.849309 Si / 1000 Ang^3
#
#
#
# Elastic Constant Matrix: (Units=GPa)
#
#
# Indices 1 2 3 4 5 6 
#
# 1 133.1227 42.0561 43.5509 0.0000 9.4969 0.0000
# 2 42.0561 70.6065 60.6329 0.0000 1.3053 0.0000
# 3 43.5509 60.6329 119.3220 0.0000 6.4525 0.0000
# 4 0.0000 0.0000 0.0000 38.9401 0.0000 0.8187
# 5 9.4969 1.3053 6.4525 0.0000 30.1320 0.0000
# 6 0.0000 0.0000 0.0000 0.8187 0.0000 20.0408
#
#
#
# Elastic Compliance Matrix: (Units=1/GPa)
#
#
# Indices 1 2 3 4 5 6 
#
# 1 0.009522 -0.004897 -0.000846 0.000000 -0.002608 0.000000
# 2 -0.004897 0.027729 -0.012466 0.000000 0.003012 0.000000
# 3 -0.000846 -0.012466 0.015156 0.000000 -0.002439 0.000000
# 4 0.000000 0.000000 0.000000 0.025703 0.000000 -0.001050
# 5 -0.002608 0.003012 -0.002439 0.000000 0.034401 0.000000
# 6 0.000000 0.000000 0.000000 -0.001050 0.000000 0.049941
#
#
# Mechanical properties :
#
#
# Convention : Reuss Voigt Hill
#
# Bulk Modulus (GPa) = 62.54257 68.39231 65.46744
# Shear Modulus (GPa) = 24.48595 29.61000 27.04798
#
# Velocity S-wave (km/s) = 3.60813 3.96773 3.79219
# Velocity P-wave (km/s) = 7.11410 7.57318 7.34723
#
# Compressibility (1/GPa) = 0.01598911
#
# Stress axis : x y z
#
# Youngs Moduli (GPa) = 105.02373 36.06302 65.98086
#
# Poissons Ratio (x) = 0.17659 0.05582
# Poissons Ratio (y) = 0.51428 0.82252
# Poissons Ratio (z) = 0.08885 0.44956
#
# Static dielectric constant tensor:
#      x y z
#    x 3.706830 0.000000 0.003650 
#    y 0.000000 3.227140 0.000000 
#    z 0.003650 0.000000 3.640400 
# 
# 
# High freq. dielectric constant tensor:
#      x y z
#    x 1.742780 0.000000 0.002810 
#    y 0.000000 1.718000 0.000000 
#    z 0.002810 0.000000 1.738970 
# 
# From -- ./inp_files/216818.got.cif
#   From: 2010.06.25/outbox.cif.g09.slc.cpg/sg12_109_cif.got.tgz:216818.got - 2010.06.28 00:19:55.
