data_PCOD8100076
_publ_section_title
;
Structure prediction by ZEFSAII (Michael W. Deem and Ramdas Pophale) SiO2 
 PCOD8100076
Probable space group: C 2/M
;
_chemical_formula_sum "Si O2"
_cell_formula_units_Z 56
_cell_length_a 25.507058
_cell_length_b 13.669081
_cell_length_c 9.448922
_cell_angle_alpha 90.000000
_cell_angle_beta 56.634599
_cell_angle_gamma 90.000000
_cell_volume 2751.453027
_symmetry_space_group_name_H-M "C 2/M"
_symmetry_group_IT_number 12
_symmetry_cell_setting 'monoclinic'
loop_
_space_group_symop_operation_xyz
x,y,z
-x,y,-z
-x,-y,-z
x,-y,z
1/2+x,1/2+y,z
1/2-x,1/2+y,-z
1/2-x,1/2-y,-z
1/2+x,1/2-y,z
loop_
_atom_site_type_symbol
_atom_site_label
_atom_site_fract_x
_atom_site_fract_y
_atom_site_fract_z
Si Si1 0.444494 0.225720 0.678757
Si Si2 0.813164 0.109616 0.556109
Si Si3 0.833878 0.806791 0.970223
Si Si4 0.628971 0.193609 0.478012
Si Si5 0.767192 0.886136 0.318683
Si Si6 0.229658 0.392718 0.941074
Si Si7 0.517317 0.884062 0.813897
O O1 0.500000 0.271384 0.500000
O O2 0.401595 0.166233 0.628385
O O3 0.468574 0.156437 0.769747
O O4 0.406020 0.314905 0.810996
O O5 0.866852 0.187734 0.517182
O O6 0.781599 0.140828 0.456832
O O7 0.753343 0.114375 0.746281
O O8 0.842745 0.000000 0.508533
O O9 0.822576 0.831208 0.150386
O O10 0.819710 0.692547 0.955912
O O11 0.790660 0.880966 0.948361
O O12 0.698705 0.150407 0.375202
O O13 0.587454 0.152426 0.669710
O O14 0.771162 0.000000 0.281307
O O15 0.199615 0.500000 0.014596
O O16 0.515180 0.000000 0.809163
O O17 0.500000 0.849062 0.000000
#
# Coordination Sequence:
#
# PCOD8100076 Si02
#       7
#     8   8   8   8   8   8   8
#     4  10  23  39  59  85 116 160 205 238 291 353
#     4  10  21  37  58  89 126 159 195 242 298 362
#     4  11  20  36  58  86 119 156 197 247 303 358
#     4  11  20  40  64  86 124 165 198 242 303 359
#     4  11  23  35  57  94 125 156 197 247 309 363
#     4  10  20  35  57  86 120 156 195 244 301 360
#     4  10  24  42  63  93 121 157 203 246 292 349
#
# _framework density 20.352882000000001
#
# number of rings (size 3 to 8) (size 9 to 14) (size 15 to 20)
#    0.000    1.571    2.857    2.143    2.000    3.714 
#    0.000    2.857    0.000   12.857    0.000    0.000 
#    0.000    0.000    0.000    0.000    0.000    0.000 
#
# Total GULP energy -347039.595720 kJ/mol
# GULP energy per Si atom -12394.271276 kJ/mol
# Density = 2.030656 g / cm^3
# Si number density = 20.352882 Si / 1000 Ang^3
#
#
#
# Elastic Constant Matrix: (Units=GPa)
#
#
# Indices 1 2 3 4 5 6 
#
# 1 74.7935 27.3478 38.8234 0.0000 10.1110 0.0000
# 2 27.3478 80.7899 21.6858 0.0000 -0.4360 0.0000
# 3 38.8234 21.6858 134.8438 0.0000 0.5722 0.0000
# 4 0.0000 0.0000 0.0000 26.5813 0.0000 2.0784
# 5 10.1110 -0.4360 0.5722 0.0000 33.2606 0.0000
# 6 0.0000 0.0000 0.0000 2.0784 0.0000 20.9752
#
#
#
# Elastic Compliance Matrix: (Units=1/GPa)
#
#
# Indices 1 2 3 4 5 6 
#
# 1 0.018251 -0.005020 -0.004424 0.000000 -0.005538 0.000000
# 2 -0.005020 0.014319 -0.000865 0.000000 0.001729 0.000000
# 3 -0.004424 -0.000865 0.008824 0.000000 0.001182 0.000000
# 4 0.000000 0.000000 0.000000 0.037914 0.000000 -0.003757
# 5 -0.005538 0.001729 0.001182 0.000000 0.031751 0.000000
# 6 0.000000 0.000000 0.000000 -0.003757 0.000000 0.048047
#
#
# Mechanical properties :
#
#
# Convention : Reuss Voigt Hill
#
# Bulk Modulus (GPa) = 48.13374 51.79346 49.96360
# Shear Modulus (GPa) = 26.78828 29.66812 28.22820
#
# Velocity S-wave (km/s) = 3.63187 3.82211 3.72820
# Velocity P-wave (km/s) = 6.42559 6.70679 6.56769
#
# Compressibility (1/GPa) = 0.02077545
#
# Stress axis : x y z
#
# Youngs Moduli (GPa) = 54.79238 69.83909 113.33142
#
# Poissons Ratio (x) = 0.35062 0.50135
# Poissons Ratio (y) = 0.27508 0.09799
# Poissons Ratio (z) = 0.24239 0.06039
#
# Static dielectric constant tensor:
#      x y z
#    x 3.641220 0.000000 0.089310 
#    y 0.000000 3.735070 0.000000 
#    z 0.089310 0.000000 4.091820 
# 
# 
# High freq. dielectric constant tensor:
#      x y z
#    x 1.774570 0.000000 0.014280 
#    y 0.000000 1.783020 0.000000 
#    z 0.014280 0.000000 1.821210 
# 
# From -- ./inp_files/104437.got.cif
#   From: 2010.06.25/outbox.cif.g09.slc.cpg/sg12_53_cif.got.tgz:104437.got - 2010.06.28 00:19:55.
