data_PCOD8100790
_publ_section_title
;
Structure prediction by ZEFSAII (Michael W. Deem and Ramdas Pophale) SiO2 
 PCOD8100790
Probable space group: C 2/M
;
_chemical_formula_sum "Si O2"
_cell_formula_units_Z 40
_cell_length_a 14.645169
_cell_length_b 8.986288
_cell_length_c 19.907796
_cell_angle_alpha 90.000000
_cell_angle_beta 57.043819
_cell_angle_gamma 90.000000
_cell_volume 2198.390406
_symmetry_space_group_name_H-M "C 2/M"
_symmetry_group_IT_number 12
_symmetry_cell_setting 'monoclinic'
loop_
_space_group_symop_operation_xyz
x,y,z
-x,y,-z
-x,-y,-z
x,-y,z
1/2+x,1/2+y,z
1/2-x,1/2+y,-z
1/2-x,1/2-y,-z
1/2+x,1/2-y,z
loop_
_atom_site_type_symbol
_atom_site_label
_atom_site_fract_x
_atom_site_fract_y
_atom_site_fract_z
Si Si1 0.086620 0.327530 0.914422
Si Si2 0.206830 0.826615 0.084286
Si Si3 0.832509 0.325265 0.381360
Si Si4 0.889498 0.324841 0.508351
Si Si5 0.483552 0.176736 0.200090
O O1 0.056369 0.500000 0.922840
O O2 0.207624 0.299559 0.890750
O O3 0.075036 0.263653 0.844030
O O4 0.000000 0.250465 0.000000
O O5 0.100206 0.752337 0.156628
O O6 0.189010 0.000000 0.076070
O O7 0.250000 0.750000 0.000000
O O8 0.812286 0.500000 0.384691
O O9 0.888416 0.281685 0.429874
O O10 0.716052 0.248781 0.415642
O O11 0.913148 0.267950 0.291274
O O12 0.880005 0.500000 0.522772
O O13 0.000000 0.265228 0.500000
O O14 0.498670 0.000000 0.195651
#
# Coordination Sequence:
#
# PCOD8100790 Si02
#       5
#     8   8   8   8   8
#     4   9  17  32  52  70  95 134 169 202 254 305
#     4  11  21  34  53  75  99 133 175 213 257 304
#     4   9  19  34  53  78 104 135 172 209 251 301
#     4   9  18  34  55  77 106 139 166 203 258 309
#     4  10  20  36  54  74 104 136 171 215 255 299
#
# _framework density 18.195129999999999
#
# number of rings (size 3 to 8) (size 9 to 14) (size 15 to 20)
#    0.000    2.400    2.000    0.600    0.000    2.800 
#    0.000    3.000    0.000    0.000    0.000    0.000 
#    0.000    0.000    0.000    0.000    0.000    0.000 
#
# Total GULP energy -247967.014896 kJ/mol
# GULP energy per Si atom -12398.350745 kJ/mol
# Density = 1.815372 g / cm^3
# Si number density = 18.195130 Si / 1000 Ang^3
#
#
#
# Elastic Constant Matrix: (Units=GPa)
#
#
# Indices 1 2 3 4 5 6 
#
# 1 127.1071 31.3669 83.6598 0.0000 -9.3610 0.0000
# 2 31.3669 37.1929 41.9881 0.0000 -7.2494 0.0001
# 3 83.6598 41.9881 181.7345 0.0000 -11.6021 0.0000
# 4 0.0000 0.0000 0.0000 25.6321 0.0000 -9.4706
# 5 -9.3610 -7.2494 -11.6021 0.0000 27.3824 0.0000
# 6 0.0000 0.0001 0.0000 -9.4706 0.0000 27.3059
#
#
#
# Elastic Compliance Matrix: (Units=1/GPa)
#
#
# Indices 1 2 3 4 5 6 
#
# 1 0.012024 -0.005109 -0.004295 0.000000 0.000938 0.000000
# 2 -0.005109 0.039612 -0.006416 0.000000 0.006022 0.000000
# 3 -0.004295 -0.006416 0.009003 0.000000 0.000648 0.000000
# 4 0.000000 0.000000 0.000000 0.044748 0.000000 0.015520
# 5 0.000938 0.006022 0.000648 0.000000 0.038710 0.000000
# 6 0.000000 0.000000 0.000000 0.015520 0.000000 0.042005
#
#
# Mechanical properties :
#
#
# Convention : Reuss Voigt Hill
#
# Bulk Modulus (GPa) = 34.48234 73.34047 53.91140
# Shear Modulus (GPa) = 21.98689 28.66539 25.32614
#
# Velocity S-wave (km/s) = 3.47997 3.97349 3.73489
# Velocity P-wave (km/s) = 5.92785 7.83880 6.94932
#
# Compressibility (1/GPa) = 0.02900035
#
# Stress axis : x y z
#
# Youngs Moduli (GPa) = 83.16630 25.24470 111.07066
#
# Poissons Ratio (x) = 0.12898 0.47703
# Poissons Ratio (y) = 0.42491 0.71259
# Poissons Ratio (z) = 0.35719 0.16196
#
# Static dielectric constant tensor:
#      x y z
#    x 3.741880 0.000000 0.077180 
#    y 0.000000 3.150330 0.000000 
#    z 0.077180 0.000000 3.533380 
# 
# 
# High freq. dielectric constant tensor:
#      x y z
#    x 1.715260 0.000000 0.000670 
#    y 0.000000 1.681640 0.000000 
#    z 0.000670 0.000000 1.708270 
# 
# From -- ./inp_files/211360.got.cif
#   From: 2010.06.25/outbox.cif.g09.slc.cpg/sg12_106_cif.got.tgz:211360.got - 2010.06.28 00:19:55.
