data_PCOD8100755
_publ_section_title
;
Structure prediction by ZEFSAII (Michael W. Deem and Ramdas Pophale) SiO2 
 PCOD8100755
Probable space group: C 2/M
;
_chemical_formula_sum "Si O2"
_cell_formula_units_Z 56
_cell_length_a 17.905112
_cell_length_b 23.125014
_cell_length_c 13.421540
_cell_angle_alpha 90.000000
_cell_angle_beta 29.821390
_cell_angle_gamma 90.000000
_cell_volume 2763.617978
_symmetry_space_group_name_H-M "C 2/M"
_symmetry_group_IT_number 12
_symmetry_cell_setting 'monoclinic'
loop_
_space_group_symop_operation_xyz
x,y,z
-x,y,-z
-x,-y,-z
x,-y,z
1/2+x,1/2+y,z
1/2-x,1/2+y,-z
1/2-x,1/2-y,-z
1/2+x,1/2-y,z
loop_
_atom_site_type_symbol
_atom_site_label
_atom_site_fract_x
_atom_site_fract_y
_atom_site_fract_z
Si Si1 0.124151 0.064776 0.771097
Si Si2 0.827535 0.374079 0.677674
Si Si3 0.354486 0.837228 0.104791
Si Si4 0.904705 0.877477 0.887633
Si Si5 0.502505 0.746319 0.799823
Si Si6 0.647155 0.566803 0.264174
Si Si7 0.268461 0.237960 0.636106
O O1 0.279003 0.091102 0.634432
O O2 0.064955 0.101903 0.746449
O O3 0.155953 0.000000 0.697246
O O4 0.000000 0.066532 0.000000
O O5 0.792631 0.306672 0.698264
O O6 0.000000 0.386443 0.500000
O O7 0.733085 0.395714 0.881851
O O8 0.282972 0.897316 0.154571
O O9 0.235961 0.801875 0.310623
O O10 0.500000 0.853483 0.000000
O O11 0.396167 0.798210 0.960073
O O12 0.884511 0.909457 0.808053
O O13 0.905438 0.808110 0.874857
O O14 0.597628 0.769617 0.596878
O O15 0.608703 0.725763 0.768131
O O16 0.500000 0.575109 0.500000
O O17 0.696410 0.500000 0.201959
#
# Coordination Sequence:
#
# PCOD8100755 Si02
#       7
#     8   8   8   8   8   8   8
#     4   9  19  37  62  86 117 165 211 248 300 372
#     4  11  23  36  60  94 132 161 199 257 321 376
#     4  10  22  41  67  94 126 166 210 263 324 376
#     4  11  21  40  68  90 121 168 212 258 313 375
#     4  10  20  35  65  92 125 162 207 256 314 379
#     4  11  26  46  65  91 126 167 221 270 308 370
#     4  10  20  37  59  95 128 161 203 256 315 384
#
# _framework density 20.263292
#
# number of rings (size 3 to 8) (size 9 to 14) (size 15 to 20)
#    0.000    1.714    2.857    1.286    2.000    3.429 
#    0.000    0.000    0.000    0.000    0.000    0.000 
#    0.000    0.000    0.000    0.000    0.000    0.000 
#
# Total GULP energy -347284.633584 kJ/mol
# GULP energy per Si atom -12403.022628 kJ/mol
# Density = 2.021717 g / cm^3
# Si number density = 20.263292 Si / 1000 Ang^3
#
#
#
# Elastic Constant Matrix: (Units=GPa)
#
#
# Indices 1 2 3 4 5 6 
#
# 1 117.9634 68.0672 50.6045 -0.0120 -0.2837 -0.0019
# 2 68.0672 152.7441 46.9273 -0.0345 -9.0977 0.0132
# 3 50.6045 46.9273 87.8399 -0.0660 -0.3068 0.0287
# 4 -0.0120 -0.0345 -0.0660 23.0551 0.0399 -3.2005
# 5 -0.2837 -9.0977 -0.3068 0.0399 35.8552 -0.0164
# 6 -0.0019 0.0132 0.0287 -3.2005 -0.0164 32.6151
#
#
#
# Elastic Compliance Matrix: (Units=1/GPa)
#
#
# Indices 1 2 3 4 5 6 
#
# 1 0.013262 -0.004335 -0.005328 -0.000012 -0.001041 0.000005
# 2 -0.004335 0.009388 -0.002510 0.000001 0.002326 -0.000001
# 3 -0.005328 -0.002510 0.015793 0.000038 -0.000544 -0.000010
# 4 -0.000012 0.000001 0.000038 0.043974 -0.000047 0.004315
# 5 -0.001041 0.002326 -0.000544 -0.000047 0.028467 0.000009
# 6 0.000005 -0.000001 -0.000010 0.004315 0.000009 0.031084
#
#
# Mechanical properties :
#
#
# Convention : Reuss Voigt Hill
#
# Bulk Modulus (GPa) = 70.93638 76.63839 73.78739
# Shear Modulus (GPa) = 29.23763 31.16831 30.20297
#
# Velocity S-wave (km/s) = 3.80266 3.92620 3.86492
# Velocity P-wave (km/s) = 7.37317 7.64570 7.51067
#
# Compressibility (1/GPa) = 0.01409714
#
# Stress axis : x y z
#
# Youngs Moduli (GPa) = 75.40598 106.51437 63.31980
#
# Poissons Ratio (x) = 0.46173 0.33735
# Poissons Ratio (y) = 0.32688 0.15894
# Poissons Ratio (z) = 0.40175 0.26737
#
# Static dielectric constant tensor:
#      x y z
#    x 3.683840 -0.000050 0.034720 
#    y -0.000050 3.664190 0.000090 
#    z 0.034720 0.000090 3.548520 
# 
# 
# High freq. dielectric constant tensor:
#      x y z
#    x 1.792440 -0.000010 0.004030 
#    y -0.000010 1.788190 0.000010 
#    z 0.004030 0.000010 1.778070 
# 
# From -- ./inp_files/79173.got.cif
#   From: 2010.06.25/outbox.cif.g09.slc.cpg/sg12_40_cif.got.tgz:79173.got - 2010.06.28 00:19:55.
