data_PCOD8100718
_publ_section_title
;
Structure prediction by ZEFSAII (Michael W. Deem and Ramdas Pophale) SiO2 
 PCOD8100718
Probable space group: C 2/M
;
_chemical_formula_sum "Si O2"
_cell_formula_units_Z 64
_cell_length_a 9.039126
_cell_length_b 20.181227
_cell_length_c 20.377703
_cell_angle_alpha 90.000000
_cell_angle_beta 54.444314
_cell_angle_gamma 90.000000
_cell_volume 3024.223499
_symmetry_space_group_name_H-M "C 2/M"
_symmetry_group_IT_number 12
_symmetry_cell_setting 'monoclinic'
loop_
_space_group_symop_operation_xyz
x,y,z
-x,y,-z
-x,-y,-z
x,-y,z
1/2+x,1/2+y,z
1/2-x,1/2+y,-z
1/2-x,1/2-y,-z
1/2+x,1/2-y,z
loop_
_atom_site_type_symbol
_atom_site_label
_atom_site_fract_x
_atom_site_fract_y
_atom_site_fract_z
Si Si1 0.614356 0.661440 0.158541
Si Si2 0.079555 0.338121 0.240548
Si Si3 0.814854 0.924447 0.085238
Si Si4 0.498802 0.924114 0.382276
Si Si5 0.846691 0.271444 0.197876
Si Si6 0.821918 0.574763 0.015049
Si Si7 0.119218 0.921422 0.529143
Si Si8 0.400427 0.423176 0.320744
O O1 0.803311 0.685023 0.144203
O O2 0.520836 0.723664 0.146875
O O3 0.647529 0.611811 0.089949
O O4 0.489614 0.625691 0.245072
O O5 0.247303 0.373456 0.158015
O O6 0.001029 0.388108 0.312598
O O7 0.164709 0.273512 0.255067
O O8 0.901440 0.319932 0.243436
O O9 0.832580 0.000000 0.108608
O O10 0.662976 0.921266 0.067281
O O11 0.000000 0.903457 0.000000
O O12 0.327928 0.896920 0.468090
O O13 0.683240 0.914317 0.374970
O O14 0.466108 0.000000 0.372562
O O15 0.801392 0.500000 0.045109
O O16 0.000000 0.607870 0.000000
O O17 0.041856 0.899936 0.620696
O O18 0.000000 0.891204 0.500000
O O19 0.112309 0.000000 0.528468
O O20 0.454903 0.500000 0.292650
#
# Coordination Sequence:
#
# PCOD8100718 Si02
#       8
#     8   8   8   8   8   8   8   8
#     4  11  21  41  59  84 112 159 199 243 285 349
#     4  11  21  41  57  84 112 157 199 240 284 345
#     4  10  21  36  59  87 118 147 183 241 297 346
#     4  10  20  35  62  90 118 151 188 237 291 353
#     4  10  24  38  58  79 116 154 204 246 283 322
#     4  10  21  38  59  87 120 149 185 243 302 348
#     4   9  19  35  55  92 129 147 177 232 296 350
#     4  10  20  35  62  91 117 151 189 235 293 354
#
# _framework density 21.162455999999999
#
# number of rings (size 3 to 8) (size 9 to 14) (size 15 to 20)
#    0.000    1.875    1.250    2.625    1.750    1.500 
#    0.000   13.750    0.000    4.500    0.000    0.000 
#    0.000    0.000    0.000    0.000    0.000    0.000 
#
# Total GULP energy -396562.246884 kJ/mol
# GULP energy per Si atom -12392.570215 kJ/mol
# Density = 2.111429 g / cm^3
# Si number density = 21.162456 Si / 1000 Ang^3
#
#
#
# Elastic Constant Matrix: (Units=GPa)
#
#
# Indices 1 2 3 4 5 6 
#
# 1 71.6206 16.4733 -2.0765 0.0000 0.7978 0.0000
# 2 16.4733 60.7440 31.7092 0.0000 4.0454 0.0000
# 3 -2.0765 31.7092 83.0063 0.0000 7.0245 0.0000
# 4 0.0000 0.0000 0.0000 2.8632 0.0000 1.6908
# 5 0.7978 4.0454 7.0245 0.0000 24.7097 0.0000
# 6 0.0000 0.0000 0.0000 1.6908 0.0000 33.4145
#
#
#
# Elastic Compliance Matrix: (Units=1/GPa)
#
#
# Indices 1 2 3 4 5 6 
#
# 1 0.015284 -0.005418 0.002478 0.000000 -0.000311 0.000000
# 2 -0.005418 0.022516 -0.008648 0.000000 -0.001053 0.000000
# 3 0.002478 -0.008648 0.015677 0.000000 -0.003121 0.000000
# 4 0.000000 0.000000 0.000000 0.360013 0.000000 -0.018217
# 5 -0.000311 -0.001053 -0.003121 0.000000 0.041540 0.000000
# 6 0.000000 0.000000 0.000000 -0.018217 0.000000 0.030849
#
#
# Mechanical properties :
#
#
# Convention : Reuss Voigt Hill
#
# Bulk Modulus (GPa) = 33.00075 34.17587 33.58831
# Shear Modulus (GPa) = 9.63105 23.48181 16.55643
#
# Velocity S-wave (km/s) = 2.13562 3.33468 2.80008
# Velocity P-wave (km/s) = 4.65930 5.56876 5.13421
#
# Compressibility (1/GPa) = 0.03030234
#
# Stress axis : x y z
#
# Youngs Moduli (GPa) = 65.42809 44.41237 63.78796
#
# Poissons Ratio (x) = 0.24062 -0.15809
# Poissons Ratio (y) = 0.35448 0.55163
# Poissons Ratio (z) = -0.16216 0.38407
#
# Static dielectric constant tensor:
#      x y z
#    x 4.248520 0.000000 0.096350 
#    y 0.000000 3.738780 0.000000 
#    z 0.096350 0.000000 3.589780 
# 
# 
# High freq. dielectric constant tensor:
#      x y z
#    x 1.853360 0.000000 0.004860 
#    y 0.000000 1.812900 0.000000 
#    z 0.004860 0.000000 1.803170 
# 
# From -- ./inp_files/302296.got.cif
#   From: 2010.06.25/outbox.cif.g09.slc.cpg/sg12_152_cif.got.tgz:302296.got - 2010.06.28 00:19:55.
