data_PCOD8100746
_publ_section_title
;
Structure prediction by ZEFSAII (Michael W. Deem and Ramdas Pophale) SiO2 
 PCOD8100746
Probable space group: C 2/M
;
_chemical_formula_sum "Si O2"
_cell_formula_units_Z 52
_cell_length_a 14.182092
_cell_length_b 17.151804
_cell_length_c 14.470335
_cell_angle_alpha 90.000000
_cell_angle_beta 136.382926
_cell_angle_gamma 90.000000
_cell_volume 2428.142175
_symmetry_space_group_name_H-M "C 2/M"
_symmetry_group_IT_number 12
_symmetry_cell_setting 'monoclinic'
loop_
_space_group_symop_operation_xyz
x,y,z
-x,y,-z
-x,-y,-z
x,-y,z
1/2+x,1/2+y,z
1/2-x,1/2+y,-z
1/2-x,1/2-y,-z
1/2+x,1/2-y,z
loop_
_atom_site_type_symbol
_atom_site_label
_atom_site_fract_x
_atom_site_fract_y
_atom_site_fract_z
Si Si1 0.249759 0.911644 0.916723
Si Si2 0.666876 0.231703 0.348857
Si Si3 0.780912 0.500000 0.409237
Si Si4 0.500000 0.339774 0.000000
Si Si5 0.092504 0.347137 0.800123
Si Si6 0.539597 0.612665 0.222252
Si Si7 0.249884 0.229876 0.795345
Si Si8 0.929914 0.500000 0.321167
O O1 0.270298 0.860799 0.838385
O O2 0.087561 0.923707 0.814373
O O3 0.313023 0.000000 0.953426
O O4 0.316785 0.857270 0.043400
O O5 0.750000 0.250000 0.500000
O O6 0.570154 0.155488 0.290516
O O7 0.551134 0.296570 0.251108
O O8 0.764542 0.228466 0.327249
O O9 0.683906 0.574656 0.353413
O O10 0.863703 0.500000 0.373779
O O11 0.904293 0.500000 0.569865
O O12 0.488537 0.398775 0.906254
O O13 0.372548 0.282771 0.918143
O O14 0.122432 0.270743 0.757197
O O15 0.128078 0.423680 0.768055
#
# Coordination Sequence:
#
# PCOD8100746 Si02
#       8
#     8   8   4   4   8   8   8   4
#     4  12  23  41  66 100 138 172 218 275 345 400
#     4  11  25  44  68  95 128 179 230 272 330 397
#     4  11  24  38  61  91 138 174 226 275 331 394
#     4  10  20  35  63  96 128 164 220 270 340 388
#     4  12  23  43  68  98 139 172 223 275 338 406
#     4  11  21  38  63  94 127 170 215 279 332 393
#     4  11  23  42  67  98 133 173 221 282 329 402
#     4  11  24  41  58  95 133 183 218 278 335 391
#
# _framework density 21.41555
#
# number of rings (size 3 to 8) (size 9 to 14) (size 15 to 20)
#    0.000    0.769    4.615    5.077    0.000    2.154 
#    1.385    1.154    0.000    0.923    0.000    0.000 
#    0.000    0.000    0.000    0.000    0.000    0.000 
#
# Total GULP energy -322231.504348 kJ/mol
# GULP energy per Si atom -12393.519398 kJ/mol
# Density = 2.136681 g / cm^3
# Si number density = 21.415550 Si / 1000 Ang^3
#
#
#
# Elastic Constant Matrix: (Units=GPa)
#
#
# Indices 1 2 3 4 5 6 
#
# 1 95.2399 27.1088 39.1444 0.0000 -10.3888 0.0000
# 2 27.1088 86.0445 4.5800 -0.0001 -21.7581 -0.0001
# 3 39.1444 4.5800 96.4508 0.0000 -11.4814 0.0000
# 4 0.0000 -0.0001 0.0000 28.4809 -0.0001 5.3033
# 5 -10.3888 -21.7581 -11.4814 -0.0001 38.3210 -0.0001
# 6 0.0000 -0.0001 0.0000 5.3033 -0.0001 22.5497
#
#
#
# Elastic Compliance Matrix: (Units=1/GPa)
#
#
# Indices 1 2 3 4 5 6 
#
# 1 0.013905 -0.004146 -0.005473 0.000000 -0.000224 0.000000
# 2 -0.004146 0.014814 0.001915 0.000000 0.007861 0.000000
# 3 -0.005473 0.001915 0.012912 0.000000 0.003472 0.000000
# 4 0.000000 0.000000 0.000000 0.036719 0.000000 -0.008636
# 5 -0.000224 0.007861 0.003472 0.000000 0.031538 0.000000
# 6 0.000000 0.000000 0.000000 -0.008636 0.000000 0.046377
#
#
# Mechanical properties :
#
#
# Convention : Reuss Voigt Hill
#
# Bulk Modulus (GPa) = 38.13589 46.60016 42.36802
# Shear Modulus (GPa) = 27.71389 31.66379 29.68884
#
# Velocity S-wave (km/s) = 3.60126 3.84935 3.72737
# Velocity P-wave (km/s) = 5.92776 6.44701 6.19283
#
# Compressibility (1/GPa) = 0.02622202
#
# Stress axis : x y z
#
# Youngs Moduli (GPa) = 71.91647 67.50337 77.44955
#
# Poissons Ratio (x) = 0.27989 0.42389
# Poissons Ratio (y) = 0.29819 -0.14832
# Poissons Ratio (z) = 0.39361 -0.12927
#
# Static dielectric constant tensor:
#      x y z
#    x 4.063870 0.000000 -0.077980 
#    y 0.000000 3.936230 0.000000 
#    z -0.077980 0.000000 3.840920 
# 
# 
# High freq. dielectric constant tensor:
#      x y z
#    x 1.838190 0.000000 0.005620 
#    y 0.000000 1.840710 0.000000 
#    z 0.005620 0.000000 1.829850 
# 
# From -- ./inp_files/216905.got.cif
#   From: 2010.06.25/outbox.cif.g09.slc.cpg/sg12_109_cif.got.tgz:216905.got - 2010.06.28 00:19:55.
