data_PCOD8100961
_publ_section_title
;
Structure prediction by ZEFSAII (Michael W. Deem and Ramdas Pophale) SiO2 
 PCOD8100961
Probable space group: C 2/M
;
_chemical_formula_sum "Si O2"
_cell_formula_units_Z 64
_cell_length_a 25.647021
_cell_length_b 8.422400
_cell_length_c 15.958213
_cell_angle_alpha 90.000000
_cell_angle_beta 108.073442
_cell_angle_gamma 90.000000
_cell_volume 3277.042717
_symmetry_space_group_name_H-M "C 2/M"
_symmetry_group_IT_number 12
_symmetry_cell_setting 'monoclinic'
loop_
_space_group_symop_operation_xyz
x,y,z
-x,y,-z
-x,-y,-z
x,-y,z
1/2+x,1/2+y,z
1/2-x,1/2+y,-z
1/2-x,1/2-y,-z
1/2+x,1/2-y,z
loop_
_atom_site_type_symbol
_atom_site_label
_atom_site_fract_x
_atom_site_fract_y
_atom_site_fract_z
Si Si1 0.042854 0.817049 0.086521
Si Si2 0.072670 0.184759 0.599318
Si Si3 0.596670 0.183988 0.264815
Si Si4 0.043261 0.811853 0.402279
Si Si5 0.819575 0.681662 0.268017
Si Si6 0.699398 0.684462 0.222475
Si Si7 0.143834 0.685032 0.047647
Si Si8 0.301958 0.312154 0.076687
O O1 0.045911 0.731710 0.178276
O O2 0.101372 0.795919 0.074353
O O3 0.027997 0.000000 0.094605
O O4 0.000000 0.738016 0.000000
O O5 0.069746 0.249042 0.502850
O O6 0.131377 0.217677 0.668730
O O7 0.020859 0.245421 0.629507
O O8 0.063224 0.000000 0.587313
O O9 0.578146 0.224710 0.348666
O O10 0.653987 0.270313 0.269510
O O11 0.608764 0.000000 0.261034
O O12 0.048816 0.000000 0.390879
O O13 0.837259 0.500000 0.285117
O O14 0.761660 0.714451 0.287283
O O15 0.811423 0.722888 0.167347
O O16 0.692543 0.500000 0.195412
O O17 0.696572 0.789870 0.134838
O O18 0.127710 0.500000 0.034978
O O19 0.147711 0.759557 0.957461
O O20 0.298950 0.500000 0.088736
O O21 0.250000 0.250000 0.000000
#
# Coordination Sequence:
#
# PCOD8100961 Si02
#       8
#     8   8   8   8   8   8   8   8
#     4  10  21  37  56  78 109 150 191 233 282 336
#     4   9  20  39  64  89 114 149 188 235 289 347
#     4  11  22  35  58  87 113 147 190 237 287 339
#     4   9  19  40  65  87 114 149 191 233 288 351
#     4  11  23  37  57  86 119 152 190 238 291 345
#     4  10  20  36  56  78 112 153 190 230 278 339
#     4  11  21  34  54  78 108 146 188 234 281 332
#     4  12  23  36  55  79 111 150 192 234 278 332
#
# _framework density 19.529803000000001
#
# number of rings (size 3 to 8) (size 9 to 14) (size 15 to 20)
#    0.000    1.625    1.250    6.750    0.000    4.500 
#    0.000    3.125    0.000    0.000    0.000    0.000 
#    0.000    0.000    0.000    0.000    0.000    0.000 
#
# Total GULP energy -396599.283509 kJ/mol
# GULP energy per Si atom -12393.727610 kJ/mol
# Density = 1.948535 g / cm^3
# Si number density = 19.529803 Si / 1000 Ang^3
#
#
#
# Elastic Constant Matrix: (Units=GPa)
#
#
# Indices 1 2 3 4 5 6 
#
# 1 81.5725 10.7877 52.4624 0.0000 -1.5369 0.0000
# 2 10.7877 48.0919 0.1493 0.0000 -3.5943 0.0000
# 3 52.4624 0.1493 93.9131 0.0000 -1.5245 0.0000
# 4 0.0000 0.0000 0.0000 22.9419 0.0000 0.4917
# 5 -1.5369 -3.5943 -1.5245 0.0000 36.6971 0.0000
# 6 0.0000 0.0000 0.0000 0.4917 0.0000 25.7813
#
#
#
# Elastic Compliance Matrix: (Units=1/GPa)
#
#
# Indices 1 2 3 4 5 6 
#
# 1 0.020047 -0.004467 -0.011193 0.000000 -0.000063 0.000000
# 2 -0.004467 0.021942 0.002494 0.000000 0.002066 0.000000
# 3 -0.011193 0.002494 0.016905 0.000000 0.000478 0.000000
# 4 0.000000 0.000000 0.000000 0.043606 0.000000 -0.000832
# 5 -0.000063 0.002066 0.000478 0.000000 0.027470 0.000000
# 6 0.000000 0.000000 0.000000 -0.000832 0.000000 0.038804
#
#
# Mechanical properties :
#
#
# Convention : Reuss Voigt Hill
#
# Bulk Modulus (GPa) = 30.71020 38.93069 34.82045
# Shear Modulus (GPa) = 24.27671 27.76259 26.01965
#
# Velocity S-wave (km/s) = 3.52953 3.77444 3.65403
# Velocity P-wave (km/s) = 5.68938 6.24279 5.97250
#
# Compressibility (1/GPa) = 0.03256247
#
# Stress axis : x y z
#
# Youngs Moduli (GPa) = 49.88253 45.57436 59.15573
#
# Poissons Ratio (x) = 0.20357 0.66212
# Poissons Ratio (y) = 0.22282 -0.14753
# Poissons Ratio (z) = 0.55832 -0.11366
#
# Static dielectric constant tensor:
#      x y z
#    x 3.718300 0.000000 0.011980 
#    y 0.000000 3.475020 0.000000 
#    z 0.011980 0.000000 3.667140 
# 
# 
# High freq. dielectric constant tensor:
#      x y z
#    x 1.765260 0.000000 -0.005030 
#    y 0.000000 1.761900 0.000000 
#    z -0.005030 0.000000 1.746510 
# 
# From -- ./inp_files/244135.got.cif
#   From: 2010.06.25/outbox.cif.g09.slc.cpg/sg12_123_cif.got.tgz:244135.got - 2010.06.28 00:19:55.
