data_PCOD8100692
_publ_section_title
;
Structure prediction by ZEFSAII (Michael W. Deem and Ramdas Pophale) SiO2 
 PCOD8100692
Probable space group: C 2/M
;
_chemical_formula_sum "Si O2"
_cell_formula_units_Z 56
_cell_length_a 21.902238
_cell_length_b 11.168678
_cell_length_c 11.745637
_cell_angle_alpha 90.000000
_cell_angle_beta 71.780784
_cell_angle_gamma 90.000000
_cell_volume 2729.164738
_symmetry_space_group_name_H-M "C 2/M"
_symmetry_group_IT_number 12
_symmetry_cell_setting 'monoclinic'
loop_
_space_group_symop_operation_xyz
x,y,z
-x,y,-z
-x,-y,-z
x,-y,z
1/2+x,1/2+y,z
1/2-x,1/2+y,-z
1/2-x,1/2-y,-z
1/2+x,1/2-y,z
loop_
_atom_site_type_symbol
_atom_site_label
_atom_site_fract_x
_atom_site_fract_y
_atom_site_fract_z
Si Si1 0.575832 0.364401 0.944904
Si Si2 0.237018 0.632069 0.356109
Si Si3 0.482037 0.362844 0.380137
Si Si4 0.858482 0.368179 0.189358
Si Si5 0.845545 0.753394 0.417871
Si Si6 0.395098 0.636818 0.816375
Si Si7 0.258287 0.274798 0.862457
O O1 0.593995 0.500000 0.888325
O O2 0.597821 0.251012 0.856645
O O3 0.500000 0.357895 0.000000
O O4 0.609640 0.343743 0.046124
O O5 0.208946 0.500000 0.377721
O O6 0.183735 0.719029 0.442474
O O7 0.303562 0.639287 0.388008
O O8 0.251591 0.660912 0.214651
O O9 0.500000 0.351490 0.500000
O O10 0.469414 0.500000 0.351657
O O11 0.418911 0.288529 0.390443
O O12 0.540244 0.303496 0.272770
O O13 0.891705 0.500000 0.150545
O O14 0.839383 0.358654 0.333544
O O15 0.795201 0.370586 0.145979
O O16 0.400903 0.500000 0.778275
O O17 0.330674 0.683755 0.795677
O O18 0.250000 0.250000 0.000000
#
# Coordination Sequence:
#
# PCOD8100692 Si02
#       7
#     8   8   8   8   8   8   8
#     4  10  21  38  60  86 117 158 208 256 307 369
#     4  10  22  38  62  89 119 162 207 253 306 373
#     4  10  20  35  61  91 119 156 201 259 317 369
#     4  11  23  38  61  90 125 165 205 255 318 376
#     4  10  21  39  60  89 125 158 202 255 312 376
#     4  10  20  36  57  84 118 153 198 253 309 367
#     4  11  22  39  59  88 122 162 204 258 312 372
#
# _framework density 20.519098
#
# number of rings (size 3 to 8) (size 9 to 14) (size 15 to 20)
#    0.000    1.714    1.429    3.000    0.000    5.429 
#    0.000    4.286    0.000    9.429    0.000    0.000 
#    0.000    0.000    0.000    0.000    0.000    0.000 
#
# Total GULP energy -346962.106075 kJ/mol
# GULP energy per Si atom -12391.503788 kJ/mol
# Density = 2.047240 g / cm^3
# Si number density = 20.519098 Si / 1000 Ang^3
#
#
#
# Elastic Constant Matrix: (Units=GPa)
#
#
# Indices 1 2 3 4 5 6 
#
# 1 105.8858 26.4358 22.1797 0.0000 -7.5610 0.0000
# 2 26.4358 112.1674 39.6488 0.0000 -2.7998 0.0000
# 3 22.1797 39.6488 111.1896 0.0000 4.7518 0.0000
# 4 0.0000 0.0000 0.0000 13.6935 0.0000 -7.3300
# 5 -7.5610 -2.7998 4.7518 0.0000 33.8070 0.0000
# 6 0.0000 0.0000 0.0000 -7.3300 0.0000 15.9195
#
#
#
# Elastic Compliance Matrix: (Units=1/GPa)
#
#
# Indices 1 2 3 4 5 6 
#
# 1 0.010395 -0.001855 -0.001514 0.000000 0.002384 0.000000
# 2 -0.001855 0.010595 -0.003448 0.000000 0.000947 0.000000
# 3 -0.001514 -0.003448 0.010616 0.000000 -0.002116 0.000000
# 4 0.000000 0.000000 0.000000 0.096914 0.000000 0.044623
# 5 0.002384 0.000947 -0.002116 0.000000 0.030489 0.000000
# 6 0.000000 0.000000 0.000000 0.044623 0.000000 0.083362
#
#
# Mechanical properties :
#
#
# Convention : Reuss Voigt Hill
#
# Bulk Modulus (GPa) = 55.64692 56.19681 55.92187
# Shear Modulus (GPa) = 19.08430 28.74924 23.91677
#
# Velocity S-wave (km/s) = 3.05302 3.74718 3.41777
# Velocity P-wave (km/s) = 6.29336 6.79477 6.54886
#
# Compressibility (1/GPa) = 0.01797045
#
# Stress axis : x y z
#
# Youngs Moduli (GPa) = 96.20346 94.38321 94.19968
#
# Poissons Ratio (x) = 0.17510 0.14260
# Poissons Ratio (y) = 0.17848 0.32485
# Poissons Ratio (z) = 0.14563 0.32548
#
# Static dielectric constant tensor:
#      x y z
#    x 3.956020 0.000000 0.043650 
#    y 0.000000 3.465720 0.000000 
#    z 0.043650 0.000000 3.859830 
# 
# 
# High freq. dielectric constant tensor:
#      x y z
#    x 1.810840 0.000000 0.002330 
#    y 0.000000 1.771900 0.000000 
#    z 0.002330 0.000000 1.814240 
# 
# From -- ./inp_files/165629.got.cif
#   From: 2010.06.25/outbox.cif.g09.slc.cpg/sg12_83_cif.got.tgz:165629.got - 2010.06.28 00:19:55.
