data_PCOD8100884
_publ_section_title
;
Structure prediction by ZEFSAII (Michael W. Deem and Ramdas Pophale) SiO2 
 PCOD8100884
Probable space group: C 2/M
;
_chemical_formula_sum "Si O2"
_cell_formula_units_Z 48
_cell_length_a 16.675784
_cell_length_b 12.783702
_cell_length_c 12.944136
_cell_angle_alpha 90.000000
_cell_angle_beta 110.495487
_cell_angle_gamma 90.000000
_cell_volume 2584.737125
_symmetry_space_group_name_H-M "C 2/M"
_symmetry_group_IT_number 12
_symmetry_cell_setting 'monoclinic'
loop_
_space_group_symop_operation_xyz
x,y,z
-x,y,-z
-x,-y,-z
x,-y,z
1/2+x,1/2+y,z
1/2-x,1/2+y,-z
1/2-x,1/2-y,-z
1/2+x,1/2-y,z
loop_
_atom_site_type_symbol
_atom_site_label
_atom_site_fract_x
_atom_site_fract_y
_atom_site_fract_z
Si Si1 0.905811 0.718482 0.464334
Si Si2 0.184152 0.717814 0.884509
Si Si3 0.413079 0.273126 0.696946
Si Si4 0.013337 0.622653 0.888565
Si Si5 0.418592 0.377546 0.291310
Si Si6 0.250103 0.619043 0.716594
O O1 0.880340 0.735316 0.570983
O O2 0.910661 0.827403 0.401998
O O3 0.836073 0.641661 0.385653
O O4 0.000000 0.664968 0.500000
O O5 0.150399 0.822944 0.814138
O O6 0.234022 0.643349 0.828466
O O7 0.109237 0.649681 0.900038
O O8 0.250000 0.750000 0.000000
O O9 0.447496 0.177636 0.781050
O O10 0.487071 0.359759 0.714133
O O11 0.330793 0.315631 0.716783
O O12 0.996274 0.500000 0.871213
O O13 0.000000 0.661692 0.000000
O O14 0.398367 0.500000 0.289685
O O15 0.275069 0.500000 0.712601
#
# Coordination Sequence:
#
# PCOD8100884 Si02
#       6
#     8   8   8   8   8   8
#     4   9  20  36  54  78 109 142 178 219 260 314
#     4  10  21  37  55  79 111 140 176 223 266 319
#     4  10  20  36  55  80 111 140 177 221 265 316
#     4  10  21  38  59  79 104 142 183 223 267 315
#     4   9  19  35  56  80 106 142 182 219 261 309
#     4  11  22  35  54  80 109 140 174 218 271 320
#
# _framework density 18.570554000000001
#
# number of rings (size 3 to 8) (size 9 to 14) (size 15 to 20)
#    0.000    2.167    0.000    3.500    0.000    6.000 
#    0.000    5.000    0.000    5.500    0.000    0.000 
#    0.000    0.000    0.000    0.000    0.000    0.000 
#
# Total GULP energy -297623.026445 kJ/mol
# GULP energy per Si atom -12400.959435 kJ/mol
# Density = 1.852829 g / cm^3
# Si number density = 18.570554 Si / 1000 Ang^3
#
#
#
# Elastic Constant Matrix: (Units=GPa)
#
#
# Indices 1 2 3 4 5 6 
#
# 1 126.3144 35.4946 59.2879 0.0000 -10.1208 0.0000
# 2 35.4946 79.2525 48.2641 0.0000 -2.5124 0.0000
# 3 59.2879 48.2641 149.9145 0.0000 -3.7680 0.0000
# 4 0.0000 0.0000 0.0000 18.2789 0.0000 -2.1272
# 5 -10.1208 -2.5124 -3.7680 0.0000 40.9244 0.0000
# 6 0.0000 0.0000 0.0000 -2.1272 0.0000 18.7597
#
#
#
# Elastic Compliance Matrix: (Units=1/GPa)
#
#
# Indices 1 2 3 4 5 6 
#
# 1 0.010314 -0.002613 -0.003185 0.000000 0.002097 0.000000
# 2 -0.002613 0.016367 -0.004237 0.000000 -0.000032 0.000000
# 3 -0.003185 -0.004237 0.009289 0.000000 -0.000192 0.000000
# 4 0.000000 0.000000 0.000000 0.055439 0.000000 0.006286
# 5 0.002097 -0.000032 -0.000192 0.000000 0.024934 0.000000
# 6 0.000000 0.000000 0.000000 0.006286 0.000000 0.054019
#
#
# Mechanical properties :
#
#
# Convention : Reuss Voigt Hill
#
# Bulk Modulus (GPa) = 62.88976 71.28608 67.08792
# Shear Modulus (GPa) = 25.54501 29.75492 27.64996
#
# Velocity S-wave (km/s) = 3.71289 4.00717 3.86283
# Velocity P-wave (km/s) = 7.23322 7.73821 7.48997
#
# Compressibility (1/GPa) = 0.01590084
#
# Stress axis : x y z
#
# Youngs Moduli (GPa) = 96.95550 61.09710 107.65194
#
# Poissons Ratio (x) = 0.15966 0.34287
# Poissons Ratio (y) = 0.25337 0.45609
# Poissons Ratio (z) = 0.30880 0.25885
#
# Static dielectric constant tensor:
#      x y z
#    x 3.346460 0.000000 -0.090740 
#    y 0.000000 3.184780 0.000000 
#    z -0.090740 0.000000 3.626720 
# 
# 
# High freq. dielectric constant tensor:
#      x y z
#    x 1.732460 0.000000 -0.002890 
#    y 0.000000 1.704970 0.000000 
#    z -0.002890 0.000000 1.736530 
# 
# From -- ./inp_files/154178.got.cif
#   From: 2010.06.25/outbox.cif.g09.slc.cpg/sg12_78_cif.got.tgz:154178.got - 2010.06.28 00:19:55.
