data_PCOD8100058
_publ_section_title
;
Structure prediction by ZEFSAII (Michael W. Deem and Ramdas Pophale) SiO2 
 PCOD8100058
Probable space group: C 2/M
;
_chemical_formula_sum "Si O2"
_cell_formula_units_Z 64
_cell_length_a 18.881423
_cell_length_b 8.968884
_cell_length_c 29.247086
_cell_angle_alpha 90.000000
_cell_angle_beta 41.701614
_cell_angle_gamma 90.000000
_cell_volume 3294.894548
_symmetry_space_group_name_H-M "C 2/M"
_symmetry_group_IT_number 12
_symmetry_cell_setting 'monoclinic'
loop_
_space_group_symop_operation_xyz
x,y,z
-x,y,-z
-x,-y,-z
x,-y,z
1/2+x,1/2+y,z
1/2-x,1/2+y,-z
1/2-x,1/2-y,-z
1/2+x,1/2-y,z
loop_
_atom_site_type_symbol
_atom_site_label
_atom_site_fract_x
_atom_site_fract_y
_atom_site_fract_z
Si Si1 0.862474 0.673006 0.950444
Si Si2 0.717602 0.176480 0.680199
Si Si3 0.796937 0.823467 0.829808
Si Si4 0.732899 0.174721 0.436875
Si Si5 0.526851 0.172930 0.197845
Si Si6 0.088067 0.824754 0.578514
Si Si7 0.652225 0.323414 0.295303
Si Si8 0.891761 0.833094 0.025299
O O1 0.845110 0.500000 0.967991
O O2 0.933498 0.704280 0.872272
O O3 0.750000 0.750000 0.000000
O O4 0.921125 0.744725 0.965345
O O5 0.770983 0.249851 0.610553
O O6 0.594942 0.224529 0.741881
O O7 0.777678 0.238207 0.696397
O O8 0.730039 0.000000 0.670519
O O9 0.908412 0.773142 0.797875
O O10 0.795371 0.771269 0.777706
O O11 0.699348 0.748019 0.902394
O O12 0.786397 0.000000 0.839787
O O13 0.843751 0.213147 0.408998
O O14 0.634339 0.238337 0.512875
O O15 0.717432 0.000000 0.438325
O O16 0.540784 0.000000 0.204319
O O17 0.968789 0.764369 0.643526
O O18 0.092077 0.000000 0.565900
O O19 0.649709 0.500000 0.297795
O O20 0.850432 0.000000 0.033870
O O21 0.000000 0.839606 0.000000
#
# Coordination Sequence:
#
# PCOD8100058 Si02
#       8
#     8   8   8   8   8   8   8   8
#     4  11  22  38  62  89 117 151 194 244 294 350
#     4  10  21  38  58  82 113 152 189 229 283 341
#     4  11  22  38  63  87 112 150 195 242 289 344
#     4  10  20  35  57  86 116 145 187 236 279 331
#     4  10  22  38  59  84 116 150 187 238 290 346
#     4   9  18  36  60  83 111 149 188 229 275 332
#     4   9  20  37  58  84 112 146 192 236 278 337
#     4  11  25  42  59  84 120 157 195 242 294 350
#
# _framework density 19.423991000000001
#
# number of rings (size 3 to 8) (size 9 to 14) (size 15 to 20)
#    0.000    1.875    1.250    2.250    1.750    4.000 
#    0.000    5.625    0.000    0.000    0.000    0.000 
#    0.000    0.000    0.000    0.000    0.000    0.000 
#
# Total GULP energy -396898.423520 kJ/mol
# GULP energy per Si atom -12403.075735 kJ/mol
# Density = 1.937978 g / cm^3
# Si number density = 19.423991 Si / 1000 Ang^3
#
#
#
# Elastic Constant Matrix: (Units=GPa)
#
#
# Indices 1 2 3 4 5 6 
#
# 1 118.2433 42.3539 47.0318 0.0001 19.8815 0.0003
# 2 42.3539 69.5543 32.3084 0.0008 12.9941 -0.0005
# 3 47.0318 32.3084 82.6856 -0.0002 13.9511 0.0004
# 4 0.0001 0.0008 -0.0002 19.5056 0.0000 7.1203
# 5 19.8815 12.9941 13.9511 0.0000 37.4127 0.0000
# 6 0.0003 -0.0005 0.0004 7.1203 0.0000 22.8627
#
#
#
# Elastic Compliance Matrix: (Units=1/GPa)
#
#
# Indices 1 2 3 4 5 6 
#
# 1 0.012637 -0.004891 -0.004728 0.000000 -0.003254 0.000000
# 2 -0.004891 0.019974 -0.004579 -0.000001 -0.002631 0.000001
# 3 -0.004728 -0.004579 0.016946 0.000001 -0.002217 0.000000
# 4 0.000000 -0.000001 0.000001 0.057843 0.000000 -0.018015
# 5 -0.003254 -0.002631 -0.002217 0.000000 0.030198 0.000000
# 6 0.000000 0.000001 0.000000 -0.018015 0.000000 0.049350
#
#
# Mechanical properties :
#
#
# Convention : Reuss Voigt Hill
#
# Bulk Modulus (GPa) = 47.25458 57.09680 52.17569
# Shear Modulus (GPa) = 22.48240 25.87548 24.17894
#
# Velocity S-wave (km/s) = 3.40583 3.65381 3.53200
# Velocity P-wave (km/s) = 6.31245 6.87453 6.59948
#
# Compressibility (1/GPa) = 0.02116197
#
# Stress axis : x y z
#
# Youngs Moduli (GPa) = 79.13561 50.06560 59.01040
#
# Poissons Ratio (x) = 0.24487 0.27898
# Poissons Ratio (y) = 0.38705 0.27019
# Poissons Ratio (z) = 0.37413 0.22923
#
# Static dielectric constant tensor:
#      x y z
#    x 3.792890 0.000000 -0.094150 
#    y 0.000000 3.500200 0.000000 
#    z -0.094150 0.000000 3.278580 
# 
# 
# High freq. dielectric constant tensor:
#      x y z
#    x 1.763620 0.000000 0.005140 
#    y 0.000000 1.747680 0.000000 
#    z 0.005140 0.000000 1.766270 
# 
# From -- ./inp_files/378179.got.cif
#   From: 2010.06.25/outbox.cif.g09.slc.cpg/sg12_190_cif.got.tgz:378179.got - 2010.06.28 00:19:55.
