data_PCOD8100771
_publ_section_title
;
Structure prediction by ZEFSAII (Michael W. Deem and Ramdas Pophale) SiO2 
 PCOD8100771
Probable space group: C 2/M
;
_chemical_formula_sum "Si O2"
_cell_formula_units_Z 64
_cell_length_a 30.947710
_cell_length_b 14.415112
_cell_length_c 11.602828
_cell_angle_alpha 90.000000
_cell_angle_beta 139.129824
_cell_angle_gamma 90.000000
_cell_volume 3387.027302
_symmetry_space_group_name_H-M "C 2/M"
_symmetry_group_IT_number 12
_symmetry_cell_setting 'monoclinic'
loop_
_space_group_symop_operation_xyz
x,y,z
-x,y,-z
-x,-y,-z
x,-y,z
1/2+x,1/2+y,z
1/2-x,1/2+y,-z
1/2-x,1/2-y,-z
1/2+x,1/2-y,z
loop_
_atom_site_type_symbol
_atom_site_label
_atom_site_fract_x
_atom_site_fract_y
_atom_site_fract_z
Si Si1 0.671767 0.897439 0.038164
Si Si2 0.457485 0.607736 0.253513
Si Si3 0.764167 0.607853 0.309749
Si Si4 0.630939 0.722971 0.076619
Si Si5 0.903466 0.838640 0.379536
Si Si6 0.318025 0.398426 0.411191
Si Si7 0.821922 0.739876 0.591441
Si Si8 0.192604 0.319927 0.844536
O O1 0.624285 0.815036 0.984417
O O2 0.741200 0.877655 0.239515
O O3 0.644928 0.000000 0.017430
O O4 0.679855 0.895166 0.917290
O O5 0.472648 0.500000 0.259852
O O6 0.524257 0.662121 0.418390
O O7 0.406302 0.615951 0.257511
O O8 0.428296 0.654639 0.079416
O O9 0.750934 0.500000 0.307635
O O10 0.698039 0.666449 0.193208
O O11 0.820257 0.645159 0.512586
O O12 0.788366 0.622647 0.229278
O O13 0.625073 0.758196 0.197325
O O14 0.854121 0.896586 0.360686
O O15 0.875637 0.734676 0.315194
O O16 0.328671 0.500000 0.487097
O O17 0.344759 0.323371 0.554448
O O18 0.750000 0.750000 0.500000
O O19 0.250000 0.250000 0.000000
#
# Coordination Sequence:
#
# PCOD8100771 Si02
#       8
#     8   8   8   8   8   8   8   8
#     4  11  21  33  55  85 113 143 182 230 286 346
#     4  11  23  37  57  88 116 151 191 227 275 341
#     4  11  21  34  56  85 114 148 183 235 293 344
#     4  11  21  38  54  79 117 153 188 230 281 331
#     4  11  20  37  60  80 120 150 183 227 277 341
#     4  11  20  34  57  82 115 150 181 228 282 337
#     4  10  20  36  52  80 113 147 191 231 279 336
#     4  12  18  35  56  83 115 145 177 228 292 342
#
# _framework density 18.895626
#
# number of rings (size 3 to 8) (size 9 to 14) (size 15 to 20)
#    0.000    1.000    7.500    2.250    0.000    3.000 
#    0.000    0.625    0.000    3.750    0.000    0.875 
#    0.000    0.000    0.000    0.000    0.000    0.000 
#
# Total GULP energy -396696.867290 kJ/mol
# GULP energy per Si atom -12396.777103 kJ/mol
# Density = 1.885262 g / cm^3
# Si number density = 18.895626 Si / 1000 Ang^3
#
#
#
# Elastic Constant Matrix: (Units=GPa)
#
#
# Indices 1 2 3 4 5 6 
#
# 1 33.2990 26.7260 8.8175 0.0000 -15.7067 0.0000
# 2 26.7260 125.3377 41.9106 0.0000 -7.4467 0.0000
# 3 8.8175 41.9106 86.1575 0.0000 -18.9273 0.0000
# 4 0.0000 0.0000 0.0000 19.6103 0.0000 -1.5337
# 5 -15.7067 -7.4467 -18.9273 0.0000 32.6919 0.0000
# 6 0.0000 0.0000 0.0000 -1.5337 0.0000 15.5611
#
#
#
# Elastic Compliance Matrix: (Units=1/GPa)
#
#
# Indices 1 2 3 4 5 6 
#
# 1 0.048591 -0.010793 0.005575 0.000000 0.024115 0.000000
# 2 -0.010793 0.011935 -0.006007 0.000000 -0.005944 0.000000
# 3 0.005575 -0.006007 0.016322 0.000000 0.010760 0.000000
# 4 0.000000 0.000000 0.000000 0.051390 0.000000 0.005065
# 5 0.024115 -0.005944 0.010760 0.000000 0.047050 0.000000
# 6 0.000000 0.000000 0.000000 0.005065 0.000000 0.064762
#
#
# Mechanical properties :
#
#
# Convention : Reuss Voigt Hill
#
# Bulk Modulus (GPa) = 18.38288 44.41138 31.39713
# Shear Modulus (GPa) = 17.81683 24.72865 21.27274
#
# Velocity S-wave (km/s) = 3.07401 3.62152 3.35894
# Velocity P-wave (km/s) = 4.72749 6.40638 5.62987
#
# Compressibility (1/GPa) = 0.05439843
#
# Stress axis : x y z
#
# Youngs Moduli (GPa) = 20.57974 83.78524 61.26697
#
# Poissons Ratio (x) = 0.90426 -0.34154
# Poissons Ratio (y) = 0.22211 0.36804
# Poissons Ratio (z) = -0.11472 0.50331
#
# Static dielectric constant tensor:
#      x y z
#    x 3.458860 0.000000 -0.371710 
#    y 0.000000 3.505530 0.000000 
#    z -0.371710 0.000000 3.584010 
# 
# 
# High freq. dielectric constant tensor:
#      x y z
#    x 1.714690 0.000000 -0.030370 
#    y 0.000000 1.735960 0.000000 
#    z -0.030370 0.000000 1.715300 
# 
# From -- ./inp_files/189489.got.cif
#   From: 2010.06.25/outbox.cif.g09.slc.cpg/sg12_95_cif.got.tgz:189489.got - 2010.06.28 00:19:55.
