data_PCOD8100958
_publ_section_title
;
Structure prediction by ZEFSAII (Michael W. Deem and Ramdas Pophale) SiO2 
 PCOD8100958
Probable space group: C 2/M
;
_chemical_formula_sum "Si O2"
_cell_formula_units_Z 64
_cell_length_a 28.598475
_cell_length_b 9.164278
_cell_length_c 24.499481
_cell_angle_alpha 90.000000
_cell_angle_beta 148.450496
_cell_angle_gamma 90.000000
_cell_volume 3359.656290
_symmetry_space_group_name_H-M "C 2/M"
_symmetry_group_IT_number 12
_symmetry_cell_setting 'monoclinic'
loop_
_space_group_symop_operation_xyz
x,y,z
-x,y,-z
-x,-y,-z
x,-y,z
1/2+x,1/2+y,z
1/2-x,1/2+y,-z
1/2-x,1/2-y,-z
1/2+x,1/2-y,z
loop_
_atom_site_type_symbol
_atom_site_label
_atom_site_fract_x
_atom_site_fract_y
_atom_site_fract_z
Si Si1 0.399420 0.169304 0.043878
Si Si2 0.008095 0.332909 0.753858
Si Si3 0.724470 0.671433 0.260773
Si Si4 0.051060 0.669267 0.674151
Si Si5 0.165839 0.831568 0.439875
Si Si6 0.045785 0.670844 0.102549
Si Si7 0.374901 0.669614 0.475817
Si Si8 0.745478 0.169529 0.834065
O O1 0.422117 0.205013 0.129109
O O2 0.480607 0.221557 0.086138
O O3 0.381987 0.000000 0.016119
O O4 0.308438 0.251204 0.939833
O O5 0.975602 0.500000 0.726408
O O6 0.922252 0.231619 0.676126
O O7 0.055969 0.303253 0.743955
O O8 0.727605 0.500000 0.276200
O O9 0.636927 0.740072 0.201187
O O10 0.812700 0.745129 0.372145
O O11 0.721529 0.705646 0.193707
O O12 0.031917 0.500000 0.641950
O O13 0.143978 0.723584 0.740913
O O14 0.974097 0.764976 0.569724
O O15 0.250000 0.750000 0.500000
O O16 0.163461 0.805513 0.502062
O O17 0.172808 0.000000 0.431400
O O18 0.069046 0.500000 0.128838
O O19 0.000000 0.712210 0.000000
O O20 0.378073 0.500000 0.463283
O O21 0.750779 0.000000 0.852831
#
# Coordination Sequence:
#
# PCOD8100958 Si02
#       8
#     8   8   8   8   8   8   8   8
#     4  10  21  36  56  83 113 146 185 228 276 331
#     4   9  19  36  57  81 110 145 185 227 274 326
#     4  11  23  37  56  83 113 147 188 229 276 334
#     4   9  19  39  61  80 110 148 185 230 281 328
#     4  10  21  36  55  80 110 144 183 226 273 327
#     4  10  20  36  56  78 111 150 183 226 281 328
#     4  10  22  39  58  82 112 145 184 230 278 329
#     4  10  22  38  57  82 112 147 187 232 278 329
#
# _framework density 19.049567
#
# number of rings (size 3 to 8) (size 9 to 14) (size 15 to 20)
#    0.000    2.125    1.250    1.125    1.750    4.750 
#    0.000    2.500    0.000    0.000    0.000    0.000 
#    0.000    0.000    0.000    0.000    0.000    0.000 
#
# Total GULP energy -396956.924898 kJ/mol
# GULP energy per Si atom -12404.903903 kJ/mol
# Density = 1.900621 g / cm^3
# Si number density = 19.049567 Si / 1000 Ang^3
#
#
#
# Elastic Constant Matrix: (Units=GPa)
#
#
# Indices 1 2 3 4 5 6 
#
# 1 47.1227 26.9339 22.3601 0.0000 22.3732 0.0000
# 2 26.9339 84.4242 57.5449 0.0000 10.9239 0.0000
# 3 22.3601 57.5449 116.0141 0.0000 11.3760 0.0000
# 4 0.0000 0.0000 0.0000 41.5759 0.0000 5.5043
# 5 22.3732 10.9239 11.3760 0.0000 32.4694 0.0000
# 6 0.0000 0.0000 0.0000 5.5043 0.0000 24.1748
#
#
#
# Elastic Compliance Matrix: (Units=1/GPa)
#
#
# Indices 1 2 3 4 5 6 
#
# 1 0.037026 -0.008378 -0.000782 0.000000 -0.022420 0.000000
# 2 -0.008378 0.020081 -0.008543 0.000000 0.002010 0.000000
# 3 -0.000782 -0.008543 0.013124 0.000000 -0.001185 0.000000
# 4 0.000000 0.000000 0.000000 0.024800 0.000000 -0.005647
# 5 -0.022420 0.002010 -0.001185 0.000000 0.045986 0.000000
# 6 0.000000 0.000000 0.000000 -0.005647 0.000000 0.042651
#
#
# Mechanical properties :
#
#
# Convention : Reuss Voigt Hill
#
# Bulk Modulus (GPa) = 28.71554 51.24875 39.98214
# Shear Modulus (GPa) = 21.67494 29.02547 25.35021
#
# Velocity S-wave (km/s) = 3.37682 3.90767 3.65190
# Velocity P-wave (km/s) = 5.50551 6.87903 6.23024
#
# Compressibility (1/GPa) = 0.03482435
#
# Stress axis : x y z
#
# Youngs Moduli (GPa) = 27.00818 49.79944 76.19724
#
# Poissons Ratio (x) = 0.41724 0.05958
# Poissons Ratio (y) = 0.22629 0.65092
# Poissons Ratio (z) = 0.02112 0.42542
#
# Static dielectric constant tensor:
#      x y z
#    x 3.560920 0.000000 0.010440 
#    y 0.000000 3.485910 0.000000 
#    z 0.010440 0.000000 3.467930 
# 
# 
# High freq. dielectric constant tensor:
#      x y z
#    x 1.740310 0.000000 0.001850 
#    y 0.000000 1.739990 0.000000 
#    z 0.001850 0.000000 1.745630 
# 
# From -- ./inp_files/353499.got.cif
#   From: 2010.06.25/outbox.cif.g09.slc.cpg/sg12_177_cif.got.tgz:353499.got - 2010.06.28 00:19:55.
