data_PCOD8100096
_publ_section_title
;
Structure prediction by ZEFSAII (Michael W. Deem and Ramdas Pophale) SiO2 
 PCOD8100096
Probable space group: C 2/M
;
_chemical_formula_sum "Si O2"
_cell_formula_units_Z 64
_cell_length_a 25.664745
_cell_length_b 15.120263
_cell_length_c 19.426566
_cell_angle_alpha 90.000000
_cell_angle_beta 154.604299
_cell_angle_gamma 90.000000
_cell_volume 3233.071614
_symmetry_space_group_name_H-M "C 2/M"
_symmetry_group_IT_number 12
_symmetry_cell_setting 'monoclinic'
loop_
_space_group_symop_operation_xyz
x,y,z
-x,y,-z
-x,-y,-z
x,-y,z
1/2+x,1/2+y,z
1/2-x,1/2+y,-z
1/2-x,1/2-y,-z
1/2+x,1/2-y,z
loop_
_atom_site_type_symbol
_atom_site_label
_atom_site_fract_x
_atom_site_fract_y
_atom_site_fract_z
Si Si1 0.696877 0.401936 0.089331
Si Si2 0.354692 0.599640 0.399100
Si Si3 0.372968 0.100768 0.067144
Si Si4 0.590094 0.845525 0.739629
Si Si5 0.381413 0.352470 0.276685
Si Si6 0.547341 0.240067 0.947127
Si Si7 0.311133 0.760258 0.741530
Si Si8 0.167552 0.598702 0.608415
O O1 0.638078 0.500000 0.022328
O O2 0.783578 0.394988 0.126377
O O3 0.787472 0.384345 0.260769
O O4 0.588336 0.330167 0.957058
O O5 0.302661 0.500000 0.331749
O O6 0.495333 0.593597 0.589716
O O7 0.346049 0.648922 0.315333
O O8 0.278154 0.654742 0.364055
O O9 0.428830 0.147200 0.201122
O O10 0.418789 0.153884 0.055607
O O11 0.419193 0.000000 0.117342
O O12 0.226395 0.102155 0.894586
O O13 0.599993 0.745930 0.726916
O O14 0.477347 0.890749 0.566439
O O15 0.402107 0.237341 0.785195
O O16 0.613059 0.238314 0.098285
O O17 0.232721 0.670956 0.637923
O O18 0.203442 0.500000 0.626346
#
# Coordination Sequence:
#
# PCOD8100096 Si02
#       8
#     8   8   8   8   8   8   8   8
#     4  10  20  35  57  87 118 146 187 240 286 338
#     4  11  21  36  62  92 118 148 188 236 288 342
#     4  12  24  39  56  84 120 155 190 230 286 350
#     4  12  22  36  59  85 116 153 188 232 290 348
#     4  11  21  36  59  87 119 150 182 232 291 341
#     4  10  22  37  58  82 116 151 194 234 288 337
#     4  10  20  38  59  86 111 150 192 241 285 336
#     4  10  20  36  59  87 115 147 188 238 288 335
#
# _framework density 19.795417
#
# number of rings (size 3 to 8) (size 9 to 14) (size 15 to 20)
#    0.000    1.250    3.750    4.125    1.750    2.000 
#    0.000    4.375    0.000    0.000    0.000    0.000 
#    0.000    0.000    0.000    0.000    0.000    0.000 
#
# Total GULP energy -396812.984896 kJ/mol
# GULP energy per Si atom -12400.405778 kJ/mol
# Density = 1.975036 g / cm^3
# Si number density = 19.795417 Si / 1000 Ang^3
#
#
#
# Elastic Constant Matrix: (Units=GPa)
#
#
# Indices 1 2 3 4 5 6 
#
# 1 83.1402 54.6255 38.2938 -0.0001 25.2440 -0.0001
# 2 54.6255 166.5584 33.9816 -0.0001 9.3652 0.0000
# 3 38.2938 33.9816 48.4309 -0.0001 13.6015 -0.0001
# 4 -0.0001 -0.0001 -0.0001 23.7184 -0.0001 2.0659
# 5 25.2440 9.3652 13.6015 -0.0001 31.1988 -0.0001
# 6 -0.0001 0.0000 -0.0001 2.0659 -0.0001 10.6422
#
#
#
# Elastic Compliance Matrix: (Units=1/GPa)
#
#
# Indices 1 2 3 4 5 6 
#
# 1 0.025152 -0.004908 -0.012696 0.000000 -0.013343 0.000000
# 2 -0.004908 0.007965 -0.002452 0.000000 0.002650 0.000000
# 3 -0.012696 -0.002452 0.033405 0.000000 -0.003555 0.000000
# 4 0.000000 0.000000 0.000000 0.042886 0.000000 -0.008325
# 5 -0.013343 0.002650 -0.003555 0.000000 0.043603 0.000000
# 6 0.000000 0.000000 0.000000 -0.008325 0.000000 0.095581
#
#
# Mechanical properties :
#
#
# Convention : Reuss Voigt Hill
#
# Bulk Modulus (GPa) = 37.86499 61.32569 49.59534
# Shear Modulus (GPa) = 16.80626 24.52714 20.66670
#
# Velocity S-wave (km/s) = 2.91692 3.52381 3.23463
# Velocity P-wave (km/s) = 5.52397 6.89951 6.24970
#
# Compressibility (1/GPa) = 0.02640962
#
# Stress axis : x y z
#
# Youngs Moduli (GPa) = 39.75843 125.55059 29.93553
#
# Poissons Ratio (x) = 0.61626 0.38006
# Poissons Ratio (y) = 0.19515 0.07339
# Poissons Ratio (z) = 0.50478 0.30780
#
# Static dielectric constant tensor:
#      x y z
#    x 3.502390 0.000000 0.251530 
#    y 0.000000 3.722750 0.000000 
#    z 0.251530 0.000000 3.607990 
# 
# 
# High freq. dielectric constant tensor:
#      x y z
#    x 1.742990 0.000000 0.012310 
#    y 0.000000 1.786820 0.000000 
#    z 0.012310 0.000000 1.754870 
# 
# From -- ./inp_files/290152.got.cif
#   From: 2010.06.25/outbox.cif.g09.slc.cpg/sg12_146_cif.got.tgz:290152.got - 2010.06.28 00:19:55.
