data_PCOD8100850
_publ_section_title
;
Structure prediction by ZEFSAII (Michael W. Deem and Ramdas Pophale) SiO2 
 PCOD8100850
Probable space group: C 2/M
;
_chemical_formula_sum "Si O2"
_cell_formula_units_Z 56
_cell_length_a 28.667936
_cell_length_b 17.648246
_cell_length_c 8.954834
_cell_angle_alpha 90.000000
_cell_angle_beta 139.487900
_cell_angle_gamma 90.000000
_cell_volume 2943.115418
_symmetry_space_group_name_H-M "C 2/M"
_symmetry_group_IT_number 12
_symmetry_cell_setting 'monoclinic'
loop_
_space_group_symop_operation_xyz
x,y,z
-x,y,-z
-x,-y,-z
x,-y,z
1/2+x,1/2+y,z
1/2-x,1/2+y,-z
1/2-x,1/2-y,-z
1/2+x,1/2-y,z
loop_
_atom_site_type_symbol
_atom_site_label
_atom_site_fract_x
_atom_site_fract_y
_atom_site_fract_z
Si Si1 0.883155 0.911826 0.047137
Si Si2 0.460436 0.197223 0.049096
Si Si3 0.154634 0.837127 0.732265
Si Si4 0.318755 0.269976 0.758721
Si Si5 0.018029 0.146802 0.219315
Si Si6 0.312768 0.815709 0.053372
Si Si7 0.931604 0.417909 0.233210
O O1 0.876039 0.879318 0.196590
O O2 0.965993 0.905407 0.193765
O O3 0.859391 0.000000 0.981905
O O4 0.832698 0.860296 0.815703
O O5 0.504811 0.265716 0.232045
O O6 0.452300 0.128252 0.138739
O O7 0.500000 0.165521 0.000000
O O8 0.383418 0.233419 0.821126
O O9 0.102051 0.864944 0.468771
O O10 0.159550 0.745038 0.756309
O O11 0.237775 0.858965 0.905513
O O12 0.250000 0.250000 0.500000
O O13 0.308727 0.230905 0.892110
O O14 0.000000 0.131839 0.000000
O O15 0.370334 0.881646 0.185194
O O16 0.904630 0.500000 0.113417
O O17 0.000000 0.426536 0.500000
#
# Coordination Sequence:
#
# PCOD8100850 Si02
#       7
#     8   8   8   8   8   8   8
#     4  10  22  39  56  84 120 152 189 235 291 350
#     4   9  19  34  55  82 107 138 188 235 273 334
#     4  10  20  36  59  85 114 150 195 242 284 343
#     4   9  19  36  60  83 114 150 190 238 284 338
#     4  10  21  35  60  87 112 151 196 236 284 349
#     4   9  20  35  58  85 110 148 196 242 285 345
#     4  10  20  36  55  76 109 146 182 232 288 342
#
# _framework density 19.027456000000001
#
# number of rings (size 3 to 8) (size 9 to 14) (size 15 to 20)
#    0.000    2.429    0.000    2.143    6.000    2.286 
#    2.571    2.857    0.000    0.000    0.000    0.000 
#    0.000    0.000    0.000    0.000    0.000    0.000 
#
# Total GULP energy -346953.628479 kJ/mol
# GULP energy per Si atom -12391.201017 kJ/mol
# Density = 1.898415 g / cm^3
# Si number density = 19.027456 Si / 1000 Ang^3
#
#
#
# Elastic Constant Matrix: (Units=GPa)
#
#
# Indices 1 2 3 4 5 6 
#
# 1 124.9658 37.4382 38.8575 0.0000 13.7054 0.0000
# 2 37.4382 112.2142 34.3066 0.0000 4.2218 0.0000
# 3 38.8575 34.3066 112.2141 0.0000 9.0818 0.0000
# 4 0.0000 0.0000 0.0000 15.1858 0.0000 5.1298
# 5 13.7054 4.2218 9.0818 0.0000 19.2050 0.0000
# 6 0.0000 0.0000 0.0000 5.1298 0.0000 20.8342
#
#
#
# Elastic Compliance Matrix: (Units=1/GPa)
#
#
# Indices 1 2 3 4 5 6 
#
# 1 0.010055 -0.002447 -0.002284 0.000000 -0.005558 0.000000
# 2 -0.002447 0.010437 -0.002391 0.000000 0.000583 0.000000
# 3 -0.002284 -0.002391 0.010667 0.000000 -0.002889 0.000000
# 4 0.000000 0.000000 0.000000 0.071825 0.000000 -0.017685
# 5 -0.005558 0.000583 -0.002889 0.000000 0.057274 0.000000
# 6 0.000000 0.000000 0.000000 -0.017685 0.000000 0.052352
#
#
# Mechanical properties :
#
#
# Convention : Reuss Voigt Hill
#
# Bulk Modulus (GPa) = 59.11699 63.39985 61.25842
# Shear Modulus (GPa) = 21.50607 26.96443 24.23525
#
# Velocity S-wave (km/s) = 3.36559 3.76857 3.57276
# Velocity P-wave (km/s) = 6.79998 7.23385 7.02027
#
# Compressibility (1/GPa) = 0.01691561
#
# Stress axis : x y z
#
# Youngs Moduli (GPa) = 99.45229 95.81326 93.74669
#
# Poissons Ratio (x) = 0.23449 0.21410
# Poissons Ratio (y) = 0.24340 0.22410
# Poissons Ratio (z) = 0.22713 0.22904
#
# Static dielectric constant tensor:
#      x y z
#    x 3.794570 0.000000 0.113430 
#    y 0.000000 3.773150 0.000000 
#    z 0.113430 0.000000 3.434320 
# 
# 
# High freq. dielectric constant tensor:
#      x y z
#    x 1.753790 0.000000 0.009250 
#    y 0.000000 1.723160 0.000000 
#    z 0.009250 0.000000 1.725610 
# 
# From -- ./inp_files/112636.got.cif
#   From: 2010.06.25/outbox.cif.g09.slc.cpg/sg12_57_cif.got.tgz:112636.got - 2010.06.28 00:19:55.
