data_PCOD8100200
_publ_section_title
;
Structure prediction by ZEFSAII (Michael W. Deem and Ramdas Pophale) SiO2 
 PCOD8100200
Probable space group: C 2/M
;
_chemical_formula_sum "Si O2"
_cell_formula_units_Z 56
_cell_length_a 12.559506
_cell_length_b 20.353869
_cell_length_c 12.359183
_cell_angle_alpha 90.000000
_cell_angle_beta 64.585901
_cell_angle_gamma 90.000000
_cell_volume 2853.694727
_symmetry_space_group_name_H-M "C 2/M"
_symmetry_group_IT_number 12
_symmetry_cell_setting 'monoclinic'
loop_
_space_group_symop_operation_xyz
x,y,z
-x,y,-z
-x,-y,-z
x,-y,z
1/2+x,1/2+y,z
1/2-x,1/2+y,-z
1/2-x,1/2-y,-z
1/2+x,1/2-y,z
loop_
_atom_site_type_symbol
_atom_site_label
_atom_site_fract_x
_atom_site_fract_y
_atom_site_fract_z
Si Si1 0.600051 0.075315 0.039149
Si Si2 0.865349 0.925938 0.866658
Si Si3 0.498807 0.302412 0.878023
Si Si4 0.559714 0.179824 0.235826
Si Si5 0.792332 0.663547 0.412879
Si Si6 0.611100 0.575331 0.390055
Si Si7 0.748757 0.198556 0.336830
O O1 0.600695 0.119229 0.145361
O O2 0.575913 0.000000 0.083738
O O3 0.500000 0.100331 0.000000
O O4 0.725126 0.083324 0.926350
O O5 0.927767 0.871166 0.912825
O O6 0.911813 0.914101 0.726035
O O7 0.897578 0.000000 0.893008
O O8 0.433272 0.248040 0.833615
O O9 0.629484 0.314853 0.777428
O O10 0.500000 0.275399 0.000000
O O11 0.431116 0.165067 0.336611
O O12 0.643821 0.183681 0.301396
O O13 0.736127 0.604043 0.371521
O O14 0.733250 0.727986 0.387465
O O15 0.761268 0.652730 0.552823
O O16 0.500000 0.608935 0.500000
O O17 0.618729 0.500000 0.419214
#
# Coordination Sequence:
#
# PCOD8100200 Si02
#       7
#     8   8   8   8   8   8   8
#     4  10  21  37  57  82 112 146 184 225 274 332
#     4  10  21  37  57  81 112 149 183 222 276 331
#     4  11  23  37  57  84 112 144 184 231 276 322
#     4  11  22  37  58  83 111 144 185 230 275 324
#     4  10  21  37  58  81 109 147 182 222 276 330
#     4  10  20  35  58  85 110 141 185 233 275 320
#     4  10  22  38  56  81 112 145 183 225 274 331
#
# _framework density 19.623683
#
# number of rings (size 3 to 8) (size 9 to 14) (size 15 to 20)
#    0.000    1.714    0.000    4.286    0.000    8.857 
#    0.000    1.429    0.000    1.714    0.000    0.000 
#    0.000    0.000    0.000    0.000    0.000    0.000 
#
# Total GULP energy -347298.577932 kJ/mol
# GULP energy per Si atom -12403.520640 kJ/mol
# Density = 1.957902 g / cm^3
# Si number density = 19.623683 Si / 1000 Ang^3
#
#
#
# Elastic Constant Matrix: (Units=GPa)
#
#
# Indices 1 2 3 4 5 6 
#
# 1 98.8298 38.0999 21.1955 0.0000 8.7411 0.0000
# 2 38.0999 72.9531 25.7642 0.0000 4.1664 0.0000
# 3 21.1955 25.7642 95.7179 0.0000 -2.5035 0.0000
# 4 0.0000 0.0000 0.0000 26.3033 0.0000 -0.9308
# 5 8.7411 4.1664 -2.5035 0.0000 31.5766 0.0000
# 6 0.0000 0.0000 0.0000 -0.9308 0.0000 30.6030
#
#
#
# Elastic Compliance Matrix: (Units=1/GPa)
#
#
# Indices 1 2 3 4 5 6 
#
# 1 0.013037 -0.006185 -0.001298 0.000000 -0.002896 0.000000
# 2 -0.006185 0.018254 -0.003569 0.000000 -0.000979 0.000000
# 3 -0.001298 -0.003569 0.011742 0.000000 0.001761 0.000000
# 4 0.000000 0.000000 0.000000 0.038059 0.000000 0.001158
# 5 -0.002896 -0.000979 0.001761 0.000000 0.032739 0.000000
# 6 0.000000 0.000000 0.000000 0.001158 0.000000 0.032712
#
#
# Mechanical properties :
#
#
# Convention : Reuss Voigt Hill
#
# Bulk Modulus (GPa) = 47.78212 48.62444 48.20328
# Shear Modulus (GPa) = 28.46991 29.85932 29.16462
#
# Velocity S-wave (km/s) = 3.81306 3.90500 3.85930
# Velocity P-wave (km/s) = 6.61725 6.72043 6.66904
#
# Compressibility (1/GPa) = 0.02092833
#
# Stress axis : x y z
#
# Youngs Moduli (GPa) = 76.70327 54.78223 85.16717
#
# Poissons Ratio (x) = 0.33883 0.11054
# Poissons Ratio (y) = 0.47441 0.30400
# Poissons Ratio (z) = 0.09955 0.19554
#
# Static dielectric constant tensor:
#      x y z
#    x 3.493100 0.000000 -0.100090 
#    y 0.000000 3.566640 0.000000 
#    z -0.100090 0.000000 3.683310 
# 
# 
# High freq. dielectric constant tensor:
#      x y z
#    x 1.766980 0.000000 -0.007520 
#    y 0.000000 1.758680 0.000000 
#    z -0.007520 0.000000 1.777580 
# 
# From -- ./inp_files/133863.got.cif
#   From: 2010.06.25/outbox.cif.g09.slc.cpg/sg12_67_cif.got.tgz:133863.got - 2010.06.28 00:19:55.
