data_PCOD8100043
_publ_section_title
;
Structure prediction by ZEFSAII (Michael W. Deem and Ramdas Pophale) SiO2 
 PCOD8100043
Probable space group: C 2/M
;
_chemical_formula_sum "Si O2"
_cell_formula_units_Z 64
_cell_length_a 15.380185
_cell_length_b 8.883401
_cell_length_c 23.925104
_cell_angle_alpha 90.000000
_cell_angle_beta 89.830690
_cell_angle_gamma 90.000000
_cell_volume 3268.833230
_symmetry_space_group_name_H-M "C 2/M"
_symmetry_group_IT_number 12
_symmetry_cell_setting 'monoclinic'
loop_
_space_group_symop_operation_xyz
x,y,z
-x,y,-z
-x,-y,-z
x,-y,z
1/2+x,1/2+y,z
1/2-x,1/2+y,-z
1/2-x,1/2-y,-z
1/2+x,1/2-y,z
loop_
_atom_site_type_symbol
_atom_site_label
_atom_site_fract_x
_atom_site_fract_y
_atom_site_fract_z
Si Si1 0.717825 0.677283 0.056749
Si Si2 0.473884 0.677317 0.438293
Si Si3 0.778070 0.828264 0.162404
Si Si4 0.379111 0.822315 0.634741
Si Si5 0.035008 0.322484 0.060600
Si Si6 0.882109 0.322419 0.762045
Si Si7 0.529034 0.327401 0.833621
Si Si8 0.223159 0.177319 0.557734
O O1 0.718765 0.500000 0.048907
O O2 0.779711 0.724074 0.107531
O O3 0.623584 0.736978 0.072906
O O4 0.750000 0.750000 0.000000
O O5 0.500000 0.734089 0.500000
O O6 0.486915 0.500000 0.433522
O O7 0.535371 0.753446 0.392912
O O8 0.374627 0.726033 0.425398
O O9 0.706026 0.772429 0.206533
O O10 0.872990 0.815983 0.190771
O O11 0.758775 0.000000 0.144078
O O12 0.373763 0.767591 0.698502
O O13 0.290627 0.766927 0.604828
O O14 0.387310 0.000000 0.630597
O O15 0.049597 0.500000 0.065442
O O16 0.969979 0.264887 0.108255
O O17 0.000000 0.276800 0.000000
O O18 0.896687 0.500000 0.766367
O O19 0.964723 0.241777 0.788557
O O20 0.502837 0.500000 0.845366
O O21 0.250000 0.250000 0.500000
O O22 0.227289 0.000000 0.549365
#
# Coordination Sequence:
#
# PCOD8100043 Si02
#       8
#     8   8   8   8   8   8   8   8
#     4  12  24  38  60  90 124 158 201 250 302 364
#     4  10  20  35  57  87 121 157 195 244 306 357
#     4  10  22  41  64  88 120 160 201 248 307 365
#     4  10  22  38  59  88 118 159 207 247 294 355
#     4  11  23  39  60  88 123 161 199 247 309 364
#     4  10  22  42  63  84 120 164 204 248 302 362
#     4  11  23  39  63  93 119 156 206 252 302 361
#     4  10  20  35  57  85 120 157 198 243 299 360
#
# _framework density 19.578851
#
# number of rings (size 3 to 8) (size 9 to 14) (size 15 to 20)
#    0.000    1.500    2.500    2.625    0.000    6.250 
#    0.000    2.500    0.000    0.000    0.000    0.000 
#    0.000    0.000    0.000    0.000    0.000    0.000 
#
# Total GULP energy -396896.749946 kJ/mol
# GULP energy per Si atom -12403.023436 kJ/mol
# Density = 1.953429 g / cm^3
# Si number density = 19.578851 Si / 1000 Ang^3
#
#
#
# Elastic Constant Matrix: (Units=GPa)
#
#
# Indices 1 2 3 4 5 6 
#
# 1 156.1507 38.4951 76.5065 0.0000 5.0284 0.0000
# 2 38.4951 64.0520 46.4431 0.0000 3.8175 0.0000
# 3 76.5065 46.4431 161.4008 0.0000 4.1222 0.0000
# 4 0.0000 0.0000 0.0000 28.2967 0.0000 -1.1625
# 5 5.0284 3.8175 4.1222 0.0000 33.2059 0.0000
# 6 0.0000 0.0000 0.0000 -1.1625 0.0000 29.9561
#
#
#
# Elastic Compliance Matrix: (Units=1/GPa)
#
#
# Indices 1 2 3 4 5 6 
#
# 1 0.008743 -0.002812 -0.003320 0.000000 -0.000588 0.000000
# 2 -0.002812 0.020715 -0.004592 0.000000 -0.001386 0.000000
# 3 -0.003320 -0.004592 0.009093 0.000000 -0.000098 0.000000
# 4 0.000000 0.000000 0.000000 0.035396 0.000000 0.001374
# 5 -0.000588 -0.001386 -0.000098 0.000000 0.030376 0.000000
# 6 0.000000 0.000000 0.000000 0.001374 0.000000 0.033435
#
#
# Mechanical properties :
#
#
# Convention : Reuss Voigt Hill
#
# Bulk Modulus (GPa) = 58.47191 78.27700 68.37446
# Shear Modulus (GPa) = 30.31986 32.96899 31.64442
#
# Velocity S-wave (km/s) = 3.93950 4.10800 4.02463
# Velocity P-wave (km/s) = 7.11495 7.91000 7.52298
#
# Compressibility (1/GPa) = 0.01710223
#
# Stress axis : x y z
#
# Youngs Moduli (GPa) = 114.37771 48.27471 109.96884
#
# Poissons Ratio (x) = 0.13575 0.36511
# Poissons Ratio (y) = 0.32164 0.50501
# Poissons Ratio (z) = 0.37975 0.22169
#
# Static dielectric constant tensor:
#      x y z
#    x 3.804490 0.000000 0.152010 
#    y 0.000000 3.521060 0.000000 
#    z 0.152010 0.000000 3.564580 
# 
# 
# High freq. dielectric constant tensor:
#      x y z
#    x 1.779950 0.000000 0.000900 
#    y 0.000000 1.757830 0.000000 
#    z 0.000900 0.000000 1.758910 
# 
# From -- ./inp_files/338798.got.cif
#   From: 2010.06.25/outbox.cif.g09.slc.cpg/sg12_170_cif.got.tgz:338798.got - 2010.06.28 00:19:55.
