data_PCOD8100724
_publ_section_title
;
Structure prediction by ZEFSAII (Michael W. Deem and Ramdas Pophale) SiO2 
 PCOD8100724
Probable space group: C 2/M
;
_chemical_formula_sum "Si O2"
_cell_formula_units_Z 64
_cell_length_a 19.013194
_cell_length_b 13.538442
_cell_length_c 16.422999
_cell_angle_alpha 90.000000
_cell_angle_beta 125.827164
_cell_angle_gamma 90.000000
_cell_volume 3427.541243
_symmetry_space_group_name_H-M "C 2/M"
_symmetry_group_IT_number 12
_symmetry_cell_setting 'monoclinic'
loop_
_space_group_symop_operation_xyz
x,y,z
-x,y,-z
-x,-y,-z
x,-y,z
1/2+x,1/2+y,z
1/2-x,1/2+y,-z
1/2-x,1/2-y,-z
1/2+x,1/2-y,z
loop_
_atom_site_type_symbol
_atom_site_label
_atom_site_fract_x
_atom_site_fract_y
_atom_site_fract_z
Si Si1 0.467275 0.392374 0.567564
Si Si2 0.251745 0.784566 0.243679
Si Si3 0.387479 0.888569 0.222817
Si Si4 0.961307 0.390674 0.553949
Si Si5 0.854917 0.886569 0.241832
Si Si6 0.688772 0.242035 0.535397
Si Si7 0.346581 0.282898 0.079109
Si Si8 0.399189 0.615686 0.950578
O O1 0.500000 0.407273 0.500000
O O2 0.447870 0.500000 0.593620
O O3 0.549459 0.342368 0.669909
O O4 0.377777 0.333360 0.508216
O O5 0.317854 0.859987 0.244990
O O6 0.275613 0.675119 0.227220
O O7 0.257640 0.775573 0.345215
O O8 0.156008 0.825229 0.155668
O O9 0.480379 0.884474 0.327297
O O10 0.392205 0.813655 0.149766
O O11 0.366747 0.000000 0.177919
O O12 0.945045 0.500000 0.511845
O O13 0.868072 0.353945 0.517554
O O14 0.000000 0.331927 0.500000
O O15 0.848616 0.876454 0.140711
O O16 0.845688 0.000000 0.263529
O O17 0.750000 0.250000 0.500000
O O18 0.250000 0.250000 0.000000
O O19 0.389045 0.321721 0.025926
O O20 0.369745 0.500000 0.937673
O O21 0.500000 0.620641 0.000000
#
# Coordination Sequence:
#
# PCOD8100724 Si02
#       8
#     8   8   8   8   8   8   8   8
#     4  10  20  37  61  85 117 158 202 242 287 350
#     4  11  21  37  59  88 117 157 203 247 300 363
#     4  10  20  35  62  92 120 150 199 258 300 347
#     4  10  20  36  59  85 114 155 199 242 288 349
#     4  10  20  35  62  92 117 152 204 258 299 345
#     4  12  24  36  57  89 127 161 193 239 298 362
#     4  11  21  36  60  93 117 151 201 259 298 346
#     4  11  25  44  64  87 124 163 198 249 309 368
#
# _framework density 18.672277999999999
#
# number of rings (size 3 to 8) (size 9 to 14) (size 15 to 20)
#    0.000    1.375    5.000    2.625    0.000    3.500 
#    0.000    1.250    0.000    1.500    0.000    0.000 
#    0.000    0.000    0.000    0.000    0.000    0.000 
#
# Total GULP energy -396482.788474 kJ/mol
# GULP energy per Si atom -12390.087140 kJ/mol
# Density = 1.862978 g / cm^3
# Si number density = 18.672278 Si / 1000 Ang^3
#
#
#
# Elastic Constant Matrix: (Units=GPa)
#
#
# Indices 1 2 3 4 5 6 
#
# 1 111.8602 47.7517 57.5958 0.0000 -1.5720 0.0000
# 2 47.7517 125.0395 49.5607 0.0000 0.3879 0.0000
# 3 57.5958 49.5607 124.2087 0.0000 0.8587 0.0000
# 4 0.0000 0.0000 0.0000 21.9898 0.0000 -6.5631
# 5 -1.5720 0.3879 0.8587 0.0000 29.6417 0.0000
# 6 0.0000 0.0000 0.0000 -6.5631 0.0000 8.6838
#
#
#
# Elastic Compliance Matrix: (Units=1/GPa)
#
#
# Indices 1 2 3 4 5 6 
#
# 1 0.012628 -0.002972 -0.004675 0.000000 0.000844 0.000000
# 2 -0.002972 0.010199 -0.002690 0.000000 -0.000213 0.000000
# 3 -0.004675 -0.002690 0.011296 0.000000 -0.000540 0.000000
# 4 0.000000 0.000000 0.000000 0.058722 0.000000 0.044381
# 5 0.000844 -0.000213 -0.000540 0.000000 0.033799 0.000000
# 6 0.000000 0.000000 0.000000 0.044381 0.000000 0.148700
#
#
# Mechanical properties :
#
#
# Convention : Reuss Voigt Hill
#
# Bulk Modulus (GPa) = 74.35964 74.54719 74.45342
# Shear Modulus (GPa) = 16.63883 25.80975 21.22429
#
# Velocity S-wave (km/s) = 2.98837 3.72190 3.37512
# Velocity P-wave (km/s) = 7.19841 7.64727 7.42623
#
# Compressibility (1/GPa) = 0.01344815
#
# Stress axis : x y z
#
# Youngs Moduli (GPa) = 79.19173 98.04584 88.52602
#
# Poissons Ratio (x) = 0.29138 0.41390
# Poissons Ratio (y) = 0.23534 0.23815
# Poissons Ratio (z) = 0.37026 0.26376
#
# Static dielectric constant tensor:
#      x y z
#    x 3.025830 0.000000 0.225750 
#    y 0.000000 3.189190 0.000000 
#    z 0.225750 0.000000 3.608160 
# 
# 
# High freq. dielectric constant tensor:
#      x y z
#    x 1.689870 0.000000 0.008660 
#    y 0.000000 1.739110 0.000000 
#    z 0.008660 0.000000 1.741480 
# 
# From -- ./inp_files/225303.got.cif
#   From: 2010.06.25/outbox.cif.g09.slc.cpg/sg12_113_cif.got.tgz:225303.got - 2010.06.28 00:19:55.
