data_PCOD8100576
_publ_section_title
;
Structure prediction by ZEFSAII (Michael W. Deem and Ramdas Pophale) SiO2 
 PCOD8100576
Probable space group: C 2/M
;
_chemical_formula_sum "Si O2"
_cell_formula_units_Z 64
_cell_length_a 19.671871
_cell_length_b 18.844586
_cell_length_c 11.840225
_cell_angle_alpha 90.000000
_cell_angle_beta 45.171485
_cell_angle_gamma 90.000000
_cell_volume 3112.957398
_symmetry_space_group_name_H-M "C 2/M"
_symmetry_group_IT_number 12
_symmetry_cell_setting 'monoclinic'
loop_
_space_group_symop_operation_xyz
x,y,z
-x,y,-z
-x,-y,-z
x,-y,z
1/2+x,1/2+y,z
1/2-x,1/2+y,-z
1/2-x,1/2-y,-z
1/2+x,1/2-y,z
loop_
_atom_site_type_symbol
_atom_site_label
_atom_site_fract_x
_atom_site_fract_y
_atom_site_fract_z
Si Si1 0.883232 0.584402 0.382234
Si Si2 0.774822 0.085678 0.855887
Si Si3 0.719360 0.416305 0.410023
Si Si4 0.417401 0.142316 0.805810
Si Si5 0.926432 0.920265 0.236429
Si Si6 0.159979 0.421229 0.320414
Si Si7 0.630083 0.617481 0.934607
Si Si8 0.848865 0.788595 0.902701
O O1 0.884609 0.500000 0.376806
O O2 0.811834 0.614293 0.369149
O O3 0.846701 0.612569 0.546947
O O4 0.989574 0.613677 0.238591
O O5 0.783134 0.109921 0.715563
O O6 0.853453 0.136276 0.827839
O O7 0.792917 0.000000 0.851489
O O8 0.670591 0.108106 0.022061
O O9 0.726645 0.500000 0.399836
O O10 0.621526 0.392702 0.590835
O O11 0.408372 0.119750 0.686072
O O12 0.427385 0.228159 0.786011
O O13 0.041577 0.920498 0.103571
O O14 0.889708 0.000000 0.254693
O O15 0.888277 0.873390 0.176789
O O16 0.118716 0.500000 0.370443
O O17 0.271371 0.423329 0.151835
O O18 0.640005 0.695316 0.977088
O O19 0.750000 0.750000 0.000000
#
# Coordination Sequence:
#
# PCOD8100576 Si02
#       8
#     8   8   8   8   8   8   8   8
#     4  10  20  35  59  93 124 151 190 242 295 347
#     4  10  20  36  62  85 111 157 201 238 287 347
#     4   9  19  36  55  84 125 152 184 244 293 338
#     4  11  22  37  58  83 123 160 194 238 286 350
#     4  10  20  35  59  93 118 141 189 248 304 350
#     4  11  19  32  60  94 120 147 190 244 299 346
#     4  11  19  34  62  84 115 149 188 240 299 346
#     4  10  22  40  58  82 119 155 198 243 283 341
#
# _framework density 20.559228000000001
#
# number of rings (size 3 to 8) (size 9 to 14) (size 15 to 20)
#    0.000    1.750    3.750    3.000    0.000    2.500 
#    0.000   10.000    0.000    6.750    0.000    0.000 
#    0.000    0.000    0.000    0.000    0.000    0.000 
#
# Total GULP energy -396448.692332 kJ/mol
# GULP energy per Si atom -12389.021635 kJ/mol
# Density = 2.051243 g / cm^3
# Si number density = 20.559228 Si / 1000 Ang^3
#
#
#
# Elastic Constant Matrix: (Units=GPa)
#
#
# Indices 1 2 3 4 5 6 
#
# 1 64.9027 21.4972 23.9614 0.0000 10.1926 0.0000
# 2 21.4972 78.5098 25.4912 0.0000 18.7531 0.0000
# 3 23.9614 25.4912 90.9599 0.0000 14.2713 0.0000
# 4 0.0000 0.0000 0.0000 13.8173 0.0000 2.5226
# 5 10.1926 18.7531 14.2713 0.0000 38.9415 0.0000
# 6 0.0000 0.0000 0.0000 2.5226 0.0000 27.7339
#
#
#
# Elastic Compliance Matrix: (Units=1/GPa)
#
#
# Indices 1 2 3 4 5 6 
#
# 1 0.018119 -0.003377 -0.003541 0.000000 -0.001818 0.000000
# 2 -0.003377 0.015912 -0.002659 0.000000 -0.005804 0.000000
# 3 -0.003541 -0.002659 0.013078 0.000000 -0.002585 0.000000
# 4 0.000000 0.000000 0.000000 0.073595 0.000000 -0.006694
# 5 -0.001818 -0.005804 -0.002585 0.000000 0.029898 0.000000
# 6 0.000000 0.000000 0.000000 -0.006694 0.000000 0.036666
#
#
# Mechanical properties :
#
#
# Convention : Reuss Voigt Hill
#
# Bulk Modulus (GPa) = 35.77354 41.80800 38.79077
# Shear Modulus (GPa) = 23.17602 26.99339 25.08470
#
# Velocity S-wave (km/s) = 3.36114 3.62741 3.49681
# Velocity P-wave (km/s) = 5.70097 6.15822 5.93400
#
# Compressibility (1/GPa) = 0.02795362
#
# Stress axis : x y z
#
# Youngs Moduli (GPa) = 55.18985 62.84676 76.46710
#
# Poissons Ratio (x) = 0.21224 0.27080
# Poissons Ratio (y) = 0.18638 0.20332
# Poissons Ratio (z) = 0.19545 0.16710
#
# Static dielectric constant tensor:
#      x y z
#    x 3.860720 0.000000 0.104200 
#    y 0.000000 3.764120 0.000000 
#    z 0.104200 0.000000 3.883610 
# 
# 
# High freq. dielectric constant tensor:
#      x y z
#    x 1.809200 0.000000 0.003900 
#    y 0.000000 1.772880 0.000000 
#    z 0.003900 0.000000 1.799520 
# 
# From -- ./inp_files/168779.got.cif
#   From: 2010.06.25/outbox.cif.g09.slc.cpg/sg12_85_cif.got.tgz:168779.got - 2010.06.28 00:19:55.
