data_PCOD8100277
_publ_section_title
;
Structure prediction by ZEFSAII (Michael W. Deem and Ramdas Pophale) SiO2 
 PCOD8100277
Probable space group: C 2/M
;
_chemical_formula_sum "Si O2"
_cell_formula_units_Z 48
_cell_length_a 11.111327
_cell_length_b 17.852034
_cell_length_c 10.302134
_cell_angle_alpha 90.000000
_cell_angle_beta 77.837813
_cell_angle_gamma 90.000000
_cell_volume 1997.662401
_symmetry_space_group_name_H-M "C 2/M"
_symmetry_group_IT_number 12
_symmetry_cell_setting 'monoclinic'
loop_
_space_group_symop_operation_xyz
x,y,z
-x,y,-z
-x,-y,-z
x,-y,z
1/2+x,1/2+y,z
1/2-x,1/2+y,-z
1/2-x,1/2-y,-z
1/2+x,1/2-y,z
loop_
_atom_site_type_symbol
_atom_site_label
_atom_site_fract_x
_atom_site_fract_y
_atom_site_fract_z
Si Si1 0.722511 0.088011 0.539914
Si Si2 0.103094 0.916793 0.739426
Si Si3 0.503232 0.168019 0.325139
Si Si4 0.275533 0.856260 0.886352
Si Si5 0.376001 0.211098 0.098887
Si Si6 0.578124 0.669630 0.365148
O O1 0.789861 0.103726 0.388403
O O2 0.581982 0.119825 0.555028
O O3 0.786163 0.135509 0.643518
O O4 0.719998 0.000000 0.575777
O O5 0.161308 0.909227 0.871325
O O6 0.986327 0.860940 0.752394
O O7 0.053269 0.000000 0.729703
O O8 0.610045 0.119962 0.231978
O O9 0.405224 0.189926 0.237656
O O10 0.568304 0.240501 0.375002
O O11 0.234260 0.770875 0.866999
O O12 0.319771 0.859197 0.026752
O O13 0.500000 0.241552 0.000000
O O14 0.500000 0.633166 0.500000
#
# Coordination Sequence:
#
# PCOD8100277 Si02
#       6
#     8   8   8   8   8   8
#     4  10  23  40  58  87 131 171 198 239 307 372
#     4  10  21  38  59  86 123 162 201 247 303 363
#     4  11  21  35  61  90 120 155 204 249 298 364
#     4  10  20  35  58  86 116 152 195 252 307 354
#     4   9  19  37  58  85 115 154 199 256 307 352
#     4  10  21  34  59  86 120 159 206 248 290 350
#
# _framework density 24.028084
#
# number of rings (size 3 to 8) (size 9 to 14) (size 15 to 20)
#    0.000    2.000    1.667    1.500    2.333    4.000 
#    0.000    2.500    0.000    3.500    0.000    0.000 
#    0.000    0.000    0.000    0.000    0.000    0.000 
#
# Total GULP energy -297338.583413 kJ/mol
# GULP energy per Si atom -12389.107642 kJ/mol
# Density = 2.397340 g / cm^3
# Si number density = 24.028084 Si / 1000 Ang^3
#
#
#
# Elastic Constant Matrix: (Units=GPa)
#
#
# Indices 1 2 3 4 5 6 
#
# 1 102.7271 31.0116 11.5657 0.0000 5.9808 0.0000
# 2 31.0116 93.6059 -2.4900 0.0000 7.0209 0.0000
# 3 11.5657 -2.4900 27.8384 0.0000 4.8764 0.0000
# 4 0.0000 0.0000 0.0000 21.3765 0.0000 7.5787
# 5 5.9808 7.0209 4.8764 0.0000 44.1950 0.0000
# 6 0.0000 0.0000 0.0000 7.5787 0.0000 30.9612
#
#
#
# Elastic Compliance Matrix: (Units=1/GPa)
#
#
# Indices 1 2 3 4 5 6 
#
# 1 0.011510 -0.003920 -0.005067 0.000000 -0.000376 0.000000
# 2 -0.003920 0.012193 0.003024 0.000000 -0.001740 0.000000
# 3 -0.005067 0.003024 0.039015 0.000000 -0.004100 0.000000
# 4 0.000000 0.000000 0.000000 0.051226 0.000000 -0.012539
# 5 -0.000376 -0.001740 -0.004100 0.000000 0.023407 0.000000
# 6 0.000000 0.000000 0.000000 -0.012539 0.000000 0.035368
#
#
# Mechanical properties :
#
#
# Convention : Reuss Voigt Hill
#
# Bulk Modulus (GPa) = 19.68788 33.81622 26.75205
# Shear Modulus (GPa) = 24.80467 31.57881 28.19174
#
# Velocity S-wave (km/s) = 3.21646 3.62919 3.42904
# Velocity P-wave (km/s) = 4.69102 5.62721 5.18031
#
# Compressibility (1/GPa) = 0.05079267
#
# Stress axis : x y z
#
# Youngs Moduli (GPa) = 86.87925 82.01620 25.63100
#
# Poissons Ratio (x) = 0.32150 0.12987
# Poissons Ratio (y) = 0.34056 -0.07751
# Poissons Ratio (z) = 0.44020 -0.24801
#
# Static dielectric constant tensor:
#      x y z
#    x 4.577940 0.000000 0.257010 
#    y 0.000000 3.751180 0.000000 
#    z 0.257010 0.000000 4.358200 
# 
# 
# High freq. dielectric constant tensor:
#      x y z
#    x 1.981140 0.000000 0.014950 
#    y 0.000000 1.901420 0.000000 
#    z 0.014950 0.000000 1.942850 
# 
# From -- ./inp_files/131029.got.cif
#   From: 2010.06.25/outbox.cif.g09.slc.cpg/sg12_66_cif.got.tgz:131029.got - 2010.06.28 00:19:55.
