data_PCOD8100738
_publ_section_title
;
Structure prediction by ZEFSAII (Michael W. Deem and Ramdas Pophale) SiO2 
 PCOD8100738
Probable space group: C 2/M
;
_chemical_formula_sum "Si O2"
_cell_formula_units_Z 48
_cell_length_a 21.033168
_cell_length_b 23.701341
_cell_length_c 9.393617
_cell_angle_alpha 90.000000
_cell_angle_beta 29.557595
_cell_angle_gamma 90.000000
_cell_volume 2310.042659
_symmetry_space_group_name_H-M "C 2/M"
_symmetry_group_IT_number 12
_symmetry_cell_setting 'monoclinic'
loop_
_space_group_symop_operation_xyz
x,y,z
-x,y,-z
-x,-y,-z
x,-y,z
1/2+x,1/2+y,z
1/2-x,1/2+y,-z
1/2-x,1/2-y,-z
1/2+x,1/2-y,z
loop_
_atom_site_type_symbol
_atom_site_label
_atom_site_fract_x
_atom_site_fract_y
_atom_site_fract_z
Si Si1 0.619191 0.752683 0.661305
Si Si2 0.854190 0.062948 0.614545
Si Si3 0.357528 0.065639 0.746178
Si Si4 0.150770 0.938053 0.696584
Si Si5 0.500220 0.325190 0.337785
Si Si6 0.760228 0.354160 0.698416
O O1 0.750000 0.750000 0.500000
O O2 0.601231 0.704847 0.572905
O O3 0.624713 0.811415 0.564481
O O4 0.500000 0.750838 0.000000
O O5 0.801107 0.062508 0.558480
O O6 0.968732 0.107964 0.409754
O O7 0.906719 0.000000 0.552239
O O8 0.733198 0.080869 0.945100
O O9 0.500000 0.087635 0.500000
O O10 0.309086 0.097582 0.704244
O O11 0.356717 0.000000 0.711425
O O12 0.219040 0.885687 0.635865
O O13 0.181653 0.000000 0.704128
O O14 0.000000 0.926258 0.000000
O O15 0.500000 0.299765 0.500000
O O16 0.643098 0.318738 0.995853
#
# Coordination Sequence:
#
# PCOD8100738 Si02
#       6
#     8   8   8   8   8   8
#     4  12  28  50  72  97 136 188 234 290 349 409
#     4  10  21  38  66 101 138 173 214 275 346 408
#     4  10  23  43  65  96 139 181 221 273 345 419
#     4  10  20  35  63 101 136 170 217 278 339 411
#     4  12  25  44  68 103 136 174 229 292 342 412
#     4  12  24  42  69  98 132 177 229 283 342 407
#
# _framework density 20.778836999999999
#
# number of rings (size 3 to 8) (size 9 to 14) (size 15 to 20)
#    0.000    1.000    5.000    1.500    0.000    5.000 
#    0.000    0.000    0.000    5.000    0.000    0.000 
#    0.000    0.000    0.000    0.000    0.000    0.000 
#
# Total GULP energy -297560.580807 kJ/mol
# GULP energy per Si atom -12398.357534 kJ/mol
# Density = 2.073154 g / cm^3
# Si number density = 20.778837 Si / 1000 Ang^3
#
#
#
# Elastic Constant Matrix: (Units=GPa)
#
#
# Indices 1 2 3 4 5 6 
#
# 1 109.1140 30.0003 36.2205 -0.0025 10.7580 0.0023
# 2 30.0003 82.7614 32.2200 0.0003 4.3686 -0.0002
# 3 36.2205 32.2200 91.7657 -0.0024 11.0817 0.0041
# 4 -0.0025 0.0003 -0.0024 28.6943 0.0013 -0.6616
# 5 10.7580 4.3686 11.0817 0.0013 31.8727 -0.0026
# 6 0.0023 -0.0002 0.0041 -0.6616 -0.0026 42.1329
#
#
#
# Elastic Compliance Matrix: (Units=1/GPa)
#
#
# Indices 1 2 3 4 5 6 
#
# 1 0.011192 -0.002692 -0.003195 0.000001 -0.002298 0.000000
# 2 -0.002692 0.014645 -0.004120 -0.000001 0.000334 0.000001
# 3 -0.003195 -0.004120 0.013994 0.000001 -0.003222 -0.000001
# 4 0.000001 -0.000001 0.000001 0.034863 -0.000002 0.000547
# 5 -0.002298 0.000334 -0.003222 -0.000002 0.033225 0.000002
# 6 0.000000 0.000001 -0.000001 0.000547 0.000002 0.023743
#
#
# Mechanical properties :
#
#
# Convention : Reuss Voigt Hill
#
# Bulk Modulus (GPa) = 50.45973 53.39139 51.92556
# Shear Modulus (GPa) = 31.58941 32.88668 32.23804
#
# Velocity S-wave (km/s) = 3.90329 3.98263 3.94316
# Velocity P-wave (km/s) = 6.68215 6.84831 6.76574
#
# Compressibility (1/GPa) = 0.01981778
#
# Stress axis : x y z
#
# Youngs Moduli (GPa) = 89.34994 68.28278 71.45902
#
# Poissons Ratio (x) = 0.18381 0.22830
# Poissons Ratio (y) = 0.24052 0.29440
# Poissons Ratio (z) = 0.28546 0.28131
#
# Static dielectric constant tensor:
#      x y z
#    x 4.441680 -0.000010 0.247450 
#    y -0.000010 3.924700 0.000000 
#    z 0.247450 0.000000 4.005690 
# 
# 
# High freq. dielectric constant tensor:
#      x y z
#    x 1.814590 0.000000 0.021560 
#    y 0.000000 1.817770 0.000000 
#    z 0.021560 0.000000 1.810970 
# 
# From -- ./inp_files/91190.got.cif
#   From: 2010.06.25/outbox.cif.g09.slc.cpg/sg12_46_cif.got.tgz:91190.got - 2010.06.28 00:19:55.
