data_PCOD8100429
_publ_section_title
;
Structure prediction by ZEFSAII (Michael W. Deem and Ramdas Pophale) SiO2 
 PCOD8100429
Probable space group: C 2/M
;
_chemical_formula_sum "Si O2"
_cell_formula_units_Z 48
_cell_length_a 14.882227
_cell_length_b 22.075359
_cell_length_c 15.835649
_cell_angle_alpha 90.000000
_cell_angle_beta 150.905235
_cell_angle_gamma 90.000000
_cell_volume 2529.741423
_symmetry_space_group_name_H-M "C 2/M"
_symmetry_group_IT_number 12
_symmetry_cell_setting 'monoclinic'
loop_
_space_group_symop_operation_xyz
x,y,z
-x,y,-z
-x,-y,-z
x,-y,z
1/2+x,1/2+y,z
1/2-x,1/2+y,-z
1/2-x,1/2-y,-z
1/2+x,1/2-y,z
loop_
_atom_site_type_symbol
_atom_site_label
_atom_site_fract_x
_atom_site_fract_y
_atom_site_fract_z
Si Si1 0.422561 0.000000 0.292043
Si Si2 0.275855 0.500000 0.698547
Si Si3 0.041818 0.119780 0.131369
Si Si4 0.967999 0.247976 0.298840
Si Si5 0.417701 0.176201 0.017270
Si Si6 0.806857 0.768049 0.677255
Si Si7 0.645512 0.124650 0.861634
O O1 0.408995 0.059964 0.223028
O O2 0.608418 0.000000 0.496912
O O3 0.265696 0.000000 0.234911
O O4 0.395329 0.557941 0.774200
O O5 0.201873 0.169811 0.275815
O O6 0.000000 0.110036 0.000000
O O7 0.860042 0.139946 0.031022
O O8 0.953886 0.319577 0.266488
O O9 0.081848 0.216561 0.317155
O O10 0.098174 0.244153 0.489003
O O11 0.773543 0.213864 0.153422
O O12 0.580641 0.221584 0.174335
O O13 0.399644 0.125336 0.075120
O O14 0.500000 0.145002 0.000000
#
# Coordination Sequence:
#
# PCOD8100429 Si02
#       7
#     4   4   8   8   8   8   8
#     4  11  23  40  56  83 118 148 191 241 288 356
#     4  11  24  35  56  90 114 148 193 228 296 367
#     4  12  20  35  55  85 118 153 187 231 288 353
#     4  10  20  37  58  86 115 155 193 232 291 345
#     4  11  22  39  58  85 117 157 199 241 281 339
#     4  10  20  35  59  84 120 151 190 238 290 342
#     4  11  21  39  59  81 117 154 191 237 291 344
#
# _framework density 18.974271000000002
#
# number of rings (size 3 to 8) (size 9 to 14) (size 15 to 20)
#    0.000    1.167    5.000    3.250    0.000    0.667 
#    0.000    0.417    0.000    0.000    0.000    1.167 
#    0.000    0.000    0.000    0.000    0.000    0.000 
#
# Total GULP energy -297451.113725 kJ/mol
# GULP energy per Si atom -12393.796405 kJ/mol
# Density = 1.893108 g / cm^3
# Si number density = 18.974271 Si / 1000 Ang^3
#
#
#
# Elastic Constant Matrix: (Units=GPa)
#
#
# Indices 1 2 3 4 5 6 
#
# 1 80.6190 5.6888 39.9472 0.0000 -4.6864 0.0000
# 2 5.6888 78.7374 45.2381 0.0000 -4.8683 0.0000
# 3 39.9472 45.2381 119.4363 0.0000 -0.1240 -0.0002
# 4 0.0000 0.0000 0.0000 3.2709 0.0000 -14.7849
# 5 -4.6864 -4.8683 -0.1240 0.0000 16.4163 -0.0001
# 6 0.0000 0.0000 -0.0002 -14.7849 -0.0001 11.3087
#
#
#
# Elastic Compliance Matrix: (Units=1/GPa)
#
#
# Indices 1 2 3 4 5 6 
#
# 1 0.015624 0.002805 -0.006283 0.000000 0.005245 0.000000
# 2 0.002805 0.017119 -0.007416 0.000000 0.005821 0.000000
# 3 -0.006283 -0.007416 0.013279 0.000000 -0.003893 0.000000
# 4 0.000000 0.000000 0.000000 -0.062271 0.000000 -0.081413
# 5 0.005245 0.005821 -0.003893 0.000000 0.064109 0.000000
# 6 0.000000 0.000000 0.000000 -0.081413 0.000000 -0.018011
#
#
# Mechanical properties :
#
#
# Convention : Reuss Voigt Hill
#
# Bulk Modulus (GPa) = 41.26395 51.17124 46.21759
# Shear Modulus (GPa) = 83.73259 18.72709 51.22984
#
# Velocity S-wave (km/s) = 6.65021 3.14502 5.20175
# Velocity P-wave (km/s) = 8.98675 6.34157 7.77744
#
# Compressibility (1/GPa) = 0.02423423
#
# Stress axis : x y z
#
# Youngs Moduli (GPa) = 64.00365 58.41613 75.30729
#
# Poissons Ratio (x) = -0.16387 0.47314
# Poissons Ratio (y) = -0.17954 0.55848
# Poissons Ratio (z) = 0.40212 0.43322
#
# Static dielectric constant tensor:
#      x y z
#    x 3.677020 0.000000 -0.000100 
#    y 0.000000 3.347940 0.000000 
#    z -0.000100 0.000000 3.718060 
# 
# 
# High freq. dielectric constant tensor:
#      x y z
#    x 1.727030 0.000000 0.000170 
#    y 0.000000 1.713810 0.000000 
#    z 0.000170 0.000000 1.757800 
# 
# From -- ./inp_files/218572.got.cif
#   From: 2010.06.25/outbox.cif.g09.slc.cpg/sg12_110_cif.got.tgz:218572.got - 2010.06.28 00:19:55.
