data_PCOD8100446
_publ_section_title
;
Structure prediction by ZEFSAII (Michael W. Deem and Ramdas Pophale) SiO2 
 PCOD8100446
Probable space group: C 2/M
;
_chemical_formula_sum "Si O2"
_cell_formula_units_Z 64
_cell_length_a 29.877233
_cell_length_b 9.166060
_cell_length_c 18.773854
_cell_angle_alpha 90.000000
_cell_angle_beta 139.181106
_cell_angle_gamma 90.000000
_cell_volume 3360.742131
_symmetry_space_group_name_H-M "C 2/M"
_symmetry_group_IT_number 12
_symmetry_cell_setting 'monoclinic'
loop_
_space_group_symop_operation_xyz
x,y,z
-x,y,-z
-x,-y,-z
x,-y,z
1/2+x,1/2+y,z
1/2-x,1/2+y,-z
1/2-x,1/2-y,-z
1/2+x,1/2-y,z
loop_
_atom_site_type_symbol
_atom_site_label
_atom_site_fract_x
_atom_site_fract_y
_atom_site_fract_z
Si Si1 0.430871 0.172570 0.125862
Si Si2 0.405851 0.828461 0.474741
Si Si3 0.700514 0.169741 0.532696
Si Si4 0.529722 0.668156 0.687924
Si Si5 0.665968 0.828553 0.331738
Si Si6 0.020481 0.326652 0.101887
Si Si7 0.852454 0.164645 0.277927
Si Si8 0.777168 0.668009 0.964464
O O1 0.471601 0.249875 0.238501
O O2 0.464349 0.224387 0.092002
O O3 0.439313 0.000000 0.146688
O O4 0.351911 0.223315 0.030324
O O5 0.353848 0.782339 0.473991
O O6 0.475992 0.741869 0.569787
O O7 0.373757 0.783439 0.361099
O O8 0.421059 0.000000 0.492925
O O9 0.668410 0.213072 0.417988
O O10 0.770879 0.254354 0.632976
O O11 0.717511 0.000000 0.557158
O O12 0.510075 0.500000 0.676204
O O13 0.604014 0.685086 0.741751
O O14 0.595250 0.767253 0.214171
O O15 0.672269 0.000000 0.327555
O O16 0.022748 0.500000 0.101731
O O17 0.000000 0.262322 0.000000
O O18 0.773432 0.193166 0.162988
O O19 0.862868 0.000000 0.320282
O O20 0.780585 0.500000 0.990485
O O21 0.750000 0.750000 0.000000
#
# Coordination Sequence:
#
# PCOD8100446 Si02
#       8
#     8   8   8   8   8   8   8   8
#     4  10  20  35  59  86 111 147 193 234 275 330
#     4  11  23  37  55  81 112 146 185 228 277 335
#     4   9  19  35  53  77 108 138 175 225 273 321
#     4  11  22  37  57  80 112 148 183 231 284 332
#     4   9  17  32  56  79 103 139 179 221 268 323
#     4   9  18  33  54  83 114 143 181 230 277 323
#     4  10  22  38  54  79 114 148 183 229 280 328
#     4  10  20  36  58  82 111 146 186 231 274 324
#
# _framework density 19.043413000000001
#
# number of rings (size 3 to 8) (size 9 to 14) (size 15 to 20)
#    0.000    2.125    1.250    1.875    0.000    7.000 
#    0.000    5.625    0.000    1.500    0.000    0.000 
#    0.000    0.000    0.000    0.000    0.000    0.000 
#
# Total GULP energy -396905.845206 kJ/mol
# GULP energy per Si atom -12403.307663 kJ/mol
# Density = 1.900007 g / cm^3
# Si number density = 19.043413 Si / 1000 Ang^3
#
#
#
# Elastic Constant Matrix: (Units=GPa)
#
#
# Indices 1 2 3 4 5 6 
#
# 1 70.4368 30.0959 45.8336 0.0000 3.6926 0.0000
# 2 30.0959 49.2237 33.2826 0.0000 1.0971 0.0000
# 3 45.8336 33.2826 124.1542 0.0000 8.4599 0.0000
# 4 0.0000 0.0000 0.0000 28.9839 0.0000 0.2805
# 5 3.6926 1.0971 8.4599 0.0000 34.0563 0.0000
# 6 0.0000 0.0000 0.0000 0.2805 0.0000 27.3458
#
#
#
# Elastic Compliance Matrix: (Units=1/GPa)
#
#
# Indices 1 2 3 4 5 6 
#
# 1 0.021924 -0.009709 -0.005442 0.000000 -0.000712 0.000000
# 2 -0.009709 0.029138 -0.004308 0.000000 0.001184 0.000000
# 3 -0.005442 -0.004308 0.011361 0.000000 -0.002093 0.000000
# 4 0.000000 0.000000 0.000000 0.034505 0.000000 -0.000354
# 5 -0.000712 0.001184 -0.002093 0.000000 0.029922 0.000000
# 6 0.000000 0.000000 0.000000 -0.000354 0.000000 0.036572
#
#
# Mechanical properties :
#
#
# Convention : Reuss Voigt Hill
#
# Bulk Modulus (GPa) = 42.54382 51.35987 46.95184
# Shear Modulus (GPa) = 23.78958 27.05070 25.42014
#
# Velocity S-wave (km/s) = 3.53828 3.77301 3.65753
# Velocity P-wave (km/s) = 6.25152 6.78301 6.52268
#
# Compressibility (1/GPa) = 0.02350518
#
# Stress axis : x y z
#
# Youngs Moduli (GPa) = 45.61152 34.31973 88.02005
#
# Poissons Ratio (x) = 0.33321 0.47904
# Poissons Ratio (y) = 0.44284 0.37915
# Poissons Ratio (z) = 0.24824 0.14783
#
# Static dielectric constant tensor:
#      x y z
#    x 3.570710 0.000000 0.118270 
#    y 0.000000 3.304070 0.000000 
#    z 0.118270 0.000000 3.589240 
# 
# 
# High freq. dielectric constant tensor:
#      x y z
#    x 1.743070 0.000000 0.008700 
#    y 0.000000 1.721970 0.000000 
#    z 0.008700 0.000000 1.746910 
# 
# From -- ./inp_files/295864.got.cif
#   From: 2010.06.25/outbox.cif.g09.slc.cpg/sg12_148_cif.got.tgz:295864.got - 2010.06.28 00:19:55.
