data_PCOD8100397
_publ_section_title
;
Structure prediction by ZEFSAII (Michael W. Deem and Ramdas Pophale) SiO2 
 PCOD8100397
Probable space group: C 2/M
;
_chemical_formula_sum "Si O2"
_cell_formula_units_Z 64
_cell_length_a 15.369221
_cell_length_b 8.677287
_cell_length_c 28.230076
_cell_angle_alpha 90.000000
_cell_angle_beta 57.423652
_cell_angle_gamma 90.000000
_cell_volume 3172.545334
_symmetry_space_group_name_H-M "C 2/M"
_symmetry_group_IT_number 12
_symmetry_cell_setting 'monoclinic'
loop_
_space_group_symop_operation_xyz
x,y,z
-x,y,-z
-x,-y,-z
x,-y,z
1/2+x,1/2+y,z
1/2-x,1/2+y,-z
1/2-x,1/2-y,-z
1/2+x,1/2-y,z
loop_
_atom_site_type_symbol
_atom_site_label
_atom_site_fract_x
_atom_site_fract_y
_atom_site_fract_z
Si Si1 0.855447 0.323416 0.176800
Si Si2 0.459033 0.681128 0.830633
Si Si3 0.281581 0.817891 0.440934
Si Si4 0.088034 0.182191 0.438664
Si Si5 0.364919 0.180564 0.764928
Si Si6 0.101111 0.323741 0.941981
Si Si7 0.486382 0.818593 0.636036
Si Si8 0.782720 0.319598 0.940928
O O1 0.824498 0.500000 0.195699
O O2 0.754330 0.219133 0.207338
O O3 0.915639 0.307147 0.109181
O O4 0.930413 0.263652 0.196202
O O5 0.474328 0.500000 0.829794
O O6 0.410009 0.723313 0.794982
O O7 0.386922 0.737291 0.894378
O O8 0.250000 0.750000 0.500000
O O9 0.200081 0.763281 0.424873
O O10 0.395858 0.758021 0.394155
O O11 0.278854 0.000000 0.446321
O O12 0.072559 0.247681 0.391138
O O13 0.000000 0.246254 0.500000
O O14 0.080570 0.000000 0.437821
O O15 0.427020 0.233102 0.700412
O O16 0.377792 0.000000 0.771853
O O17 0.129403 0.500000 0.947366
O O18 0.194260 0.211738 0.928407
O O19 0.000000 0.269877 0.000000
O O20 0.484583 0.000000 0.630097
O O21 0.804058 0.500000 0.939233
O O22 0.750000 0.250000 0.000000
#
# Coordination Sequence:
#
# PCOD8100397 Si02
#       8
#     8   8   8   8   8   8   8   8
#     4  11  23  41  67  95 126 167 212 262 326 386
#     4  12  25  43  67  95 128 168 216 266 322 385
#     4  10  20  36  58  87 123 162 204 252 309 367
#     4  10  20  35  58  90 125 161 204 254 310 370
#     4  11  24  44  65  91 129 170 219 269 316 377
#     4  10  21  38  61  91 127 161 205 261 323 387
#     4  10  23  40  61  90 124 164 209 257 310 370
#     4  12  24  39  62  92 129 167 211 264 321 383
#
# _framework density 20.173078
#
# number of rings (size 3 to 8) (size 9 to 14) (size 15 to 20)
#    0.000    1.250    2.500    3.750    0.000    4.500 
#    0.000    1.250    0.000    0.000    0.000    0.000 
#    0.000    0.000    0.000    0.000    0.000    0.000 
#
# Total GULP energy -396958.931769 kJ/mol
# GULP energy per Si atom -12404.966618 kJ/mol
# Density = 2.012716 g / cm^3
# Si number density = 20.173078 Si / 1000 Ang^3
#
#
#
# Elastic Constant Matrix: (Units=GPa)
#
#
# Indices 1 2 3 4 5 6 
#
# 1 138.9179 16.6235 48.2996 0.0000 -8.1852 0.0000
# 2 16.6235 53.5875 24.9185 0.0000 3.4599 0.0000
# 3 48.2996 24.9185 124.2077 0.0000 -3.8677 0.0000
# 4 0.0000 0.0000 0.0000 27.4092 0.0000 5.1530
# 5 -8.1852 3.4599 -3.8677 0.0000 28.4761 0.0000
# 6 0.0000 0.0000 0.0000 5.1530 0.0000 34.5799
#
#
#
# Elastic Compliance Matrix: (Units=1/GPa)
#
#
# Indices 1 2 3 4 5 6 
#
# 1 0.008529 -0.001411 -0.002964 0.000000 0.002220 0.000000
# 2 -0.001411 0.021086 -0.003790 0.000000 -0.003482 0.000000
# 3 -0.002964 -0.003790 0.009994 0.000000 0.000966 0.000000
# 4 0.000000 0.000000 0.000000 0.037536 0.000000 -0.005593
# 5 0.002220 -0.003482 0.000966 0.000000 0.036310 0.000000
# 6 0.000000 0.000000 0.000000 -0.005593 0.000000 0.029752
#
#
# Mechanical properties :
#
#
# Convention : Reuss Voigt Hill
#
# Bulk Modulus (GPa) = 42.95784 55.15513 49.05648
# Shear Modulus (GPa) = 29.88712 33.21782 31.55247
#
# Velocity S-wave (km/s) = 3.85325 4.06228 3.95915
# Velocity P-wave (km/s) = 6.41386 7.02874 6.72833
#
# Compressibility (1/GPa) = 0.02327864
#
# Stress axis : x y z
#
# Youngs Moduli (GPa) = 117.24997 47.42491 100.05783
#
# Poissons Ratio (x) = 0.06690 0.29661
# Poissons Ratio (y) = 0.16540 0.37923
# Poissons Ratio (z) = 0.34757 0.17975
#
# Static dielectric constant tensor:
#      x y z
#    x 3.397540 0.000000 -0.060820 
#    y 0.000000 3.640660 0.000000 
#    z -0.060820 0.000000 3.779980 
# 
# 
# High freq. dielectric constant tensor:
#      x y z
#    x 1.802090 0.000000 -0.003280 
#    y 0.000000 1.785000 0.000000 
#    z -0.003280 0.000000 1.787090 
# 
# From -- ./inp_files/375477.got.cif
#   From: 2010.06.25/outbox.cif.g09.slc.cpg/sg12_188_cif.got.tgz:375477.got - 2010.06.28 00:19:55.
