data_PCOD8100599
_publ_section_title
;
Structure prediction by ZEFSAII (Michael W. Deem and Ramdas Pophale) SiO2 
 PCOD8100599
Probable space group: C 2/M
;
_chemical_formula_sum "Si O2"
_cell_formula_units_Z 64
_cell_length_a 28.955089
_cell_length_b 14.090058
_cell_length_c 9.549138
_cell_angle_alpha 90.000000
_cell_angle_beta 58.949655
_cell_angle_gamma 90.000000
_cell_volume 3337.627984
_symmetry_space_group_name_H-M "C 2/M"
_symmetry_group_IT_number 12
_symmetry_cell_setting 'monoclinic'
loop_
_space_group_symop_operation_xyz
x,y,z
-x,y,-z
-x,-y,-z
x,-y,z
1/2+x,1/2+y,z
1/2-x,1/2+y,-z
1/2-x,1/2-y,-z
1/2+x,1/2-y,z
loop_
_atom_site_type_symbol
_atom_site_label
_atom_site_fract_x
_atom_site_fract_y
_atom_site_fract_z
Si Si1 0.251778 0.388877 0.424626
Si Si2 0.122810 0.609368 0.118560
Si Si3 0.539930 0.392732 0.057517
Si Si4 0.911044 0.713776 0.358481
Si Si5 0.130440 0.107898 0.705741
Si Si6 0.979002 0.740969 0.687928
Si Si7 0.346857 0.888248 0.234711
Si Si8 0.670786 0.109163 0.327079
O O1 0.261269 0.500000 0.417305
O O2 0.310607 0.344415 0.359737
O O3 0.210323 0.354880 0.610502
O O4 0.227714 0.360636 0.309053
O O5 0.104598 0.500000 0.138543
O O6 0.169989 0.622867 0.161011
O O7 0.070058 0.667861 0.242204
O O8 0.149788 0.643018 0.931782
O O9 0.521496 0.500000 0.120591
O O10 0.539352 0.335993 0.203573
O O11 0.500000 0.350042 0.000000
O O12 0.600345 0.389698 0.902033
O O13 0.900103 0.827099 0.360831
O O14 0.973104 0.693779 0.296917
O O15 0.896363 0.662462 0.235824
O O16 0.876478 0.673764 0.539650
O O17 0.132330 0.000000 0.643866
O O18 0.000000 0.767115 0.500000
O O19 0.353689 0.000000 0.244447
O O20 0.658679 0.000000 0.388311
#
# Coordination Sequence:
#
# PCOD8100599 Si02
#       8
#     8   8   8   8   8   8   8   8
#     4   8  16  33  58  82 107 141 182 224 268 326
#     4  10  21  35  54  82 117 151 182 220 265 322
#     4  10  21  39  61  81 104 139 182 230 282 328
#     4  11  20  34  55  79 108 146 182 231 271 321
#     4  10  20  35  60  87 107 135 185 233 276 327
#     4  12  24  37  55  81 111 148 188 227 275 327
#     4   9  19  34  54  82 113 144 181 221 270 319
#     4   9  18  34  54  78 112 150 184 217 264 323
#
# _framework density 19.175294999999998
#
# number of rings (size 3 to 8) (size 9 to 14) (size 15 to 20)
#    0.000    2.125    2.500    1.875    0.000    3.500 
#    0.000    1.250    2.750    2.250    0.000    0.000 
#    0.000    0.000    0.000    0.000    0.000    0.000 
#
# Total GULP energy -396685.694957 kJ/mol
# GULP energy per Si atom -12396.427967 kJ/mol
# Density = 1.913165 g / cm^3
# Si number density = 19.175295 Si / 1000 Ang^3
#
#
#
# Elastic Constant Matrix: (Units=GPa)
#
#
# Indices 1 2 3 4 5 6 
#
# 1 98.4575 16.7974 48.2476 0.0000 1.7296 0.0000
# 2 16.7974 53.1689 27.8966 0.0000 6.0548 0.0000
# 3 48.2476 27.8966 106.6504 0.0000 18.3670 0.0000
# 4 0.0000 0.0000 0.0000 22.7414 0.0000 6.7725
# 5 1.7296 6.0548 18.3670 0.0000 34.8564 0.0000
# 6 0.0000 0.0000 0.0000 6.7725 0.0000 18.2309
#
#
#
# Elastic Compliance Matrix: (Units=1/GPa)
#
#
# Indices 1 2 3 4 5 6 
#
# 1 0.013363 -0.001294 -0.006193 0.000000 0.002825 0.000000
# 2 -0.001294 0.021949 -0.004960 0.000000 -0.001135 0.000000
# 3 -0.006193 -0.004960 0.014599 0.000000 -0.006524 0.000000
# 4 0.000000 0.000000 0.000000 0.049442 0.000000 -0.018367
# 5 0.002825 -0.001135 -0.006524 0.000000 0.032184 0.000000
# 6 0.000000 0.000000 0.000000 -0.018367 0.000000 0.061675
#
#
# Mechanical properties :
#
#
# Convention : Reuss Voigt Hill
#
# Bulk Modulus (GPa) = 39.97521 49.35112 44.66317
# Shear Modulus (GPa) = 22.08042 26.18808 24.13425
#
# Velocity S-wave (km/s) = 3.39706 3.69957 3.55154
# Velocity P-wave (km/s) = 6.02322 6.63640 6.33723
#
# Compressibility (1/GPa) = 0.02501550
#
# Stress axis : x y z
#
# Youngs Moduli (GPa) = 74.83524 45.56102 68.49691
#
# Poissons Ratio (x) = 0.05895 0.42422
# Poissons Ratio (y) = 0.09683 0.33977
# Poissons Ratio (z) = 0.46347 0.22600
#
# Static dielectric constant tensor:
#      x y z
#    x 3.656890 0.000000 0.001500 
#    y 0.000000 3.483320 0.000000 
#    z 0.001500 0.000000 3.505990 
# 
# 
# High freq. dielectric constant tensor:
#      x y z
#    x 1.744190 0.000000 -0.001440 
#    y 0.000000 1.744760 0.000000 
#    z -0.001440 0.000000 1.732580 
# 
# From -- ./inp_files/111948.got.cif
#   From: 2010.06.25/outbox.cif.g09.slc.cpg/sg12_56_cif.got.tgz:111948.got - 2010.06.28 00:19:55.
