data_PCOD8100324
_publ_section_title
;
Structure prediction by ZEFSAII (Michael W. Deem and Ramdas Pophale) SiO2 
 PCOD8100324
Probable space group: C 2/M
;
_chemical_formula_sum "Si O2"
_cell_formula_units_Z 48
_cell_length_a 18.285193
_cell_length_b 11.612698
_cell_length_c 11.824144
_cell_angle_alpha 90.000000
_cell_angle_beta 73.754504
_cell_angle_gamma 90.000000
_cell_volume 2410.494396
_symmetry_space_group_name_H-M "C 2/M"
_symmetry_group_IT_number 12
_symmetry_cell_setting 'monoclinic'
loop_
_space_group_symop_operation_xyz
x,y,z
-x,y,-z
-x,-y,-z
x,-y,z
1/2+x,1/2+y,z
1/2-x,1/2+y,-z
1/2-x,1/2-y,-z
1/2+x,1/2-y,z
loop_
_atom_site_type_symbol
_atom_site_label
_atom_site_fract_x
_atom_site_fract_y
_atom_site_fract_z
Si Si1 0.608388 0.868716 0.108458
Si Si2 0.217670 0.126754 0.559904
Si Si3 0.172475 0.364458 0.848739
Si Si4 0.300571 0.207606 0.724961
Si Si5 0.578824 0.712577 0.509071
Si Si6 0.546364 0.135614 0.726226
O O1 0.670875 0.863309 0.180060
O O2 0.529381 0.809868 0.183081
O O3 0.590464 0.000000 0.086153
O O4 0.639531 0.810109 0.979823
O O5 0.250000 0.250000 0.500000
O O6 0.240068 0.128034 0.682347
O O7 0.127723 0.126457 0.568369
O O8 0.248373 0.000000 0.499866
O O9 0.178746 0.500000 0.856852
O O10 0.257298 0.320593 0.787884
O O11 0.118825 0.326119 0.768463
O O12 0.372122 0.245913 0.618708
O O13 0.500000 0.653439 0.500000
O O14 0.556010 0.822719 0.593885
O O15 0.537508 0.000000 0.723356
#
# Coordination Sequence:
#
# PCOD8100324 Si02
#       6
#     8   8   8   8   8   8
#     4  10  20  35  58  87 118 154 201 250 303 357
#     4  10  23  40  61  88 121 161 201 247 304 360
#     4  10  21  37  58  86 117 156 203 254 301 354
#     4  11  21  36  59  85 122 157 195 247 305 364
#     4  11  22  38  57  85 120 157 201 246 303 365
#     4  10  20  36  59  86 120 156 199 254 306 359
#
# _framework density 19.912927
#
# number of rings (size 3 to 8) (size 9 to 14) (size 15 to 20)
#    0.000    1.667    3.333    1.500    0.000    8.667 
#    0.000    0.000    0.000    0.000    0.000    1.167 
#    0.000    0.000    0.000    0.000    0.000    0.000 
#
# Total GULP energy -297330.180599 kJ/mol
# GULP energy per Si atom -12388.757525 kJ/mol
# Density = 1.986760 g / cm^3
# Si number density = 19.912927 Si / 1000 Ang^3
#
#
#
# Elastic Constant Matrix: (Units=GPa)
#
#
# Indices 1 2 3 4 5 6 
#
# 1 105.9258 21.6892 37.1262 0.0000 -16.9767 0.0000
# 2 21.6892 69.8543 19.1364 0.0000 -9.4996 0.0000
# 3 37.1262 19.1364 121.2538 0.0000 -22.6893 0.0000
# 4 0.0000 0.0000 0.0000 22.2455 0.0000 -1.8865
# 5 -16.9767 -9.4996 -22.6893 0.0000 27.0940 0.0000
# 6 0.0000 0.0000 0.0000 -1.8865 0.0000 21.5942
#
#
#
# Elastic Compliance Matrix: (Units=1/GPa)
#
#
# Indices 1 2 3 4 5 6 
#
# 1 0.011432 -0.002316 -0.002308 0.000000 0.004418 0.000000
# 2 -0.002316 0.015783 -0.001207 0.000000 0.003072 0.000000
# 3 -0.002308 -0.001207 0.010429 0.000000 0.006864 0.000000
# 4 0.000000 0.000000 0.000000 0.045289 0.000000 0.003957
# 5 0.004418 0.003072 0.006864 0.000000 0.046502 0.000000
# 6 0.000000 0.000000 0.000000 0.003957 0.000000 0.046654
#
#
# Mechanical properties :
#
#
# Convention : Reuss Voigt Hill
#
# Bulk Modulus (GPa) = 38.48944 50.32639 44.40791
# Shear Modulus (GPa) = 25.45678 28.79222 27.12450
#
# Velocity S-wave (km/s) = 3.57936 3.80663 3.69474
# Velocity P-wave (km/s) = 6.03765 6.68197 6.36796
#
# Compressibility (1/GPa) = 0.02598115
#
# Stress axis : x y z
#
# Youngs Moduli (GPa) = 87.47456 63.35897 95.88908
#
# Poissons Ratio (x) = 0.14677 0.22131
# Poissons Ratio (y) = 0.20263 0.11573
# Poissons Ratio (z) = 0.20189 0.07647
#
# Static dielectric constant tensor:
#      x y z
#    x 4.095870 0.000000 0.117060 
#    y 0.000000 3.288280 0.000000 
#    z 0.117060 0.000000 3.823980 
# 
# 
# High freq. dielectric constant tensor:
#      x y z
#    x 1.794170 0.000000 0.010160 
#    y 0.000000 1.735060 0.000000 
#    z 0.010160 0.000000 1.779540 
# 
# From -- ./inp_files/154184.got.cif
#   From: 2010.06.25/outbox.cif.g09.slc.cpg/sg12_78_cif.got.tgz:154184.got - 2010.06.28 00:19:55.
