data_PCOD8100759
_publ_section_title
;
Structure prediction by ZEFSAII (Michael W. Deem and Ramdas Pophale) SiO2 
 PCOD8100759
Probable space group: C 2/M
;
_chemical_formula_sum "Si O2"
_cell_formula_units_Z 52
_cell_length_a 20.199121
_cell_length_b 24.607229
_cell_length_c 8.928872
_cell_angle_alpha 90.000000
_cell_angle_beta 143.250671
_cell_angle_gamma 90.000000
_cell_volume 2655.350330
_symmetry_space_group_name_H-M "C 2/M"
_symmetry_group_IT_number 12
_symmetry_cell_setting 'monoclinic'
loop_
_space_group_symop_operation_xyz
x,y,z
-x,y,-z
-x,-y,-z
x,-y,z
1/2+x,1/2+y,z
1/2-x,1/2+y,-z
1/2-x,1/2-y,-z
1/2+x,1/2-y,z
loop_
_atom_site_type_symbol
_atom_site_label
_atom_site_fract_x
_atom_site_fract_y
_atom_site_fract_z
Si Si1 0.299110 0.902260 0.053780
Si Si2 0.500000 0.168063 0.500000
Si Si3 0.379088 0.000000 0.711944
Si Si4 0.851183 0.745087 0.383624
Si Si5 0.056616 0.164169 0.261401
Si Si6 0.649669 0.314320 0.911501
Si Si7 0.116307 0.500000 0.627270
Si Si8 0.709686 0.560082 0.579111
O O1 0.409905 0.866944 0.248267
O O2 0.311653 0.948513 0.199054
O O3 0.195828 0.868158 0.920896
O O4 0.274279 0.925683 0.846576
O O5 0.448041 0.200326 0.548326
O O6 0.403116 0.000000 0.582125
O O7 0.306995 0.946533 0.630281
O O8 0.500000 0.000000 0.000000
O O9 0.860866 0.786324 0.542201
O O10 0.869784 0.772680 0.256654
O O11 0.732366 0.714838 0.180471
O O12 0.120914 0.106465 0.374006
O O13 0.962791 0.165810 0.217115
O O14 0.000000 0.175406 0.000000
O O15 0.000000 0.500000 0.500000
O O16 0.651092 0.500000 0.490592
#
# Coordination Sequence:
#
# PCOD8100759 Si02
#       8
#     8   4   4   8   8   8   4   8
#     4  11  21  37  67  97 126 166 230 276 319 396
#     4  10  20  35  68  96 127 160 218 284 336 372
#     4  10  24  44  66  90 142 173 202 269 343 386
#     4  10  20  41  65  91 122 170 224 270 334 376
#     4  12  25  41  65  92 137 176 222 270 334 399
#     4  10  22  39  65  91 124 170 221 280 317 385
#     4  12  22  40  69  97 127 165 222 268 315 395
#     4  10  24  44  62  94 133 177 211 271 338 390
#
# _framework density 19.583102
#
# number of rings (size 3 to 8) (size 9 to 14) (size 15 to 20)
#    0.462    0.923    4.615    0.923    2.154    0.923 
#    1.385    0.769    0.000    0.000    0.000    0.000 
#    0.000    0.000    0.000    0.000    0.000    0.000 
#
# Total GULP energy -322199.807891 kJ/mol
# GULP energy per Si atom -12392.300304 kJ/mol
# Density = 1.953853 g / cm^3
# Si number density = 19.583102 Si / 1000 Ang^3
#
#
#
# Elastic Constant Matrix: (Units=GPa)
#
#
# Indices 1 2 3 4 5 6 
#
# 1 89.1753 34.1455 35.0992 0.0000 2.0037 0.0000
# 2 34.1455 111.1504 39.3237 0.0000 3.4178 0.0000
# 3 35.0992 39.3237 92.9823 0.0000 -8.5951 0.0000
# 4 0.0000 0.0000 0.0000 25.9137 0.0000 0.1653
# 5 2.0037 3.4178 -8.5951 0.0000 39.6258 0.0000
# 6 0.0000 0.0000 0.0000 0.1653 0.0000 23.9861
#
#
#
# Elastic Compliance Matrix: (Units=1/GPa)
#
#
# Indices 1 2 3 4 5 6 
#
# 1 0.013965 -0.002748 -0.004238 0.000000 -0.001388 0.000000
# 2 -0.002748 0.011266 -0.003882 0.000000 -0.001675 0.000000
# 3 -0.004238 -0.003882 0.014334 0.000000 0.003658 0.000000
# 4 0.000000 0.000000 0.000000 0.038591 0.000000 -0.000266
# 5 -0.001388 -0.001675 0.003658 0.000000 0.026244 0.000000
# 6 0.000000 0.000000 0.000000 -0.000266 0.000000 0.041693
#
#
# Mechanical properties :
#
#
# Convention : Reuss Voigt Hill
#
# Bulk Modulus (GPa) = 56.08595 56.71610 56.40102
# Shear Modulus (GPa) = 28.77318 30.22109 29.49714
#
# Velocity S-wave (km/s) = 3.83729 3.93265 3.88526
# Velocity P-wave (km/s) = 6.95235 7.04596 6.99931
#
# Compressibility (1/GPa) = 0.01782978
#
# Stress axis : x y z
#
# Youngs Moduli (GPa) = 71.60588 88.76293 69.76269
#
# Poissons Ratio (x) = 0.24394 0.29564
# Poissons Ratio (y) = 0.19679 0.27082
# Poissons Ratio (z) = 0.30345 0.34457
#
# Static dielectric constant tensor:
#      x y z
#    x 3.260430 0.000000 0.173180 
#    y 0.000000 3.924950 0.000000 
#    z 0.173180 0.000000 3.703620 
# 
# 
# High freq. dielectric constant tensor:
#      x y z
#    x 1.742920 0.000000 0.011220 
#    y 0.000000 1.774380 0.000000 
#    z 0.011220 0.000000 1.771050 
# 
# From -- ./inp_files/90735.got.cif
#   From: 2010.06.25/outbox.cif.g09.slc.cpg/sg12_46_cif.got.tgz:90735.got - 2010.06.28 00:19:55.
