data_PCOD8100713
_publ_section_title
;
Structure prediction by ZEFSAII (Michael W. Deem and Ramdas Pophale) SiO2 
 PCOD8100713
Probable space group: C 2/M
;
_chemical_formula_sum "Si O2"
_cell_formula_units_Z 56
_cell_length_a 10.656709
_cell_length_b 17.582112
_cell_length_c 12.146995
_cell_angle_alpha 90.000000
_cell_angle_beta 81.209997
_cell_angle_gamma 90.000000
_cell_volume 2249.220578
_symmetry_space_group_name_H-M "C 2/M"
_symmetry_group_IT_number 12
_symmetry_cell_setting 'monoclinic'
loop_
_space_group_symop_operation_xyz
x,y,z
-x,y,-z
-x,-y,-z
x,-y,z
1/2+x,1/2+y,z
1/2-x,1/2+y,-z
1/2-x,1/2-y,-z
1/2+x,1/2-y,z
loop_
_atom_site_type_symbol
_atom_site_label
_atom_site_fract_x
_atom_site_fract_y
_atom_site_fract_z
Si Si1 0.048048 0.586531 0.268248
Si Si2 0.741450 0.587226 0.604984
Si Si3 0.755958 0.586411 0.362360
Si Si4 0.017253 0.759205 0.121029
Si Si5 0.186045 0.586182 0.044808
Si Si6 0.761004 0.309866 0.170853
Si Si7 0.574125 0.416867 0.828526
O O1 0.098125 0.500000 0.248772
O O2 0.139310 0.626264 0.346985
O O3 0.067183 0.618940 0.138991
O O4 0.906682 0.590823 0.327980
O O5 0.778108 0.500000 0.574945
O O6 0.719472 0.622538 0.486175
O O7 0.615582 0.594315 0.695517
O O8 0.706090 0.500000 0.354307
O O9 0.696615 0.638598 0.274663
O O10 0.891084 0.729409 0.202439
O O11 0.023999 0.851955 0.124176
O O12 0.158726 0.742958 0.152542
O O13 0.000000 0.730415 0.000000
O O14 0.157983 0.500000 0.006687
O O15 0.305492 0.588257 0.108599
O O16 0.202196 0.640135 0.939408
O O17 0.508690 0.500000 0.851436
#
# Coordination Sequence:
#
# PCOD8100713 Si02
#       7
#     8   8   8   8   8   8   8
#     4   8  15  28  53  91 132 171 207 254 315 381
#     4   8  15  32  60  95 132 167 207 259 322 383
#     4  10  20  35  61  98 133 168 212 266 319 374
#     4  12  27  46  65  92 126 174 218 263 322 388
#     4   9  18  35  61  95 129 164 209 265 322 374
#     4  12  27  43  64  93 132 174 215 265 321 386
#     4   9  19  38  67  96 123 159 210 266 319 380
#
# _framework density 24.897514999999999
#
# number of rings (size 3 to 8) (size 9 to 14) (size 15 to 20)
#    0.000    2.286    1.429    3.000    2.000    4.286 
#    0.000    3.571    0.000    3.429    0.000    0.000 
#    0.000    0.000    0.000    0.000    0.000    0.000 
#
# Total GULP energy -347006.892940 kJ/mol
# GULP energy per Si atom -12393.103319 kJ/mol
# Density = 2.484085 g / cm^3
# Si number density = 24.897515 Si / 1000 Ang^3
#
#
#
# Elastic Constant Matrix: (Units=GPa)
#
#
# Indices 1 2 3 4 5 6 
#
# 1 75.7106 10.7646 14.3124 0.0000 4.1410 0.0000
# 2 10.7646 56.0480 27.8082 0.0000 1.3392 0.0000
# 3 14.3124 27.8082 161.5791 0.0000 8.6539 0.0000
# 4 0.0000 0.0000 0.0000 22.0230 0.0000 1.6219
# 5 4.1410 1.3392 8.6539 0.0000 22.1584 0.0000
# 6 0.0000 0.0000 0.0000 1.6219 0.0000 21.7524
#
#
#
# Elastic Compliance Matrix: (Units=1/GPa)
#
#
# Indices 1 2 3 4 5 6 
#
# 1 0.013781 -0.002238 -0.000720 0.000000 -0.002159 0.000000
# 2 -0.002238 0.019871 -0.003248 0.000000 0.000486 0.000000
# 3 -0.000720 -0.003248 0.006939 0.000000 -0.002379 0.000000
# 4 0.000000 0.000000 0.000000 0.045658 0.000000 -0.003404
# 5 -0.002159 0.000486 -0.002379 0.000000 0.046433 0.000000
# 6 0.000000 0.000000 0.000000 -0.003404 0.000000 0.046226
#
#
# Mechanical properties :
#
#
# Convention : Reuss Voigt Hill
#
# Bulk Modulus (GPa) = 35.48619 44.34534 39.91576
# Shear Modulus (GPa) = 24.91132 29.21692 27.06412
#
# Velocity S-wave (km/s) = 3.16659 3.42934 3.30058
# Velocity P-wave (km/s) = 5.25866 5.79053 5.53100
#
# Compressibility (1/GPa) = 0.02817998
#
# Stress axis : x y z
#
# Youngs Moduli (GPa) = 72.56605 50.32353 144.11199
#
# Poissons Ratio (x) = 0.11262 0.10374
# Poissons Ratio (y) = 0.16240 0.46803
# Poissons Ratio (z) = 0.05224 0.16344
#
# Static dielectric constant tensor:
#      x y z
#    x 4.307630 0.000000 -0.005560 
#    y 0.000000 4.919500 0.000000 
#    z -0.005560 0.000000 4.635890 
# 
# 
# High freq. dielectric constant tensor:
#      x y z
#    x 1.979700 0.000000 -0.001300 
#    y 0.000000 1.984320 0.000000 
#    z -0.001300 0.000000 1.985220 
# 
# From -- ./inp_files/133210.got.cif
#   From: 2010.06.25/outbox.cif.g09.slc.cpg/sg12_67_cif.got.tgz:133210.got - 2010.06.28 00:19:55.
