data_PCOD8100120
_publ_section_title
;
Structure prediction by ZEFSAII (Michael W. Deem and Ramdas Pophale) SiO2 
 PCOD8100120
Probable space group: C 2/M
;
_chemical_formula_sum "Si O2"
_cell_formula_units_Z 48
_cell_length_a 12.240605
_cell_length_b 21.929871
_cell_length_c 9.054122
_cell_angle_alpha 90.000000
_cell_angle_beta 72.659682
_cell_angle_gamma 90.000000
_cell_volume 2319.981805
_symmetry_space_group_name_H-M "C 2/M"
_symmetry_group_IT_number 12
_symmetry_cell_setting 'monoclinic'
loop_
_space_group_symop_operation_xyz
x,y,z
-x,y,-z
-x,-y,-z
x,-y,z
1/2+x,1/2+y,z
1/2-x,1/2+y,-z
1/2-x,1/2-y,-z
1/2+x,1/2-y,z
loop_
_atom_site_type_symbol
_atom_site_label
_atom_site_fract_x
_atom_site_fract_y
_atom_site_fract_z
Si Si1 0.477595 0.336276 0.344156
Si Si2 0.283114 0.740055 0.317741
Si Si3 0.271929 0.634695 0.797321
Si Si4 0.713097 0.570716 0.509762
Si Si5 0.390250 0.137562 0.635847
Si Si6 0.103709 0.570583 0.070224
O O1 0.500000 0.308896 0.500000
O O2 0.410619 0.288360 0.267391
O O3 0.595923 0.352398 0.216228
O O4 0.402679 0.397058 0.390824
O O5 0.250000 0.750000 0.500000
O O6 0.289008 0.802089 0.223730
O O7 0.188152 0.695135 0.285797
O O8 0.259549 0.586538 0.670328
O O9 0.214727 0.605747 0.964157
O O10 0.691765 0.500000 0.536022
O O11 0.819477 0.590364 0.565783
O O12 0.500000 0.160717 0.500000
O O13 0.433398 0.102076 0.762810
O O14 0.134469 0.500000 0.084560
O O15 0.000000 0.578087 0.000000
#
# Coordination Sequence:
#
# PCOD8100120 Si02
#       6
#     8   8   8   8   8   8
#     4   9  19  34  57  91 124 159 204 254 313 367
#     4  11  21  38  64  97 127 158 208 269 307 378
#     4  11  22  38  63  89 128 169 202 259 326 375
#     4  10  20  35  57  89 120 159 216 259 304 374
#     4  11  24  40  68  91 121 168 214 266 321 379
#     4  11  26  45  62  92 131 167 215 269 322 379
#
# _framework density 20.689817000000001
#
# number of rings (size 3 to 8) (size 9 to 14) (size 15 to 20)
#    0.000    1.500    5.000    2.000    2.333    7.000 
#    0.000    3.333    0.000    5.000    0.000    0.000 
#    0.000    0.000    0.000    0.000    0.000    0.000 
#
# Total GULP energy -297681.526678 kJ/mol
# GULP energy per Si atom -12403.396945 kJ/mol
# Density = 2.064273 g / cm^3
# Si number density = 20.689817 Si / 1000 Ang^3
#
#
#
# Elastic Constant Matrix: (Units=GPa)
#
#
# Indices 1 2 3 4 5 6 
#
# 1 101.1253 13.1602 12.6489 0.0000 -9.4554 0.0000
# 2 13.1602 81.3830 -8.3466 0.0000 -3.3325 0.0000
# 3 12.6489 -8.3466 50.4490 0.0000 -13.0633 0.0000
# 4 0.0000 0.0000 0.0000 24.9950 0.0000 3.0072
# 5 -9.4554 -3.3325 -13.0633 0.0000 30.4202 0.0000
# 6 0.0000 0.0000 0.0000 3.0072 0.0000 19.1928
#
#
#
# Elastic Compliance Matrix: (Units=1/GPa)
#
#
# Indices 1 2 3 4 5 6 
#
# 1 0.010632 -0.001886 -0.002448 0.000000 0.002047 0.000000
# 2 -0.001886 0.013011 0.003199 0.000000 0.002213 0.000000
# 3 -0.002448 0.003199 0.023468 0.000000 0.009668 0.000000
# 4 0.000000 0.000000 0.000000 0.040777 0.000000 -0.006389
# 5 0.002047 0.002213 0.009668 0.000000 0.037903 0.000000
# 6 0.000000 0.000000 0.000000 -0.006389 0.000000 0.053104
#
#
# Mechanical properties :
#
#
# Convention : Reuss Voigt Hill
#
# Bulk Modulus (GPa) = 22.30152 29.76470 26.03311
# Shear Modulus (GPa) = 25.49551 29.28791 27.39171
#
# Velocity S-wave (km/s) = 3.51418 3.76649 3.64252
# Velocity P-wave (km/s) = 5.22191 5.77344 5.50459
#
# Compressibility (1/GPa) = 0.04484000
#
# Stress axis : x y z
#
# Youngs Moduli (GPa) = 94.05771 76.85645 42.61077
#
# Poissons Ratio (x) = 0.14499 0.10430
# Poissons Ratio (y) = 0.17744 -0.13629
# Poissons Ratio (z) = 0.23023 -0.24583
#
# Static dielectric constant tensor:
#      x y z
#    x 4.638730 0.000000 0.020540 
#    y 0.000000 4.152960 0.000000 
#    z 0.020540 0.000000 3.432000 
# 
# 
# High freq. dielectric constant tensor:
#      x y z
#    x 1.824910 0.000000 -0.001620 
#    y 0.000000 1.817500 0.000000 
#    z -0.001620 0.000000 1.776350 
# 
# From -- ./inp_files/51309.got.cif
#   From: 2010.06.25/outbox.cif.g09.slc.cpg/sg12_26_cif.got.tgz:51309.got - 2010.06.28 00:19:55.
