data_PCOD8100547
_publ_section_title
;
Structure prediction by ZEFSAII (Michael W. Deem and Ramdas Pophale) SiO2 
 PCOD8100547
Probable space group: C 2/M
;
_chemical_formula_sum "Si O2"
_cell_formula_units_Z 64
_cell_length_a 25.597078
_cell_length_b 8.792026
_cell_length_c 14.696205
_cell_angle_alpha 90.000000
_cell_angle_beta 100.056161
_cell_angle_gamma 90.000000
_cell_volume 3256.572413
_symmetry_space_group_name_H-M "C 2/M"
_symmetry_group_IT_number 12
_symmetry_cell_setting 'monoclinic'
loop_
_space_group_symop_operation_xyz
x,y,z
-x,y,-z
-x,-y,-z
x,-y,z
1/2+x,1/2+y,z
1/2-x,1/2+y,-z
1/2-x,1/2-y,-z
1/2+x,1/2-y,z
loop_
_atom_site_type_symbol
_atom_site_label
_atom_site_fract_x
_atom_site_fract_y
_atom_site_fract_z
Si Si1 0.020959 0.180759 0.103810
Si Si2 0.704673 0.820192 0.705796
Si Si3 0.406952 0.679996 0.379149
Si Si4 0.098486 0.678387 0.431869
Si Si5 0.137628 0.820029 0.159323
Si Si6 0.997271 0.679074 0.282749
Si Si7 0.310949 0.679005 0.642356
Si Si8 0.238442 0.821334 0.092423
O O1 0.080406 0.245506 0.120355
O O2 0.990888 0.260960 0.177753
O O3 0.016792 0.000000 0.115727
O O4 0.000000 0.233364 0.000000
O O5 0.651509 0.731228 0.668212
O O6 0.749037 0.779900 0.641452
O O7 0.724252 0.768069 0.812311
O O8 0.694167 0.000000 0.701144
O O9 0.409361 0.500000 0.379838
O O10 0.421417 0.741497 0.482884
O O11 0.450623 0.742777 0.324085
O O12 0.100374 0.500000 0.449834
O O13 0.055383 0.722166 0.340981
O O14 0.159044 0.734265 0.430314
O O15 0.157093 0.758317 0.261455
O O16 0.178357 0.768462 0.093951
O O17 0.136793 0.000000 0.164574
O O18 0.988160 0.500000 0.282479
O O19 0.317349 0.500000 0.628086
O O20 0.243548 0.000000 0.085038
O O21 0.250000 0.750000 0.000000
#
# Coordination Sequence:
#
# PCOD8100547 Si02
#       8
#     8   8   8   8   8   8   8   8
#     4  10  20  35  59  90 120 154 197 244 293 347
#     4   9  20  39  59  83 119 157 196 245 303 351
#     4  12  26  41  61  87 117 158 202 247 299 360
#     4  11  23  39  62  90 119 154 196 245 301 357
#     4   8  15  31  53  77 111 148 187 235 282 335
#     4  11  24  42  62  86 121 159 196 246 302 355
#     4   9  17  34  62  86 110 152 197 241 288 344
#     4   9  18  33  55  82 112 154 198 239 289 344
#
# _framework density 19.652564999999999
#
# number of rings (size 3 to 8) (size 9 to 14) (size 15 to 20)
#    0.000    2.125    1.250    3.750    0.000    5.750 
#    0.000    3.750    0.000    0.000    0.000    0.000 
#    0.000    0.000    0.000    0.000    0.000    0.000 
#
# Total GULP energy -396640.297030 kJ/mol
# GULP energy per Si atom -12395.009282 kJ/mol
# Density = 1.960784 g / cm^3
# Si number density = 19.652565 Si / 1000 Ang^3
#
#
#
# Elastic Constant Matrix: (Units=GPa)
#
#
# Indices 1 2 3 4 5 6 
#
# 1 117.2866 51.0662 50.8551 0.0000 -16.8202 0.0000
# 2 51.0662 83.2544 47.3409 0.0000 -7.2292 0.0000
# 3 50.8551 47.3409 117.9328 0.0000 -19.1648 0.0000
# 4 0.0000 0.0000 0.0000 33.7728 0.0000 -4.1948
# 5 -16.8202 -7.2292 -19.1648 0.0000 33.7948 0.0000
# 6 0.0000 0.0000 0.0000 -4.1948 0.0000 27.1850
#
#
#
# Elastic Compliance Matrix: (Units=1/GPa)
#
#
# Indices 1 2 3 4 5 6 
#
# 1 0.012784 -0.006125 -0.002460 0.000000 0.003658 0.000000
# 2 -0.006125 0.018501 -0.005108 0.000000 -0.001988 0.000000
# 3 -0.002460 -0.005108 0.012352 0.000000 0.004688 0.000000
# 4 0.000000 0.000000 0.000000 0.030188 0.000000 0.004658
# 5 0.003658 -0.001988 0.004688 0.000000 0.033644 0.000000
# 6 0.000000 0.000000 0.000000 0.004658 0.000000 0.037504
#
#
# Mechanical properties :
#
#
# Convention : Reuss Voigt Hill
#
# Bulk Modulus (GPa) = 61.53489 68.55535 65.04512
# Shear Modulus (GPa) = 28.12522 30.23128 29.17825
#
# Velocity S-wave (km/s) = 3.78712 3.92635 3.85737
# Velocity P-wave (km/s) = 7.10650 7.45080 7.28069
#
# Compressibility (1/GPa) = 0.01625094
#
# Stress axis : x y z
#
# Youngs Moduli (GPa) = 78.22250 54.05246 80.95572
#
# Poissons Ratio (x) = 0.33108 0.19911
# Poissons Ratio (y) = 0.47913 0.41354
# Poissons Ratio (z) = 0.19239 0.27611
#
# Static dielectric constant tensor:
#      x y z
#    x 3.886900 0.000000 0.018080 
#    y 0.000000 3.347040 0.000000 
#    z 0.018080 0.000000 3.532560 
# 
# 
# High freq. dielectric constant tensor:
#      x y z
#    x 1.776680 0.000000 -0.008590 
#    y 0.000000 1.748280 0.000000 
#    z -0.008590 0.000000 1.768850 
# 
# From -- ./inp_files/238689.got.cif
#   From: 2010.06.25/outbox.cif.g09.slc.cpg/sg12_120_cif.got.tgz:238689.got - 2010.06.28 00:19:55.
