data_PCOD8100203
_publ_section_title
;
Structure prediction by ZEFSAII (Michael W. Deem and Ramdas Pophale) SiO2 
 PCOD8100203
Probable space group: C 2/M
;
_chemical_formula_sum "Si O2"
_cell_formula_units_Z 56
_cell_length_a 20.127794
_cell_length_b 26.769827
_cell_length_c 6.119544
_cell_angle_alpha 90.000000
_cell_angle_beta 120.064877
_cell_angle_gamma 90.000000
_cell_volume 2853.692332
_symmetry_space_group_name_H-M "C 2/M"
_symmetry_group_IT_number 12
_symmetry_cell_setting 'monoclinic'
loop_
_space_group_symop_operation_xyz
x,y,z
-x,y,-z
-x,-y,-z
x,-y,z
1/2+x,1/2+y,z
1/2-x,1/2+y,-z
1/2-x,1/2-y,-z
1/2+x,1/2-y,z
loop_
_atom_site_type_symbol
_atom_site_label
_atom_site_fract_x
_atom_site_fract_y
_atom_site_fract_z
Si Si1 0.587376 0.186394 0.200188
Si Si2 0.073181 0.943287 0.488025
Si Si3 0.160896 0.220990 0.097512
Si Si4 0.825948 0.283514 0.267096
Si Si5 0.838573 0.119227 0.693862
Si Si6 0.209851 0.635892 0.144539
Si Si7 0.723373 0.556195 0.027188
O O1 0.612648 0.241007 0.163646
O O2 0.604987 0.189013 0.489439
O O3 0.633568 0.140461 0.167111
O O4 0.500000 0.176038 0.000000
O O5 0.089866 0.909628 0.300624
O O6 0.000000 0.922118 0.500000
O O7 0.057386 0.000000 0.381815
O O8 0.143691 0.942010 0.769037
O O9 0.252478 0.227238 0.301322
O O10 0.131883 0.165024 0.106186
O O11 0.144259 0.234111 0.813019
O O12 0.789749 0.318963 0.023342
O O13 0.784682 0.141747 0.417488
O O14 0.788147 0.081220 0.755641
O O15 0.212035 0.584236 0.011635
O O16 0.752585 0.500000 0.112263
#
# Coordination Sequence:
#
# PCOD8100203 Si02
#       7
#     8   8   8   8   8   8   8
#     4  11  23  38  56  84 118 154 190 234 289 346
#     4   9  20  37  55  79 114 155 196 238 289 346
#     4  10  21  33  58  81 113 149 194 230 278 337
#     4  10  20  36  60  83 110 154 190 236 282 341
#     4  11  20  35  57  85 111 150 193 238 286 338
#     4  10  20  36  59  84 111 148 192 238 283 340
#     4  10  20  35  58  85 110 144 194 247 290 337
#
# _framework density 19.623698000000001
#
# number of rings (size 3 to 8) (size 9 to 14) (size 15 to 20)
#    0.000    1.857    2.857    0.857    4.000    3.429 
#    2.571    2.143    0.000    0.429    0.000    4.000 
#    0.000    0.000    0.000    0.000    0.000    0.000 
#
# Total GULP energy -347050.663272 kJ/mol
# GULP energy per Si atom -12394.666545 kJ/mol
# Density = 1.957903 g / cm^3
# Si number density = 19.623698 Si / 1000 Ang^3
#
#
#
# Elastic Constant Matrix: (Units=GPa)
#
#
# Indices 1 2 3 4 5 6 
#
# 1 109.3451 64.1524 46.1393 0.0000 -9.3932 0.0000
# 2 64.1524 121.9460 37.1284 0.0000 -21.9167 0.0000
# 3 46.1393 37.1284 83.6084 0.0000 -14.0002 0.0000
# 4 0.0000 0.0000 0.0000 24.1466 0.0000 -13.6297
# 5 -9.3932 -21.9167 -14.0002 0.0000 30.0489 0.0000
# 6 0.0000 0.0000 0.0000 -13.6297 0.0000 37.4413
#
#
#
# Elastic Compliance Matrix: (Units=1/GPa)
#
#
# Indices 1 2 3 4 5 6 
#
# 1 0.015412 -0.006818 -0.005969 0.000000 -0.002936 0.000000
# 2 -0.006818 0.013372 -0.000976 0.000000 0.007168 0.000000
# 3 -0.005969 -0.000976 0.016547 0.000000 0.005132 0.000000
# 4 0.000000 0.000000 0.000000 0.052124 0.000000 0.018975
# 5 -0.002936 0.007168 0.005132 0.000000 0.039980 0.000000
# 6 0.000000 0.000000 0.000000 0.018975 0.000000 0.033616
#
#
# Mechanical properties :
#
#
# Convention : Reuss Voigt Hill
#
# Bulk Modulus (GPa) = 56.16065 67.74887 61.95476
# Shear Modulus (GPa) = 24.44842 29.49265 26.97053
#
# Velocity S-wave (km/s) = 3.53351 3.88094 3.71129
# Velocity P-wave (km/s) = 6.73264 7.39468 7.07141
#
# Compressibility (1/GPa) = 0.01780606
#
# Stress axis : x y z
#
# Youngs Moduli (GPa) = 64.88433 74.78072 60.43353
#
# Poissons Ratio (x) = 0.50987 0.36073
# Poissons Ratio (y) = 0.44239 0.05895
# Poissons Ratio (z) = 0.38730 0.07295
#
# Static dielectric constant tensor:
#      x y z
#    x 3.570980 0.000000 -0.333570 
#    y 0.000000 3.721820 0.000000 
#    z -0.333570 0.000000 3.586190 
# 
# 
# High freq. dielectric constant tensor:
#      x y z
#    x 1.745030 0.000000 -0.031340 
#    y 0.000000 1.755600 0.000000 
#    z -0.031340 0.000000 1.758430 
# 
# From -- ./inp_files/22283.got.cif
#   From: 2010.06.25/outbox.cif.g09.slc.cpg/sg12_12_cif.got.tgz:22283.got - 2010.06.28 00:19:55.
