data_PCOD8100614
_publ_section_title
;
Structure prediction by ZEFSAII (Michael W. Deem and Ramdas Pophale) SiO2 
 PCOD8100614
Probable space group: C 2/M
;
_chemical_formula_sum "Si O2"
_cell_formula_units_Z 64
_cell_length_a 32.441122
_cell_length_b 14.375698
_cell_length_c 8.959978
_cell_angle_alpha 90.000000
_cell_angle_beta 133.313749
_cell_angle_gamma 90.000000
_cell_volume 3040.390127
_symmetry_space_group_name_H-M "C 2/M"
_symmetry_group_IT_number 12
_symmetry_cell_setting 'monoclinic'
loop_
_space_group_symop_operation_xyz
x,y,z
-x,y,-z
-x,-y,-z
x,-y,z
1/2+x,1/2+y,z
1/2-x,1/2+y,-z
1/2-x,1/2-y,-z
1/2+x,1/2-y,z
loop_
_atom_site_type_symbol
_atom_site_label
_atom_site_fract_x
_atom_site_fract_y
_atom_site_fract_z
Si Si1 0.749987 0.897657 0.680174
Si Si2 0.623246 0.603269 0.937748
Si Si3 0.789072 0.393414 0.738643
Si Si4 0.599298 0.775906 0.063005
Si Si5 0.592168 0.255929 0.396099
Si Si6 0.544154 0.395660 0.484966
Si Si7 0.506993 0.896501 0.193378
Si Si8 0.283779 0.729804 0.232963
O O1 0.751429 0.890431 0.505660
O O2 0.709025 0.821130 0.645992
O O3 0.728839 0.000000 0.677173
O O4 0.810767 0.873653 0.897583
O O5 0.612029 0.500000 0.978156
O O6 0.604654 0.606135 0.719436
O O7 0.590812 0.679596 0.954787
O O8 0.807287 0.500000 0.820192
O O9 0.843707 0.329806 0.843557
O O10 0.749949 0.354350 0.773489
O O11 0.599112 0.746084 0.235510
O O12 0.547767 0.841464 0.883571
O O13 0.546658 0.332714 0.341766
O O14 0.565657 0.156430 0.380827
O O15 0.649512 0.288005 0.624135
O O16 0.500000 0.358490 0.500000
O O17 0.527103 0.500000 0.392608
O O18 0.509447 0.000000 0.270321
O O19 0.500000 0.903793 0.000000
O O20 0.250000 0.750000 0.000000
#
# Coordination Sequence:
#
# PCOD8100614 Si02
#       8
#     8   8   8   8   8   8   8   8
#     4  10  20  37  60  87 121 162 207 255 314 381
#     4  10  20  35  60  88 119 164 206 253 315 381
#     4  11  23  40  64  92 127 171 215 262 321 389
#     4  11  20  38  67  93 130 160 214 269 322 381
#     4  11  23  37  63  94 123 163 212 265 320 375
#     4  10  22  41  61  85 121 166 211 254 319 387
#     4   9  20  38  60  90 123 161 207 258 315 375
#     4  12  24  39  60  91 131 166 210 265 320 386
#
# _framework density 21.049931000000001
#
# number of rings (size 3 to 8) (size 9 to 14) (size 15 to 20)
#    0.000    1.500    2.500    3.000    0.000    2.500 
#    0.000    0.000    0.000    5.625    0.000    0.000 
#    0.000    0.000    0.000    0.000    0.000    0.000 
#
# Total GULP energy -396581.770273 kJ/mol
# GULP energy per Si atom -12393.180321 kJ/mol
# Density = 2.100202 g / cm^3
# Si number density = 21.049931 Si / 1000 Ang^3
#
#
#
# Elastic Constant Matrix: (Units=GPa)
#
#
# Indices 1 2 3 4 5 6 
#
# 1 86.6528 59.8273 26.3937 0.0000 14.6986 0.0000
# 2 59.8273 148.6090 11.3293 0.0000 -6.1747 0.0000
# 3 26.3937 11.3293 52.1473 0.0000 2.8172 0.0000
# 4 0.0000 0.0000 0.0000 24.8551 0.0000 1.3559
# 5 14.6986 -6.1747 2.8172 0.0000 25.9406 0.0000
# 6 0.0000 0.0000 0.0000 1.3559 0.0000 26.0887
#
#
#
# Elastic Compliance Matrix: (Units=1/GPa)
#
#
# Indices 1 2 3 4 5 6 
#
# 1 0.022993 -0.009172 -0.008875 0.000000 -0.014248 0.000000
# 2 -0.009172 0.010586 0.001937 0.000000 0.007506 0.000000
# 3 -0.008875 0.001937 0.023087 0.000000 0.002983 0.000000
# 4 0.000000 0.000000 0.000000 0.040348 0.000000 -0.002097
# 5 -0.014248 0.007506 0.002983 0.000000 0.048086 0.000000
# 6 0.000000 0.000000 0.000000 -0.002097 0.000000 0.038440
#
#
# Mechanical properties :
#
#
# Convention : Reuss Voigt Hill
#
# Bulk Modulus (GPa) = 40.90848 53.61220 47.26034
# Shear Modulus (GPa) = 22.33069 28.03412 25.18241
#
# Velocity S-wave (km/s) = 3.26059 3.65333 3.46253
# Velocity P-wave (km/s) = 5.80099 6.58180 6.20369
#
# Compressibility (1/GPa) = 0.02444481
#
# Stress axis : x y z
#
# Youngs Moduli (GPa) = 43.49160 94.46660 43.31518
#
# Poissons Ratio (x) = 0.86644 0.38443
# Poissons Ratio (y) = 0.39890 -0.08390
# Poissons Ratio (z) = 0.38600 -0.18297
#
# Static dielectric constant tensor:
#      x y z
#    x 3.730120 0.000000 0.169140 
#    y 0.000000 4.155540 0.000000 
#    z 0.169140 0.000000 3.706210 
# 
# 
# High freq. dielectric constant tensor:
#      x y z
#    x 1.815650 0.000000 0.017460 
#    y 0.000000 1.837770 0.000000 
#    z 0.017460 0.000000 1.816240 
# 
# From -- ./inp_files/112042.got.cif
#   From: 2010.06.25/outbox.cif.g09.slc.cpg/sg12_57_cif.got.tgz:112042.got - 2010.06.28 00:19:55.
