data_PCOD8100014
_publ_section_title
;
Structure prediction by ZEFSAII (Michael W. Deem and Ramdas Pophale) SiO2 
 PCOD8100014
Probable space group: C 2/M
;
_chemical_formula_sum "Si O2"
_cell_formula_units_Z 56
_cell_length_a 30.576828
_cell_length_b 8.777428
_cell_length_c 18.314077
_cell_angle_alpha 90.000000
_cell_angle_beta 144.471694
_cell_angle_gamma 90.000000
_cell_volume 2856.271045
_symmetry_space_group_name_H-M "C 2/M"
_symmetry_group_IT_number 12
_symmetry_cell_setting 'monoclinic'
loop_
_space_group_symop_operation_xyz
x,y,z
-x,y,-z
-x,-y,-z
x,-y,z
1/2+x,1/2+y,z
1/2-x,1/2+y,-z
1/2-x,1/2-y,-z
1/2+x,1/2-y,z
loop_
_atom_site_type_symbol
_atom_site_label
_atom_site_fract_x
_atom_site_fract_y
_atom_site_fract_z
Si Si1 0.671526 0.178392 0.870000
Si Si2 0.913472 0.680916 0.390523
Si Si3 0.731795 0.819254 0.553769
Si Si4 0.612581 0.325196 0.494580
Si Si5 0.954003 0.175288 0.210578
Si Si6 0.015880 0.181099 0.908149
Si Si7 0.884116 0.180237 0.827805
O O1 0.637801 0.238495 0.746926
O O2 0.612592 0.219437 0.852265
O O3 0.683235 0.000000 0.881460
O O4 0.750000 0.250000 0.000000
O O5 0.913145 0.500000 0.395806
O O6 0.873404 0.747172 0.408275
O O7 0.000000 0.739478 0.500000
O O8 0.750000 0.750000 0.500000
O O9 0.656349 0.755193 0.487571
O O10 0.799135 0.766694 0.699156
O O11 0.725862 0.000000 0.537929
O O12 0.638365 0.500000 0.532793
O O13 0.524431 0.309468 0.359599
O O14 0.975493 0.245087 0.161191
O O15 0.926836 0.000000 0.168579
O O16 0.938956 0.246219 0.839012
O O17 0.011701 0.000000 0.899071
O O18 0.087019 0.235780 0.053777
O O19 0.890000 0.000000 0.832061
#
# Coordination Sequence:
#
# PCOD8100014 Si02
#       7
#     8   8   8   8   8   8   8
#     4  11  24  41  62  87 119 154 194 246 305 365
#     4  10  21  41  65  87 116 157 204 250 299 363
#     4  11  22  36  55  82 118 155 197 246 300 359
#     4  11  23  37  59  90 120 154 198 248 303 364
#     4  10  20  35  57  85 115 147 192 242 295 360
#     4   8  14  28  52  78 105 140 183 231 283 343
#     4   8  15  29  50  76 106 142 185 233 283 338
#
# _framework density 19.605982999999998
#
# number of rings (size 3 to 8) (size 9 to 14) (size 15 to 20)
#    0.000    2.143    1.429    3.000    0.000    5.429 
#    0.000    2.857    0.000    0.857    0.000    6.000 
#    0.000    0.000    0.000    0.000    0.000    0.000 
#
# Total GULP energy -347128.188198 kJ/mol
# GULP energy per Si atom -12397.435293 kJ/mol
# Density = 1.956136 g / cm^3
# Si number density = 19.605983 Si / 1000 Ang^3
#
#
#
# Elastic Constant Matrix: (Units=GPa)
#
#
# Indices 1 2 3 4 5 6 
#
# 1 118.6946 28.3427 41.5620 0.0000 -12.7069 0.0000
# 2 28.3427 48.2608 33.1979 0.0000 0.7403 0.0000
# 3 41.5620 33.1979 109.6374 0.0000 -4.1880 0.0000
# 4 0.0000 0.0000 0.0000 23.7357 0.0000 0.4103
# 5 -12.7069 0.7403 -4.1880 0.0000 35.8982 0.0000
# 6 0.0000 0.0000 0.0000 0.4103 0.0000 33.4926
#
#
#
# Elastic Compliance Matrix: (Units=1/GPa)
#
#
# Indices 1 2 3 4 5 6 
#
# 1 0.010818 -0.004652 -0.002554 0.000000 0.003627 0.000000
# 2 -0.004652 0.028250 -0.006906 0.000000 -0.003035 0.000000
# 3 -0.002554 -0.006906 0.012206 0.000000 0.000662 0.000000
# 4 0.000000 0.000000 0.000000 0.042140 0.000000 -0.000516
# 5 0.003627 -0.003035 0.000662 0.000000 0.029280 0.000000
# 6 0.000000 0.000000 0.000000 -0.000516 0.000000 0.029864
#
#
# Mechanical properties :
#
#
# Convention : Reuss Voigt Hill
#
# Bulk Modulus (GPa) = 43.38540 53.64420 48.51480
# Shear Modulus (GPa) = 26.52991 30.19133 28.36062
#
# Velocity S-wave (km/s) = 3.68251 3.92842 3.80745
# Velocity P-wave (km/s) = 6.34491 6.92800 6.64286
#
# Compressibility (1/GPa) = 0.02304923
#
# Stress axis : x y z
#
# Youngs Moduli (GPa) = 92.43428 35.39772 81.92928
#
# Poissons Ratio (x) = 0.16468 0.20923
# Poissons Ratio (y) = 0.43004 0.56584
# Poissons Ratio (z) = 0.23606 0.24447
#
# Static dielectric constant tensor:
#      x y z
#    x 3.644720 0.000000 -0.074680 
#    y 0.000000 3.262740 0.000000 
#    z -0.074680 0.000000 3.949940 
# 
# 
# High freq. dielectric constant tensor:
#      x y z
#    x 1.769920 0.000000 -0.007210 
#    y 0.000000 1.732920 0.000000 
#    z -0.007210 0.000000 1.772400 
# 
# From -- ./inp_files/292507.got.cif
#   From: 2010.06.25/outbox.cif.g09.slc.cpg/sg12_147_cif.got.tgz:292507.got - 2010.06.28 00:19:55.
