data_PCOD8100143
_publ_section_title
;
Structure prediction by ZEFSAII (Michael W. Deem and Ramdas Pophale) SiO2 
 PCOD8100143
Probable space group: C 2/M
;
_chemical_formula_sum "Si O2"
_cell_formula_units_Z 56
_cell_length_a 10.091608
_cell_length_b 15.643828
_cell_length_c 22.541963
_cell_angle_alpha 90.000000
_cell_angle_beta 55.446318
_cell_angle_gamma 90.000000
_cell_volume 2930.953412
_symmetry_space_group_name_H-M "C 2/M"
_symmetry_group_IT_number 12
_symmetry_cell_setting 'monoclinic'
loop_
_space_group_symop_operation_xyz
x,y,z
-x,y,-z
-x,-y,-z
x,-y,z
1/2+x,1/2+y,z
1/2-x,1/2+y,-z
1/2-x,1/2-y,-z
1/2+x,1/2-y,z
loop_
_atom_site_type_symbol
_atom_site_label
_atom_site_fract_x
_atom_site_fract_y
_atom_site_fract_z
Si Si1 0.061082 0.253947 0.549794
Si Si2 0.643823 0.403982 0.363369
Si Si3 0.547671 0.095712 0.640679
Si Si4 0.974953 0.398959 0.940605
Si Si5 0.368564 0.823687 0.788108
Si Si6 0.323598 0.601211 0.059511
Si Si7 0.327958 0.173843 0.213462
O O1 0.250000 0.250000 0.500000
O O2 0.000000 0.270563 0.500000
O O3 0.996899 0.165287 0.593910
O O4 0.000610 0.334190 0.603889
O O5 0.571076 0.500000 0.384571
O O6 0.735740 0.395095 0.277322
O O7 0.768127 0.389713 0.385824
O O8 0.431488 0.104247 0.727097
O O9 0.525220 0.000000 0.620587
O O10 0.983514 0.500000 0.941073
O O11 0.118696 0.368327 0.861849
O O12 0.801361 0.369229 0.959740
O O13 0.000000 0.359661 0.000000
O O14 0.227996 0.862988 0.863823
O O15 0.516353 0.789995 0.791068
O O16 0.298157 0.747830 0.767102
O O17 0.327509 0.500000 0.063240
O O18 0.500000 0.638284 0.000000
#
# Coordination Sequence:
#
# PCOD8100143 Si02
#       7
#     8   8   8   8   8   8   8
#     4  12  24  40  65  93 125 152 192 245 294 355
#     4  10  21  40  66  90 117 160 204 238 288 358
#     4  10  21  40  65  90 119 159 201 240 294 353
#     4   9  18  33  53  78 109 146 190 239 287 337
#     4  10  20  35  58  82 112 150 195 241 287 340
#     4   9  18  33  53  78 108 146 192 239 285 338
#     4  10  20  35  58  83 112 149 194 243 286 340
#
# _framework density 19.10641
#
# number of rings (size 3 to 8) (size 9 to 14) (size 15 to 20)
#    0.000    2.000    2.857    0.857    0.000    6.286 
#    0.000    2.857    0.000    1.714    0.000    0.000 
#    0.000    0.000    0.000    0.000    0.000    0.000 
#
# Total GULP energy -347201.627497 kJ/mol
# GULP energy per Si atom -12400.058125 kJ/mol
# Density = 1.906292 g / cm^3
# Si number density = 19.106410 Si / 1000 Ang^3
#
#
#
# Elastic Constant Matrix: (Units=GPa)
#
#
# Indices 1 2 3 4 5 6 
#
# 1 87.4807 48.2215 55.2324 0.0000 0.2283 0.0000
# 2 48.2215 104.4162 56.2673 0.0000 0.9152 0.0000
# 3 55.2324 56.2673 121.3420 -0.0001 2.3635 0.0000
# 4 0.0000 0.0000 -0.0001 30.5542 0.0000 -0.4952
# 5 0.2283 0.9152 2.3635 0.0000 32.6638 0.0000
# 6 0.0000 0.0000 0.0000 -0.4952 0.0000 27.9317
#
#
#
# Elastic Compliance Matrix: (Units=1/GPa)
#
#
# Indices 1 2 3 4 5 6 
#
# 1 0.017923 -0.005173 -0.005768 0.000000 0.000437 0.000000
# 2 -0.005173 0.014260 -0.004257 0.000000 -0.000055 0.000000
# 3 -0.005768 -0.004257 0.012856 0.000000 -0.000771 0.000000
# 4 0.000000 0.000000 0.000000 0.032738 0.000000 0.000580
# 5 0.000437 -0.000055 -0.000771 0.000000 0.030669 0.000000
# 6 0.000000 0.000000 0.000000 0.000580 0.000000 0.035812
#
#
# Mechanical properties :
#
#
# Convention : Reuss Voigt Hill
#
# Bulk Modulus (GPa) = 68.29008 70.29792 69.29400
# Shear Modulus (GPa) = 27.84964 28.46445 28.15704
#
# Velocity S-wave (km/s) = 3.82200 3.86396 3.84304
# Velocity P-wave (km/s) = 7.43616 7.53523 7.48586
#
# Compressibility (1/GPa) = 0.01464342
#
# Stress axis : x y z
#
# Youngs Moduli (GPa) = 55.79397 70.12389 77.78637
#
# Poissons Ratio (x) = 0.36274 0.44868
# Poissons Ratio (y) = 0.28861 0.33114
# Poissons Ratio (z) = 0.32182 0.29852
#
# Static dielectric constant tensor:
#      x y z
#    x 3.497570 0.000000 0.044570 
#    y 0.000000 3.377410 0.000000 
#    z 0.044570 0.000000 3.647880 
# 
# 
# High freq. dielectric constant tensor:
#      x y z
#    x 1.732190 0.000000 0.000880 
#    y 0.000000 1.735090 0.000000 
#    z 0.000880 0.000000 1.757000 
# 
# From -- ./inp_files/263422.got.cif
#   From: 2010.06.25/outbox.cif.g09.slc.cpg/sg12_132_cif.got.tgz:263422.got - 2010.06.28 00:19:55.
