data_PCOD8100611
_publ_section_title
;
Structure prediction by ZEFSAII (Michael W. Deem and Ramdas Pophale) SiO2 
 PCOD8100611
Probable space group: C 2/M
;
_chemical_formula_sum "Si O2"
_cell_formula_units_Z 40
_cell_length_a 11.563694
_cell_length_b 17.918096
_cell_length_c 18.591618
_cell_angle_alpha 90.000000
_cell_angle_beta 149.279052
_cell_angle_gamma 90.000000
_cell_volume 1967.909867
_symmetry_space_group_name_H-M "C 2/M"
_symmetry_group_IT_number 12
_symmetry_cell_setting 'monoclinic'
loop_
_space_group_symop_operation_xyz
x,y,z
-x,y,-z
-x,-y,-z
x,-y,z
1/2+x,1/2+y,z
1/2-x,1/2+y,-z
1/2-x,1/2-y,-z
1/2+x,1/2-y,z
loop_
_atom_site_type_symbol
_atom_site_label
_atom_site_fract_x
_atom_site_fract_y
_atom_site_fract_z
Si Si1 0.026047 0.915791 0.176320
Si Si2 0.888834 0.684985 0.012348
Si Si3 0.977382 0.295609 0.211390
Si Si4 0.218347 0.332894 0.573717
Si Si5 0.542006 0.087774 0.685851
O O1 0.154715 0.901446 0.319932
O O2 0.205285 0.898019 0.208848
O O3 0.942977 0.000000 0.127895
O O4 0.802411 0.866310 0.053072
O O5 0.062710 0.699394 0.172705
O O6 0.777071 0.762308 0.926595
O O7 0.000000 0.648153 0.000000
O O8 0.968848 0.378533 0.239811
O O9 0.124960 0.240936 0.341522
O O10 0.000000 0.307125 0.500000
O O11 0.148689 0.365561 0.459349
O O12 0.482773 0.000000 0.655160
#
# Coordination Sequence:
#
# PCOD8100611 Si02
#       5
#     8   8   8   8   8
#     4   9  19  36  57  85 114 149 187 227 281 331
#     4  10  23  37  56  80 114 154 191 232 272 332
#     4  10  22  36  57  84 114 149 190 232 279 330
#     4   9  18  34  59  85 112 148 184 232 277 336
#     4  10  20  35  60  88 117 143 182 237 283 333
#
# _framework density 20.326136000000002
#
# number of rings (size 3 to 8) (size 9 to 14) (size 15 to 20)
#    0.000    2.400    0.000    1.200   11.200    3.600 
#    0.000    2.000    0.000    0.600    0.000    0.000 
#    0.000    0.000    0.000    0.000    0.000    0.000 
#
# Total GULP energy -247773.740679 kJ/mol
# GULP energy per Si atom -12388.687034 kJ/mol
# Density = 2.027987 g / cm^3
# Si number density = 20.326136 Si / 1000 Ang^3
#
#
#
# Elastic Constant Matrix: (Units=GPa)
#
#
# Indices 1 2 3 4 5 6 
#
# 1 89.5696 55.2726 42.9163 -0.0045 -21.5209 0.0009
# 2 55.2726 117.0618 51.1809 -0.0007 -15.4076 0.0014
# 3 42.9163 51.1809 81.9070 -0.0072 -12.2873 0.0020
# 4 -0.0045 -0.0007 -0.0072 25.6448 -0.0054 -2.7207
# 5 -21.5209 -15.4076 -12.2873 -0.0054 24.9564 0.0020
# 6 0.0009 0.0014 0.0020 -2.7207 0.0020 24.9281
#
#
#
# Elastic Compliance Matrix: (Units=1/GPa)
#
#
# Indices 1 2 3 4 5 6 
#
# 1 0.019764 -0.005609 -0.005197 0.000004 0.011022 0.000000
# 2 -0.005609 0.013714 -0.005491 -0.000002 0.000926 0.000000
# 3 -0.005197 -0.005491 0.018553 0.000004 0.001262 -0.000001
# 4 0.000004 -0.000002 0.000004 0.039451 0.000013 0.004306
# 5 0.011022 0.000926 0.001262 0.000013 0.050768 -0.000003
# 6 0.000000 0.000000 -0.000001 0.004306 -0.000003 0.040585
#
#
# Mechanical properties :
#
#
# Convention : Reuss Voigt Hill
#
# Bulk Modulus (GPa) = 51.45289 65.25313 58.35301
# Shear Modulus (GPa) = 22.53176 24.38374 23.45775
#
# Velocity S-wave (km/s) = 3.33304 3.46732 3.40084
# Velocity P-wave (km/s) = 6.33884 6.94280 6.64768
#
# Compressibility (1/GPa) = 0.01943525
#
# Stress axis : x y z
#
# Youngs Moduli (GPa) = 50.59653 72.92020 53.89960
#
# Poissons Ratio (x) = 0.40900 0.28014
# Poissons Ratio (y) = 0.28379 0.29598
# Poissons Ratio (z) = 0.26298 0.40043
#
# Static dielectric constant tensor:
#      x y z
#    x 3.521400 0.000000 -0.119700 
#    y 0.000000 3.565310 0.000000 
#    z -0.119700 0.000000 3.893120 
# 
# 
# High freq. dielectric constant tensor:
#      x y z
#    x 1.768040 0.000000 -0.017800 
#    y 0.000000 1.788680 0.000000 
#    z -0.017800 0.000000 1.796470 
# 
# From -- ./inp_files/132328.got.cif
#   From: 2010.06.25/outbox.cif.g09.slc.cpg/sg12_67_cif.got.tgz:132328.got - 2010.06.28 00:19:55.
