data_PCOD8100458
_publ_section_title
;
Structure prediction by ZEFSAII (Michael W. Deem and Ramdas Pophale) SiO2 
 PCOD8100458
Probable space group: C 2/M
;
_chemical_formula_sum "Si O2"
_cell_formula_units_Z 64
_cell_length_a 31.913075
_cell_length_b 13.979865
_cell_length_c 9.682101
_cell_angle_alpha 90.000000
_cell_angle_beta 51.203973
_cell_angle_gamma 90.000000
_cell_volume 3366.598174
_symmetry_space_group_name_H-M "C 2/M"
_symmetry_group_IT_number 12
_symmetry_cell_setting 'monoclinic'
loop_
_space_group_symop_operation_xyz
x,y,z
-x,y,-z
-x,-y,-z
x,-y,z
1/2+x,1/2+y,z
1/2-x,1/2+y,-z
1/2-x,1/2-y,-z
1/2+x,1/2-y,z
loop_
_atom_site_type_symbol
_atom_site_label
_atom_site_fract_x
_atom_site_fract_y
_atom_site_fract_z
Si Si1 0.953095 0.231766 0.992878
Si Si2 0.801046 0.719099 0.476754
Si Si3 0.156783 0.108765 0.033138
Si Si4 0.869369 0.609420 0.827856
Si Si5 0.869506 0.392097 0.141947
Si Si6 0.223329 0.387773 0.194929
Si Si7 0.947301 0.770219 0.692899
Si Si8 0.638958 0.609241 0.756512
O O1 0.916189 0.322893 0.093388
O O2 0.924145 0.131740 0.092010
O O3 0.971489 0.231170 0.796527
O O4 0.000000 0.248409 0.000000
O O5 0.750000 0.750000 0.500000
O O6 0.821755 0.628410 0.346244
O O7 0.791745 0.682729 0.649766
O O8 0.838478 0.814685 0.401458
O O9 0.106796 0.165109 0.203503
O O10 0.140902 0.000000 0.091563
O O11 0.214971 0.133442 0.981394
O O12 0.165818 0.128464 0.850935
O O13 0.885330 0.500000 0.769186
O O14 0.818192 0.638498 0.841102
O O15 0.924555 0.668356 0.684444
O O16 0.850959 0.629894 0.023295
O O17 0.889812 0.500000 0.114821
O O18 0.218600 0.500000 0.247064
O O19 0.000000 0.804850 0.500000
O O20 0.647257 0.500000 0.688370
#
# Coordination Sequence:
#
# PCOD8100458 Si02
#       8
#     8   8   8   8   8   8   8   8
#     4   9  19  35  56  78 105 142 189 228 278 335
#     4  11  20  31  53  85 112 142 182 224 264 318
#     4   9  18  35  56  79 109 148 185 220 274 336
#     4   9  20  38  58  82 113 151 184 219 277 341
#     4   9  19  36  55  80 115 144 178 227 276 325
#     4  10  20  35  59  86 115 148 184 222 273 340
#     4  10  21  36  56  80 107 142 187 239 281 316
#     4   9  18  33  52  76 112 150 181 218 272 331
#
# _framework density 19.010287000000002
#
# number of rings (size 3 to 8) (size 9 to 14) (size 15 to 20)
#    0.000    2.500    1.250    1.125    0.000    4.000 
#    0.000    0.000    0.000    2.250    0.000    0.000 
#    0.000    0.000    0.000    0.000    0.000    0.000 
#
# Total GULP energy -396481.148358 kJ/mol
# GULP energy per Si atom -12390.035886 kJ/mol
# Density = 1.896702 g / cm^3
# Si number density = 19.010287 Si / 1000 Ang^3
#
#
#
# Elastic Constant Matrix: (Units=GPa)
#
#
# Indices 1 2 3 4 5 6 
#
# 1 141.6570 40.8910 48.4919 0.0000 3.7025 0.0000
# 2 40.8910 102.8089 42.9979 0.0000 -2.3057 0.0000
# 3 48.4919 42.9979 81.1008 0.0000 -16.9738 0.0000
# 4 0.0000 0.0000 0.0000 21.1319 0.0000 2.0562
# 5 3.7025 -2.3057 -16.9738 0.0000 19.1926 0.0000
# 6 0.0000 0.0000 0.0000 2.0562 0.0000 20.3959
#
#
#
# Elastic Compliance Matrix: (Units=1/GPa)
#
#
# Indices 1 2 3 4 5 6 
#
# 1 0.010072 -0.001208 -0.007140 0.000000 -0.008403 0.000000
# 2 -0.001208 0.013107 -0.007177 0.000000 -0.004539 0.000000
# 3 -0.007140 -0.007177 0.025172 0.000000 0.022777 0.000000
# 4 0.000000 0.000000 0.000000 0.047791 0.000000 -0.004818
# 5 -0.008403 -0.004539 0.022777 0.000000 0.073323 0.000000
# 6 0.000000 0.000000 0.000000 -0.004818 0.000000 0.049515
#
#
# Mechanical properties :
#
#
# Convention : Reuss Voigt Hill
#
# Bulk Modulus (GPa) = 57.80295 65.59202 61.69749
# Shear Modulus (GPa) = 19.54675 25.02315 22.28495
#
# Velocity S-wave (km/s) = 3.21007 3.63201 3.42754
# Velocity P-wave (km/s) = 6.64917 7.22268 6.94185
#
# Compressibility (1/GPa) = 0.01730015
#
# Stress axis : x y z
#
# Youngs Moduli (GPa) = 99.28536 76.29489 39.72702
#
# Poissons Ratio (x) = 0.09217 0.28367
# Poissons Ratio (y) = 0.11995 0.28511
# Poissons Ratio (z) = 0.70894 0.54755
#
# Static dielectric constant tensor:
#      x y z
#    x 3.540100 0.000000 0.024780 
#    y 0.000000 3.474440 0.000000 
#    z 0.024780 0.000000 3.948670 
# 
# 
# High freq. dielectric constant tensor:
#      x y z
#    x 1.732890 0.000000 -0.005290 
#    y 0.000000 1.749050 0.000000 
#    z -0.005290 0.000000 1.717200 
# 
# From -- ./inp_files/111601.got.cif
#   From: 2010.06.25/outbox.cif.g09.slc.cpg/sg12_56_cif.got.tgz:111601.got - 2010.06.28 00:19:55.
