data_PCOD8100362
_publ_section_title
;
Structure prediction by ZEFSAII (Michael W. Deem and Ramdas Pophale) SiO2 
 PCOD8100362
Probable space group: C 2/M
;
_chemical_formula_sum "Si O2"
_cell_formula_units_Z 64
_cell_length_a 28.831809
_cell_length_b 8.779326
_cell_length_c 15.337725
_cell_angle_alpha 90.000000
_cell_angle_beta 53.985712
_cell_angle_gamma 90.000000
_cell_volume 3140.313118
_symmetry_space_group_name_H-M "C 2/M"
_symmetry_group_IT_number 12
_symmetry_cell_setting 'monoclinic'
loop_
_space_group_symop_operation_xyz
x,y,z
-x,y,-z
-x,-y,-z
x,-y,z
1/2+x,1/2+y,z
1/2-x,1/2+y,-z
1/2-x,1/2-y,-z
1/2+x,1/2-y,z
loop_
_atom_site_type_symbol
_atom_site_label
_atom_site_fract_x
_atom_site_fract_y
_atom_site_fract_z
Si Si1 0.736548 0.178801 0.422539
Si Si2 0.587231 0.824635 0.181365
Si Si3 0.026142 0.175077 0.742924
Si Si4 0.180997 0.818319 0.821117
Si Si5 0.620359 0.323186 0.499338
Si Si6 0.435755 0.824688 0.592495
Si Si7 0.058822 0.177013 0.898058
Si Si8 0.298217 0.321179 0.007935
O O1 0.750000 0.250000 0.500000
O O2 0.778359 0.244887 0.300872
O O3 0.672002 0.217572 0.470599
O O4 0.744998 0.000000 0.420638
O O5 0.530417 0.778343 0.191579
O O6 0.576760 0.793566 0.293840
O O7 0.639283 0.719737 0.095348
O O8 0.601790 0.000000 0.146061
O O9 0.065941 0.222178 0.618346
O O10 0.062387 0.203149 0.790523
O O11 0.006518 0.000000 0.757188
O O12 0.116341 0.752251 0.877994
O O13 0.179195 0.000000 0.819846
O O14 0.206139 0.763315 0.886733
O O15 0.636591 0.500000 0.492121
O O16 0.606285 0.284109 0.415144
O O17 0.500000 0.775326 0.500000
O O18 0.424771 0.000000 0.578627
O O19 0.057507 0.000000 0.923997
O O20 0.000000 0.252946 0.000000
O O21 0.289247 0.500000 0.014114
O O22 0.250000 0.250000 0.000000
#
# Coordination Sequence:
#
# PCOD8100362 Si02
#       8
#     8   8   8   8   8   8   8   8
#     4  11  23  41  64  90 124 166 209 253 306 369
#     4  11  23  39  61  87 121 160 203 252 307 366
#     4  10  20  35  58  88 120 152 193 246 300 363
#     4   9  20  39  62  87 120 161 205 249 302 368
#     4  11  23  37  58  89 122 156 203 256 309 365
#     4  10  21  39  60  85 120 164 205 247 306 375
#     4   9  16  30  57  87 111 142 189 240 290 351
#     4  11  24  43  65  90 120 161 210 259 310 365
#
# _framework density 20.380133000000001
#
# number of rings (size 3 to 8) (size 9 to 14) (size 15 to 20)
#    0.000    1.750    1.250    3.000    1.750    5.750 
#    0.000    1.875    0.000    4.125    0.000    0.000 
#    0.000    0.000    0.000    0.000    0.000    0.000 
#
# Total GULP energy -396863.173412 kJ/mol
# GULP energy per Si atom -12401.974169 kJ/mol
# Density = 2.033375 g / cm^3
# Si number density = 20.380133 Si / 1000 Ang^3
#
#
#
# Elastic Constant Matrix: (Units=GPa)
#
#
# Indices 1 2 3 4 5 6 
#
# 1 150.3505 33.4426 61.7567 0.0000 6.3023 0.0000
# 2 33.4426 42.8664 33.0315 0.0000 4.1195 -0.0001
# 3 61.7567 33.0315 115.5914 0.0000 5.5102 0.0000
# 4 0.0000 0.0000 0.0000 26.8303 0.0000 -1.8980
# 5 6.3023 4.1195 5.5102 0.0000 32.0623 0.0000
# 6 0.0000 -0.0001 0.0000 -1.8980 0.0000 31.0585
#
#
#
# Elastic Compliance Matrix: (Units=1/GPa)
#
#
# Indices 1 2 3 4 5 6 
#
# 1 0.009112 -0.004258 -0.003622 0.000000 -0.000622 0.000000
# 2 -0.004258 0.032089 -0.006794 0.000000 -0.002118 0.000000
# 3 -0.003622 -0.006794 0.012555 0.000000 -0.000573 0.000000
# 4 0.000000 0.000000 0.000000 0.037433 0.000000 0.002288
# 5 -0.000622 -0.002118 -0.000573 0.000000 0.031682 0.000000
# 6 0.000000 0.000000 0.000000 0.002288 0.000000 0.032337
#
#
# Mechanical properties :
#
#
# Convention : Reuss Voigt Hill
#
# Bulk Modulus (GPa) = 40.96961 62.80775 51.88868
# Shear Modulus (GPa) = 25.94817 30.02873 27.98845
#
# Velocity S-wave (km/s) = 3.57208 3.84269 3.70985
# Velocity P-wave (km/s) = 6.09585 7.11150 6.62317
#
# Compressibility (1/GPa) = 0.02440834
#
# Stress axis : x y z
#
# Youngs Moduli (GPa) = 109.74552 31.16328 79.65048
#
# Poissons Ratio (x) = 0.13270 0.28848
# Poissons Ratio (y) = 0.46732 0.54113
# Poissons Ratio (z) = 0.39747 0.21172
#
# Static dielectric constant tensor:
#      x y z
#    x 3.486380 0.000000 -0.015690 
#    y 0.000000 3.429990 0.000000 
#    z -0.015690 0.000000 3.889110 
# 
# 
# High freq. dielectric constant tensor:
#      x y z
#    x 1.810610 0.000000 0.004340 
#    y 0.000000 1.766770 0.000000 
#    z 0.004340 0.000000 1.808280 
# 
# From -- ./inp_files/249841.got.cif
#   From: 2010.06.25/outbox.cif.g09.slc.cpg/sg12_125_cif.got.tgz:249841.got - 2010.06.28 00:19:55.
