data_PCOD8100163
_publ_section_title
;
Structure prediction by ZEFSAII (Michael W. Deem and Ramdas Pophale) SiO2 
 PCOD8100163
Probable space group: C 2/M
;
_chemical_formula_sum "Si O2"
_cell_formula_units_Z 56
_cell_length_a 18.520820
_cell_length_b 9.191158
_cell_length_c 19.712774
_cell_angle_alpha 90.000000
_cell_angle_beta 116.532346
_cell_angle_gamma 90.000000
_cell_volume 3002.251298
_symmetry_space_group_name_H-M "C 2/M"
_symmetry_group_IT_number 12
_symmetry_cell_setting 'monoclinic'
loop_
_space_group_symop_operation_xyz
x,y,z
-x,y,-z
-x,-y,-z
x,-y,z
1/2+x,1/2+y,z
1/2-x,1/2+y,-z
1/2-x,1/2-y,-z
1/2+x,1/2-y,z
loop_
_atom_site_type_symbol
_atom_site_label
_atom_site_fract_x
_atom_site_fract_y
_atom_site_fract_z
Si Si1 0.271632 0.666800 0.409633
Si Si2 0.980805 0.671510 0.300229
Si Si3 0.175542 0.831044 0.717601
Si Si4 0.340352 0.831604 0.861429
Si Si5 0.417975 0.664187 0.007539
Si Si6 0.001624 0.330959 0.153664
Si Si7 0.369481 0.668746 0.584389
O O1 0.241276 0.500000 0.396788
O O2 0.312247 0.708091 0.355885
O O3 0.338084 0.694119 0.495131
O O4 0.193681 0.766605 0.388214
O O5 0.985226 0.500000 0.314101
O O6 0.893000 0.728216 0.282177
O O7 0.999683 0.714676 0.230943
O O8 0.045770 0.749049 0.375499
O O9 0.256074 0.791896 0.792110
O O10 0.151993 0.000000 0.716605
O O11 0.348339 0.742124 0.934630
O O12 0.410231 0.789107 0.837467
O O13 0.346644 0.000000 0.883343
O O14 0.390616 0.500000 0.010713
O O15 0.500000 0.672236 0.000000
O O16 0.431398 0.744121 0.084779
O O17 0.982907 0.500000 0.135640
O O18 0.381986 0.500000 0.606285
#
# Coordination Sequence:
#
# PCOD8100163 Si02
#       7
#     8   8   8   8   8   8   8
#     4   9  19  37  59  82 108 138 175 219 264 312
#     4  11  23  37  53  76 109 144 179 220 264 312
#     4  10  21  37  55  76 106 143 181 218 261 314
#     4   9  17  32  55  77  99 133 174 214 259 314
#     4   9  17  29  49  79 108 130 161 213 266 309
#     4   9  18  34  55  76 100 135 176 215 259 312
#     4  10  20  35  58  84 108 137 175 219 265 314
#
# _framework density 18.652670000000001
#
# number of rings (size 3 to 8) (size 9 to 14) (size 15 to 20)
#    0.000    2.429    0.000    2.143    0.000    7.429 
#    0.000    6.429    0.000    0.000    0.000    0.000 
#    0.000    0.000    0.000    0.000    0.000    0.000 
#
# Total GULP energy -347301.804879 kJ/mol
# GULP energy per Si atom -12403.635889 kJ/mol
# Density = 1.861022 g / cm^3
# Si number density = 18.652670 Si / 1000 Ang^3
#
#
#
# Elastic Constant Matrix: (Units=GPa)
#
#
# Indices 1 2 3 4 5 6 
#
# 1 83.1861 51.7800 51.4118 0.0000 17.4863 0.0000
# 2 51.7800 96.7320 63.0564 0.0000 10.4071 0.0000
# 3 51.4118 63.0564 109.3395 0.0000 17.8627 0.0000
# 4 0.0000 0.0000 0.0000 28.4957 0.0000 3.7967
# 5 17.4863 10.4071 17.8627 0.0000 10.5655 0.0000
# 6 0.0000 0.0000 0.0000 3.7967 0.0000 32.4192
#
#
#
# Elastic Compliance Matrix: (Units=1/GPa)
#
#
# Indices 1 2 3 4 5 6 
#
# 1 0.024880 -0.009070 -0.001659 0.000000 -0.029440 0.000000
# 2 -0.009070 0.019872 -0.008911 0.000000 0.010503 0.000000
# 3 -0.001659 -0.008911 0.018213 0.000000 -0.019269 0.000000
# 4 0.000000 0.000000 0.000000 0.035649 0.000000 -0.004175
# 5 -0.029440 0.010503 -0.019269 0.000000 0.165604 0.000000
# 6 0.000000 0.000000 0.000000 -0.004175 0.000000 0.031335
#
#
# Mechanical properties :
#
#
# Convention : Reuss Voigt Hill
#
# Bulk Modulus (GPa) = 42.21993 69.08378 55.65186
# Shear Modulus (GPa) = 14.58883 22.49671 18.54277
#
# Velocity S-wave (km/s) = 2.79969 3.47664 3.15637
# Velocity P-wave (km/s) = 5.75630 7.29612 6.57147
#
# Compressibility (1/GPa) = 0.02368550
#
# Stress axis : x y z
#
# Youngs Moduli (GPa) = 40.19224 50.32249 54.90597
#
# Poissons Ratio (x) = 0.45641 0.09108
# Poissons Ratio (y) = 0.36453 0.48929
# Poissons Ratio (z) = 0.06667 0.44844
#
# Static dielectric constant tensor:
#      x y z
#    x 3.174830 0.000000 -0.005270 
#    y 0.000000 3.455330 0.000000 
#    z -0.005270 0.000000 3.575050 
# 
# 
# High freq. dielectric constant tensor:
#      x y z
#    x 1.700560 0.000000 0.002620 
#    y 0.000000 1.726190 0.000000 
#    z 0.002620 0.000000 1.737540 
# 
# From -- ./inp_files/313671.got.cif
#   From: 2010.06.25/outbox.cif.g09.slc.cpg/sg12_157_cif.got.tgz:313671.got - 2010.06.28 00:19:55.
