data_PCOD8100330
_publ_section_title
;
Structure prediction by ZEFSAII (Michael W. Deem and Ramdas Pophale) SiO2 
 PCOD8100330
Probable space group: C 2/M
;
_chemical_formula_sum "Si O2"
_cell_formula_units_Z 64
_cell_length_a 15.497773
_cell_length_b 8.929703
_cell_length_c 32.859641
_cell_angle_alpha 90.000000
_cell_angle_beta 134.413612
_cell_angle_gamma 90.000000
_cell_volume 3248.281722
_symmetry_space_group_name_H-M "C 2/M"
_symmetry_group_IT_number 12
_symmetry_cell_setting 'monoclinic'
loop_
_space_group_symop_operation_xyz
x,y,z
-x,y,-z
-x,-y,-z
x,-y,z
1/2+x,1/2+y,z
1/2-x,1/2+y,-z
1/2-x,1/2-y,-z
1/2+x,1/2-y,z
loop_
_atom_site_type_symbol
_atom_site_label
_atom_site_fract_x
_atom_site_fract_y
_atom_site_fract_z
Si Si1 0.635760 0.672161 0.371763
Si Si2 0.950966 0.323611 0.362503
Si Si3 0.657293 0.326031 0.872475
Si Si4 0.524846 0.176165 0.126898
Si Si5 0.274301 0.172801 0.743255
Si Si6 0.399982 0.821662 0.435891
Si Si7 0.948791 0.169008 0.743462
Si Si8 0.594198 0.671407 0.067247
O O1 0.643204 0.500000 0.387570
O O2 0.581115 0.765867 0.390851
O O3 0.768757 0.736259 0.406317
O O4 0.548229 0.692625 0.303847
O O5 0.950655 0.500000 0.362070
O O6 0.849048 0.265732 0.297706
O O7 0.927610 0.259609 0.399981
O O8 0.682923 0.500000 0.889751
O O9 0.585829 0.258374 0.887296
O O10 0.581338 0.304502 0.805793
O O11 0.781602 0.240605 0.907558
O O12 0.650613 0.210817 0.191339
O O13 0.538025 0.236357 0.085879
O O14 0.496853 0.000000 0.117146
O O15 0.354351 0.214598 0.730687
O O16 0.239497 0.000000 0.729506
O O17 0.500000 0.758497 0.500000
O O18 0.401418 0.000000 0.435482
O O19 0.903552 0.000000 0.738781
O O20 0.616037 0.500000 0.087801
O O21 0.500000 0.682360 0.000000
#
# Coordination Sequence:
#
# PCOD8100330 Si02
#       8
#     8   8   8   8   8   8   8   8
#     4  10  20  36  57  84 118 154 191 237 292 346
#     4  11  22  36  56  86 117 152 196 240 290 348
#     4  10  21  38  62  90 121 156 197 244 296 356
#     4  10  22  40  62  89 120 157 199 245 296 353
#     4  10  20  35  58  87 120 153 191 238 292 348
#     4   9  19  38  61  81 111 157 200 239 288 345
#     4   9  18  35  58  85 118 154 191 233 291 353
#     4  11  25  43  62  87 120 158 202 247 293 351
#
# _framework density 19.702724
#
# number of rings (size 3 to 8) (size 9 to 14) (size 15 to 20)
#    0.000    2.000    1.250    1.875    1.750    4.500 
#    0.000    0.000    0.000    2.625    0.000    0.000 
#    0.000    0.000    0.000    0.000    0.000    0.000 
#
# Total GULP energy -396876.007857 kJ/mol
# GULP energy per Si atom -12402.375246 kJ/mol
# Density = 1.965788 g / cm^3
# Si number density = 19.702724 Si / 1000 Ang^3
#
#
#
# Elastic Constant Matrix: (Units=GPa)
#
#
# Indices 1 2 3 4 5 6 
#
# 1 137.3241 42.6829 57.9564 0.0000 7.7780 0.0000
# 2 42.6829 70.9407 39.7775 0.0000 1.8270 0.0000
# 3 57.9564 39.7775 92.2144 0.0000 8.0874 0.0000
# 4 0.0000 0.0000 0.0000 18.6459 0.0000 0.4420
# 5 7.7780 1.8270 8.0874 0.0000 23.8984 0.0000
# 6 0.0000 0.0000 0.0000 0.4420 0.0000 38.3160
#
#
#
# Elastic Compliance Matrix: (Units=1/GPa)
#
#
# Indices 1 2 3 4 5 6 
#
# 1 0.010567 -0.003520 -0.004993 0.000000 -0.001480 0.000000
# 2 -0.003520 0.019807 -0.006492 0.000000 0.001828 0.000000
# 3 -0.004993 -0.006492 0.017105 0.000000 -0.003667 0.000000
# 4 0.000000 0.000000 0.000000 0.053646 0.000000 -0.000619
# 5 -0.001480 0.001828 -0.003667 0.000000 0.043427 0.000000
# 6 0.000000 0.000000 0.000000 -0.000619 0.000000 0.026106
#
#
# Mechanical properties :
#
#
# Convention : Reuss Voigt Hill
#
# Bulk Modulus (GPa) = 57.24636 64.59030 60.91833
# Shear Modulus (GPa) = 24.21409 26.84288 25.52848
#
# Velocity S-wave (km/s) = 3.50947 3.69507 3.60346
# Velocity P-wave (km/s) = 6.74833 7.14551 6.94976
#
# Compressibility (1/GPa) = 0.01746836
#
# Stress axis : x y z
#
# Youngs Moduli (GPa) = 94.63076 50.48640 58.46401
#
# Poissons Ratio (x) = 0.17772 0.29193
# Poissons Ratio (y) = 0.33311 0.37955
# Poissons Ratio (z) = 0.47252 0.32776
#
# Static dielectric constant tensor:
#      x y z
#    x 3.565610 0.000000 0.019900 
#    y 0.000000 3.538270 0.000000 
#    z 0.019900 0.000000 3.677980 
# 
# 
# High freq. dielectric constant tensor:
#      x y z
#    x 1.771390 0.000000 0.002360 
#    y 0.000000 1.760370 0.000000 
#    z 0.002360 0.000000 1.765780 
# 
# From -- ./inp_files/375527.got.cif
#   From: 2010.06.25/outbox.cif.g09.slc.cpg/sg12_188_cif.got.tgz:375527.got - 2010.06.28 00:19:55.
