data_PCOD8100421
_publ_section_title
;
Structure prediction by ZEFSAII (Michael W. Deem and Ramdas Pophale) SiO2 
 PCOD8100421
Probable space group: C 2/M
;
_chemical_formula_sum "Si O2"
_cell_formula_units_Z 48
_cell_length_a 8.562854
_cell_length_b 23.910134
_cell_length_c 16.278310
_cell_angle_alpha 90.000000
_cell_angle_beta 132.756932
_cell_angle_gamma 90.000000
_cell_volume 2447.079779
_symmetry_space_group_name_H-M "C 2/M"
_symmetry_group_IT_number 12
_symmetry_cell_setting 'monoclinic'
loop_
_space_group_symop_operation_xyz
x,y,z
-x,y,-z
-x,-y,-z
x,-y,z
1/2+x,1/2+y,z
1/2-x,1/2+y,-z
1/2-x,1/2-y,-z
1/2+x,1/2-y,z
loop_
_atom_site_type_symbol
_atom_site_label
_atom_site_fract_x
_atom_site_fract_y
_atom_site_fract_z
Si Si1 0.081803 0.000000 0.650031
Si Si2 0.153611 0.500000 0.421128
Si Si3 0.708217 0.621658 0.711363
Si Si4 0.201748 0.703508 0.127142
Si Si5 0.491851 0.117643 0.651840
Si Si6 0.661361 0.301822 0.235785
Si Si7 0.781127 0.192008 0.556399
O O1 0.152442 0.057962 0.718580
O O2 0.193912 0.000000 0.602470
O O3 0.824222 0.000000 0.556140
O O4 0.996661 0.552713 0.368199
O O5 0.838436 0.647195 0.834752
O O6 0.845813 0.625652 0.678950
O O7 0.502691 0.659869 0.621031
O O8 0.405574 0.695320 0.140668
O O9 0.248490 0.753613 0.207322
O O10 0.000000 0.717600 0.000000
O O11 0.730232 0.140056 0.755950
O O12 0.399941 0.150538 0.540818
O O13 0.743750 0.291477 0.357339
O O14 0.750000 0.250000 0.500000
#
# Coordination Sequence:
#
# PCOD8100421 Si02
#       7
#     4   4   8   8   8   8   8
#     4   9  16  34  56  85 112 153 193 224 261 337
#     4   9  18  32  56  84 118 158 187 211 268 330
#     4  10  20  35  59  83 112 150 195 230 274 329
#     4  11  23  42  61  81 107 144 193 246 291 333
#     4  11  20  35  56  86 120 152 185 221 270 340
#     4  11  24  37  55  84 112 147 187 230 290 336
#     4  11  21  33  52  83 120 153 182 222 274 342
#
# _framework density 19.615217000000001
#
# number of rings (size 3 to 8) (size 9 to 14) (size 15 to 20)
#    0.000    1.500    1.667    5.500    0.000    2.667 
#    0.000    5.417    0.000    0.000    0.000    4.083 
#    0.000    0.000    0.000    0.000    0.000    0.000 
#
# Total GULP energy -297471.077130 kJ/mol
# GULP energy per Si atom -12394.628214 kJ/mol
# Density = 1.957057 g / cm^3
# Si number density = 19.615217 Si / 1000 Ang^3
#
#
#
# Elastic Constant Matrix: (Units=GPa)
#
#
# Indices 1 2 3 4 5 6 
#
# 1 89.9225 52.3289 44.9576 0.0000 18.6897 0.0000
# 2 52.3289 178.8176 56.0579 0.0000 10.1673 0.0000
# 3 44.9576 56.0579 64.8077 0.0000 6.6461 0.0000
# 4 0.0000 0.0000 0.0000 17.7956 0.0000 0.5675
# 5 18.6897 10.1673 6.6461 0.0000 23.7474 0.0000
# 6 0.0000 0.0000 0.0000 0.5675 0.0000 26.2288
#
#
#
# Elastic Compliance Matrix: (Units=1/GPa)
#
#
# Indices 1 2 3 4 5 6 
#
# 1 0.020305 -0.001685 -0.011390 0.000000 -0.012071 0.000000
# 2 -0.001685 0.007863 -0.005584 0.000000 -0.000478 0.000000
# 3 -0.011390 -0.005584 0.027795 0.000000 0.003576 0.000000
# 4 0.000000 0.000000 0.000000 0.056232 0.000000 -0.001217
# 5 -0.012071 -0.000478 0.003576 0.000000 0.050814 0.000000
# 6 0.000000 0.000000 0.000000 -0.001217 0.000000 0.038152
#
#
# Mechanical properties :
#
#
# Convention : Reuss Voigt Hill
#
# Bulk Modulus (GPa) = 53.63346 71.13740 62.38543
# Shear Modulus (GPa) = 20.43375 25.56792 23.00083
#
# Velocity S-wave (km/s) = 3.23108 3.61428 3.42804
# Velocity P-wave (km/s) = 6.42822 7.33229 6.89509
#
# Compressibility (1/GPa) = 0.01864508
#
# Stress axis : x y z
#
# Youngs Moduli (GPa) = 49.24970 127.17966 35.97803
#
# Poissons Ratio (x) = 0.21428 0.40980
# Poissons Ratio (y) = 0.08298 0.20088
# Poissons Ratio (z) = 0.56097 0.71011
#
# Static dielectric constant tensor:
#      x y z
#    x 3.818470 0.000000 0.076080 
#    y 0.000000 3.993450 0.000000 
#    z 0.076080 0.000000 3.375090 
# 
# 
# High freq. dielectric constant tensor:
#      x y z
#    x 1.772200 0.000000 0.005700 
#    y 0.000000 1.771230 0.000000 
#    z 0.005700 0.000000 1.728220 
# 
# From -- ./inp_files/259045.got.cif
#   From: 2010.06.25/outbox.cif.g09.slc.cpg/sg12_130_cif.got.tgz:259045.got - 2010.06.28 00:19:55.
