data_PCOD8100064
_publ_section_title
;
Structure prediction by ZEFSAII (Michael W. Deem and Ramdas Pophale) SiO2 
 PCOD8100064
Probable space group: C 2/M
;
_chemical_formula_sum "Si O2"
_cell_formula_units_Z 56
_cell_length_a 20.947368
_cell_length_b 18.380918
_cell_length_c 14.811645
_cell_angle_alpha 90.000000
_cell_angle_beta 29.865526
_cell_angle_gamma 90.000000
_cell_volume 2839.878044
_symmetry_space_group_name_H-M "C 2/M"
_symmetry_group_IT_number 12
_symmetry_cell_setting 'monoclinic'
loop_
_space_group_symop_operation_xyz
x,y,z
-x,y,-z
-x,-y,-z
x,-y,z
1/2+x,1/2+y,z
1/2-x,1/2+y,-z
1/2-x,1/2-y,-z
1/2+x,1/2-y,z
loop_
_atom_site_type_symbol
_atom_site_label
_atom_site_fract_x
_atom_site_fract_y
_atom_site_fract_z
Si Si1 0.269795 0.919204 0.439054
Si Si2 0.775394 0.296820 0.105940
Si Si3 0.181908 0.702546 0.507399
Si Si4 0.434240 0.716844 0.769871
Si Si5 0.629124 0.320615 0.878548
Si Si6 0.140927 0.416085 0.861085
Si Si7 0.975627 0.917084 0.843105
O O1 0.368375 0.867016 0.373111
O O2 0.263980 0.898971 0.339636
O O3 0.129070 0.912294 0.654784
O O4 0.326659 0.000000 0.378736
O O5 0.627732 0.296227 0.252618
O O6 0.792282 0.231601 0.153803
O O7 0.812462 0.371992 0.108617
O O8 0.863326 0.281773 0.910761
O O9 0.250000 0.750000 0.500000
O O10 0.277915 0.664998 0.318878
O O11 0.078391 0.752636 0.583755
O O12 0.423362 0.639230 0.833072
O O13 0.500000 0.281238 0.000000
O O14 0.582660 0.393832 0.987826
O O15 0.145382 0.500000 0.884694
O O16 0.000000 0.393235 0.000000
O O17 0.931300 0.000000 0.876221
#
# Coordination Sequence:
#
# PCOD8100064 Si02
#       7
#     8   8   8   8   8   8   8
#     4  10  20  35  57  86 118 150 193 250 299 354
#     4  10  21  38  56  82 120 151 199 241 289 357
#     4  12  20  35  59  85 117 152 197 243 298 357
#     4  10  22  38  58  85 115 159 194 242 298 352
#     4  11  21  36  58  87 114 152 194 244 297 343
#     4  10  20  35  58  88 119 157 199 245 301 359
#     4  10  21  39  59  85 118 151 196 246 301 357
#
# _framework density 19.719156000000002
#
# number of rings (size 3 to 8) (size 9 to 14) (size 15 to 20)
#    0.000    1.571    2.857    3.000    0.000    2.000 
#    0.000    0.000    0.000    6.000    0.000   10.000 
#    0.000    0.000    0.000    0.000    0.000    0.000 
#
# Total GULP energy -346967.730346 kJ/mol
# GULP energy per Si atom -12391.704655 kJ/mol
# Density = 1.967427 g / cm^3
# Si number density = 19.719156 Si / 1000 Ang^3
#
#
#
# Elastic Constant Matrix: (Units=GPa)
#
#
# Indices 1 2 3 4 5 6 
#
# 1 148.7042 74.1673 41.7851 0.0000 -12.2653 0.0000
# 2 74.1673 132.2967 45.0493 0.0000 2.8145 0.0000
# 3 41.7851 45.0493 84.4232 0.0000 5.3867 -0.0001
# 4 0.0000 0.0000 0.0000 26.6069 0.0000 4.2642
# 5 -12.2653 2.8145 5.3867 0.0000 29.7497 0.0000
# 6 0.0000 0.0000 -0.0001 4.2642 0.0000 26.0954
#
#
#
# Elastic Compliance Matrix: (Units=1/GPa)
#
#
# Indices 1 2 3 4 5 6 
#
# 1 0.010458 -0.005008 -0.002842 0.000000 0.005300 0.000000
# 2 -0.005008 0.011635 -0.003569 0.000000 -0.002519 0.000000
# 3 -0.002842 -0.003569 0.015387 0.000000 -0.003620 0.000000
# 4 0.000000 0.000000 0.000000 0.038595 0.000000 -0.006307
# 5 0.005300 -0.002519 -0.003620 0.000000 0.036693 0.000000
# 6 0.000000 0.000000 0.000000 -0.006307 0.000000 0.039351
#
#
# Mechanical properties :
#
#
# Convention : Reuss Voigt Hill
#
# Bulk Modulus (GPa) = 68.29625 76.38084 72.33855
# Shear Modulus (GPa) = 27.80249 30.11858 28.96053
#
# Velocity S-wave (km/s) = 3.75897 3.91241 3.83645
# Velocity P-wave (km/s) = 7.31775 7.69595 7.50923
#
# Compressibility (1/GPa) = 0.01464209
#
# Stress axis : x y z
#
# Youngs Moduli (GPa) = 95.61741 85.94505 64.98806
#
# Poissons Ratio (x) = 0.43042 0.18471
# Poissons Ratio (y) = 0.47886 0.23196
# Poissons Ratio (z) = 0.27176 0.30677
#
# Static dielectric constant tensor:
#      x y z
#    x 3.680520 0.000000 0.112520 
#    y 0.000000 3.870070 0.000000 
#    z 0.112520 0.000000 3.679680 
# 
# 
# High freq. dielectric constant tensor:
#      x y z
#    x 1.755440 0.000000 0.015510 
#    y 0.000000 1.770400 0.000000 
#    z 0.015510 0.000000 1.765010 
# 
# From -- ./inp_files/234669.got.cif
#   From: 2010.06.25/outbox.cif.g09.slc.cpg/sg12_118_cif.got.tgz:234669.got - 2010.06.28 00:19:55.
