data_PCOD8100057
_publ_section_title
;
Structure prediction by ZEFSAII (Michael W. Deem and Ramdas Pophale) SiO2 
 PCOD8100057
Probable space group: C 2/M
;
_chemical_formula_sum "Si O2"
_cell_formula_units_Z 56
_cell_length_a 19.603826
_cell_length_b 8.874847
_cell_length_c 18.869106
_cell_angle_alpha 90.000000
_cell_angle_beta 65.314777
_cell_angle_gamma 90.000000
_cell_volume 2982.863494
_symmetry_space_group_name_H-M "C 2/M"
_symmetry_group_IT_number 12
_symmetry_cell_setting 'monoclinic'
loop_
_space_group_symop_operation_xyz
x,y,z
-x,y,-z
-x,-y,-z
x,-y,z
1/2+x,1/2+y,z
1/2-x,1/2+y,-z
1/2-x,1/2-y,-z
1/2+x,1/2-y,z
loop_
_atom_site_type_symbol
_atom_site_label
_atom_site_fract_x
_atom_site_fract_y
_atom_site_fract_z
Si Si1 0.129140 0.822521 0.179684
Si Si2 0.712989 0.322012 0.846028
Si Si3 0.825374 0.173164 0.987737
Si Si4 0.335102 0.822598 0.276339
Si Si5 0.559810 0.176550 0.527671
Si Si6 0.771710 0.676599 0.564055
Si Si7 0.480287 0.177371 0.299968
O O1 0.203326 0.741034 0.177463
O O2 0.115543 0.786977 0.100724
O O3 0.057117 0.762578 0.251437
O O4 0.138182 0.000000 0.189409
O O5 0.719055 0.500000 0.828540
O O6 0.672406 0.240825 0.799004
O O7 0.657300 0.285195 0.937645
O O8 0.806398 0.000000 0.992970
O O9 0.750000 0.250000 0.000000
O O10 0.272358 0.747836 0.352139
O O11 0.417851 0.781436 0.268618
O O12 0.321501 0.000000 0.283280
O O13 0.500000 0.251854 0.500000
O O14 0.641114 0.212185 0.460690
O O15 0.550112 0.239389 0.611510
O O16 0.545415 0.000000 0.538637
O O17 0.755160 0.500000 0.567154
O O18 0.750000 0.750000 0.500000
O O19 0.496354 0.000000 0.294008
#
# Coordination Sequence:
#
# PCOD8100057 Si02
#       7
#     8   8   8   8   8   8   8
#     4  10  20  35  57  86 116 145 180 233 286 329
#     4  10  20  36  59  85 110 147 191 228 275 340
#     4   8  16  32  54  80 111 143 181 226 276 332
#     4  11  23  39  56  81 116 150 188 238 283 328
#     4   9  19  36  57  80 107 142 184 228 274 325
#     4  11  21  37  60  83 108 148 189 230 280 336
#     4  10  21  38  56  78 113 153 188 227 280 337
#
# _framework density 18.773904999999999
#
# number of rings (size 3 to 8) (size 9 to 14) (size 15 to 20)
#    0.000    2.143    1.429    1.714    2.000    2.286 
#    0.000    0.714    0.000    6.429    0.000    0.000 
#    0.000    0.000    0.000    0.000    0.000    0.000 
#
# Total GULP energy -346987.347488 kJ/mol
# GULP energy per Si atom -12392.405267 kJ/mol
# Density = 1.873118 g / cm^3
# Si number density = 18.773905 Si / 1000 Ang^3
#
#
#
# Elastic Constant Matrix: (Units=GPa)
#
#
# Indices 1 2 3 4 5 6 
#
# 1 91.4737 31.1065 26.1816 0.0001 18.1757 0.0002
# 2 31.1065 57.9460 20.4626 0.0001 6.6473 0.0003
# 3 26.1816 20.4626 75.9750 0.0000 18.1869 -0.0001
# 4 0.0001 0.0001 0.0000 29.7628 0.0000 1.6917
# 5 18.1757 6.6473 18.1869 0.0000 32.4085 0.0002
# 6 0.0002 0.0003 -0.0001 1.6917 0.0002 27.8873
#
#
#
# Elastic Compliance Matrix: (Units=1/GPa)
#
#
# Indices 1 2 3 4 5 6 
#
# 1 0.014923 -0.006649 -0.001935 0.000000 -0.005920 0.000000
# 2 -0.006649 0.022073 -0.004000 0.000000 0.001446 0.000000
# 3 -0.001935 -0.004000 0.016693 0.000000 -0.007462 0.000000
# 4 0.000000 0.000000 0.000000 0.033715 0.000000 -0.002045
# 5 -0.005920 0.001446 -0.007462 0.000000 0.038067 0.000000
# 6 0.000000 0.000000 0.000000 -0.002045 0.000000 0.035983
#
#
# Mechanical properties :
#
#
# Convention : Reuss Voigt Hill
#
# Bulk Modulus (GPa) = 35.06082 42.32179 38.69131
# Shear Modulus (GPa) = 25.49353 27.85465 26.67409
#
# Velocity S-wave (km/s) = 3.68900 3.85605 3.77345
# Velocity P-wave (km/s) = 6.07131 6.51286 6.29595
#
# Compressibility (1/GPa) = 0.02852186
#
# Stress axis : x y z
#
# Youngs Moduli (GPa) = 67.01023 45.30371 59.90693
#
# Poissons Ratio (x) = 0.30121 0.11591
# Poissons Ratio (y) = 0.44553 0.23963
# Poissons Ratio (z) = 0.12965 0.18122
#
# Static dielectric constant tensor:
#      x y z
#    x 3.543490 0.000000 0.353680 
#    y 0.000000 3.394000 0.000030 
#    z 0.353680 0.000030 -1.184910 
# 
# 
# High freq. dielectric constant tensor:
#      x y z
#    x 1.712990 0.000000 0.007340 
#    y 0.000000 1.725120 0.000000 
#    z 0.007340 0.000000 1.748400 
# 
# From -- ./inp_files/275293.got.cif
#   From: 2010.06.25/outbox.cif.g09.slc.cpg/sg12_138_cif.got.tgz:275293.got - 2010.06.28 00:19:55.
