data_PCOD8100489
_publ_section_title
;
Structure prediction by ZEFSAII (Michael W. Deem and Ramdas Pophale) SiO2 
 PCOD8100489
Probable space group: C 2/M
;
_chemical_formula_sum "Si O2"
_cell_formula_units_Z 40
_cell_length_a 13.784313
_cell_length_b 25.314373
_cell_length_c 11.753647
_cell_angle_alpha 90.000000
_cell_angle_beta 28.355012
_cell_angle_gamma 90.000000
_cell_volume 1947.859518
_symmetry_space_group_name_H-M "C 2/M"
_symmetry_group_IT_number 12
_symmetry_cell_setting 'monoclinic'
loop_
_space_group_symop_operation_xyz
x,y,z
-x,y,-z
-x,-y,-z
x,-y,z
1/2+x,1/2+y,z
1/2-x,1/2+y,-z
1/2-x,1/2-y,-z
1/2+x,1/2-y,z
loop_
_atom_site_type_symbol
_atom_site_label
_atom_site_fract_x
_atom_site_fract_y
_atom_site_fract_z
Si Si1 0.370755 0.866286 0.908468
Si Si2 0.619021 0.676876 0.982998
Si Si3 0.224265 0.708752 0.807762
Si Si4 0.662209 0.658885 0.533356
Si Si5 0.930738 0.059476 0.701100
O O1 0.290342 0.861740 0.860804
O O2 0.604170 0.851450 0.675023
O O3 0.229432 0.823934 0.124798
O O4 0.307393 0.922849 0.030681
O O5 0.735515 0.729096 0.819108
O O6 0.500000 0.649478 0.000000
O O7 0.443785 0.692258 0.256363
O O8 0.370856 0.691551 0.551019
O O9 0.000000 0.690804 0.000000
O O10 0.569071 0.599917 0.629252
O O11 0.000000 0.063027 0.500000
O O12 0.958764 0.000000 0.717948
#
# Coordination Sequence:
#
# PCOD8100489 Si02
#       5
#     8   8   8   8   8
#     4  10  20  36  56  82 113 150 186 230 281 336
#     4  10  22  36  53  81 115 155 197 230 270 327
#     4   9  18  33  53  80 111 148 190 223 277 331
#     4  10  21  38  57  81 120 151 184 236 282 332
#     4  10  20  35  59  88 115 144 179 231 294 345
#
# _framework density 20.535361999999999
#
# number of rings (size 3 to 8) (size 9 to 14) (size 15 to 20)
#    0.000    2.200    2.000    0.600    0.000    8.800 
#    0.000   14.000    0.000    9.600    0.000   11.200 
#    0.000    0.000    0.000    0.000    0.000    0.000 
#
# Total GULP energy -247855.833200 kJ/mol
# GULP energy per Si atom -12392.791660 kJ/mol
# Density = 2.048862 g / cm^3
# Si number density = 20.535362 Si / 1000 Ang^3
#
#
#
# Elastic Constant Matrix: (Units=GPa)
#
#
# Indices 1 2 3 4 5 6 
#
# 1 97.7760 27.1341 15.8259 0.0013 16.5834 0.0009
# 2 27.1341 104.5428 30.5918 -0.0001 4.7606 0.0001
# 3 15.8259 30.5918 91.6148 -0.0072 4.5667 0.0027
# 4 0.0013 -0.0001 -0.0072 24.5014 0.0037 -4.7860
# 5 16.5834 4.7606 4.5667 0.0037 19.7205 -0.0007
# 6 0.0009 0.0001 0.0027 -4.7860 -0.0007 18.0404
#
#
#
# Elastic Compliance Matrix: (Units=1/GPa)
#
#
# Indices 1 2 3 4 5 6 
#
# 1 0.012771 -0.002618 -0.000838 0.000000 -0.009913 -0.000001
# 2 -0.002618 0.011199 -0.003300 -0.000001 0.000263 0.000000
# 3 -0.000838 -0.003300 0.012228 0.000004 -0.001331 -0.000001
# 4 0.000000 -0.000001 0.000004 0.043045 -0.000009 0.011420
# 5 -0.009913 0.000263 -0.001331 -0.000009 0.059290 0.000001
# 6 -0.000001 0.000000 -0.000001 0.011420 0.000001 0.058461
#
#
# Mechanical properties :
#
#
# Convention : Reuss Voigt Hill
#
# Bulk Modulus (GPa) = 44.08041 49.00412 46.54227
# Shear Modulus (GPa) = 22.92869 27.14459 25.03664
#
# Velocity S-wave (km/s) = 3.34510 3.63966 3.49549
# Velocity P-wave (km/s) = 6.03588 6.44810 6.24539
#
# Compressibility (1/GPa) = 0.02268581
#
# Stress axis : x y z
#
# Youngs Moduli (GPa) = 78.30249 89.29532 81.77727
#
# Poissons Ratio (x) = 0.23379 0.06851
# Poissons Ratio (y) = 0.20501 0.26989
# Poissons Ratio (z) = 0.06559 0.29470
#
# Static dielectric constant tensor:
#      x y z
#    x 3.873460 0.000000 0.062970 
#    y 0.000000 3.536710 0.000010 
#    z 0.062970 0.000010 3.966260 
# 
# 
# High freq. dielectric constant tensor:
#      x y z
#    x 1.811590 0.000000 -0.010640 
#    y 0.000000 1.761120 0.000000 
#    z -0.010640 0.000000 1.814480 
# 
# From -- ./inp_files/148802.got.cif
#   From: 2010.06.25/outbox.cif.g09.slc.cpg/sg12_75_cif.got.tgz:148802.got - 2010.06.28 00:19:55.
