data_PCOD8100538
_publ_section_title
;
Structure prediction by ZEFSAII (Michael W. Deem and Ramdas Pophale) SiO2 
 PCOD8100538
Probable space group: C 2/M
;
_chemical_formula_sum "Si O2"
_cell_formula_units_Z 48
_cell_length_a 24.622558
_cell_length_b 8.766751
_cell_length_c 12.348526
_cell_angle_alpha 90.000000
_cell_angle_beta 71.331068
_cell_angle_gamma 90.000000
_cell_volume 2525.300131
_symmetry_space_group_name_H-M "C 2/M"
_symmetry_group_IT_number 12
_symmetry_cell_setting 'monoclinic'
loop_
_space_group_symop_operation_xyz
x,y,z
-x,y,-z
-x,-y,-z
x,-y,z
1/2+x,1/2+y,z
1/2-x,1/2+y,-z
1/2-x,1/2-y,-z
1/2+x,1/2-y,z
loop_
_atom_site_type_symbol
_atom_site_label
_atom_site_fract_x
_atom_site_fract_y
_atom_site_fract_z
Si Si1 0.502118 0.821663 0.374079
Si Si2 0.192378 0.825057 0.765319
Si Si3 0.691636 0.820878 0.994054
Si Si4 0.612248 0.675020 0.619039
Si Si5 0.807017 0.178203 0.627936
Si Si6 0.615447 0.678636 0.217662
O O1 0.500000 0.767924 0.500000
O O2 0.442538 0.783182 0.354198
O O3 0.551025 0.729651 0.281125
O O4 0.515132 0.000000 0.356745
O O5 0.138279 0.804115 0.721312
O O6 0.249125 0.774746 0.665332
O O7 0.199298 0.000000 0.797034
O O8 0.181515 0.721396 0.876175
O O9 0.637635 0.762851 0.096666
O O10 0.697186 0.000000 0.001431
O O11 0.750000 0.750000 0.000000
O O12 0.594156 0.500000 0.608523
O O13 0.658735 0.726584 0.500766
O O14 0.844490 0.224408 0.707738
O O15 0.791702 0.000000 0.638462
O O16 0.616614 0.500000 0.194789
#
# Coordination Sequence:
#
# PCOD8100538 Si02
#       6
#     8   8   8   8   8   8
#     4  11  23  38  60  90 122 158 200 246 294 349
#     4  11  23  38  60  89 123 159 199 246 299 355
#     4  12  24  40  62  87 120 157 200 247 295 352
#     4  10  22  40  60  87 122 162 201 242 297 358
#     4  10  20  35  59  89 122 158 196 241 299 355
#     4  11  22  38  63  91 120 154 199 248 295 351
#
# _framework density 19.007641
#
# number of rings (size 3 to 8) (size 9 to 14) (size 15 to 20)
#    0.000    1.167    3.333    3.500    0.000    3.333 
#    0.000    0.833    0.000    5.000    0.000    0.000 
#    0.000    0.000    0.000    0.000    0.000    0.000 
#
# Total GULP energy -297782.651864 kJ/mol
# GULP energy per Si atom -12407.610494 kJ/mol
# Density = 1.896438 g / cm^3
# Si number density = 19.007641 Si / 1000 Ang^3
#
#
#
# Elastic Constant Matrix: (Units=GPa)
#
#
# Indices 1 2 3 4 5 6 
#
# 1 97.6213 41.5114 41.7474 0.0000 -2.7693 0.0000
# 2 41.5114 96.1633 44.5105 0.0000 -2.2025 0.0000
# 3 41.7474 44.5105 103.5445 0.0000 -12.2015 0.0000
# 4 0.0000 0.0000 0.0000 32.3937 0.0000 -4.5614
# 5 -2.7693 -2.2025 -12.2015 0.0000 26.2174 0.0000
# 6 0.0000 0.0000 0.0000 -4.5614 0.0000 33.3182
#
#
#
# Elastic Compliance Matrix: (Units=1/GPa)
#
#
# Indices 1 2 3 4 5 6 
#
# 1 0.013602 -0.004135 -0.003786 0.000000 -0.000673 0.000000
# 2 -0.004135 0.014302 -0.004646 0.000000 -0.001397 0.000000
# 3 -0.003786 -0.004646 0.013847 0.000000 0.005654 0.000000
# 4 0.000000 0.000000 0.000000 0.031477 0.000000 0.004309
# 5 -0.000673 -0.001397 0.005654 0.000000 0.040586 0.000000
# 6 0.000000 0.000000 0.000000 0.004309 0.000000 0.030604
#
#
# Mechanical properties :
#
#
# Convention : Reuss Voigt Hill
#
# Bulk Modulus (GPa) = 60.17245 61.42975 60.80110
# Shear Modulus (GPa) = 28.55681 29.68985 29.12333
#
# Velocity S-wave (km/s) = 3.88027 3.95650 3.91857
# Velocity P-wave (km/s) = 7.19729 7.29797 7.24781
#
# Compressibility (1/GPa) = 0.01661890
#
# Stress axis : x y z
#
# Youngs Moduli (GPa) = 73.51984 69.91986 72.21559
#
# Poissons Ratio (x) = 0.28909 0.27340
# Poissons Ratio (y) = 0.30398 0.33549
# Poissons Ratio (z) = 0.27834 0.32482
#
# Static dielectric constant tensor:
#      x y z
#    x 3.373700 0.000000 -0.022160 
#    y 0.000000 3.514790 0.000000 
#    z -0.022160 0.000000 3.580060 
# 
# 
# High freq. dielectric constant tensor:
#      x y z
#    x 1.734660 0.000000 -0.002610 
#    y 0.000000 1.746960 0.000000 
#    z -0.002610 0.000000 1.743220 
# 
# From -- ./inp_files/172123.got.cif
#   From: 2010.06.25/outbox.cif.g09.slc.cpg/sg12_87_cif.got.tgz:172123.got - 2010.06.28 00:19:55.
