data_PCOD8100808
_publ_section_title
;
Structure prediction by ZEFSAII (Michael W. Deem and Ramdas Pophale) SiO2 
 PCOD8100808
Probable space group: C 2/M
;
_chemical_formula_sum "Si O2"
_cell_formula_units_Z 48
_cell_length_a 19.282170
_cell_length_b 8.873679
_cell_length_c 20.232432
_cell_angle_alpha 90.000000
_cell_angle_beta 130.232556
_cell_angle_gamma 90.000000
_cell_volume 2642.873948
_symmetry_space_group_name_H-M "C 2/M"
_symmetry_group_IT_number 12
_symmetry_cell_setting 'monoclinic'
loop_
_space_group_symop_operation_xyz
x,y,z
-x,y,-z
-x,-y,-z
x,-y,z
1/2+x,1/2+y,z
1/2-x,1/2+y,-z
1/2-x,1/2-y,-z
1/2+x,1/2-y,z
loop_
_atom_site_type_symbol
_atom_site_label
_atom_site_fract_x
_atom_site_fract_y
_atom_site_fract_z
Si Si1 0.494097 0.672460 0.139936
Si Si2 0.822830 0.325046 0.733943
Si Si3 0.290911 0.323064 0.209214
Si Si4 0.980599 0.826552 0.283003
Si Si5 0.801997 0.176755 0.971137
Si Si6 0.319696 0.679445 0.593435
O O1 0.525830 0.500000 0.150410
O O2 0.579600 0.777997 0.175962
O O3 0.460223 0.700440 0.193564
O O4 0.409674 0.712805 0.041054
O O5 0.825425 0.500000 0.716587
O O6 0.746173 0.290165 0.740872
O O7 0.796060 0.229416 0.653183
O O8 0.288955 0.500000 0.190616
O O9 0.394715 0.258801 0.270174
O O10 0.229670 0.239138 0.118258
O O11 0.079152 0.757300 0.362581
O O12 0.987754 0.000000 0.305314
O O13 0.783966 0.000000 0.964019
O O14 0.750000 0.250000 0.000000
O O15 0.314780 0.500000 0.587124
O O16 0.250000 0.750000 0.500000
#
# Coordination Sequence:
#
# PCOD8100808 Si02
#       6
#     8   8   8   8   8   8
#     4   9  18  34  53  72 104 147 186 222 263 317
#     4  10  21  35  55  81 110 140 175 223 273 317
#     4  10  20  36  54  77 110 144 180 223 269 317
#     4   8  15  32  55  75 100 138 178 213 258 315
#     4  11  21  33  52  78 107 144 188 230 267 310
#     4  10  20  37  61  83 106 135 174 218 264 327
#
# _framework density 18.162047000000001
#
# number of rings (size 3 to 8) (size 9 to 14) (size 15 to 20)
#    0.000    2.333    1.667    2.500    0.000    3.333 
#    0.000    5.000    0.000    5.000    0.000    0.000 
#    0.000    0.000    0.000    0.000    0.000    0.000 
#
# Total GULP energy -297522.153938 kJ/mol
# GULP energy per Si atom -12396.756414 kJ/mol
# Density = 1.812071 g / cm^3
# Si number density = 18.162047 Si / 1000 Ang^3
#
#
#
# Elastic Constant Matrix: (Units=GPa)
#
#
# Indices 1 2 3 4 5 6 
#
# 1 117.0601 41.0316 67.3420 0.0000 14.8624 0.0000
# 2 41.0316 69.4694 48.9966 0.0000 2.3705 0.0000
# 3 67.3420 48.9966 144.8141 0.0000 16.1067 0.0000
# 4 0.0000 0.0000 0.0000 32.3175 0.0000 -0.4512
# 5 14.8624 2.3705 16.1067 0.0000 19.1816 0.0000
# 6 0.0000 0.0000 0.0000 -0.4512 0.0000 26.1496
#
#
#
# Elastic Compliance Matrix: (Units=1/GPa)
#
#
# Indices 1 2 3 4 5 6 
#
# 1 0.013277 -0.004959 -0.003773 0.000000 -0.006507 0.000000
# 2 -0.004959 0.020956 -0.005431 0.000000 0.005813 0.000000
# 3 -0.003773 -0.005431 0.011138 0.000000 -0.005758 0.000000
# 4 0.000000 0.000000 0.000000 0.030950 0.000000 0.000534
# 5 -0.006507 0.005813 -0.005758 0.000000 0.061291 0.000000
# 6 0.000000 0.000000 0.000000 0.000534 0.000000 0.038251
#
#
# Mechanical properties :
#
#
# Convention : Reuss Voigt Hill
#
# Bulk Modulus (GPa) = 58.66558 71.78710 65.22634
# Shear Modulus (GPa) = 23.82425 27.12798 25.47612
#
# Velocity S-wave (km/s) = 3.62575 3.86899 3.74934
# Velocity P-wave (km/s) = 7.06395 7.71819 7.39831
#
# Compressibility (1/GPa) = 0.01704577
#
# Stress axis : x y z
#
# Youngs Moduli (GPa) = 75.31597 47.71942 89.78624
#
# Poissons Ratio (x) = 0.23666 0.33873
# Poissons Ratio (y) = 0.37352 0.48759
# Poissons Ratio (z) = 0.28414 0.25914
#
# Static dielectric constant tensor:
#      x y z
#    x 3.588100 0.000000 0.427640 
#    y 0.000000 3.301770 0.000000 
#    z 0.427640 0.000000 3.648190 
# 
# 
# High freq. dielectric constant tensor:
#      x y z
#    x 1.704150 0.000000 0.015490 
#    y 0.000000 1.693530 0.000000 
#    z 0.015490 0.000000 1.695610 
# 
# From -- ./inp_files/249365.got.cif
#   From: 2010.06.25/outbox.cif.g09.slc.cpg/sg12_125_cif.got.tgz:249365.got - 2010.06.28 00:19:55.
