data_PCOD8100839
_publ_section_title
;
Structure prediction by ZEFSAII (Michael W. Deem and Ramdas Pophale) SiO2 
 PCOD8100839
Probable space group: C 2/M
;
_chemical_formula_sum "Si O2"
_cell_formula_units_Z 48
_cell_length_a 8.802633
_cell_length_b 10.407455
_cell_length_c 26.431354
_cell_angle_alpha 90.000000
_cell_angle_beta 73.007629
_cell_angle_gamma 90.000000
_cell_volume 2315.743958
_symmetry_space_group_name_H-M "C 2/M"
_symmetry_group_IT_number 12
_symmetry_cell_setting 'monoclinic'
loop_
_space_group_symop_operation_xyz
x,y,z
-x,y,-z
-x,-y,-z
x,-y,z
1/2+x,1/2+y,z
1/2-x,1/2+y,-z
1/2-x,1/2-y,-z
1/2+x,1/2-y,z
loop_
_atom_site_type_symbol
_atom_site_label
_atom_site_fract_x
_atom_site_fract_y
_atom_site_fract_z
Si Si1 0.727205 0.146765 0.720050
Si Si2 0.986658 0.145176 0.059235
Si Si3 0.302746 0.639800 0.603405
Si Si4 0.249384 0.143335 0.111770
Si Si5 0.588873 0.808024 0.536751
Si Si6 0.988715 0.143392 0.773986
O O1 0.745482 0.204399 0.661361
O O2 0.898281 0.148072 0.729462
O O3 0.617816 0.243958 0.762270
O O4 0.657610 0.000000 0.727007
O O5 0.881094 0.246424 0.100397
O O6 0.160603 0.149349 0.066652
O O7 0.915570 0.000000 0.070458
O O8 0.000000 0.188481 0.000000
O O9 0.365522 0.500000 0.612225
O O10 0.455062 0.704920 0.563822
O O11 0.148620 0.621035 0.581355
O O12 0.129251 0.171467 0.168704
O O13 0.324805 0.000000 0.111199
O O14 0.500000 0.889973 0.500000
O O15 0.750000 0.750000 0.500000
O O16 0.064892 0.000000 0.773222
#
# Coordination Sequence:
#
# PCOD8100839 Si02
#       6
#     8   8   8   8   8   8
#     4  10  21  36  56  81 108 142 181 219 267 324
#     4  10  21  36  54  79 110 143 181 224 269 319
#     4  10  20  36  55  75 105 139 171 215 264 311
#     4  10  21  36  55  80 108 141 181 223 270 322
#     4   9  19  34  53  78 104 134 174 212 255 314
#     4  10  21  37  56  80 110 141 178 225 271 318
#
# _framework density 20.727681
#
# number of rings (size 3 to 8) (size 9 to 14) (size 15 to 20)
#    0.000    2.167    0.000    2.500    0.000    5.667 
#    0.000    3.333    0.000    0.000    0.000    0.000 
#    0.000    0.000    0.000    0.000    0.000    0.000 
#
# Total GULP energy -297316.951983 kJ/mol
# GULP energy per Si atom -12388.206333 kJ/mol
# Density = 2.068050 g / cm^3
# Si number density = 20.727681 Si / 1000 Ang^3
#
#
#
# Elastic Constant Matrix: (Units=GPa)
#
#
# Indices 1 2 3 4 5 6 
#
# 1 64.4839 29.0669 11.0905 0.0000 -1.9049 0.0000
# 2 29.0669 110.8788 19.3508 0.0000 -29.6419 0.0000
# 3 11.0905 19.3508 74.7432 0.0000 6.4541 0.0000
# 4 0.0000 0.0000 0.0000 46.1287 0.0000 -3.4870
# 5 -1.9049 -29.6419 6.4541 0.0000 36.9869 0.0000
# 6 0.0000 0.0000 0.0000 -3.4870 0.0000 21.5306
#
#
#
# Elastic Compliance Matrix: (Units=1/GPa)
#
#
# Indices 1 2 3 4 5 6 
#
# 1 0.018025 -0.005419 -0.000992 0.000000 -0.003241 0.000000
# 2 -0.005419 0.014295 -0.003921 0.000000 0.011861 0.000000
# 3 -0.000992 -0.003921 0.015044 0.000000 -0.005818 0.000000
# 4 0.000000 0.000000 0.000000 0.021947 0.000000 0.003554
# 5 -0.003241 0.011861 -0.005818 0.000000 0.037391 0.000000
# 6 0.000000 0.000000 0.000000 0.003554 0.000000 0.047021
#
#
# Mechanical properties :
#
#
# Convention : Reuss Voigt Hill
#
# Bulk Modulus (GPa) = 37.45242 41.01358 39.23300
# Shear Modulus (GPa) = 27.27986 33.63577 30.45782
#
# Velocity S-wave (km/s) = 3.63176 4.03270 3.83747
# Velocity P-wave (km/s) = 5.97446 6.44309 6.21320
#
# Compressibility (1/GPa) = 0.02670054
#
# Stress axis : x y z
#
# Youngs Moduli (GPa) = 55.47812 69.95690 66.47235
#
# Poissons Ratio (x) = 0.37907 0.06593
# Poissons Ratio (y) = 0.30062 0.26064
# Poissons Ratio (z) = 0.05502 0.27430
#
# Static dielectric constant tensor:
#      x y z
#    x 3.780430 0.000000 0.451110 
#    y 0.000000 3.712490 0.000000 
#    z 0.451110 0.000000 3.932660 
# 
# 
# High freq. dielectric constant tensor:
#      x y z
#    x 1.796960 0.000000 0.023540 
#    y 0.000000 1.804170 0.000000 
#    z 0.023540 0.000000 1.827110 
# 
# From -- ./inp_files/331992.got.cif
#   From: 2010.06.25/outbox.cif.g09.slc.cpg/sg12_166_cif.got.tgz:331992.got - 2010.06.28 00:19:55.
