data_PCOD8100212
_publ_section_title
;
Structure prediction by ZEFSAII (Michael W. Deem and Ramdas Pophale) SiO2 
 PCOD8100212
Probable space group: C 2/M
;
_chemical_formula_sum "Si O2"
_cell_formula_units_Z 56
_cell_length_a 18.067934
_cell_length_b 8.939563
_cell_length_c 18.465035
_cell_angle_alpha 90.000000
_cell_angle_beta 76.381099
_cell_angle_gamma 90.000000
_cell_volume 2898.605250
_symmetry_space_group_name_H-M "C 2/M"
_symmetry_group_IT_number 12
_symmetry_cell_setting 'monoclinic'
loop_
_space_group_symop_operation_xyz
x,y,z
-x,y,-z
-x,-y,-z
x,-y,z
1/2+x,1/2+y,z
1/2-x,1/2+y,-z
1/2-x,1/2-y,-z
1/2+x,1/2-y,z
loop_
_atom_site_type_symbol
_atom_site_label
_atom_site_fract_x
_atom_site_fract_y
_atom_site_fract_z
Si Si1 0.739334 0.826752 0.717180
Si Si2 0.377217 0.676896 0.154132
Si Si3 0.414908 0.664448 0.991154
Si Si4 0.021557 0.672965 0.577336
Si Si5 0.412416 0.326967 0.713544
Si Si6 0.535082 0.176057 0.155413
Si Si7 0.306131 0.824767 0.431066
O O1 0.697767 0.730888 0.788004
O O2 0.828694 0.798086 0.702184
O O3 0.711997 0.767806 0.645489
O O4 0.717974 0.000000 0.733139
O O5 0.387798 0.500000 0.159335
O O6 0.366030 0.721096 0.071656
O O7 0.451565 0.752477 0.171512
O O8 0.387083 0.500000 0.971495
O O9 0.500000 0.651452 0.000000
O O10 0.411264 0.778132 0.924852
O O11 0.008251 0.500000 0.601753
O O12 0.108403 0.720963 0.568976
O O13 0.000000 0.704054 0.500000
O O14 0.970881 0.777967 0.638709
O O15 0.426106 0.500000 0.729499
O O16 0.422891 0.228588 0.782360
O O17 0.525230 0.000000 0.158378
O O18 0.250000 0.750000 0.500000
O O19 0.292717 0.000000 0.439718
#
# Coordination Sequence:
#
# PCOD8100212 Si02
#       7
#     8   8   8   8   8   8   8
#     4  10  22  38  55  79 112 148 188 234 277 323
#     4  10  20  35  58  85 112 145 184 227 277 333
#     4   8  16  32  53  80 112 142 179 228 276 327
#     4  10  21  37  58  85 115 146 182 227 279 335
#     4  11  23  38  56  79 110 149 192 236 281 327
#     4  11  21  34  56  83 111 145 186 231 281 336
#     4  10  21  37  57  82 111 143 180 224 274 327
#
# _framework density 19.319635999999999
#
# number of rings (size 3 to 8) (size 9 to 14) (size 15 to 20)
#    0.000    2.000    0.000    4.714    0.000    6.857 
#    0.000    0.714    0.000    0.000    0.000    0.000 
#    0.000    0.000    0.000    0.000    0.000    0.000 
#
# Total GULP energy -347262.143993 kJ/mol
# GULP energy per Si atom -12402.219428 kJ/mol
# Density = 1.927566 g / cm^3
# Si number density = 19.319636 Si / 1000 Ang^3
#
#
#
# Elastic Constant Matrix: (Units=GPa)
#
#
# Indices 1 2 3 4 5 6 
#
# 1 100.0954 44.2438 62.1636 0.0000 -2.0179 0.0000
# 2 44.2438 90.9510 59.0605 0.0000 -4.4348 0.0000
# 3 62.1636 59.0605 149.8753 0.0000 -12.6427 0.0000
# 4 0.0000 0.0000 0.0000 35.8801 0.0000 -6.2767
# 5 -2.0179 -4.4348 -12.6427 0.0000 30.7756 0.0000
# 6 0.0000 0.0000 0.0000 -6.2767 0.0000 21.3807
#
#
#
# Elastic Compliance Matrix: (Units=1/GPa)
#
#
# Indices 1 2 3 4 5 6 
#
# 1 0.014656 -0.004264 -0.004526 0.000000 -0.001513 0.000000
# 2 -0.004264 0.016019 -0.004530 0.000000 0.000168 0.000000
# 3 -0.004526 -0.004530 0.010622 0.000000 0.003414 0.000000
# 4 0.000000 0.000000 0.000000 0.029379 0.000000 0.008625
# 5 -0.001513 0.000168 0.003414 0.000000 0.033821 0.000000
# 6 0.000000 0.000000 0.000000 0.008625 0.000000 0.049303
#
#
# Mechanical properties :
#
#
# Convention : Reuss Voigt Hill
#
# Bulk Modulus (GPa) = 68.22491 74.65086 71.43789
# Shear Modulus (GPa) = 26.97956 29.30420 28.14188
#
# Velocity S-wave (km/s) = 3.74101 3.89885 3.82074
# Velocity P-wave (km/s) = 7.35191 7.68061 7.51806
#
# Compressibility (1/GPa) = 0.01465740
#
# Stress axis : x y z
#
# Youngs Moduli (GPa) = 68.23339 62.42653 94.14041
#
# Poissons Ratio (x) = 0.26619 0.42608
# Poissons Ratio (y) = 0.29095 0.42643
# Poissons Ratio (z) = 0.30882 0.28277
#
# Static dielectric constant tensor:
#      x y z
#    x 3.430700 0.000000 0.111770 
#    y 0.000000 3.535630 0.000000 
#    z 0.111770 0.000000 4.055050 
# 
# 
# High freq. dielectric constant tensor:
#      x y z
#    x 1.738610 0.000000 0.001450 
#    y 0.000000 1.750780 0.000000 
#    z 0.001450 0.000000 1.770200 
# 
# From -- ./inp_files/275339.got.cif
#   From: 2010.06.25/outbox.cif.g09.slc.cpg/sg12_138_cif.got.tgz:275339.got - 2010.06.28 00:19:55.
