data_PCOD8100377
_publ_section_title
;
Structure prediction by ZEFSAII (Michael W. Deem and Ramdas Pophale) SiO2 
 PCOD8100377
Probable space group: C 2/M
;
_chemical_formula_sum "Si O2"
_cell_formula_units_Z 48
_cell_length_a 11.965726
_cell_length_b 18.369747
_cell_length_c 11.028333
_cell_angle_alpha 90.000000
_cell_angle_beta 108.103399
_cell_angle_gamma 90.000000
_cell_volume 2304.108824
_symmetry_space_group_name_H-M "C 2/M"
_symmetry_group_IT_number 12
_symmetry_cell_setting 'monoclinic'
loop_
_space_group_symop_operation_xyz
x,y,z
-x,y,-z
-x,-y,-z
x,-y,z
1/2+x,1/2+y,z
1/2-x,1/2+y,-z
1/2-x,1/2-y,-z
1/2+x,1/2-y,z
loop_
_atom_site_type_symbol
_atom_site_label
_atom_site_fract_x
_atom_site_fract_y
_atom_site_fract_z
Si Si1 0.941436 0.415278 0.858285
Si Si2 0.317695 0.580987 0.750593
Si Si3 0.980850 0.082352 0.357289
Si Si4 0.551236 0.913659 0.643904
Si Si5 0.719434 0.664901 0.837899
Si Si6 0.129683 0.796327 0.066804
O O1 0.969381 0.500000 0.863296
O O2 0.803108 0.401836 0.827788
O O3 0.990003 0.381595 0.746529
O O4 0.000000 0.380827 0.000000
O O5 0.313802 0.500000 0.805593
O O6 0.386682 0.581947 0.648001
O O7 0.186389 0.610865 0.690106
O O8 0.392532 0.631663 0.863604
O O9 0.901782 0.146290 0.270966
O O10 0.000000 0.105816 0.500000
O O11 0.927159 0.000000 0.324914
O O12 0.500000 0.881282 0.500000
O O13 0.535475 0.000000 0.636631
O O14 0.789711 0.739580 0.828710
O O15 0.697204 0.673711 0.972440
O O16 0.000000 0.761869 0.000000
#
# Coordination Sequence:
#
# PCOD8100377 Si02
#       6
#     8   8   8   8   8   8
#     4  10  20  35  58  89 120 155 205 256 308 370
#     4  10  21  39  63  90 123 159 208 263 310 369
#     4  10  22  40  65  95 127 163 207 257 310 370
#     4   9  19  35  58  88 121 157 197 249 313 372
#     4  11  23  39  63  87 123 164 201 257 310 377
#     4  11  23  41  61  89 124 164 209 254 318 373
#
# _framework density 20.832350000000002
#
# number of rings (size 3 to 8) (size 9 to 14) (size 15 to 20)
#    0.000    1.833    1.667    2.000    2.333    4.333 
#    0.000    1.667    0.000    0.000    0.000    0.000 
#    0.000    0.000    0.000    0.000    0.000    0.000 
#
# Total GULP energy -297375.282790 kJ/mol
# GULP energy per Si atom -12390.636783 kJ/mol
# Density = 2.078493 g / cm^3
# Si number density = 20.832350 Si / 1000 Ang^3
#
#
#
# Elastic Constant Matrix: (Units=GPa)
#
#
# Indices 1 2 3 4 5 6 
#
# 1 128.7829 27.6997 45.5586 0.0000 -3.2607 0.0000
# 2 27.6997 64.7175 39.9094 0.0000 3.5577 0.0000
# 3 45.5586 39.9094 122.0785 0.0000 -13.0315 0.0000
# 4 0.0000 0.0000 0.0000 24.6434 0.0000 8.5339
# 5 -3.2607 3.5577 -13.0315 0.0000 33.8505 0.0000
# 6 0.0000 0.0000 0.0000 8.5339 0.0000 27.9751
#
#
#
# Elastic Compliance Matrix: (Units=1/GPa)
#
#
# Indices 1 2 3 4 5 6 
#
# 1 0.009208 -0.002297 -0.002675 0.000000 0.000099 0.000000
# 2 -0.002297 0.020658 -0.006415 0.000000 -0.004862 0.000000
# 3 -0.002675 -0.006415 0.011817 0.000000 0.004966 0.000000
# 4 0.000000 0.000000 0.000000 0.045372 0.000000 -0.013841
# 5 0.000099 -0.004862 0.004966 0.000000 0.031974 0.000000
# 6 0.000000 0.000000 0.000000 -0.013841 0.000000 0.039968
#
#
# Mechanical properties :
#
#
# Convention : Reuss Voigt Hill
#
# Bulk Modulus (GPa) = 52.88515 60.21268 56.54892
# Shear Modulus (GPa) = 26.58520 30.78786 28.68653
#
# Velocity S-wave (km/s) = 3.57620 3.84850 3.71485
# Velocity P-wave (km/s) = 6.51870 6.97955 6.75306
#
# Compressibility (1/GPa) = 0.01890890
#
# Stress axis : x y z
#
# Youngs Moduli (GPa) = 108.60352 48.40660 84.62352
#
# Poissons Ratio (x) = 0.11119 0.22635
# Poissons Ratio (y) = 0.24946 0.54289
# Poissons Ratio (z) = 0.29050 0.31055
#
# Static dielectric constant tensor:
#      x y z
#    x 3.926040 0.000000 -0.122200 
#    y 0.000000 3.593910 0.000000 
#    z -0.122200 0.000000 3.749290 
# 
# 
# High freq. dielectric constant tensor:
#      x y z
#    x 1.833310 0.000000 -0.009140 
#    y 0.000000 1.793640 0.000000 
#    z -0.009140 0.000000 1.800510 
# 
# From -- ./inp_files/131673.got.cif
#   From: 2010.06.25/outbox.cif.g09.slc.cpg/sg12_66_cif.got.tgz:131673.got - 2010.06.28 00:19:55.
