data_PCOD8100823
_publ_section_title
;
Structure prediction by ZEFSAII (Michael W. Deem and Ramdas Pophale) SiO2 
 PCOD8100823
Probable space group: C 2/M
;
_chemical_formula_sum "Si O2"
_cell_formula_units_Z 64
_cell_length_a 11.642639
_cell_length_b 30.800393
_cell_length_c 14.775318
_cell_angle_alpha 90.000000
_cell_angle_beta 40.575743
_cell_angle_gamma 90.000000
_cell_volume 3446.356929
_symmetry_space_group_name_H-M "C 2/M"
_symmetry_group_IT_number 12
_symmetry_cell_setting 'monoclinic'
loop_
_space_group_symop_operation_xyz
x,y,z
-x,y,-z
-x,-y,-z
x,-y,z
1/2+x,1/2+y,z
1/2-x,1/2+y,-z
1/2-x,1/2-y,-z
1/2+x,1/2-y,z
loop_
_atom_site_type_symbol
_atom_site_label
_atom_site_fract_x
_atom_site_fract_y
_atom_site_fract_z
Si Si1 0.036253 0.592106 0.213263
Si Si2 0.007468 0.765305 0.097003
Si Si3 0.639503 0.189212 0.139518
Si Si4 0.045249 0.950316 0.727427
Si Si5 0.826398 0.950167 0.548952
Si Si6 0.855575 0.692942 0.655960
Si Si7 0.656123 0.050459 0.968146
Si Si8 0.656661 0.092460 0.343984
O O1 0.826852 0.583608 0.334400
O O2 0.079273 0.640527 0.152022
O O3 0.123610 0.557989 0.093305
O O4 0.117178 0.582364 0.263078
O O5 0.041897 0.724083 0.137712
O O6 0.830045 0.783784 0.245941
O O7 0.152462 0.804157 0.006788
O O8 0.000000 0.746766 0.000000
O O9 0.584760 0.198575 0.275999
O O10 0.147877 0.945350 0.572758
O O11 0.155119 0.927488 0.741434
O O12 0.024718 0.000000 0.769367
O O13 0.849826 0.929537 0.830818
O O14 0.000000 0.936172 0.500000
O O15 0.775381 0.000000 0.604938
O O16 0.828086 0.643202 0.646722
O O17 0.000000 0.713196 0.500000
O O18 0.660833 0.000000 0.941825
O O19 0.500000 0.072102 0.000000
O O20 0.500000 0.072561 0.500000
#
# Coordination Sequence:
#
# PCOD8100823 Si02
#       8
#     8   8   8   8   8   8   8   8
#     4  11  21  35  58  84 110 145 188 235 281 326
#     4   9  18  37  58  78 110 144 180 219 274 339
#     4   9  20  35  55  83 108 142 182 224 271 341
#     4  10  21  35  55  81 111 149 188 228 279 331
#     4  10  20  36  58  79 107 154 198 229 276 337
#     4   9  19  34  58  81 106 145 179 219 277 331
#     4  10  22  39  55  77 112 149 189 236 281 328
#     4  10  20  36  54  83 116 142 182 230 278 335
#
# _framework density 18.570333999999999
#
# number of rings (size 3 to 8) (size 9 to 14) (size 15 to 20)
#    0.000    2.250    1.250    1.125    1.750    4.750 
#    0.000    1.875    2.750    0.000    0.000    0.000 
#    0.000    0.000    0.000    0.000    0.000    0.000 
#
# Total GULP energy -396687.299642 kJ/mol
# GULP energy per Si atom -12396.478114 kJ/mol
# Density = 1.852807 g / cm^3
# Si number density = 18.570334 Si / 1000 Ang^3
#
#
#
# Elastic Constant Matrix: (Units=GPa)
#
#
# Indices 1 2 3 4 5 6 
#
# 1 114.6571 54.2261 49.7930 0.0000 -17.1035 0.0000
# 2 54.2261 53.8207 38.9876 0.0000 -10.2192 0.0000
# 3 49.7930 38.9876 119.6400 0.0000 -16.1892 0.0000
# 4 0.0000 0.0000 0.0000 22.7605 0.0000 3.5936
# 5 -17.1035 -10.2192 -16.1892 0.0000 31.1084 0.0000
# 6 0.0000 0.0000 0.0000 3.5936 0.0000 21.6221
#
#
#
# Elastic Compliance Matrix: (Units=1/GPa)
#
#
# Indices 1 2 3 4 5 6 
#
# 1 0.017353 -0.015611 -0.001654 0.000000 0.003551 0.000000
# 2 -0.015611 0.038876 -0.006029 0.000000 0.001050 0.000000
# 3 -0.001654 -0.006029 0.011425 0.000000 0.003056 0.000000
# 4 0.000000 0.000000 0.000000 0.045120 0.000000 -0.007499
# 5 0.003551 0.001050 0.003056 0.000000 0.036033 0.000000
# 6 0.000000 0.000000 0.000000 -0.007499 0.000000 0.047495
#
#
# Mechanical properties :
#
#
# Convention : Reuss Voigt Hill
#
# Bulk Modulus (GPa) = 47.47293 63.79234 55.63264
# Shear Modulus (GPa) = 20.00695 24.77226 22.38961
#
# Velocity S-wave (km/s) = 3.28588 3.65632 3.47604
# Velocity P-wave (km/s) = 6.32577 7.22850 6.79215
#
# Compressibility (1/GPa) = 0.02106463
#
# Stress axis : x y z
#
# Youngs Moduli (GPa) = 57.62723 25.72301 87.52557
#
# Poissons Ratio (x) = 0.40156 0.14480
# Poissons Ratio (y) = 0.89961 0.52773
# Poissons Ratio (z) = 0.09534 0.15509
#
# Static dielectric constant tensor:
#      x y z
#    x 3.520890 0.000000 -0.079170 
#    y 0.000000 3.176600 0.000000 
#    z -0.079170 0.000000 3.631230 
# 
# 
# High freq. dielectric constant tensor:
#      x y z
#    x 1.729370 0.000000 -0.001320 
#    y 0.000000 1.693400 0.000000 
#    z -0.001320 0.000000 1.731030 
# 
# From -- ./inp_files/209825.got.cif
#   From: 2010.06.25/outbox.cif.g09.slc.cpg/sg12_105_cif.got.tgz:209825.got - 2010.06.28 00:19:55.
