data_PCOD8100620
_publ_section_title
;
Structure prediction by ZEFSAII (Michael W. Deem and Ramdas Pophale) SiO2 
 PCOD8100620
Probable space group: C 2/M
;
_chemical_formula_sum "Si O2"
_cell_formula_units_Z 52
_cell_length_a 11.160032
_cell_length_b 25.063148
_cell_length_c 9.148441
_cell_angle_alpha 90.000000
_cell_angle_beta 85.371367
_cell_angle_gamma 90.000000
_cell_volume 2550.524268
_symmetry_space_group_name_H-M "C 2/M"
_symmetry_group_IT_number 12
_symmetry_cell_setting 'monoclinic'
loop_
_space_group_symop_operation_xyz
x,y,z
-x,y,-z
-x,-y,-z
x,-y,z
1/2+x,1/2+y,z
1/2-x,1/2+y,-z
1/2-x,1/2-y,-z
1/2+x,1/2-y,z
loop_
_atom_site_type_symbol
_atom_site_label
_atom_site_fract_x
_atom_site_fract_y
_atom_site_fract_z
Si Si1 0.217291 0.333239 0.929863
Si Si2 0.628660 0.356136 0.650447
Si Si3 0.491757 0.000000 0.824744
Si Si4 0.238133 0.000000 0.283158
Si Si5 0.390762 0.271470 0.116935
Si Si6 0.858855 0.000000 0.028492
Si Si7 0.696419 0.913215 0.165738
Si Si8 0.869745 0.888463 0.665263
O O1 0.126018 0.292466 0.857945
O O2 0.306365 0.359842 0.806364
O O3 0.278835 0.298755 0.050076
O O4 0.151778 0.379998 0.027437
O O5 0.594396 0.298703 0.725129
O O6 0.753534 0.377913 0.705800
O O7 0.511915 0.394433 0.687222
O O8 0.649803 0.350889 0.474736
O O9 0.417789 0.051645 0.776524
O O10 0.617033 0.000000 0.727011
O O11 0.500000 0.000000 0.000000
O O12 0.201711 0.000000 0.121007
O O13 0.185468 0.946900 0.364649
O O14 0.500000 0.283649 0.000000
O O15 0.814143 0.947556 0.114703
O O16 0.000000 0.000000 0.000000
#
# Coordination Sequence:
#
# PCOD8100620 Si02
#       8
#     8   8   4   4   8   4   8   8
#     4  10  20  35  60  89 114 154 198 259 299 367
#     4  10  23  39  61  87 124 159 199 265 299 372
#     4  11  20  39  57  88 126 161 202 245 297 361
#     4  12  23  36  60  93 122 166 200 243 299 378
#     4  10  20  37  61  87 115 149 205 253 314 354
#     4  11  19  31  59  90 117 155 202 253 300 351
#     4  10  21  36  59  88 123 158 204 249 305 351
#     4  11  22  40  61  89 128 162 201 246 317 356
#
# _framework density 20.387965000000001
#
# number of rings (size 3 to 8) (size 9 to 14) (size 15 to 20)
#    0.000    1.538    4.615    0.923    0.000    5.538 
#    0.000    1.538    0.000    0.000    0.000    0.000 
#    0.000    0.000    0.000    0.000    0.000    0.000 
#
# Total GULP energy -322231.394498 kJ/mol
# GULP energy per Si atom -12393.515173 kJ/mol
# Density = 2.034156 g / cm^3
# Si number density = 20.387965 Si / 1000 Ang^3
#
#
#
# Elastic Constant Matrix: (Units=GPa)
#
#
# Indices 1 2 3 4 5 6 
#
# 1 99.8959 34.6515 13.3744 0.0000 -1.0861 0.0000
# 2 34.6515 108.5878 27.5202 0.0000 -2.0980 0.0000
# 3 13.3744 27.5202 82.0734 0.0000 7.0282 0.0000
# 4 0.0000 0.0000 0.0000 23.6434 0.0000 4.6204
# 5 -1.0861 -2.0980 7.0282 0.0000 21.3046 0.0000
# 6 0.0000 0.0000 0.0000 4.6204 0.0000 24.2894
#
#
#
# Elastic Compliance Matrix: (Units=1/GPa)
#
#
# Indices 1 2 3 4 5 6 
#
# 1 0.011297 -0.003408 -0.000740 0.000000 0.000484 0.000000
# 2 -0.003408 0.011191 -0.003372 0.000000 0.002041 0.000000
# 3 -0.000740 -0.003372 0.013858 0.000000 -0.004942 0.000000
# 4 0.000000 0.000000 0.000000 0.043928 0.000000 -0.008356
# 5 0.000484 0.002041 -0.004942 0.000000 0.048794 0.000000
# 6 0.000000 0.000000 0.000000 -0.008356 0.000000 0.042760
#
#
# Mechanical properties :
#
#
# Convention : Reuss Voigt Hill
#
# Bulk Modulus (GPa) = 46.93267 49.07214 48.00241
# Shear Modulus (GPa) = 25.77727 28.18154 26.97941
#
# Velocity S-wave (km/s) = 3.55961 3.72191 3.64167
# Velocity P-wave (km/s) = 6.32172 6.52623 6.42479
#
# Compressibility (1/GPa) = 0.02130712
#
# Stress axis : x y z
#
# Youngs Moduli (GPa) = 88.51979 89.36022 72.15800
#
# Poissons Ratio (x) = 0.30455 0.05337
# Poissons Ratio (y) = 0.30169 0.24330
# Poissons Ratio (z) = 0.06547 0.30130
#
# Static dielectric constant tensor:
#      x y z
#    x 3.499730 0.000000 0.076200 
#    y 0.000000 4.747850 0.000000 
#    z 0.076200 0.000000 3.490770 
# 
# 
# High freq. dielectric constant tensor:
#      x y z
#    x 1.789910 0.000000 0.000890 
#    y 0.000000 1.799110 0.000000 
#    z 0.000890 0.000000 1.777550 
# 
# From -- ./inp_files/52573.got.cif
#   From: 2010.06.25/outbox.cif.g09.slc.cpg/sg12_27_cif.got.tgz:52573.got - 2010.06.28 00:19:55.
