data_PCOD8100385
_publ_section_title
;
Structure prediction by ZEFSAII (Michael W. Deem and Ramdas Pophale) SiO2 
 PCOD8100385
Probable space group: C 2/M
;
_chemical_formula_sum "Si O2"
_cell_formula_units_Z 48
_cell_length_a 21.773733
_cell_length_b 8.757337
_cell_length_c 12.167130
_cell_angle_alpha 90.000000
_cell_angle_beta 100.865488
_cell_angle_gamma 90.000000
_cell_volume 2278.434907
_symmetry_space_group_name_H-M "C 2/M"
_symmetry_group_IT_number 12
_symmetry_cell_setting 'monoclinic'
loop_
_space_group_symop_operation_xyz
x,y,z
-x,y,-z
-x,-y,-z
x,-y,z
1/2+x,1/2+y,z
1/2-x,1/2+y,-z
1/2-x,1/2-y,-z
1/2+x,1/2-y,z
loop_
_atom_site_type_symbol
_atom_site_label
_atom_site_fract_x
_atom_site_fract_y
_atom_site_fract_z
Si Si1 0.071801 0.833490 0.510345
Si Si2 0.933050 0.179172 0.928888
Si Si3 0.653748 0.679725 0.737152
Si Si4 0.597832 0.174733 0.297910
Si Si5 0.179477 0.319537 0.971014
Si Si6 0.762090 0.325266 0.620082
O O1 0.097983 0.774534 0.635705
O O2 0.083078 0.713043 0.418666
O O3 0.000000 0.858255 0.500000
O O4 0.102775 0.000000 0.493010
O O5 0.937868 0.218125 0.800809
O O6 0.924886 0.000000 0.945331
O O7 0.870874 0.260970 0.956005
O O8 0.000000 0.235021 0.000000
O O9 0.653628 0.500000 0.767067
O O10 0.647136 0.777316 0.844936
O O11 0.716576 0.736009 0.698842
O O12 0.670762 0.204911 0.306407
O O13 0.579097 0.000000 0.269636
O O14 0.186415 0.500000 0.988588
O O15 0.250000 0.250000 0.000000
O O16 0.748123 0.500000 0.592903
O O17 0.750000 0.250000 0.500000
#
# Coordination Sequence:
#
# PCOD8100385 Si02
#       6
#     8   8   8   8   8   8
#     4  10  22  39  61  90 125 171 216 256 312 383
#     4  11  26  47  71  97 129 174 225 274 331 398
#     4  10  21  39  63  92 129 169 212 262 318 383
#     4  11  23  39  63  95 129 163 208 265 324 387
#     4  12  26  45  70  99 134 175 223 275 332 393
#     4  10  20  35  58  89 123 159 200 249 307 374
#
# _framework density 21.067094000000001
#
# number of rings (size 3 to 8) (size 9 to 14) (size 15 to 20)
#    0.000    1.333    1.667    3.500    2.333    5.000 
#    0.000    0.000    0.000    0.000    0.000    0.000 
#    0.000    0.000    0.000    0.000    0.000    0.000 
#
# Total GULP energy -297527.027085 kJ/mol
# GULP energy per Si atom -12396.959462 kJ/mol
# Density = 2.101914 g / cm^3
# Si number density = 21.067094 Si / 1000 Ang^3
#
#
#
# Elastic Constant Matrix: (Units=GPa)
#
#
# Indices 1 2 3 4 5 6 
#
# 1 91.7755 36.6455 24.5847 0.0000 12.8383 0.0000
# 2 36.6455 82.9633 40.6141 0.0000 10.4809 0.0000
# 3 24.5847 40.6141 124.2104 0.0000 6.9971 0.0000
# 4 0.0000 0.0000 0.0000 41.1904 0.0000 -3.7641
# 5 12.8383 10.4809 6.9971 0.0000 28.0934 0.0000
# 6 0.0000 0.0000 0.0000 -3.7641 0.0000 27.3567
#
#
#
# Elastic Compliance Matrix: (Units=1/GPa)
#
#
# Indices 1 2 3 4 5 6 
#
# 1 0.013752 -0.005156 -0.000801 0.000000 -0.004161 0.000000
# 2 -0.005156 0.016801 -0.004313 0.000000 -0.002837 0.000000
# 3 -0.000801 -0.004313 0.009644 0.000000 -0.000427 0.000000
# 4 0.000000 0.000000 0.000000 0.024587 0.000000 0.003383
# 5 -0.004161 -0.002837 -0.000427 0.000000 0.038662 0.000000
# 6 0.000000 0.000000 0.000000 0.003383 0.000000 0.037020
#
#
# Mechanical properties :
#
#
# Convention : Reuss Voigt Hill
#
# Bulk Modulus (GPa) = 50.87796 55.84865 53.36330
# Shear Modulus (GPa) = 29.84038 32.46841 31.15440
#
# Velocity S-wave (km/s) = 3.76765 3.93006 3.84971
# Velocity P-wave (km/s) = 6.56733 6.86741 6.71904
#
# Compressibility (1/GPa) = 0.01965488
#
# Stress axis : x y z
#
# Youngs Moduli (GPa) = 72.71777 59.52027 103.69320
#
# Poissons Ratio (x) = 0.30690 0.08311
# Poissons Ratio (y) = 0.37495 0.44725
# Poissons Ratio (z) = 0.05828 0.25672
#
# Static dielectric constant tensor:
#      x y z
#    x 4.134390 0.000000 0.012830 
#    y 0.000000 6.197460 0.000000 
#    z 0.012830 0.000000 3.765750 
# 
# 
# High freq. dielectric constant tensor:
#      x y z
#    x 1.832850 0.000000 0.007260 
#    y 0.000000 1.816610 0.000000 
#    z 0.007260 0.000000 1.840520 
# 
# From -- ./inp_files/173049.got.cif
#   From: 2010.06.25/outbox.cif.g09.slc.cpg/sg12_87_cif.got.tgz:173049.got - 2010.06.28 00:19:55.
