data_PCOD8100451
_publ_section_title
;
Structure prediction by ZEFSAII (Michael W. Deem and Ramdas Pophale) SiO2 
 PCOD8100451
Probable space group: C 2/M
;
_chemical_formula_sum "Si O2"
_cell_formula_units_Z 64
_cell_length_a 25.800049
_cell_length_b 9.858118
_cell_length_c 13.840850
_cell_angle_alpha 90.000000
_cell_angle_beta 71.265432
_cell_angle_gamma 90.000000
_cell_volume 3333.764591
_symmetry_space_group_name_H-M "C 2/M"
_symmetry_group_IT_number 12
_symmetry_cell_setting 'monoclinic'
loop_
_space_group_symop_operation_xyz
x,y,z
-x,y,-z
-x,-y,-z
x,-y,z
1/2+x,1/2+y,z
1/2-x,1/2+y,-z
1/2-x,1/2-y,-z
1/2+x,1/2-y,z
loop_
_atom_site_type_symbol
_atom_site_label
_atom_site_fract_x
_atom_site_fract_y
_atom_site_fract_z
Si Si1 0.593566 0.839703 0.699637
Si Si2 0.617473 0.646251 0.033890
Si Si3 0.900735 0.847088 0.736006
Si Si4 0.215200 0.850400 0.257431
Si Si5 0.561412 0.149503 0.929685
Si Si6 0.498143 0.159433 0.614034
Si Si7 0.260754 0.349355 0.080426
Si Si8 0.217144 0.347602 0.589045
O O1 0.570370 0.785524 0.817176
O O2 0.553526 0.792101 0.636215
O O3 0.655809 0.788400 0.644717
O O4 0.593379 0.000000 0.703693
O O5 0.587135 0.500000 0.042009
O O6 0.623941 0.682476 0.142938
O O7 0.585840 0.762129 0.999271
O O8 0.675049 0.633401 0.947036
O O9 0.850285 0.827815 0.691316
O O10 0.947642 0.739209 0.689025
O O11 0.924641 0.000000 0.713462
O O12 0.238686 0.721845 0.188567
O O13 0.246541 0.853535 0.338147
O O14 0.223571 0.000000 0.201505
O O15 0.589007 0.000000 0.913938
O O16 0.500000 0.135836 0.000000
O O17 0.500000 0.195882 0.500000
O O18 0.488069 0.000000 0.636152
O O19 0.233945 0.500000 0.083813
O O20 0.250000 0.250000 0.000000
O O21 0.212396 0.500000 0.547964
O O22 0.250000 0.250000 0.500000
#
# Coordination Sequence:
#
# PCOD8100451 Si02
#       8
#     8   8   8   8   8   8   8   8
#     4   9  19  38  58  83 119 150 186 240 293 340
#     4  10  21  36  54  81 119 153 185 232 285 336
#     4  10  21  38  57  82 119 153 187 235 288 346
#     4  10  21  39  59  84 119 157 195 241 295 347
#     4  10  20  35  59  86 113 152 196 234 277 344
#     4  10  22  39  61  86 111 144 190 243 293 340
#     4  11  21  35  55  83 118 157 193 235 285 341
#     4  10  22  39  62  85 114 155 194 244 301 349
#
# _framework density 19.197516
#
# number of rings (size 3 to 8) (size 9 to 14) (size 15 to 20)
#    0.000    2.000    1.250    1.875    1.750    5.000 
#    0.000    1.875    0.000    0.000    0.000    0.000 
#    0.000    0.000    0.000    0.000    0.000    0.000 
#
# Total GULP energy -396560.915738 kJ/mol
# GULP energy per Si atom -12392.528617 kJ/mol
# Density = 1.915382 g / cm^3
# Si number density = 19.197516 Si / 1000 Ang^3
#
#
#
# Elastic Constant Matrix: (Units=GPa)
#
#
# Indices 1 2 3 4 5 6 
#
# 1 130.3790 43.9868 44.7934 0.0000 2.3463 0.0000
# 2 43.9868 103.6457 42.5277 0.0000 -2.5994 0.0000
# 3 44.7934 42.5277 82.5669 0.0000 -10.2972 0.0000
# 4 0.0000 0.0000 0.0000 32.6296 0.0000 -3.2275
# 5 2.3463 -2.5994 -10.2972 0.0000 32.6054 0.0000
# 6 0.0000 0.0000 0.0000 -3.2275 0.0000 25.5412
#
#
#
# Elastic Compliance Matrix: (Units=1/GPa)
#
#
# Indices 1 2 3 4 5 6 
#
# 1 0.010096 -0.002506 -0.004478 0.000000 -0.002341 0.000000
# 2 -0.002506 0.012891 -0.005340 0.000000 -0.000478 0.000000
# 3 -0.004478 -0.005340 0.017987 0.000000 0.005577 0.000000
# 4 0.000000 0.000000 0.000000 0.031035 0.000000 0.003922
# 5 -0.002341 -0.000478 0.005577 0.000000 0.032561 0.000000
# 6 0.000000 0.000000 0.000000 0.003922 0.000000 0.039648
#
#
# Mechanical properties :
#
#
# Convention : Reuss Voigt Hill
#
# Bulk Modulus (GPa) = 61.25396 64.35636 62.80516
# Shear Modulus (GPa) = 28.68482 30.50750 29.59616
#
# Velocity S-wave (km/s) = 3.86967 3.99072 3.93067
# Velocity P-wave (km/s) = 7.20710 7.40477 7.30660
#
# Compressibility (1/GPa) = 0.01632548
#
# Stress axis : x y z
#
# Youngs Moduli (GPa) = 99.04795 77.57488 55.59591
#
# Poissons Ratio (x) = 0.19439 0.24898
# Poissons Ratio (y) = 0.24820 0.29687
# Poissons Ratio (z) = 0.44358 0.41424
#
# Static dielectric constant tensor:
#      x y z
#    x 3.351290 0.000000 0.167100 
#    y 0.000000 4.105940 0.000000 
#    z 0.167100 0.000000 3.357300 
# 
# 
# High freq. dielectric constant tensor:
#      x y z
#    x 1.751560 0.000000 0.002600 
#    y 0.000000 1.742510 0.000000 
#    z 0.002600 0.000000 1.738490 
# 
# From -- ./inp_files/243843.got.cif
#   From: 2010.06.25/outbox.cif.g09.slc.cpg/sg12_122_cif.got.tgz:243843.got - 2010.06.28 00:19:55.
