data_PCOD8100474
_publ_section_title
;
Structure prediction by ZEFSAII (Michael W. Deem and Ramdas Pophale) SiO2 
 PCOD8100474
Probable space group: C 2/M
;
_chemical_formula_sum "Si O2"
_cell_formula_units_Z 64
_cell_length_a 20.423492
_cell_length_b 8.888334
_cell_length_c 31.754507
_cell_angle_alpha 90.000000
_cell_angle_beta 36.176176
_cell_angle_gamma 90.000000
_cell_volume 3402.565604
_symmetry_space_group_name_H-M "C 2/M"
_symmetry_group_IT_number 12
_symmetry_cell_setting 'monoclinic'
loop_
_space_group_symop_operation_xyz
x,y,z
-x,y,-z
-x,-y,-z
x,-y,z
1/2+x,1/2+y,z
1/2-x,1/2+y,-z
1/2-x,1/2-y,-z
1/2+x,1/2-y,z
loop_
_atom_site_type_symbol
_atom_site_label
_atom_site_fract_x
_atom_site_fract_y
_atom_site_fract_z
Si Si1 0.067400 0.324569 0.788202
Si Si2 0.497616 0.324955 0.048819
Si Si3 0.365672 0.823184 0.951071
Si Si4 0.052779 0.326155 0.350688
Si Si5 0.657989 0.676343 0.576931
Si Si6 0.906766 0.172690 0.583141
Si Si7 0.306971 0.676248 0.344736
Si Si8 0.699347 0.671495 0.789553
O O1 0.073764 0.500000 0.774717
O O2 0.082026 0.230777 0.737406
O O3 0.166415 0.281937 0.768808
O O4 0.950608 0.279490 0.869732
O O5 0.528965 0.500000 0.033930
O O6 0.589991 0.237908 0.027542
O O7 0.374414 0.294453 0.130968
O O8 0.500000 0.263281 0.000000
O O9 0.351180 0.000000 0.962681
O O10 0.250000 0.750000 0.000000
O O11 0.017792 0.500000 0.369141
O O12 0.055209 0.270699 0.397178
O O13 0.171897 0.301410 0.266376
O O14 0.964071 0.234204 0.370174
O O15 0.661701 0.500000 0.567308
O O16 0.750000 0.750000 0.500000
O O17 0.683210 0.719585 0.611757
O O18 0.793278 0.232547 0.623120
O O19 0.000000 0.191065 0.500000
O O20 0.891350 0.000000 0.604967
O O21 0.288336 0.500000 0.347846
O O22 0.680168 0.500000 0.784084
#
# Coordination Sequence:
#
# PCOD8100474 Si02
#       8
#     8   8   8   8   8   8   8   8
#     4  10  20  35  59  87 114 149 192 239 285 335
#     4   9  18  35  59  85 118 155 191 232 279 334
#     4  10  21  37  58  86 118 154 193 235 284 337
#     4  11  22  37  59  85 115 151 191 233 283 342
#     4  11  25  43  61  82 114 153 192 236 291 347
#     4  11  23  37  58  87 115 145 187 237 281 331
#     4  11  23  39  59  84 115 151 190 234 287 342
#     4   9  18  34  57  85 115 151 189 231 283 336
#
# _framework density 18.809336999999999
#
# number of rings (size 3 to 8) (size 9 to 14) (size 15 to 20)
#    0.000    1.750    1.250    3.000    0.000    7.250 
#    2.250    0.000    0.000    0.000    0.000    0.000 
#    0.000    0.000    0.000    0.000    0.000    0.000 
#
# Total GULP energy -396902.915286 kJ/mol
# GULP energy per Si atom -12403.216103 kJ/mol
# Density = 1.876653 g / cm^3
# Si number density = 18.809337 Si / 1000 Ang^3
#
#
#
# Elastic Constant Matrix: (Units=GPa)
#
#
# Indices 1 2 3 4 5 6 
#
# 1 77.4535 43.3007 57.2777 -0.0377 6.0021 0.1147
# 2 43.3007 63.6712 49.2442 -0.0294 6.2483 -0.0122
# 3 57.2777 49.2442 116.1940 -0.0005 7.9762 -0.0032
# 4 -0.0377 -0.0294 -0.0005 30.3546 -0.0006 -1.7411
# 5 6.0021 6.2483 7.9762 -0.0006 35.4381 -0.0126
# 6 0.1147 -0.0122 -0.0032 -1.7411 -0.0126 34.6758
#
#
#
# Elastic Compliance Matrix: (Units=1/GPa)
#
#
# Indices 1 2 3 4 5 6 
#
# 1 0.024544 -0.010873 -0.007453 0.000015 -0.000563 -0.000085
# 2 -0.010873 0.028310 -0.006523 0.000016 -0.001682 0.000046
# 3 -0.007453 -0.006523 0.015112 -0.000014 -0.000989 0.000023
# 4 0.000015 0.000016 -0.000014 0.033039 -0.000001 0.001659
# 5 -0.000563 -0.001682 -0.000989 -0.000001 0.028833 0.000012
# 6 -0.000085 0.000046 0.000023 0.001659 0.000012 0.028922
#
#
# Mechanical properties :
#
#
# Convention : Reuss Voigt Hill
#
# Bulk Modulus (GPa) = 54.73350 61.88488 58.30919
# Shear Modulus (GPa) = 23.30496 27.26011 25.28254
#
# Velocity S-wave (km/s) = 3.52378 3.81108 3.67024
# Velocity P-wave (km/s) = 6.76153 7.23452 7.00202
#
# Compressibility (1/GPa) = 0.01827035
#
# Stress axis : x y z
#
# Youngs Moduli (GPa) = 40.74262 35.32352 66.17110
#
# Poissons Ratio (x) = 0.38406 0.49314
# Poissons Ratio (y) = 0.44298 0.43162
# Poissons Ratio (z) = 0.30363 0.23041
#
# Static dielectric constant tensor:
#      x y z
#    x 3.100060 0.000610 -0.065770 
#    y 0.000610 3.574920 0.000130 
#    z -0.065770 0.000130 3.666890 
# 
# 
# High freq. dielectric constant tensor:
#      x y z
#    x 1.717570 0.000000 0.001090 
#    y 0.000000 1.741680 0.000000 
#    z 0.001090 0.000000 1.745270 
# 
# From -- ./inp_files/378196.got.cif
#   From: 2010.06.25/outbox.cif.g09.slc.cpg/sg12_190_cif.got.tgz:378196.got - 2010.06.28 00:19:55.
