data_PCOD8100413
_publ_section_title
;
Structure prediction by ZEFSAII (Michael W. Deem and Ramdas Pophale) SiO2 
 PCOD8100413
Probable space group: C 2/M
;
_chemical_formula_sum "Si O2"
_cell_formula_units_Z 40
_cell_length_a 26.983601
_cell_length_b 11.241012
_cell_length_c 9.327430
_cell_angle_alpha 90.000000
_cell_angle_beta 46.927954
_cell_angle_gamma 90.000000
_cell_volume 2066.735465
_symmetry_space_group_name_H-M "C 2/M"
_symmetry_group_IT_number 12
_symmetry_cell_setting 'monoclinic'
loop_
_space_group_symop_operation_xyz
x,y,z
-x,y,-z
-x,-y,-z
x,-y,z
1/2+x,1/2+y,z
1/2-x,1/2+y,-z
1/2-x,1/2-y,-z
1/2+x,1/2-y,z
loop_
_atom_site_type_symbol
_atom_site_label
_atom_site_fract_x
_atom_site_fract_y
_atom_site_fract_z
Si Si1 0.507389 0.000000 0.225201
Si Si2 0.205406 0.137498 0.413679
Si Si3 0.160016 0.264055 0.769925
Si Si4 0.412611 0.360784 0.563622
Si Si5 0.951752 0.248357 0.776052
Si Si6 0.393962 0.000000 0.237284
O O1 0.524208 0.884844 0.287144
O O2 0.429531 0.000000 0.323574
O O3 0.552332 0.000000 0.995447
O O4 0.173891 0.155938 0.634319
O O5 0.274573 0.213194 0.257810
O O6 0.151954 0.180576 0.400231
O O7 0.222686 0.000000 0.358412
O O8 0.150943 0.381693 0.689672
O O9 0.095094 0.229675 0.992663
O O10 0.410416 0.500000 0.603369
O O11 0.481512 0.333490 0.338956
O O12 0.410886 0.286764 0.714287
#
# Coordination Sequence:
#
# PCOD8100413 Si02
#       6
#     4   8   8   8   8   4
#     4   9  18  29  54  82 110 140 176 220 275 323
#     4  10  21  37  56  82 111 146 184 226 275 325
#     4  10  20  35  59  80 110 144 186 227 271 329
#     4  10  22  38  56  79 113 147 183 228 276 323
#     4  10  20  36  56  82 111 146 182 226 275 326
#     4   9  16  32  52  82 110 140 174 223 275 325
#
# _framework density 19.354194
#
# number of rings (size 3 to 8) (size 9 to 14) (size 15 to 20)
#    0.000    2.200    1.000    2.400    0.000    6.400 
#    0.000    3.000    0.000    0.000    0.000    0.000 
#    0.000    0.000    0.000    0.000    0.000    0.000 
#
# Total GULP energy -247989.302813 kJ/mol
# GULP energy per Si atom -12399.465141 kJ/mol
# Density = 1.931014 g / cm^3
# Si number density = 19.354194 Si / 1000 Ang^3
#
#
#
# Elastic Constant Matrix: (Units=GPa)
#
#
# Indices 1 2 3 4 5 6 
#
# 1 145.4977 46.7245 7.8813 0.0000 3.1351 0.0000
# 2 46.7245 63.7833 11.2790 0.0000 10.7682 0.0000
# 3 7.8813 11.2790 53.4791 0.0000 -0.1408 0.0000
# 4 0.0000 0.0000 0.0000 26.2662 0.0000 1.6582
# 5 3.1351 10.7682 -0.1408 0.0000 19.4165 0.0000
# 6 0.0000 0.0000 0.0000 1.6582 0.0000 34.2711
#
#
#
# Elastic Compliance Matrix: (Units=1/GPa)
#
#
# Indices 1 2 3 4 5 6 
#
# 1 0.009093 -0.007109 0.000166 0.000000 0.002475 0.000000
# 2 -0.007109 0.023608 -0.003963 0.000000 -0.011974 0.000000
# 3 0.000166 -0.003963 0.019516 0.000000 0.002313 0.000000
# 4 0.000000 0.000000 0.000000 0.038188 0.000000 -0.001848
# 5 0.002475 -0.011974 0.002313 0.000000 0.057760 0.000000
# 6 0.000000 0.000000 0.000000 -0.001848 0.000000 0.029269
#
#
# Mechanical properties :
#
#
# Convention : Reuss Voigt Hill
#
# Bulk Modulus (GPa) = 32.88844 43.83662 38.36253
# Shear Modulus (GPa) = 23.87983 29.11577 26.49780
#
# Velocity S-wave (km/s) = 3.51641 3.88282 3.70415
# Velocity P-wave (km/s) = 5.78935 6.54222 6.17727
#
# Compressibility (1/GPa) = 0.03040582
#
# Stress axis : x y z
#
# Youngs Moduli (GPa) = 109.96881 42.35901 51.23904
#
# Poissons Ratio (x) = 0.30111 -0.00849
# Poissons Ratio (y) = 0.78173 0.20306
# Poissons Ratio (z) = -0.01822 0.16786
#
# Static dielectric constant tensor:
#      x y z
#    x 3.753720 0.000000 -0.148410 
#    y 0.000000 3.576800 0.000000 
#    z -0.148410 0.000000 3.239800 
# 
# 
# High freq. dielectric constant tensor:
#      x y z
#    x 1.766160 0.000000 -0.010470 
#    y 0.000000 1.753290 0.000000 
#    z -0.010470 0.000000 1.728000 
# 
# From -- ./inp_files/83593.got.cif
#   From: 2010.06.25/outbox.cif.g09.slc.cpg/sg12_42_cif.got.tgz:83593.got - 2010.06.28 00:19:55.
