data_PCOD8100860
_publ_section_title
;
Structure prediction by ZEFSAII (Michael W. Deem and Ramdas Pophale) SiO2 
 PCOD8100860
Probable space group: C 2/M
;
_chemical_formula_sum "Si O2"
_cell_formula_units_Z 56
_cell_length_a 18.976713
_cell_length_b 8.794348
_cell_length_c 26.851963
_cell_angle_alpha 90.000000
_cell_angle_beta 140.328613
_cell_angle_gamma 90.000000
_cell_volume 2860.765993
_symmetry_space_group_name_H-M "C 2/M"
_symmetry_group_IT_number 12
_symmetry_cell_setting 'monoclinic'
loop_
_space_group_symop_operation_xyz
x,y,z
-x,y,-z
-x,-y,-z
x,-y,z
1/2+x,1/2+y,z
1/2-x,1/2+y,-z
1/2-x,1/2-y,-z
1/2+x,1/2-y,z
loop_
_atom_site_type_symbol
_atom_site_label
_atom_site_fract_x
_atom_site_fract_y
_atom_site_fract_z
Si Si1 0.901964 0.680295 0.217473
Si Si2 0.704397 0.679833 0.743486
Si Si3 0.031441 0.172867 0.570062
Si Si4 0.149484 0.819264 0.915511
Si Si5 0.293748 0.327986 0.475230
Si Si6 0.372843 0.328194 0.678689
Si Si7 0.410516 0.671021 0.814520
O O1 0.895126 0.500000 0.210516
O O2 0.832291 0.737644 0.226369
O O3 0.849993 0.750915 0.139383
O O4 0.028549 0.731659 0.292159
O O5 0.688038 0.500000 0.740764
O O6 0.632307 0.743744 0.657074
O O7 0.833329 0.717876 0.804753
O O8 0.925340 0.182667 0.547685
O O9 0.000000 0.254481 0.500000
O O10 0.065091 0.000000 0.575434
O O11 0.038146 0.775343 0.885396
O O12 0.159076 0.000000 0.915795
O O13 0.250000 0.750000 0.000000
O O14 0.252369 0.500000 0.451058
O O15 0.250000 0.250000 0.500000
O O16 0.244142 0.242091 0.400558
O O17 0.384822 0.500000 0.665277
O O18 0.372254 0.322475 0.737151
O O19 0.398591 0.500000 0.829103
#
# Coordination Sequence:
#
# PCOD8100860 Si02
#       7
#     8   8   8   8   8   8   8
#     4  11  22  37  59  85 115 152 192 233 284 341
#     4  11  21  35  57  83 114 151 193 240 286 338
#     4   9  19  34  51  74 105 143 188 237 285 332
#     4  10  21  40  65  92 121 149 183 227 277 335
#     4  11  21  33  51  74 103 141 186 238 294 344
#     4  10  20  36  55  77 108 144 189 241 288 338
#     4   9  20  37  57  82 113 147 181 225 278 333
#
# _framework density 19.575178000000001
#
# number of rings (size 3 to 8) (size 9 to 14) (size 15 to 20)
#    0.000    1.857    0.000    5.571    0.000    5.714 
#    0.000    2.857    0.000    9.429    0.000    0.000 
#    0.000    0.000    0.000    0.000    0.000    0.000 
#
# Total GULP energy -347177.450504 kJ/mol
# GULP energy per Si atom -12399.194661 kJ/mol
# Density = 1.953062 g / cm^3
# Si number density = 19.575178 Si / 1000 Ang^3
#
#
#
# Elastic Constant Matrix: (Units=GPa)
#
#
# Indices 1 2 3 4 5 6 
#
# 1 103.0539 44.7004 34.4859 0.0000 7.0797 0.0000
# 2 44.7004 110.5903 41.4733 0.0001 3.1447 -0.0002
# 3 34.4859 41.4733 110.4634 0.0000 11.5398 0.0000
# 4 0.0000 0.0001 0.0000 31.2358 0.0000 0.4852
# 5 7.0797 3.1447 11.5398 0.0000 22.2937 0.0000
# 6 0.0000 -0.0002 0.0000 0.4852 0.0000 31.7140
#
#
#
# Elastic Compliance Matrix: (Units=1/GPa)
#
#
# Indices 1 2 3 4 5 6 
#
# 1 0.012351 -0.004156 -0.002058 0.000000 -0.002271 0.000000
# 2 -0.004156 0.011930 -0.003323 0.000000 0.001357 0.000000
# 3 -0.002058 -0.003323 0.011445 0.000000 -0.004802 0.000000
# 4 0.000000 0.000000 0.000000 0.032022 0.000000 -0.000490
# 5 -0.002271 0.001357 -0.004802 0.000000 0.047871 0.000000
# 6 0.000000 0.000000 0.000000 -0.000490 0.000000 0.031539
#
#
# Mechanical properties :
#
#
# Convention : Reuss Voigt Hill
#
# Bulk Modulus (GPa) = 60.05840 62.82520 61.44180
# Shear Modulus (GPa) = 29.10641 30.61190 29.85916
#
# Velocity S-wave (km/s) = 3.86022 3.95880 3.90982
# Velocity P-wave (km/s) = 7.11449 7.28424 7.19986
#
# Compressibility (1/GPa) = 0.01665046
#
# Stress axis : x y z
#
# Youngs Moduli (GPa) = 80.96460 83.82299 87.37593
#
# Poissons Ratio (x) = 0.34835 0.17986
# Poissons Ratio (y) = 0.33647 0.29039
# Poissons Ratio (z) = 0.16666 0.27858
#
# Static dielectric constant tensor:
#      x y z
#    x 3.550750 0.000000 0.106480 
#    y 0.000000 3.697560 0.000000 
#    z 0.106480 0.000000 3.793160 
# 
# 
# High freq. dielectric constant tensor:
#      x y z
#    x 1.765410 0.000000 0.005520 
#    y 0.000000 1.757500 0.000000 
#    z 0.005520 0.000000 1.756720 
# 
# From -- ./inp_files/363168.got.cif
#   From: 2010.06.25/outbox.cif.g09.slc.cpg/sg12_182_cif.got.tgz:363168.got - 2010.06.28 00:19:55.
