data_PCOD8100008
_publ_section_title
;
Structure prediction by ZEFSAII (Michael W. Deem and Ramdas Pophale) SiO2 
 PCOD8100008
Probable space group: C 2/M
;
_chemical_formula_sum "Si O2"
_cell_formula_units_Z 64
_cell_length_a 23.738290
_cell_length_b 9.062205
_cell_length_c 15.112565
_cell_angle_alpha 90.000000
_cell_angle_beta 87.409612
_cell_angle_gamma 90.000000
_cell_volume 3247.711861
_symmetry_space_group_name_H-M "C 2/M"
_symmetry_group_IT_number 12
_symmetry_cell_setting 'monoclinic'
loop_
_space_group_symop_operation_xyz
x,y,z
-x,y,-z
-x,-y,-z
x,-y,z
1/2+x,1/2+y,z
1/2-x,1/2+y,-z
1/2-x,1/2-y,-z
1/2+x,1/2-y,z
loop_
_atom_site_type_symbol
_atom_site_label
_atom_site_fract_x
_atom_site_fract_y
_atom_site_fract_z
Si Si1 0.007882 0.674994 0.225715
Si Si2 0.836496 0.673300 0.539566
Si Si3 0.283271 0.332681 0.387606
Si Si4 0.540311 0.175935 0.417505
Si Si5 0.596057 0.169191 0.879171
Si Si6 0.901414 0.669368 0.922635
Si Si7 0.714623 0.674302 0.079360
Si Si8 0.204060 0.831270 0.813984
O O1 0.007665 0.500000 0.227243
O O2 0.017834 0.737533 0.324349
O O3 0.055954 0.728392 0.154787
O O4 0.948710 0.730605 0.189268
O O5 0.843386 0.500000 0.531270
O O6 0.782613 0.718906 0.603837
O O7 0.824995 0.734389 0.442684
O O8 0.895697 0.736442 0.573260
O O9 0.286246 0.500000 0.422491
O O10 0.307551 0.317524 0.288554
O O11 0.500000 0.233531 0.500000
O O12 0.539690 0.000000 0.415603
O O13 0.651076 0.269811 0.871329
O O14 0.612462 0.000000 0.856404
O O15 0.571430 0.179810 0.980879
O O16 0.883000 0.500000 0.904845
O O17 0.849579 0.779276 0.920416
O O18 0.720600 0.500000 0.072319
O O19 0.740778 0.734429 0.168993
O O20 0.750000 0.750000 0.000000
O O21 0.214283 0.000000 0.842257
#
# Coordination Sequence:
#
# PCOD8100008 Si02
#       8
#     8   8   8   8   8   8   8   8
#     4   9  19  34  56  83 114 153 193 237 288 339
#     4   9  18  34  57  81 109 144 186 234 281 333
#     4   9  20  36  55  81 111 147 185 226 283 345
#     4   9  18  31  51  83 115 144 186 237 285 334
#     4  10  20  35  57  85 114 148 196 241 283 336
#     4  10  20  36  59  84 115 152 191 239 285 338
#     4  12  24  39  58  84 117 152 189 231 283 340
#     4  11  23  37  57  83 115 153 190 232 286 346
#
# _framework density 19.706181000000001
#
# number of rings (size 3 to 8) (size 9 to 14) (size 15 to 20)
#    0.000    2.125    1.250    1.875    3.500    2.500 
#    0.000    0.625    0.000    2.625    0.000    0.000 
#    0.000    0.000    0.000    0.000    0.000    0.000 
#
# Total GULP energy -396721.149578 kJ/mol
# GULP energy per Si atom -12397.535924 kJ/mol
# Density = 1.966133 g / cm^3
# Si number density = 19.706181 Si / 1000 Ang^3
#
#
#
# Elastic Constant Matrix: (Units=GPa)
#
#
# Indices 1 2 3 4 5 6 
#
# 1 108.1496 26.8457 49.8207 0.0000 17.8035 0.0000
# 2 26.8457 66.4750 26.0220 0.0000 4.7663 0.0000
# 3 49.8207 26.0220 122.0347 0.0000 6.2500 0.0000
# 4 0.0000 0.0000 0.0000 20.2900 0.0000 3.4265
# 5 17.8035 4.7663 6.2500 0.0000 33.9930 0.0000
# 6 0.0000 0.0000 0.0000 3.4265 0.0000 24.9046
#
#
#
# Elastic Compliance Matrix: (Units=1/GPa)
#
#
# Indices 1 2 3 4 5 6 
#
# 1 0.012928 -0.003130 -0.004327 0.000000 -0.005537 0.000000
# 2 -0.003130 0.017266 -0.002386 0.000000 -0.000343 0.000000
# 3 -0.004327 -0.002386 0.010435 0.000000 0.000682 0.000000
# 4 0.000000 0.000000 0.000000 0.050458 0.000000 -0.006942
# 5 -0.005537 -0.000343 0.000682 0.000000 0.032240 0.000000
# 6 0.000000 0.000000 0.000000 -0.006942 0.000000 0.041108
#
#
# Mechanical properties :
#
#
# Convention : Reuss Voigt Hill
#
# Bulk Modulus (GPa) = 47.75045 55.78177 51.76611
# Shear Modulus (GPa) = 26.16395 28.76892 27.46644
#
# Velocity S-wave (km/s) = 3.64772 3.82500 3.73741
# Velocity P-wave (km/s) = 6.48266 6.91923 6.70450
#
# Compressibility (1/GPa) = 0.02094221
#
# Stress axis : x y z
#
# Youngs Moduli (GPa) = 77.35083 57.91708 95.83380
#
# Poissons Ratio (x) = 0.18129 0.41466
# Poissons Ratio (y) = 0.24212 0.22868
# Poissons Ratio (z) = 0.33469 0.13820
#
# Static dielectric constant tensor:
#      x y z
#    x 3.744810 0.000000 0.142650 
#    y 0.000000 3.299620 0.000000 
#    z 0.142650 0.000000 3.848700 
# 
# 
# High freq. dielectric constant tensor:
#      x y z
#    x 1.771540 0.000000 0.005680 
#    y 0.000000 1.731180 0.000000 
#    z 0.005680 0.000000 1.776270 
# 
# From -- ./inp_files/238593.got.cif
#   From: 2010.06.25/outbox.cif.g09.slc.cpg/sg12_120_cif.got.tgz:238593.got - 2010.06.28 00:19:55.
