data_PCOD8100437
_publ_section_title
;
Structure prediction by ZEFSAII (Michael W. Deem and Ramdas Pophale) SiO2 
 PCOD8100437
Probable space group: C 2/M
;
_chemical_formula_sum "Si O2"
_cell_formula_units_Z 60
_cell_length_a 22.946362
_cell_length_b 12.425138
_cell_length_c 15.019940
_cell_angle_alpha 90.000000
_cell_angle_beta 132.762436
_cell_angle_gamma 90.000000
_cell_volume 3144.002954
_symmetry_space_group_name_H-M "C 2/M"
_symmetry_group_IT_number 12
_symmetry_cell_setting 'monoclinic'
loop_
_space_group_symop_operation_xyz
x,y,z
-x,y,-z
-x,-y,-z
x,-y,z
1/2+x,1/2+y,z
1/2-x,1/2+y,-z
1/2-x,1/2-y,-z
1/2+x,1/2-y,z
loop_
_atom_site_type_symbol
_atom_site_label
_atom_site_fract_x
_atom_site_fract_y
_atom_site_fract_z
Si Si1 0.884200 0.377013 0.513545
Si Si2 0.250437 0.878606 0.245345
Si Si3 0.973516 0.253043 0.754607
Si Si4 0.500000 0.223163 0.500000
Si Si5 0.918958 0.809237 0.882342
Si Si6 0.095261 0.377455 0.996999
Si Si7 0.430634 0.621969 0.283946
Si Si8 0.239365 0.202247 0.892784
O O1 0.888548 0.500000 0.549328
O O2 0.796792 0.347238 0.384751
O O3 0.907909 0.303851 0.621502
O O4 0.943828 0.357193 0.494548
O O5 0.156680 0.877824 0.167421
O O6 0.274772 0.798915 0.191688
O O7 0.274124 0.000000 0.241176
O O8 0.921601 0.200076 0.778773
O O9 0.034687 0.340676 0.856868
O O10 0.025854 0.161994 0.760453
O O11 0.549024 0.300502 0.614351
O O12 0.915604 0.691459 0.924643
O O13 0.000000 0.867378 0.000000
O O14 0.077254 0.500000 0.003313
O O15 0.184849 0.367996 0.054947
O O16 0.458388 0.500000 0.331224
O O17 0.335746 0.623664 0.178213
O O18 0.250000 0.250000 0.000000
#
# Coordination Sequence:
#
# PCOD8100437 Si02
#       8
#     8   8   8   4   8   8   8   8
#     4  10  20  35  59  85 113 149 185 230 283 329
#     4  10  22  39  60  83 112 150 188 230 284 334
#     4  10  21  37  56  85 114 145 190 236 272 334
#     4  10  20  38  56  82 116 146 186 228 272 344
#     4   9  21  39  57  81 116 148 188 236 277 327
#     4  10  20  36  59  83 112 150 186 230 286 333
#     4  11  22  37  58  81 112 150 186 229 281 336
#     4  11  21  39  53  84 117 145 186 233 281 334
#
# _framework density 19.083952
#
# number of rings (size 3 to 8) (size 9 to 14) (size 15 to 20)
#    0.000    1.867    2.667    1.200    0.000    5.333 
#    0.000    0.000    0.000    0.000    0.000    0.000 
#    0.000    0.000    0.000    0.000    0.000    0.000 
#
# Total GULP energy -371981.565785 kJ/mol
# GULP energy per Si atom -12399.385526 kJ/mol
# Density = 1.904052 g / cm^3
# Si number density = 19.083952 Si / 1000 Ang^3
#
#
#
# Elastic Constant Matrix: (Units=GPa)
#
#
# Indices 1 2 3 4 5 6 
#
# 1 75.4964 5.3198 33.4316 0.0000 -6.1753 0.0000
# 2 5.3198 60.9977 23.5577 0.0000 1.3128 0.0000
# 3 33.4316 23.5577 97.3473 0.0000 -0.6711 0.0000
# 4 0.0000 0.0000 0.0000 -18.7206 0.0000 12.3769
# 5 -6.1753 1.3128 -0.6711 0.0000 36.6752 0.0000
# 6 0.0000 0.0000 0.0000 12.3769 0.0000 12.4009
#
#
#
# Elastic Compliance Matrix: (Units=1/GPa)
#
#
# Indices 1 2 3 4 5 6 
#
# 1 0.015889 0.000728 -0.005615 0.000000 0.002547 0.000000
# 2 0.000728 0.018137 -0.004643 0.000000 -0.000612 0.000000
# 3 -0.005615 -0.004643 0.013321 0.000000 -0.000536 0.000000
# 4 0.000000 0.000000 0.000000 -0.032182 0.000000 0.032119
# 5 0.002547 -0.000612 -0.000536 0.000000 0.027707 0.000000
# 6 0.000000 0.000000 0.000000 0.032119 0.000000 0.048582
#
#
# Mechanical properties :
#
#
# Convention : Reuss Voigt Hill
#
# Bulk Modulus (GPa) = 35.35321 39.82883 37.59102
# Shear Modulus (GPa) = 41.68578 17.50658 29.59618
#
# Velocity S-wave (km/s) = 4.67876 3.03206 3.94234
# Velocity P-wave (km/s) = 6.91036 5.75964 6.36107
#
# Compressibility (1/GPa) = 0.02828597
#
# Stress axis : x y z
#
# Youngs Moduli (GPa) = 62.93537 55.13587 75.06953
#
# Poissons Ratio (x) = -0.04015 0.42155
# Poissons Ratio (y) = -0.04583 0.34858
# Poissons Ratio (z) = 0.35341 0.25602
#
# Static dielectric constant tensor:
#      x y z
#    x 3.453670 0.000000 0.044790 
#    y 0.000000 2.781850 0.000000 
#    z 0.044790 0.000000 3.572710 
# 
# 
# High freq. dielectric constant tensor:
#      x y z
#    x 1.745630 0.000000 0.005610 
#    y 0.000000 1.731770 0.000000 
#    z 0.005610 0.000000 1.751350 
# 
# From -- ./inp_files/240008.got.cif
#   From: 2010.06.25/outbox.cif.g09.slc.cpg/sg12_121_cif.got.tgz:240008.got - 2010.06.28 00:19:55.
