data_PCOD8100509
_publ_section_title
;
Structure prediction by ZEFSAII (Michael W. Deem and Ramdas Pophale) SiO2 
 PCOD8100509
Probable space group: C 2/M
;
_chemical_formula_sum "Si O2"
_cell_formula_units_Z 64
_cell_length_a 21.672760
_cell_length_b 23.265120
_cell_length_c 18.125305
_cell_angle_alpha 90.000000
_cell_angle_beta 161.586369
_cell_angle_gamma 90.000000
_cell_volume 2886.820511
_symmetry_space_group_name_H-M "C 2/M"
_symmetry_group_IT_number 12
_symmetry_cell_setting 'monoclinic'
loop_
_space_group_symop_operation_xyz
x,y,z
-x,y,-z
-x,-y,-z
x,-y,z
1/2+x,1/2+y,z
1/2-x,1/2+y,-z
1/2-x,1/2-y,-z
1/2+x,1/2-y,z
loop_
_atom_site_type_symbol
_atom_site_label
_atom_site_fract_x
_atom_site_fract_y
_atom_site_fract_z
Si Si1 0.127387 0.063957 0.735685
Si Si2 0.897935 0.260163 0.060635
Si Si3 0.361669 0.562639 0.695603
Si Si4 0.791293 0.066847 0.455616
Si Si5 0.900899 0.437515 0.183919
Si Si6 0.578024 0.867903 0.006643
Si Si7 0.612738 0.322126 0.202200
Si Si8 0.554489 0.814024 0.726795
O O1 0.929877 0.090547 0.546794
O O2 0.082504 0.000000 0.658021
O O3 0.297288 0.066153 0.988421
O O4 0.215462 0.097450 0.764847
O O5 0.966718 0.292119 0.212918
O O6 0.871577 0.305400 0.965633
O O7 0.056075 0.214866 0.210037
O O8 0.691265 0.228808 0.836951
O O9 0.439688 0.500000 0.810885
O O10 0.421658 0.573943 0.678183
O O11 0.441218 0.611529 0.840410
O O12 0.129429 0.562964 0.428433
O O13 0.594000 0.103264 0.236454
O O14 0.737544 0.000000 0.382240
O O15 0.845002 0.500000 0.158850
O O16 0.854052 0.378878 0.176036
O O17 0.500000 0.864960 0.000000
O O18 0.842365 0.313381 0.448372
O O19 0.500000 0.303946 0.000000
#
# Coordination Sequence:
#
# PCOD8100509 Si02
#       8
#     8   8   8   8   8   8   8   8
#     4  10  20  35  59  88 121 159 204 256 311 367
#     4  11  24  42  64  90 118 164 222 262 309 358
#     4   9  18  36  64  92 121 161 207 259 315 373
#     4  10  21  37  62  94 124 160 209 263 313 365
#     4   9  16  34  63  94 124 152 194 258 320 362
#     4  12  24  40  59  85 125 169 210 255 313 374
#     4  11  24  41  61  91 129 166 201 255 324 383
#     4  10  22  42  68  93 120 158 214 268 306 369
#
# _framework density 22.169720999999999
#
# number of rings (size 3 to 8) (size 9 to 14) (size 15 to 20)
#    0.000    1.750    2.500    1.875    1.750    3.250 
#    0.000    2.500    0.000    0.000    0.000    4.375 
#    0.000    0.000    0.000    0.000    0.000    0.000 
#
# Total GULP energy -396570.859908 kJ/mol
# GULP energy per Si atom -12392.839372 kJ/mol
# Density = 2.211926 g / cm^3
# Si number density = 22.169721 Si / 1000 Ang^3
#
#
#
# Elastic Constant Matrix: (Units=GPa)
#
#
# Indices 1 2 3 4 5 6 
#
# 1 76.2239 44.0892 23.2698 0.0006 19.9122 -0.0010
# 2 44.0892 133.7546 31.0176 0.0001 14.1976 -0.0006
# 3 23.2698 31.0176 51.4613 0.0026 3.8494 -0.0010
# 4 0.0006 0.0001 0.0026 16.7028 0.0010 17.2690
# 5 19.9122 14.1976 3.8494 0.0010 32.2822 -0.0001
# 6 -0.0010 -0.0006 -0.0010 17.2690 -0.0001 21.8237
#
#
#
# Elastic Compliance Matrix: (Units=1/GPa)
#
#
# Indices 1 2 3 4 5 6 
#
# 1 0.019815 -0.004176 -0.005717 0.000002 -0.009704 -0.000001
# 2 -0.004176 0.009917 -0.003991 0.000005 -0.001310 -0.000004
# 3 -0.005717 -0.003991 0.024244 -0.000025 0.002391 0.000020
# 4 0.000002 0.000005 -0.000025 0.329171 -0.000011 -0.260472
# 5 -0.009704 -0.001310 0.002391 -0.000011 0.037254 0.000009
# 6 -0.000001 -0.000004 0.000020 -0.260472 0.000009 0.251932
#
#
# Mechanical properties :
#
#
# Convention : Reuss Voigt Hill
#
# Bulk Modulus (GPa) = 38.15642 50.91033 44.53337
# Shear Modulus (GPa) = 7.05380 25.03261 16.04320
#
# Velocity S-wave (km/s) = 1.78567 3.36391 2.69300
# Velocity P-wave (km/s) = 4.63680 6.17265 5.45901
#
# Compressibility (1/GPa) = 0.02620791
#
# Stress axis : x y z
#
# Youngs Moduli (GPa) = 50.46712 100.83212 41.24687
#
# Poissons Ratio (x) = 0.42104 0.23582
# Poissons Ratio (y) = 0.21073 0.16464
# Poissons Ratio (z) = 0.28853 0.40247
#
# Static dielectric constant tensor:
#      x y z
#    x 3.812850 0.000000 0.262340 
#    y 0.000000 4.597440 -0.000010 
#    z 0.262340 -0.000010 3.789150 
# 
# 
# High freq. dielectric constant tensor:
#      x y z
#    x 1.854760 0.000000 0.022740 
#    y 0.000000 1.881320 0.000000 
#    z 0.022740 0.000000 1.860760 
# 
# From -- ./inp_files/286469.got.cif
#   From: 2010.06.25/outbox.cif.g09.slc.cpg/sg12_144_cif.got.tgz:286469.got - 2010.06.28 00:19:55.
