data_PCOD8100301
_publ_section_title
;
Structure prediction by ZEFSAII (Michael W. Deem and Ramdas Pophale) SiO2 
 PCOD8100301
Probable space group: C 2/M
;
_chemical_formula_sum "Si O2"
_cell_formula_units_Z 56
_cell_length_a 24.237338
_cell_length_b 8.785373
_cell_length_c 14.086446
_cell_angle_alpha 90.000000
_cell_angle_beta 82.348951
_cell_angle_gamma 90.000000
_cell_volume 2972.780588
_symmetry_space_group_name_H-M "C 2/M"
_symmetry_group_IT_number 12
_symmetry_cell_setting 'monoclinic'
loop_
_space_group_symop_operation_xyz
x,y,z
-x,y,-z
-x,-y,-z
x,-y,z
1/2+x,1/2+y,z
1/2-x,1/2+y,-z
1/2-x,1/2-y,-z
1/2+x,1/2-y,z
loop_
_atom_site_type_symbol
_atom_site_label
_atom_site_fract_x
_atom_site_fract_y
_atom_site_fract_z
Si Si1 0.806167 0.678922 0.028139
Si Si2 0.469776 0.321965 0.699842
Si Si3 0.198514 0.327110 0.291127
Si Si4 0.632486 0.676296 0.147158
Si Si5 0.913790 0.320934 0.335994
Si Si6 0.821210 0.824187 0.227205
Si Si7 0.599706 0.176316 0.445287
O O1 0.799108 0.500000 0.028709
O O2 0.819278 0.732888 0.130343
O O3 0.750000 0.750000 0.000000
O O4 0.858341 0.727612 0.950472
O O5 0.483322 0.500000 0.692736
O O6 0.427095 0.281799 0.794185
O O7 0.524859 0.227588 0.710150
O O8 0.444401 0.272762 0.604757
O O9 0.187907 0.500000 0.258274
O O10 0.180865 0.214580 0.211208
O O11 0.263469 0.300478 0.298197
O O12 0.162542 0.294221 0.393824
O O13 0.636702 0.500000 0.120435
O O14 0.906113 0.500000 0.325643
O O15 0.870351 0.236211 0.280246
O O16 0.903054 0.267761 0.446223
O O17 0.831556 0.000000 0.200974
O O18 0.582547 0.000000 0.440337
#
# Coordination Sequence:
#
# PCOD8100301 Si02
#       7
#     8   8   8   8   8   8   8
#     4  12  23  37  60  88 117 148 185 229 278 338
#     4  10  21  37  59  86 114 147 192 241 283 331
#     4   9  18  34  56  82 113 149 188 232 283 337
#     4  10  20  35  58  87 115 144 185 237 285 331
#     4  11  23  38  56  80 115 157 194 235 285 338
#     4  11  23  38  57  83 116 152 191 235 283 338
#     4   9  19  36  58  84 113 149 194 237 282 336
#
# _framework density 18.837581
#
# number of rings (size 3 to 8) (size 9 to 14) (size 15 to 20)
#    0.000    1.714    1.429    3.429    0.000    5.714 
#    0.000    0.714    0.000    4.286    0.000    0.000 
#    0.000    0.000    0.000    0.000    0.000    0.000 
#
# Total GULP energy -347297.146136 kJ/mol
# GULP energy per Si atom -12403.469505 kJ/mol
# Density = 1.879471 g / cm^3
# Si number density = 18.837581 Si / 1000 Ang^3
#
#
#
# Elastic Constant Matrix: (Units=GPa)
#
#
# Indices 1 2 3 4 5 6 
#
# 1 120.3577 42.7283 62.2760 0.0000 -4.0076 0.0000
# 2 42.7283 93.3433 36.9513 0.0000 -7.2251 0.0000
# 3 62.2760 36.9513 66.1334 0.0000 -12.5787 0.0000
# 4 0.0000 0.0000 0.0000 31.6418 0.0000 2.6962
# 5 -4.0076 -7.2251 -12.5787 0.0000 21.2980 0.0000
# 6 0.0000 0.0000 0.0000 2.6962 0.0000 31.8823
#
#
#
# Elastic Compliance Matrix: (Units=1/GPa)
#
#
# Indices 1 2 3 4 5 6 
#
# 1 0.017367 -0.001914 -0.016657 0.000000 -0.007219 0.000000
# 2 -0.001914 0.013967 -0.005823 0.000000 0.000939 0.000000
# 3 -0.016657 -0.005823 0.037275 0.000000 0.016905 0.000000
# 4 0.000000 0.000000 0.000000 0.031833 0.000000 -0.002692
# 5 -0.007219 0.000939 0.016905 0.000000 0.055897 0.000000
# 6 0.000000 0.000000 0.000000 -0.002692 0.000000 0.031593
#
#
# Mechanical properties :
#
#
# Convention : Reuss Voigt Hill
#
# Bulk Modulus (GPa) = 50.45241 62.63840 56.54541
# Shear Modulus (GPa) = 20.54844 26.15634 23.35239
#
# Velocity S-wave (km/s) = 3.30634 3.73033 3.52471
# Velocity P-wave (km/s) = 6.43559 7.20262 6.82988
#
# Compressibility (1/GPa) = 0.01982066
#
# Stress axis : x y z
#
# Youngs Moduli (GPa) = 57.58169 71.59661 26.82754
#
# Poissons Ratio (x) = 0.13707 0.44687
# Poissons Ratio (y) = 0.11024 0.15620
# Poissons Ratio (z) = 0.95914 0.41687
#
# Static dielectric constant tensor:
#      x y z
#    x 3.512750 0.000000 -0.272660 
#    y 0.000000 3.539730 0.000000 
#    z -0.272660 0.000000 3.580760 
# 
# 
# High freq. dielectric constant tensor:
#      x y z
#    x 1.729490 0.000000 -0.020480 
#    y 0.000000 1.742020 0.000000 
#    z -0.020480 0.000000 1.726440 
# 
# From -- ./inp_files/230930.got.cif
#   From: 2010.06.25/outbox.cif.g09.slc.cpg/sg12_116_cif.got.tgz:230930.got - 2010.06.28 00:19:55.
