data_PCOD8100932
_publ_section_title
;
Structure prediction by ZEFSAII (Michael W. Deem and Ramdas Pophale) SiO2 
 PCOD8100932
Probable space group: C 2/M
;
_chemical_formula_sum "Si O2"
_cell_formula_units_Z 56
_cell_length_a 8.619082
_cell_length_b 10.665452
_cell_length_c 32.563214
_cell_angle_alpha 90.000000
_cell_angle_beta 117.851426
_cell_angle_gamma 90.000000
_cell_volume 2646.667552
_symmetry_space_group_name_H-M "C 2/M"
_symmetry_group_IT_number 12
_symmetry_cell_setting 'monoclinic'
loop_
_space_group_symop_operation_xyz
x,y,z
-x,y,-z
-x,-y,-z
x,-y,z
1/2+x,1/2+y,z
1/2-x,1/2+y,-z
1/2-x,1/2-y,-z
1/2+x,1/2-y,z
loop_
_atom_site_type_symbol
_atom_site_label
_atom_site_fract_x
_atom_site_fract_y
_atom_site_fract_z
Si Si1 0.068417 0.638489 0.159883
Si Si2 0.392298 0.142651 0.741832
Si Si3 0.685600 0.359301 0.961927
Si Si4 0.495288 0.356569 0.694752
Si Si5 0.934031 0.188620 0.532823
Si Si6 0.304450 0.722413 0.900281
Si Si7 0.739973 0.635806 0.408833
O O1 0.147482 0.500000 0.166130
O O2 0.865630 0.634242 0.120386
O O3 0.091400 0.685724 0.209001
O O4 0.179942 0.725956 0.143836
O O5 0.491960 0.251807 0.729721
O O6 0.192071 0.141669 0.702085
O O7 0.470199 0.000000 0.745106
O O8 0.739767 0.500000 0.983432
O O9 0.474835 0.356921 0.933669
O O10 0.774745 0.336022 0.928752
O O11 0.750000 0.250000 0.000000
O O12 0.446622 0.500000 0.703361
O O13 0.368905 0.307795 0.642688
O O14 0.750000 0.250000 0.500000
O O15 0.896303 0.114091 0.569849
O O16 0.000000 0.111520 0.500000
O O17 0.087611 0.287426 0.559894
O O18 0.810447 0.500000 0.404839
#
# Coordination Sequence:
#
# PCOD8100932 Si02
#       7
#     8   8   8   8   8   8   8
#     4  10  20  37  59  83 114 150 186 231 285 335
#     4  10  21  37  59  87 117 149 189 236 283 335
#     4  11  24  40  60  86 115 150 192 236 284 338
#     4  10  21  37  57  83 116 153 191 232 280 337
#     4   9  19  34  53  79 106 136 181 229 274 332
#     4  10  22  38  59  84 114 149 190 234 280 338
#     4  10  20  36  56  77 109 148 183 226 279 334
#
# _framework density 21.158683
#
# number of rings (size 3 to 8) (size 9 to 14) (size 15 to 20)
#    0.000    2.000    0.000    3.000    0.000    8.000 
#    0.000    6.429    0.000    0.000    0.000    0.000 
#    0.000    0.000    0.000    0.000    0.000    0.000 
#
# Total GULP energy -346888.299358 kJ/mol
# GULP energy per Si atom -12388.867834 kJ/mol
# Density = 2.111053 g / cm^3
# Si number density = 21.158683 Si / 1000 Ang^3
#
#
#
# Elastic Constant Matrix: (Units=GPa)
#
#
# Indices 1 2 3 4 5 6 
#
# 1 71.4904 20.4694 12.8544 0.0000 -2.5636 0.0000
# 2 20.4694 106.1809 27.1387 0.0000 -12.0795 0.0000
# 3 12.8544 27.1387 90.2020 0.0000 -4.8314 0.0000
# 4 0.0000 0.0000 0.0000 51.0420 0.0000 -1.5322
# 5 -2.5636 -12.0795 -4.8314 0.0000 31.8217 0.0000
# 6 0.0000 0.0000 0.0000 -1.5322 0.0000 16.6517
#
#
#
# Elastic Compliance Matrix: (Units=1/GPa)
#
#
# Indices 1 2 3 4 5 6 
#
# 1 0.014960 -0.002530 -0.001369 0.000000 0.000037 0.000000
# 2 -0.002530 0.011017 -0.002763 0.000000 0.003559 0.000000
# 3 -0.001369 -0.002763 0.012149 0.000000 0.000685 0.000000
# 4 0.000000 0.000000 0.000000 0.019646 0.000000 0.001808
# 5 0.000037 0.003559 0.000685 0.000000 0.032883 0.000000
# 6 0.000000 0.000000 0.000000 0.001808 0.000000 0.060220
#
#
# Mechanical properties :
#
#
# Convention : Reuss Voigt Hill
#
# Bulk Modulus (GPa) = 40.31967 43.19980 41.75974
# Shear Modulus (GPa) = 28.99116 33.73047 31.36082
#
# Velocity S-wave (km/s) = 3.70561 3.99703 3.85408
# Velocity P-wave (km/s) = 6.11604 6.46244 6.29162
#
# Compressibility (1/GPa) = 0.02480179
#
# Stress axis : x y z
#
# Youngs Moduli (GPa) = 66.84634 90.77106 82.30856
#
# Poissons Ratio (x) = 0.22964 0.11266
# Poissons Ratio (y) = 0.16911 0.22745
# Poissons Ratio (z) = 0.09149 0.25084
#
# Static dielectric constant tensor:
#      x y z
#    x 3.960070 0.000000 -0.144190 
#    y 0.000000 3.601960 0.000000 
#    z -0.144190 0.000000 4.023370 
# 
# 
# High freq. dielectric constant tensor:
#      x y z
#    x 1.827300 0.000000 0.003160 
#    y 0.000000 1.816500 0.000000 
#    z 0.003160 0.000000 1.842560 
# 
# From -- ./inp_files/372218.got.cif
#   From: 2010.06.25/outbox.cif.g09.slc.cpg/sg12_187_cif.got.tgz:372218.got - 2010.06.28 00:19:55.
