data_PCOD8100461
_publ_section_title
;
Structure prediction by ZEFSAII (Michael W. Deem and Ramdas Pophale) SiO2 
 PCOD8100461
Probable space group: C 2/M
;
_chemical_formula_sum "Si O2"
_cell_formula_units_Z 56
_cell_length_a 19.349815
_cell_length_b 8.858032
_cell_length_c 18.662523
_cell_angle_alpha 90.000000
_cell_angle_beta 64.565168
_cell_angle_gamma 90.000000
_cell_volume 2888.736514
_symmetry_space_group_name_H-M "C 2/M"
_symmetry_group_IT_number 12
_symmetry_cell_setting 'monoclinic'
loop_
_space_group_symop_operation_xyz
x,y,z
-x,y,-z
-x,-y,-z
x,-y,z
1/2+x,1/2+y,z
1/2-x,1/2+y,-z
1/2-x,1/2-y,-z
1/2+x,1/2-y,z
loop_
_atom_site_type_symbol
_atom_site_label
_atom_site_fract_x
_atom_site_fract_y
_atom_site_fract_z
Si Si1 0.828755 0.174101 0.980320
Si Si2 0.210980 0.824011 0.851367
Si Si3 0.022399 0.322076 0.693649
Si Si4 0.151978 0.822310 0.724107
Si Si5 0.872494 0.822321 0.811551
Si Si6 0.560380 0.672393 0.530850
Si Si7 0.267065 0.672933 0.567142
O O1 0.847921 0.210229 0.055320
O O2 0.813702 0.000000 0.976435
O O3 0.750000 0.250000 0.000000
O O4 0.886656 0.221715 0.890227
O O5 0.164422 0.779430 0.801418
O O6 0.288709 0.728274 0.822457
O O7 0.234273 0.000000 0.839889
O O8 0.023200 0.500000 0.699989
O O9 0.073092 0.253016 0.734748
O O10 0.058798 0.275030 0.601867
O O11 0.935953 0.262808 0.736994
O O12 0.224325 0.760889 0.648647
O O13 0.145600 0.000000 0.714208
O O14 0.881043 0.000000 0.794057
O O15 0.500000 0.734213 0.500000
O O16 0.541425 0.500000 0.561435
O O17 0.642934 0.682931 0.456901
O O18 0.238547 0.500000 0.577701
O O19 0.250000 0.750000 0.500000
#
# Coordination Sequence:
#
# PCOD8100461 Si02
#       7
#     8   8   8   8   8   8   8
#     4   8  15  31  55  83 113 147 185 228 277 332
#     4   9  19  36  59  88 117 146 189 236 278 331
#     4  12  25  40  58  82 115 152 191 236 284 336
#     4  11  23  39  59  83 116 153 190 235 283 336
#     4  10  20  35  59  86 116 152 188 230 285 339
#     4  10  23  42  62  85 113 147 186 232 281 334
#     4  11  22  38  61  85 113 149 188 231 278 333
#
# _framework density 19.385638
#
# number of rings (size 3 to 8) (size 9 to 14) (size 15 to 20)
#    0.000    1.857    1.429    2.571    2.000    2.571 
#    0.000    0.714    0.000    4.286    0.000    0.000 
#    0.000    0.000    0.000    0.000    0.000    0.000 
#
# Total GULP energy -347068.098468 kJ/mol
# GULP energy per Si atom -12395.289231 kJ/mol
# Density = 1.934152 g / cm^3
# Si number density = 19.385638 Si / 1000 Ang^3
#
#
#
# Elastic Constant Matrix: (Units=GPa)
#
#
# Indices 1 2 3 4 5 6 
#
# 1 78.4271 29.7864 12.2282 0.0001 13.7116 0.0002
# 2 29.7864 94.1725 26.9622 0.0001 8.2892 0.0005
# 3 12.2282 26.9622 63.6487 0.0000 18.0484 -0.0001
# 4 0.0001 0.0001 0.0000 25.4576 0.0000 -2.7823
# 5 13.7116 8.2892 18.0484 0.0000 34.7183 0.0001
# 6 0.0002 0.0005 -0.0001 -2.7823 0.0001 25.9551
#
#
#
# Elastic Compliance Matrix: (Units=1/GPa)
#
#
# Indices 1 2 3 4 5 6 
#
# 1 0.015303 -0.004510 0.000444 0.000000 -0.005198 0.000000
# 2 -0.004510 0.013416 -0.005176 0.000000 0.001269 0.000000
# 3 0.000444 -0.005176 0.020547 0.000000 -0.009621 0.000000
# 4 0.000000 0.000000 0.000000 0.039747 0.000000 0.004261
# 5 -0.005198 0.001269 -0.009621 0.000000 0.035555 0.000000
# 6 0.000000 0.000000 0.000000 0.004261 0.000000 0.038985
#
#
# Mechanical properties :
#
#
# Convention : Reuss Voigt Hill
#
# Bulk Modulus (GPa) = 32.48706 41.57799 37.03252
# Shear Modulus (GPa) = 26.00159 28.37764 27.18962
#
# Velocity S-wave (km/s) = 3.66632 3.83018 3.74915
# Velocity P-wave (km/s) = 5.89214 6.40740 6.15516
#
# Compressibility (1/GPa) = 0.03078149
#
# Stress axis : x y z
#
# Youngs Moduli (GPa) = 65.34636 74.53986 48.66947
#
# Poissons Ratio (x) = 0.33618 -0.02163
# Poissons Ratio (y) = 0.29471 0.25193
# Poissons Ratio (z) = -0.02904 0.38585
#
# Static dielectric constant tensor:
#      x y z
#    x 3.406360 0.000000 0.042040 
#    y 0.000000 3.612260 0.000000 
#    z 0.042040 0.000000 4.055850 
# 
# 
# High freq. dielectric constant tensor:
#      x y z
#    x 1.736280 0.000000 0.005190 
#    y 0.000000 1.759940 0.000000 
#    z 0.005190 0.000000 1.768240 
# 
# From -- ./inp_files/275131.got.cif
#   From: 2010.06.25/outbox.cif.g09.slc.cpg/sg12_138_cif.got.tgz:275131.got - 2010.06.28 00:19:55.
