data_PCOD8100898
_publ_section_title
;
Structure prediction by ZEFSAII (Michael W. Deem and Ramdas Pophale) SiO2 
 PCOD8100898
Probable space group: C 2/M
;
_chemical_formula_sum "Si O2"
_cell_formula_units_Z 52
_cell_length_a 15.745094
_cell_length_b 14.635678
_cell_length_c 14.345716
_cell_angle_alpha 90.000000
_cell_angle_beta 122.314677
_cell_angle_gamma 90.000000
_cell_volume 2793.838147
_symmetry_space_group_name_H-M "C 2/M"
_symmetry_group_IT_number 12
_symmetry_cell_setting 'monoclinic'
loop_
_space_group_symop_operation_xyz
x,y,z
-x,y,-z
-x,-y,-z
x,-y,z
1/2+x,1/2+y,z
1/2-x,1/2+y,-z
1/2-x,1/2-y,-z
1/2+x,1/2-y,z
loop_
_atom_site_type_symbol
_atom_site_label
_atom_site_fract_x
_atom_site_fract_y
_atom_site_fract_z
Si Si1 0.661779 0.602527 0.582888
Si Si2 0.825571 0.685541 0.788972
Si Si3 0.121124 0.500000 0.077055
Si Si4 0.004790 0.896524 0.655192
Si Si5 0.497457 0.688281 0.836945
Si Si6 0.267174 0.500000 0.984577
Si Si7 0.999792 0.000000 0.109596
Si Si8 0.297339 0.694370 0.944416
O O1 0.702832 0.500000 0.590825
O O2 0.752368 0.672182 0.657405
O O3 0.599455 0.634031 0.455627
O O4 0.592853 0.603079 0.633199
O O5 0.844881 0.589033 0.848008
O O6 0.928362 0.724004 0.807126
O O7 0.777945 0.756747 0.834641
O O8 0.183203 0.500000 0.016714
O O9 0.000000 0.500000 0.000000
O O10 0.033692 0.821663 0.750885
O O11 0.993394 0.000000 0.689757
O O12 0.440742 0.591352 0.823236
O O13 0.584186 0.694132 0.965031
O O14 0.384659 0.500000 0.086671
O O15 0.250925 0.591991 0.913872
O O16 0.000000 0.000000 0.000000
O O17 0.250000 0.750000 0.000000
#
# Coordination Sequence:
#
# PCOD8100898 Si02
#       8
#     8   8   4   8   8   4   4   8
#     4   9  19  36  58  82 106 139 187 239 286 338
#     4  12  23  35  54  79 116 151 186 233 282 339
#     4  12  24  38  51  76 119 158 198 222 271 337
#     4   9  18  35  60  83 104 136 187 241 290 338
#     4  11  21  33  54  82 111 145 182 232 287 332
#     4  10  22  36  58  76 109 161 184 236 279 322
#     4  10  20  36  55  82 117 142 186 236 290 331
#     4  11  21  35  54  81 110 147 192 223 274 344
#
# _framework density 18.612389
#
# number of rings (size 3 to 8) (size 9 to 14) (size 15 to 20)
#    0.000    1.538    3.077    5.077    2.154    0.615 
#    0.000    0.000    0.000    0.000    0.000    0.000 
#    0.000    4.923    0.000    0.000    0.000    0.000 
#
# Total GULP energy -322202.697667 kJ/mol
# GULP energy per Si atom -12392.411449 kJ/mol
# Density = 1.857003 g / cm^3
# Si number density = 18.612389 Si / 1000 Ang^3
#
#
#
# Elastic Constant Matrix: (Units=GPa)
#
#
# Indices 1 2 3 4 5 6 
#
# 1 60.7211 18.0554 -1.1524 0.0000 4.5200 0.0000
# 2 18.0554 104.5217 6.7837 0.0000 3.7964 0.0000
# 3 -1.1524 6.7837 43.0076 0.0000 7.9385 0.0000
# 4 0.0000 0.0000 0.0000 29.2049 0.0000 -1.5007
# 5 4.5200 3.7964 7.9385 0.0000 25.3695 0.0000
# 6 0.0000 0.0000 0.0000 -1.5007 0.0000 32.8337
#
#
#
# Elastic Compliance Matrix: (Units=1/GPa)
#
#
# Indices 1 2 3 4 5 6 
#
# 1 0.017635 -0.003031 0.001536 0.000000 -0.003169 0.000000
# 2 -0.003031 0.010213 -0.001602 0.000000 -0.000487 0.000000
# 3 0.001536 -0.001602 0.024995 0.000000 -0.007855 0.000000
# 4 0.000000 0.000000 0.000000 0.034321 0.000000 0.001569
# 5 -0.003169 -0.000487 -0.007855 0.000000 0.042513 0.000000
# 6 0.000000 0.000000 0.000000 0.001569 0.000000 0.030528
#
#
# Mechanical properties :
#
#
# Convention : Reuss Voigt Hill
#
# Bulk Modulus (GPa) = 21.43715 28.40265 24.91990
# Shear Modulus (GPa) = 27.48007 29.78587 28.63297
#
# Velocity S-wave (km/s) = 3.84662 4.00475 3.92648
# Velocity P-wave (km/s) = 5.59207 6.05617 5.82874
#
# Compressibility (1/GPa) = 0.04664800
#
# Stress axis : x y z
#
# Youngs Moduli (GPa) = 56.70542 97.91802 40.00720
#
# Poissons Ratio (x) = 0.29678 -0.06143
# Poissons Ratio (y) = 0.17187 0.06410
# Poissons Ratio (z) = -0.08707 0.15688
#
# Static dielectric constant tensor:
#      x y z
#    x 3.382860 0.000000 0.084520 
#    y 0.000000 3.763280 0.000000 
#    z 0.084520 0.000000 3.701080 
# 
# 
# High freq. dielectric constant tensor:
#      x y z
#    x 1.707650 0.000000 -0.009240 
#    y 0.000000 1.725840 0.000000 
#    z -0.009240 0.000000 1.706500 
# 
# From -- ./inp_files/214972.got.cif
#   From: 2010.06.25/outbox.cif.g09.slc.cpg/sg12_108_cif.got.tgz:214972.got - 2010.06.28 00:19:55.
