data_PCOD8100867
_publ_section_title
;
Structure prediction by ZEFSAII (Michael W. Deem and Ramdas Pophale) SiO2 
 PCOD8100867
Probable space group: C 2/M
;
_chemical_formula_sum "Si O2"
_cell_formula_units_Z 48
_cell_length_a 14.188971
_cell_length_b 8.641151
_cell_length_c 21.264272
_cell_angle_alpha 90.000000
_cell_angle_beta 92.272918
_cell_angle_gamma 90.000000
_cell_volume 2605.140795
_symmetry_space_group_name_H-M "C 2/M"
_symmetry_group_IT_number 12
_symmetry_cell_setting 'monoclinic'
loop_
_space_group_symop_operation_xyz
x,y,z
-x,y,-z
-x,-y,-z
x,-y,z
1/2+x,1/2+y,z
1/2-x,1/2+y,-z
1/2-x,1/2-y,-z
1/2+x,1/2-y,z
loop_
_atom_site_type_symbol
_atom_site_label
_atom_site_fract_x
_atom_site_fract_y
_atom_site_fract_z
Si Si1 0.492391 0.315942 0.406508
Si Si2 0.145714 0.315751 0.499127
Si Si3 0.649697 0.316837 0.839874
Si Si4 0.140601 0.316977 0.173604
Si Si5 0.987808 0.316692 0.070064
Si Si6 0.003813 0.182109 0.263449
O O1 0.485789 0.500000 0.414393
O O2 0.403090 0.236933 0.437437
O O3 0.589321 0.255179 0.438907
O O4 0.489754 0.262608 0.334261
O O5 0.146124 0.500000 0.494430
O O6 0.250000 0.250000 0.500000
O O7 0.651282 0.500000 0.845373
O O8 0.754507 0.249631 0.832749
O O9 0.608723 0.249435 0.903634
O O10 0.586198 0.261474 0.779328
O O11 0.143263 0.500000 0.176463
O O12 0.076259 0.258400 0.113956
O O13 0.098954 0.256408 0.238261
O O14 0.981189 0.500000 0.069665
O O15 0.000000 0.251459 0.000000
O O16 0.015698 0.000000 0.260107
#
# Coordination Sequence:
#
# PCOD8100867 Si02
#       6
#     8   8   8   8   8   8
#     4  10  20  36  55  78 107 137 171 213 259 309
#     4  11  22  37  56  79 106 138 174 213 257 305
#     4   9  18  33  50  71  98 128 164 204 247 296
#     4   9  18  32  50  71  98 132 168 206 248 298
#     4   9  18  32  48  69  98 130 165 207 253 298
#     4   9  19  34  52  74 101 130 162 204 250 296
#
# _framework density 18.425108000000002
#
# number of rings (size 3 to 8) (size 9 to 14) (size 15 to 20)
#    0.000    2.500    0.000    3.000    0.000    4.333 
#    0.000    1.667    0.000    0.000    0.000    0.000 
#    0.000    0.000    0.000    0.000    0.000    0.000 
#
# Total GULP energy -297627.583014 kJ/mol
# GULP energy per Si atom -12401.149292 kJ/mol
# Density = 1.838317 g / cm^3
# Si number density = 18.425108 Si / 1000 Ang^3
#
#
#
# Elastic Constant Matrix: (Units=GPa)
#
#
# Indices 1 2 3 4 5 6 
#
# 1 143.2514 16.0107 65.8215 0.0000 -22.8736 0.0000
# 2 16.0107 28.3904 18.9332 0.0000 0.2308 0.0000
# 3 65.8215 18.9332 155.9242 0.0000 -3.8780 0.0000
# 4 0.0000 0.0000 0.0000 30.0399 0.0000 -6.1774
# 5 -22.8736 0.2308 -3.8780 0.0000 19.8458 0.0000
# 6 0.0000 0.0000 0.0000 -6.1774 0.0000 27.1910
#
#
#
# Elastic Compliance Matrix: (Units=1/GPa)
#
#
# Indices 1 2 3 4 5 6 
#
# 1 0.011151 -0.003753 -0.003950 0.000000 0.012124 0.000000
# 2 -0.003753 0.039627 -0.003363 0.000000 -0.005444 0.000000
# 3 -0.003950 -0.003363 0.008418 0.000000 -0.002869 0.000000
# 4 0.000000 0.000000 0.000000 0.034920 0.000000 0.007933
# 5 0.012124 -0.005444 -0.002869 0.000000 0.063865 0.000000
# 6 0.000000 0.000000 0.000000 0.007933 0.000000 0.038579
#
#
# Mechanical properties :
#
#
# Convention : Reuss Voigt Hill
#
# Bulk Modulus (GPa) = 26.98051 58.78855 42.88453
# Shear Modulus (GPa) = 21.64065 30.53536 26.08800
#
# Velocity S-wave (km/s) = 3.43084 4.07537 3.76692
# Velocity P-wave (km/s) = 5.51084 7.35669 6.49963
#
# Compressibility (1/GPa) = 0.03706380
#
# Stress axis : x y z
#
# Youngs Moduli (GPa) = 89.67736 25.23561 118.79560
#
# Poissons Ratio (x) = 0.09471 0.46925
# Poissons Ratio (y) = 0.33656 0.39949
# Poissons Ratio (z) = 0.35423 0.08486
#
# Static dielectric constant tensor:
#      x y z
#    x 3.567750 0.000000 0.021190 
#    y 0.000000 3.286520 0.000000 
#    z 0.021190 0.000000 3.554970 
# 
# 
# High freq. dielectric constant tensor:
#      x y z
#    x 1.716720 0.000000 -0.005340 
#    y 0.000000 1.710000 0.000000 
#    z -0.005340 0.000000 1.718990 
# 
# From -- ./inp_files/308315.got.cif
#   From: 2010.06.25/outbox.cif.g09.slc.cpg/sg12_155_cif.got.tgz:308315.got - 2010.06.28 00:19:55.
