data_PCOD8100875
_publ_section_title
;
Structure prediction by ZEFSAII (Michael W. Deem and Ramdas Pophale) SiO2 
 PCOD8100875
Probable space group: C 2/M
;
_chemical_formula_sum "Si O2"
_cell_formula_units_Z 56
_cell_length_a 8.745438
_cell_length_b 12.628004
_cell_length_c 29.317333
_cell_angle_alpha 90.000000
_cell_angle_beta 57.001441
_cell_angle_gamma 90.000000
_cell_volume 2715.433874
_symmetry_space_group_name_H-M "C 2/M"
_symmetry_group_IT_number 12
_symmetry_cell_setting 'monoclinic'
loop_
_space_group_symop_operation_xyz
x,y,z
-x,y,-z
-x,-y,-z
x,-y,z
1/2+x,1/2+y,z
1/2-x,1/2+y,-z
1/2-x,1/2-y,-z
1/2+x,1/2-y,z
loop_
_atom_site_type_symbol
_atom_site_label
_atom_site_fract_x
_atom_site_fract_y
_atom_site_fract_z
Si Si1 0.231371 0.381189 0.920777
Si Si2 0.524476 0.241067 0.625787
Si Si3 0.401272 0.623134 0.563488
Si Si4 0.466039 0.680105 0.196027
Si Si5 0.851790 0.878161 0.312588
Si Si6 0.515982 0.681629 0.946329
Si Si7 0.180514 0.380822 0.170306
O O1 0.161232 0.500000 0.940029
O O2 0.370235 0.380282 0.855902
O O3 0.327403 0.336256 0.950700
O O4 0.056940 0.307798 0.939256
O O5 0.515467 0.315481 0.583132
O O6 0.696827 0.165155 0.593441
O O7 0.350762 0.166536 0.658530
O O8 0.532906 0.314586 0.668852
O O9 0.500000 0.644006 0.500000
O O10 0.396924 0.500000 0.577089
O O11 0.454858 0.632704 0.248025
O O12 0.277764 0.661026 0.200245
O O13 0.506320 0.806323 0.189564
O O14 0.841976 0.000000 0.329048
O O15 0.680062 0.620342 0.894704
O O16 0.500000 0.636428 0.000000
O O17 0.108839 0.500000 0.189200
#
# Coordination Sequence:
#
# PCOD8100875 Si02
#       7
#     8   8   8   8   8   8   8
#     4  10  21  37  55  76 106 139 175 220 265 319
#     4  10  22  36  54  86 114 140 186 228 264 320
#     4  10  20  37  59  81 112 151 185 223 270 315
#     4  10  20  37  57  79 105 141 183 218 264 324
#     4  11  21  36  57  79 111 146 177 224 275 316
#     4  10  20  36  55  79 107 135 175 221 267 325
#     4  10  21  38  56  77 108 139 176 224 267 320
#
# _framework density 20.622855999999999
#
# number of rings (size 3 to 8) (size 9 to 14) (size 15 to 20)
#    0.000    1.857    0.000    5.143    0.000    1.429 
#    0.000   18.571    0.000    6.857    0.000    0.000 
#    0.000    0.000    0.000    0.000    0.000    0.000 
#
# Total GULP energy -347319.504272 kJ/mol
# GULP energy per Si atom -12404.268010 kJ/mol
# Density = 2.057592 g / cm^3
# Si number density = 20.622856 Si / 1000 Ang^3
#
#
#
# Elastic Constant Matrix: (Units=GPa)
#
#
# Indices 1 2 3 4 5 6 
#
# 1 28.2569 15.0561 12.9863 0.0000 12.9613 0.0000
# 2 15.0561 132.7704 10.0521 0.0000 6.9738 0.0000
# 3 12.9863 10.0521 89.0595 0.0000 24.3162 0.0000
# 4 0.0000 0.0000 0.0000 -4.4070 0.0000 0.2080
# 5 12.9613 6.9738 24.3162 0.0000 25.0411 0.0000
# 6 0.0000 0.0000 0.0000 0.2080 0.0000 19.6172
#
#
#
# Elastic Compliance Matrix: (Units=1/GPa)
#
#
# Indices 1 2 3 4 5 6 
#
# 1 0.048670 -0.004256 -0.000084 0.000000 -0.023925 0.000000
# 2 -0.004256 0.008025 -0.000376 0.000000 0.000333 0.000000
# 3 -0.000084 -0.000376 0.015299 0.000000 -0.014708 0.000000
# 4 0.000000 0.000000 0.000000 -0.226800 0.000000 0.002404
# 5 -0.023925 0.000333 -0.014708 0.000000 0.066507 0.000000
# 6 0.000000 0.000000 0.000000 0.002404 0.000000 0.050950
#
#
# Mechanical properties :
#
#
# Convention : Reuss Voigt Hill
#
# Bulk Modulus (GPa) = 15.98438 36.25288 26.11863
# Shear Modulus (GPa) = -708.00554 22.18309 -342.91122
#
# Velocity S-wave (km/s) = -18.54876 3.28328 -12.90884
# Velocity P-wave (km/s) = 21.23615 5.65600 14.47384
#
# Compressibility (1/GPa) = 0.06256109
#
# Stress axis : x y z
#
# Youngs Moduli (GPa) = 20.54648 124.60399 65.36441
#
# Poissons Ratio (x) = 0.53033 0.00551
# Poissons Ratio (y) = 0.08745 0.02459
# Poissons Ratio (z) = 0.00173 0.04688
#
# Static dielectric constant tensor:
#      x y z
#    x 3.690590 0.000000 0.160260 
#    y 0.000000 3.749060 0.000000 
#    z 0.160260 0.000000 3.742210 
# 
# 
# High freq. dielectric constant tensor:
#      x y z
#    x 1.801700 0.000000 0.010780 
#    y 0.000000 1.814320 0.000000 
#    z 0.010780 0.000000 1.809960 
# 
# From -- ./inp_files/372094.got.cif
#   From: 2010.06.25/outbox.cif.g09.slc.cpg/sg12_187_cif.got.tgz:372094.got - 2010.06.28 00:19:55.
