data_PCOD8100155
_publ_section_title
;
Structure prediction by ZEFSAII (Michael W. Deem and Ramdas Pophale) SiO2 
 PCOD8100155
Probable space group: C 2/M
;
_chemical_formula_sum "Si O2"
_cell_formula_units_Z 56
_cell_length_a 15.367016
_cell_length_b 8.816052
_cell_length_c 24.354664
_cell_angle_alpha 90.000000
_cell_angle_beta 118.275947
_cell_angle_gamma 90.000000
_cell_volume 2905.776038
_symmetry_space_group_name_H-M "C 2/M"
_symmetry_group_IT_number 12
_symmetry_cell_setting 'monoclinic'
loop_
_space_group_symop_operation_xyz
x,y,z
-x,y,-z
-x,-y,-z
x,-y,z
1/2+x,1/2+y,z
1/2-x,1/2+y,-z
1/2-x,1/2-y,-z
1/2+x,1/2-y,z
loop_
_atom_site_type_symbol
_atom_site_label
_atom_site_fract_x
_atom_site_fract_y
_atom_site_fract_z
Si Si1 0.902049 0.819193 0.499552
Si Si2 0.563182 0.678614 0.368657
Si Si3 0.337875 0.321529 0.283830
Si Si4 0.761220 0.321311 0.632203
Si Si5 0.757374 0.179270 0.849730
Si Si6 0.175279 0.819877 0.934117
Si Si7 0.478236 0.320461 0.933241
O O1 0.900085 0.758549 0.561315
O O2 0.808135 0.757625 0.437582
O O3 0.000000 0.754682 0.500000
O O4 0.905156 0.000000 0.499404
O O5 0.573982 0.500000 0.369751
O O6 0.451238 0.726931 0.324275
O O7 0.630377 0.750513 0.341306
O O8 0.326780 0.500000 0.268368
O O9 0.282112 0.272641 0.322368
O O10 0.292372 0.223825 0.221825
O O11 0.768780 0.500000 0.630399
O O12 0.697664 0.259529 0.880457
O O13 0.870854 0.237605 0.881726
O O14 0.752083 0.000000 0.857470
O O15 0.063705 0.768373 0.916582
O O16 0.186114 0.000000 0.938935
O O17 0.250000 0.750000 0.000000
O O18 0.477357 0.500000 0.936963
O O19 0.500000 0.251467 0.000000
#
# Coordination Sequence:
#
# PCOD8100155 Si02
#       7
#     8   8   8   8   8   8   8
#     4   9  15  30  57  84 108 146 193 236 283 341
#     4  10  20  35  58  83 112 150 192 233 286 348
#     4  10  22  40  57  78 112 155 193 229 279 345
#     4  10  20  35  58  84 113 147 191 242 286 332
#     4  11  23  40  61  85 114 150 191 236 284 336
#     4  11  21  37  62  90 119 150 186 229 279 337
#     4   9  18  36  60  84 113 147 180 219 276 338
#
# _framework density 19.271961000000001
#
# number of rings (size 3 to 8) (size 9 to 14) (size 15 to 20)
#    0.000    2.000    2.857    1.286    0.000    2.286 
#    0.000    7.857    0.000    0.857    0.000    0.000 
#    0.000    0.000    0.000    0.000    0.000    0.000 
#
# Total GULP energy -347217.748521 kJ/mol
# GULP energy per Si atom -12400.633876 kJ/mol
# Density = 1.922810 g / cm^3
# Si number density = 19.271961 Si / 1000 Ang^3
#
#
#
# Elastic Constant Matrix: (Units=GPa)
#
#
# Indices 1 2 3 4 5 6 
#
# 1 197.1762 42.5046 78.7914 0.0000 -5.4927 0.0000
# 2 42.5046 37.9468 35.7885 0.0000 -0.9574 0.0000
# 3 78.7914 35.7885 137.2061 0.0000 -7.8467 0.0000
# 4 0.0000 0.0000 0.0000 29.6262 0.0000 -0.4036
# 5 -5.4927 -0.9574 -7.8467 0.0000 -5.0538 0.0000
# 6 0.0000 0.0000 0.0000 -0.4036 0.0000 28.6942
#
#
#
# Elastic Compliance Matrix: (Units=1/GPa)
#
#
# Indices 1 2 3 4 5 6 
#
# 1 0.007370 -0.005563 -0.002920 0.000000 -0.002423 0.000000
# 2 -0.005563 0.038888 -0.006452 0.000000 0.008695 0.000000
# 3 -0.002920 -0.006452 0.010010 0.000000 -0.011147 0.000000
# 4 0.000000 0.000000 0.000000 0.033760 0.000000 0.000475
# 5 -0.002423 0.008695 -0.011147 0.000000 -0.179577 0.000000
# 6 0.000000 0.000000 0.000000 0.000475 0.000000 0.034857
#
#
# Mechanical properties :
#
#
# Convention : Reuss Voigt Hill
#
# Bulk Modulus (GPa) = 37.87924 76.27756 57.07840
# Shear Modulus (GPa) = -312.04030 25.00293 -143.51869
#
# Velocity S-wave (km/s) = -12.73835 3.60581 -8.63897
# Velocity P-wave (km/s) = 14.02342 7.54992 8.35629
#
# Compressibility (1/GPa) = 0.02639968
#
# Stress axis : x y z
#
# Youngs Moduli (GPa) = 135.68514 25.71515 99.89538
#
# Poissons Ratio (x) = 0.14304 0.29168
# Poissons Ratio (y) = 0.75475 0.64450
# Poissons Ratio (z) = 0.39619 0.16591
#
# Static dielectric constant tensor:
#      x y z
#    x 4.123450 0.000000 -0.011710 
#    y 0.000000 3.166020 0.000000 
#    z -0.011710 0.000000 3.619140 
# 
# 
# High freq. dielectric constant tensor:
#      x y z
#    x 1.768990 0.000000 0.000230 
#    y 0.000000 1.717980 0.000000 
#    z 0.000230 0.000000 1.750920 
# 
# From -- ./inp_files/308983.got.cif
#   From: 2010.06.25/outbox.cif.g09.slc.cpg/sg12_155_cif.got.tgz:308983.got - 2010.06.28 00:19:55.
