data_PCOD8100803
_publ_section_title
;
Structure prediction by ZEFSAII (Michael W. Deem and Ramdas Pophale) SiO2 
 PCOD8100803
Probable space group: C 2/M
;
_chemical_formula_sum "Si O2"
_cell_formula_units_Z 48
_cell_length_a 21.552602
_cell_length_b 17.318222
_cell_length_c 23.046965
_cell_angle_alpha 90.000000
_cell_angle_beta 18.128575
_cell_angle_gamma 90.000000
_cell_volume 2676.622799
_symmetry_space_group_name_H-M "C 2/M"
_symmetry_group_IT_number 12
_symmetry_cell_setting 'monoclinic'
loop_
_space_group_symop_operation_xyz
x,y,z
-x,y,-z
-x,-y,-z
x,-y,z
1/2+x,1/2+y,z
1/2-x,1/2+y,-z
1/2-x,1/2-y,-z
1/2+x,1/2-y,z
loop_
_atom_site_type_symbol
_atom_site_label
_atom_site_fract_x
_atom_site_fract_y
_atom_site_fract_z
Si Si1 0.534259 0.340015 0.312674
Si Si2 0.481624 0.815234 0.949599
Si Si3 0.039595 0.690264 0.239148
Si Si4 0.010945 0.203733 0.156356
Si Si5 0.309861 0.411009 0.412472
Si Si6 0.162330 0.911701 0.404902
O O1 0.479654 0.253952 0.340514
O O2 0.488944 0.397972 0.299487
O O3 0.392490 0.358386 0.492267
O O4 0.764009 0.346622 0.126231
O O5 0.542833 0.738970 0.858672
O O6 0.626046 0.886763 0.808614
O O7 0.500000 0.790604 0.000000
O O8 0.005707 0.724344 0.205307
O O9 0.898534 0.616671 0.374066
O O10 0.269137 0.665485 0.041565
O O11 0.857347 0.136690 0.311392
O O12 0.291014 0.500000 0.412501
O O13 0.000000 0.899864 0.500000
O O14 0.173692 0.000000 0.415577
#
# Coordination Sequence:
#
# PCOD8100803 Si02
#       6
#     8   8   8   8   8   8
#     4  10  20  36  54  77 104 138 182 213 251 310
#     4  11  21  36  55  75 103 144 186 215 249 299
#     4   9  18  35  56  75 103 135 173 226 263 302
#     4   9  19  35  55  78 102 134 180 222 256 305
#     4  11  21  33  55  82 109 137 167 217 276 319
#     4  11  22  33  47  72 110 145 172 209 251 301
#
# _framework density 17.933046000000001
#
# number of rings (size 3 to 8) (size 9 to 14) (size 15 to 20)
#    0.000    1.833    1.667    5.500    0.000    2.333 
#    0.000    0.000    0.000    0.500    0.000    4.667 
#    0.000    0.000    0.000    0.000    0.000    0.000 
#
# Total GULP energy -297642.338082 kJ/mol
# GULP energy per Si atom -12401.764087 kJ/mol
# Density = 1.789223 g / cm^3
# Si number density = 17.933046 Si / 1000 Ang^3
#
#
#
# Elastic Constant Matrix: (Units=GPa)
#
#
# Indices 1 2 3 4 5 6 
#
# 1 84.9483 25.4574 44.7834 -0.0067 9.4504 -0.0353
# 2 25.4574 67.7151 41.5517 0.0856 4.6280 -0.0013
# 3 44.7834 41.5517 94.6005 -0.0849 5.0182 0.0814
# 4 -0.0067 0.0856 -0.0849 19.3120 0.0352 1.0994
# 5 9.4504 4.6280 5.0182 0.0352 33.2293 -0.0202
# 6 -0.0353 -0.0013 0.0814 1.0994 -0.0202 14.6944
#
#
#
# Elastic Compliance Matrix: (Units=1/GPa)
#
#
# Indices 1 2 3 4 5 6 
#
# 1 0.016216 -0.001733 -0.006738 -0.000014 -0.003353 0.000073
# 2 -0.001733 0.020475 -0.008113 -0.000128 -0.001133 0.000051
# 3 -0.006738 -0.008113 0.017301 0.000116 0.000433 -0.000121
# 4 -0.000014 -0.000128 0.000116 0.052004 -0.000053 -0.003892
# 5 -0.003353 -0.001133 0.000433 -0.000053 0.031140 0.000036
# 6 0.000073 0.000051 -0.000121 -0.003892 0.000036 0.068345
#
#
# Mechanical properties :
#
#
# Convention : Reuss Voigt Hill
#
# Bulk Modulus (GPa) = 48.01875 52.31656 50.16766
# Shear Modulus (GPa) = 20.35904 22.47858 21.41881
#
# Velocity S-wave (km/s) = 3.37305 3.54428 3.45972
# Velocity P-wave (km/s) = 6.48111 6.78129 6.63290
#
# Compressibility (1/GPa) = 0.02082520
#
# Stress axis : x y z
#
# Youngs Moduli (GPa) = 61.66653 48.83944 57.79953
#
# Poissons Ratio (x) = 0.08463 0.38944
# Poissons Ratio (y) = 0.10686 0.46894
# Poissons Ratio (z) = 0.41550 0.39624
#
# Static dielectric constant tensor:
#      x y z
#    x 3.317340 -0.000090 0.047120 
#    y -0.000090 3.024170 0.000350 
#    z 0.047120 0.000350 3.504190 
# 
# 
# High freq. dielectric constant tensor:
#      x y z
#    x 1.682130 -0.000010 0.003000 
#    y -0.000010 1.663220 0.000030 
#    z 0.003000 0.000030 1.715230 
# 
# From -- ./inp_files/322534.got.cif
#   From: 2010.06.25/outbox.cif.g09.slc.cpg/sg12_162_cif.got.tgz:322534.got - 2010.06.28 00:19:55.
