data_PCOD8100744
_publ_section_title
;
Structure prediction by ZEFSAII (Michael W. Deem and Ramdas Pophale) SiO2 
 PCOD8100744
Probable space group: C 2/M
;
_chemical_formula_sum "Si O2"
_cell_formula_units_Z 64
_cell_length_a 16.488722
_cell_length_b 16.440889
_cell_length_c 14.954791
_cell_angle_alpha 90.000000
_cell_angle_beta 129.780955
_cell_angle_gamma 90.000000
_cell_volume 3115.547629
_symmetry_space_group_name_H-M "C 2/M"
_symmetry_group_IT_number 12
_symmetry_cell_setting 'monoclinic'
loop_
_space_group_symop_operation_xyz
x,y,z
-x,y,-z
-x,-y,-z
x,-y,z
1/2+x,1/2+y,z
1/2-x,1/2+y,-z
1/2-x,1/2-y,-z
1/2+x,1/2-y,z
loop_
_atom_site_type_symbol
_atom_site_label
_atom_site_fract_x
_atom_site_fract_y
_atom_site_fract_z
Si Si1 0.267729 0.905944 0.661705
Si Si2 0.642752 0.294787 0.906997
Si Si3 0.893018 0.139696 0.598001
Si Si4 0.622563 0.405794 0.725969
Si Si5 0.795354 0.906528 0.700648
Si Si6 0.055804 0.305856 0.293976
Si Si7 0.118463 0.089784 0.056094
Si Si8 0.924185 0.403674 0.523746
O O1 0.206562 0.895159 0.525219
O O2 0.190597 0.879923 0.687585
O O3 0.368846 0.845501 0.729513
O O4 0.304114 0.000000 0.696356
O O5 0.660983 0.351190 0.834430
O O6 0.549178 0.229220 0.826580
O O7 0.750000 0.250000 0.000000
O O8 0.619737 0.349985 0.974997
O O9 0.891943 0.104271 0.698769
O O10 0.886703 0.236602 0.606204
O O11 0.998575 0.110837 0.621215
O O12 0.641277 0.500000 0.761564
O O13 0.821064 0.868568 0.816212
O O14 0.691171 0.867300 0.582258
O O15 0.775912 0.000000 0.706905
O O16 0.030560 0.375191 0.348830
O O17 0.165578 0.000000 0.064422
O O18 0.000000 0.075434 0.000000
O O19 0.920779 0.500000 0.525593
O O20 0.000000 0.370964 0.500000
#
# Coordination Sequence:
#
# PCOD8100744 Si02
#       8
#     8   8   8   8   8   8   8   8
#     4  11  22  39  63  92 128 169 209 249 307 387
#     4  11  26  43  61  89 124 165 212 266 321 371
#     4  11  21  37  60  97 131 161 199 256 323 383
#     4  10  22  40  64  90 122 167 215 261 306 367
#     4  10  20  35  63  94 122 160 202 257 320 376
#     4  11  24  40  60  91 128 165 206 258 323 378
#     4  10  21  40  65  90 118 160 212 263 312 365
#     4  10  22  39  60  90 127 165 206 255 316 390
#
# _framework density 20.542134000000001
#
# number of rings (size 3 to 8) (size 9 to 14) (size 15 to 20)
#    0.000    1.500    1.250    4.125    1.750    6.000 
#    0.000    1.875    0.000    1.500    0.000    0.000 
#    0.000    0.000    0.000    0.000    0.000    0.000 
#
# Total GULP energy -396712.934547 kJ/mol
# GULP energy per Si atom -12397.279205 kJ/mol
# Density = 2.049538 g / cm^3
# Si number density = 20.542134 Si / 1000 Ang^3
#
#
#
# Elastic Constant Matrix: (Units=GPa)
#
#
# Indices 1 2 3 4 5 6 
#
# 1 133.9906 47.7037 54.4948 0.0000 -4.1041 0.0000
# 2 47.7037 74.7461 42.3685 0.0000 8.1492 0.0000
# 3 54.4948 42.3685 118.7993 0.0000 -6.1643 0.0000
# 4 0.0000 0.0000 0.0000 20.3614 0.0000 16.4260
# 5 -4.1041 8.1492 -6.1643 0.0000 30.8686 0.0000
# 6 0.0000 0.0000 0.0000 16.4260 0.0000 28.1895
#
#
#
# Elastic Compliance Matrix: (Units=1/GPa)
#
#
# Indices 1 2 3 4 5 6 
#
# 1 0.010608 -0.005424 -0.002813 0.000000 0.002281 0.000000
# 2 -0.005424 0.020589 -0.005228 0.000000 -0.007201 0.000000
# 3 -0.002813 -0.005228 0.011747 0.000000 0.003352 0.000000
# 4 0.000000 0.000000 0.000000 0.092679 0.000000 -0.054004
# 5 0.002281 -0.007201 0.003352 0.000000 0.035269 0.000000
# 6 0.000000 0.000000 0.000000 -0.054004 0.000000 0.066942
#
#
# Mechanical properties :
#
#
# Convention : Reuss Voigt Hill
#
# Bulk Modulus (GPa) = 62.45249 68.51889 65.48569
# Shear Modulus (GPa) = 18.51139 28.08181 23.29660
#
# Velocity S-wave (km/s) = 3.00516 3.70135 3.37128
# Velocity P-wave (km/s) = 6.51993 7.18988 6.86308
#
# Compressibility (1/GPa) = 0.01601217
#
# Stress axis : x y z
#
# Youngs Moduli (GPa) = 94.26427 48.56931 85.13074
#
# Poissons Ratio (x) = 0.26346 0.23950
# Poissons Ratio (y) = 0.51132 0.44509
# Poissons Ratio (z) = 0.26520 0.25394
#
# Static dielectric constant tensor:
#      x y z
#    x 3.792560 0.000000 0.028500 
#    y 0.000000 3.682170 0.000000 
#    z 0.028500 0.000000 3.810770 
# 
# 
# High freq. dielectric constant tensor:
#      x y z
#    x 1.810740 0.000000 -0.007660 
#    y 0.000000 1.803050 0.000000 
#    z -0.007660 0.000000 1.791660 
# 
# From -- ./inp_files/216812.got.cif
#   From: 2010.06.25/outbox.cif.g09.slc.cpg/sg12_109_cif.got.tgz:216812.got - 2010.06.28 00:19:55.
