data_PCOD8100994
_publ_section_title
;
Structure prediction by ZEFSAII (Michael W. Deem and Ramdas Pophale) SiO2 
 PCOD8100994
Probable space group: C 2/M
;
_chemical_formula_sum "Si O2"
_cell_formula_units_Z 56
_cell_length_a 23.694678
_cell_length_b 9.057825
_cell_length_c 15.532668
_cell_angle_alpha 90.000000
_cell_angle_beta 60.943644
_cell_angle_gamma 90.000000
_cell_volume 2914.090236
_symmetry_space_group_name_H-M "C 2/M"
_symmetry_group_IT_number 12
_symmetry_cell_setting 'monoclinic'
loop_
_space_group_symop_operation_xyz
x,y,z
-x,y,-z
-x,-y,-z
x,-y,z
1/2+x,1/2+y,z
1/2-x,1/2+y,-z
1/2-x,1/2-y,-z
1/2+x,1/2-y,z
loop_
_atom_site_type_symbol
_atom_site_label
_atom_site_fract_x
_atom_site_fract_y
_atom_site_fract_z
Si Si1 0.161691 0.827442 0.509515
Si Si2 0.789813 0.670609 0.898208
Si Si3 0.448867 0.325333 0.963373
Si Si4 0.720332 0.674010 0.645166
Si Si5 0.679520 0.671645 0.854892
Si Si6 0.483958 0.326697 0.414132
Si Si7 0.063242 0.324082 0.205253
O O1 0.208698 0.745110 0.408598
O O2 0.178895 0.778330 0.593596
O O3 0.089376 0.777681 0.545660
O O4 0.171548 0.000000 0.488333
O O5 0.790742 0.500000 0.921316
O O6 0.750778 0.702198 0.839517
O O7 0.862698 0.729887 0.838004
O O8 0.750000 0.750000 0.000000
O O9 0.448683 0.500000 0.945232
O O10 0.466291 0.244504 0.860733
O O11 0.500000 0.285004 0.000000
O O12 0.379192 0.260346 0.045895
O O13 0.730381 0.500000 0.644286
O O14 0.681040 0.734977 0.756810
O O15 0.663189 0.500000 0.863653
O O16 0.500000 0.283569 0.500000
O O17 0.494699 0.500000 0.388942
O O18 0.526776 0.235423 0.315896
O O19 0.056880 0.500000 0.206418
#
# Coordination Sequence:
#
# PCOD8100994 Si02
#       7
#     8   8   8   8   8   8   8
#     4   9  19  36  56  80 109 140 184 233 280 337
#     4  10  20  36  56  80 111 145 185 227 275 333
#     4  10  21  37  62  88 114 155 200 233 276 343
#     4   9  18  33  57  82 108 141 179 230 282 332
#     4   9  18  33  55  83 109 141 186 230 274 330
#     4  10  23  41  60  82 112 152 196 240 284 339
#     4  11  24  39  58  86 118 152 189 239 296 343
#
# _framework density 19.216975000000001
#
# number of rings (size 3 to 8) (size 9 to 14) (size 15 to 20)
#    0.000    2.286    1.429    0.429    4.000    1.714 
#    0.000    1.429    0.000    0.000    0.000    0.000 
#    0.000    0.000    0.000    0.000    0.000    0.000 
#
# Total GULP energy -347151.503802 kJ/mol
# GULP energy per Si atom -12398.267993 kJ/mol
# Density = 1.917324 g / cm^3
# Si number density = 19.216975 Si / 1000 Ang^3
#
#
#
# Elastic Constant Matrix: (Units=GPa)
#
#
# Indices 1 2 3 4 5 6 
#
# 1 127.7085 40.3559 64.1568 0.0000 -7.2811 0.0000
# 2 40.3559 39.9075 42.8161 0.0000 1.0264 -0.0001
# 3 64.1568 42.8161 152.7314 0.0000 5.0716 0.0000
# 4 0.0000 0.0000 0.0000 31.7895 0.0000 -2.7410
# 5 -7.2811 1.0264 5.0716 0.0000 26.9911 0.0000
# 6 0.0000 -0.0001 0.0000 -2.7410 0.0000 22.0364
#
#
#
# Elastic Compliance Matrix: (Units=1/GPa)
#
#
# Indices 1 2 3 4 5 6 
#
# 1 0.012541 -0.009993 -0.002608 0.000000 0.004253 0.000000
# 2 -0.009993 0.043807 -0.007988 0.000000 -0.002861 0.000000
# 3 -0.002608 -0.007988 0.009958 0.000000 -0.002271 0.000000
# 4 0.000000 0.000000 0.000000 0.031798 0.000000 0.003955
# 5 0.004253 -0.002861 -0.002271 0.000000 0.038732 0.000000
# 6 0.000000 0.000000 0.000000 0.003955 0.000000 0.045871
#
#
# Mechanical properties :
#
#
# Convention : Reuss Voigt Hill
#
# Bulk Modulus (GPa) = 39.79672 68.33389 54.06531
# Shear Modulus (GPa) = 21.52756 27.69797 24.61277
#
# Velocity S-wave (km/s) = 3.35062 3.80060 3.58268
# Velocity P-wave (km/s) = 5.97687 7.40917 6.73122
#
# Compressibility (1/GPa) = 0.02512770
#
# Stress axis : x y z
#
# Youngs Moduli (GPa) = 79.74042 22.82730 100.42681
#
# Poissons Ratio (x) = 0.22812 0.26187
# Poissons Ratio (y) = 0.79687 0.80220
# Poissons Ratio (z) = 0.20793 0.18234
#
# Static dielectric constant tensor:
#      x y z
#    x 3.861790 0.000000 -0.032680 
#    y 0.000000 3.301430 0.000000 
#    z -0.032680 0.000000 3.642870 
# 
# 
# High freq. dielectric constant tensor:
#      x y z
#    x 1.757160 0.000000 0.001770 
#    y 0.000000 1.721840 0.000000 
#    z 0.001770 0.000000 1.757060 
# 
# From -- ./inp_files/238391.got.cif
#   From: 2010.06.25/outbox.cif.g09.slc.cpg/sg12_120_cif.got.tgz:238391.got - 2010.06.28 00:19:55.
