data_PCOD8100830
_publ_section_title
;
Structure prediction by ZEFSAII (Michael W. Deem and Ramdas Pophale) SiO2 
 PCOD8100830
Probable space group: C 2/M
;
_chemical_formula_sum "Si O2"
_cell_formula_units_Z 56
_cell_length_a 9.784277
_cell_length_b 20.421297
_cell_length_c 15.487416
_cell_angle_alpha 90.000000
_cell_angle_beta 104.143620
_cell_angle_gamma 90.000000
_cell_volume 3000.697870
_symmetry_space_group_name_H-M "C 2/M"
_symmetry_group_IT_number 12
_symmetry_cell_setting 'monoclinic'
loop_
_space_group_symop_operation_xyz
x,y,z
-x,y,-z
-x,-y,-z
x,-y,z
1/2+x,1/2+y,z
1/2-x,1/2+y,-z
1/2-x,1/2-y,-z
1/2+x,1/2-y,z
loop_
_atom_site_type_symbol
_atom_site_label
_atom_site_fract_x
_atom_site_fract_y
_atom_site_fract_z
Si Si1 0.133502 0.077863 0.256826
Si Si2 0.283279 0.144060 0.697740
Si Si3 0.482690 0.326361 0.901615
Si Si4 0.278411 0.265996 0.165962
Si Si5 0.142309 0.750967 0.559248
Si Si6 0.595530 0.157155 0.695107
Si Si7 0.975013 0.074958 0.400556
O O1 0.045116 0.114451 0.169027
O O2 0.296760 0.097610 0.272783
O O3 0.077381 0.104178 0.341527
O O4 0.115396 0.000000 0.242791
O O5 0.276767 0.166930 0.796294
O O6 0.210969 0.205400 0.642036
O O7 0.440506 0.129032 0.690251
O O8 0.186169 0.082041 0.657916
O O9 0.626319 0.288806 0.899244
O O10 0.356450 0.274259 0.885578
O O11 0.500000 0.356351 0.000000
O O12 0.376501 0.219393 0.239805
O O13 0.250000 0.750000 0.500000
O O14 0.107147 0.680476 0.597039
O O15 0.000000 0.782367 0.500000
O O16 0.000000 0.107046 0.500000
O O17 0.014823 0.000000 0.414609
#
# Coordination Sequence:
#
# PCOD8100830 Si02
#       7
#     8   8   8   8   8   8   8
#     4  10  23  41  59  81 114 151 195 239 276 333
#     4  11  20  34  56  77 113 149 184 232 280 340
#     4  11  21  37  63  89 118 149 181 228 288 344
#     4  10  20  36  54  88 119 143 177 227 280 343
#     4  11  22  32  48  81 114 144 186 236 287 339
#     4  10  22  34  54  79 111 152 185 227 291 336
#     4  10  22  38  57  79 105 149 200 241 277 321
#
# _framework density 18.662324999999999
#
# number of rings (size 3 to 8) (size 9 to 14) (size 15 to 20)
#    0.000    1.571    4.286    0.857    4.000    0.857 
#    0.000    0.000    0.000    3.000    0.000    1.000 
#    0.000    0.000    0.000    0.000    0.000    0.000 
#
# Total GULP energy -347024.735462 kJ/mol
# GULP energy per Si atom -12393.740552 kJ/mol
# Density = 1.861985 g / cm^3
# Si number density = 18.662325 Si / 1000 Ang^3
#
#
#
# Elastic Constant Matrix: (Units=GPa)
#
#
# Indices 1 2 3 4 5 6 
#
# 1 140.1297 24.4398 44.3413 0.0000 -16.0686 0.0000
# 2 24.4398 57.2123 33.1467 0.0000 -8.3839 0.0000
# 3 44.3413 33.1467 120.3885 0.0000 -12.7812 0.0000
# 4 0.0000 0.0000 0.0000 20.7813 0.0000 -1.7035
# 5 -16.0686 -8.3839 -12.7812 0.0000 25.7710 0.0000
# 6 0.0000 0.0000 0.0000 -1.7035 0.0000 23.1007
#
#
#
# Elastic Compliance Matrix: (Units=1/GPa)
#
#
# Indices 1 2 3 4 5 6 
#
# 1 0.008591 -0.001817 -0.002278 0.000000 0.003636 0.000000
# 2 -0.001817 0.021608 -0.004913 0.000000 0.003460 0.000000
# 3 -0.002278 -0.004913 0.010743 0.000000 0.002310 0.000000
# 4 0.000000 0.000000 0.000000 0.048413 0.000000 0.003570
# 5 0.003636 0.003460 0.002310 0.000000 0.043341 0.000000
# 6 0.000000 0.000000 0.000000 0.003570 0.000000 0.043552
#
#
# Mechanical properties :
#
#
# Convention : Reuss Voigt Hill
#
# Bulk Modulus (GPa) = 43.61736 57.95400 50.78568
# Shear Modulus (GPa) = 24.76390 28.31745 26.54068
#
# Velocity S-wave (km/s) = 3.64668 3.89956 3.77524
# Velocity P-wave (km/s) = 6.41511 7.16916 6.80259
#
# Compressibility (1/GPa) = 0.02292665
#
# Stress axis : x y z
#
# Youngs Moduli (GPa) = 116.40260 46.27826 93.08181
#
# Poissons Ratio (x) = 0.08411 0.21202
# Poissons Ratio (y) = 0.21155 0.45729
# Poissons Ratio (z) = 0.26514 0.22735
#
# Static dielectric constant tensor:
#      x y z
#    x 3.390670 0.000000 -0.072820 
#    y 0.000000 3.119860 0.000000 
#    z -0.072820 0.000000 3.599490 
# 
# 
# High freq. dielectric constant tensor:
#      x y z
#    x 1.735260 0.000000 -0.010340 
#    y 0.000000 1.698070 0.000000 
#    z -0.010340 0.000000 1.721290 
# 
# From -- ./inp_files/197541.got.cif
#   From: 2010.06.25/outbox.cif.g09.slc.cpg/sg12_99_cif.got.tgz:197541.got - 2010.06.28 00:19:55.
