data_PCOD8100954
_publ_section_title
;
Structure prediction by ZEFSAII (Michael W. Deem and Ramdas Pophale) SiO2 
 PCOD8100954
Probable space group: C 2/M
;
_chemical_formula_sum "Si O2"
_cell_formula_units_Z 44
_cell_length_a 10.354702
_cell_length_b 17.904030
_cell_length_c 23.515463
_cell_angle_alpha 90.000000
_cell_angle_beta 148.353298
_cell_angle_gamma 90.000000
_cell_volume 2287.370033
_symmetry_space_group_name_H-M "C 2/M"
_symmetry_group_IT_number 12
_symmetry_cell_setting 'monoclinic'
loop_
_space_group_symop_operation_xyz
x,y,z
-x,y,-z
-x,-y,-z
x,-y,z
1/2+x,1/2+y,z
1/2-x,1/2+y,-z
1/2-x,1/2-y,-z
1/2+x,1/2-y,z
loop_
_atom_site_type_symbol
_atom_site_label
_atom_site_fract_x
_atom_site_fract_y
_atom_site_fract_z
Si Si1 0.043504 0.416554 0.191233
Si Si2 0.810018 0.837812 0.859933
Si Si3 0.634477 0.796322 0.373675
Si Si4 0.534814 0.675341 0.603789
Si Si5 0.742499 0.084176 0.023719
Si Si6 0.000000 0.704544 0.000000
O O1 0.005199 0.500000 0.199825
O O2 0.318478 0.393003 0.312904
O O3 0.834146 0.363915 0.138517
O O4 0.001907 0.412436 0.107759
O O5 0.625212 0.835257 0.737092
O O6 0.017322 0.897947 0.923289
O O7 0.916480 0.755629 0.915325
O O8 0.576439 0.721174 0.385669
O O9 0.778549 0.778684 0.368226
O O10 0.803411 0.849974 0.477335
O O11 0.765966 0.000000 0.058199
O O12 0.719125 0.148255 0.062931
#
# Coordination Sequence:
#
# PCOD8100954 Si02
#       6
#     8   8   8   8   8   4
#     4  10  20  36  56  78 110 146 180 223 280 333
#     4  11  21  34  57  83 106 141 186 229 270 324
#     4   9  19  32  55  80 111 132 184 230 276 317
#     4   9  18  35  52  83 103 144 175 230 276 326
#     4  11  23  38  53  80 116 148 179 228 285 330
#     4  12  23  34  57  84 108 146 192 226 267 334
#
# _framework density 19.236066000000001
#
# number of rings (size 3 to 8) (size 9 to 14) (size 15 to 20)
#    0.000    1.818    1.818    2.455    5.091    1.455 
#    0.000    8.182    0.000    0.000    0.000    3.818 
#    0.000    0.000    0.000    0.000    0.000    0.000 
#
# Total GULP energy -272602.971900 kJ/mol
# GULP energy per Si atom -12391.044177 kJ/mol
# Density = 1.919228 g / cm^3
# Si number density = 19.236066 Si / 1000 Ang^3
#
#
#
# Elastic Constant Matrix: (Units=GPa)
#
#
# Indices 1 2 3 4 5 6 
#
# 1 46.0826 22.5720 20.2092 0.0000 -2.8266 0.0002
# 2 22.5720 106.0272 30.6114 0.0000 5.5514 0.0002
# 3 20.2092 30.6114 116.2694 0.0007 4.0656 0.0005
# 4 0.0000 0.0000 0.0007 23.3663 -0.0002 2.5023
# 5 -2.8266 5.5514 4.0656 -0.0002 18.4465 0.0000
# 6 0.0002 0.0002 0.0005 2.5023 0.0000 27.4938
#
#
#
# Elastic Compliance Matrix: (Units=1/GPa)
#
#
# Indices 1 2 3 4 5 6 
#
# 1 0.025974 -0.004858 -0.003453 0.000000 0.006203 0.000000
# 2 -0.004858 0.011231 -0.001984 0.000000 -0.003687 0.000000
# 3 -0.003453 -0.001984 0.009796 0.000000 -0.002091 0.000000
# 4 0.000000 0.000000 0.000000 0.043218 0.000001 -0.003933
# 5 0.006203 -0.003687 -0.002091 0.000001 0.056732 0.000000
# 6 0.000000 0.000000 0.000000 -0.003933 0.000000 0.036730
#
#
# Mechanical properties :
#
#
# Convention : Reuss Voigt Hill
#
# Bulk Modulus (GPa) = 37.85894 46.12938 41.99416
# Shear Modulus (GPa) = 23.46603 26.86042 25.16322
#
# Velocity S-wave (km/s) = 3.49649 3.74084 3.62073
# Velocity P-wave (km/s) = 6.00205 6.53385 6.27359
#
# Compressibility (1/GPa) = 0.02641384
#
# Stress axis : x y z
#
# Youngs Moduli (GPa) = 38.49992 89.03560 102.07998
#
# Poissons Ratio (x) = 0.43249 0.35245
# Poissons Ratio (y) = 0.18702 0.20250
# Poissons Ratio (z) = 0.13293 0.17663
#
# Static dielectric constant tensor:
#      x y z
#    x 3.460590 0.000000 -0.049560 
#    y 0.000000 3.315820 0.000000 
#    z -0.049560 0.000000 3.947230 
# 
# 
# High freq. dielectric constant tensor:
#      x y z
#    x 1.742380 0.000000 -0.001950 
#    y 0.000000 1.720340 0.000000 
#    z -0.001950 0.000000 1.759510 
# 
# From -- ./inp_files/241385.got.cif
#   From: 2010.06.25/outbox.cif.g09.slc.cpg/sg12_121_cif.got.tgz:241385.got - 2010.06.28 00:19:55.
