data_PCOD8100168
_publ_section_title
;
Structure prediction by ZEFSAII (Michael W. Deem and Ramdas Pophale) SiO2 
 PCOD8100168
Probable space group: C 2/M
;
_chemical_formula_sum "Si O2"
_cell_formula_units_Z 64
_cell_length_a 17.991449
_cell_length_b 13.016779
_cell_length_c 19.944874
_cell_angle_alpha 90.000000
_cell_angle_beta 47.433553
_cell_angle_gamma 90.000000
_cell_volume 3440.089948
_symmetry_space_group_name_H-M "C 2/M"
_symmetry_group_IT_number 12
_symmetry_cell_setting 'monoclinic'
loop_
_space_group_symop_operation_xyz
x,y,z
-x,y,-z
-x,-y,-z
x,-y,z
1/2+x,1/2+y,z
1/2-x,1/2+y,-z
1/2-x,1/2-y,-z
1/2+x,1/2-y,z
loop_
_atom_site_type_symbol
_atom_site_label
_atom_site_fract_x
_atom_site_fract_y
_atom_site_fract_z
Si Si1 0.425239 0.881778 0.382712
Si Si2 0.380513 0.809723 0.180150
Si Si3 0.388066 0.203395 0.546148
Si Si4 0.239876 0.383863 0.623609
Si Si5 0.595018 0.118408 0.086522
Si Si6 0.867846 0.305046 0.789614
Si Si7 0.753638 0.884384 0.255065
Si Si8 0.730714 0.882679 0.878396
O O1 0.387981 0.868321 0.481029
O O2 0.335452 0.848259 0.388798
O O3 0.519459 0.808475 0.308564
O O4 0.456895 0.000000 0.350805
O O5 0.316888 0.877045 0.271085
O O6 0.498842 0.814835 0.123101
O O7 0.349353 0.690172 0.205179
O O8 0.356443 0.854127 0.121519
O O9 0.500000 0.230072 0.500000
O O10 0.336870 0.311893 0.561556
O O11 0.332101 0.141494 0.638522
O O12 0.277022 0.500000 0.589603
O O13 0.636736 0.153223 0.132497
O O14 0.560751 0.000000 0.109962
O O15 0.685067 0.136116 0.979617
O O16 0.793980 0.374546 0.789761
O O17 0.829944 0.187263 0.808782
O O18 0.792469 0.000000 0.242001
O O19 0.765271 0.000000 0.847808
#
# Coordination Sequence:
#
# PCOD8100168 Si02
#       8
#     8   8   8   8   8   8   8   8
#     4  11  21  36  58  79 106 144 187 228 264 316
#     4  10  20  35  58  84 109 141 186 227 268 322
#     4  11  22  35  55  85 111 140 180 227 270 320
#     4  10  21  37  56  79 111 147 181 221 270 321
#     4  11  20  35  60  84 107 141 185 228 270 321
#     4  11  21  35  57  83 109 142 184 229 266 320
#     4  10  21  37  56  80 112 146 181 224 273 322
#     4  10  22  37  55  82 114 144 177 224 279 327
#
# _framework density 18.604164000000001
#
# number of rings (size 3 to 8) (size 9 to 14) (size 15 to 20)
#    0.000    1.500    2.500    3.750    0.000    1.750 
#    0.000    1.250    0.000    7.500    0.000    0.000 
#    0.000    0.000    0.000    0.000    0.000    0.000 
#
# Total GULP energy -396956.778384 kJ/mol
# GULP energy per Si atom -12404.899325 kJ/mol
# Density = 1.856182 g / cm^3
# Si number density = 18.604164 Si / 1000 Ang^3
#
#
#
# Elastic Constant Matrix: (Units=GPa)
#
#
# Indices 1 2 3 4 5 6 
#
# 1 100.8993 53.0567 35.9062 0.0000 13.9878 0.0000
# 2 53.0567 126.6099 46.2455 0.0000 -12.3940 0.0000
# 3 35.9062 46.2455 73.2783 0.0000 13.9127 0.0000
# 4 0.0000 0.0000 0.0000 24.6734 0.0000 2.5385
# 5 13.9878 -12.3940 13.9127 0.0000 29.7750 0.0000
# 6 0.0000 0.0000 0.0000 2.5385 0.0000 18.0748
#
#
#
# Elastic Compliance Matrix: (Units=1/GPa)
#
#
# Indices 1 2 3 4 5 6 
#
# 1 0.015291 -0.006803 -0.001424 0.000000 -0.009350 0.000000
# 2 -0.006803 0.015387 -0.008999 0.000000 0.013806 0.000000
# 3 -0.001424 -0.008999 0.022614 0.000000 -0.013643 0.000000
# 4 0.000000 0.000000 0.000000 0.041124 0.000000 -0.005776
# 5 -0.009350 0.013806 -0.013643 0.000000 0.050099 0.000000
# 6 0.000000 0.000000 0.000000 -0.005776 0.000000 0.056137
#
#
# Mechanical properties :
#
#
# Convention : Reuss Voigt Hill
#
# Bulk Modulus (GPa) = 53.07635 63.46716 58.27176
# Shear Modulus (GPa) = 20.71394 25.54326 23.12860
#
# Velocity S-wave (km/s) = 3.34039 3.70940 3.52972
# Velocity P-wave (km/s) = 6.59309 7.24809 6.92833
#
# Compressibility (1/GPa) = 0.01884078
#
# Stress axis : x y z
#
# Youngs Moduli (GPa) = 65.39765 64.98834 44.22093
#
# Poissons Ratio (x) = 0.44211 0.06298
# Poissons Ratio (y) = 0.44489 0.39793
# Poissons Ratio (z) = 0.09314 0.58481
#
# Static dielectric constant tensor:
#      x y z
#    x 3.483630 0.000000 0.239150 
#    y 0.000000 3.415960 0.000000 
#    z 0.239150 0.000000 3.415370 
# 
# 
# High freq. dielectric constant tensor:
#      x y z
#    x 1.728930 0.000000 0.019270 
#    y 0.000000 1.718020 0.000000 
#    z 0.019270 0.000000 1.722700 
# 
# From -- ./inp_files/315701.got.cif
#   From: 2010.06.25/outbox.cif.g09.slc.cpg/sg12_158_cif.got.tgz:315701.got - 2010.06.28 00:19:55.
