data_PCOD8100370
_publ_section_title
;
Structure prediction by ZEFSAII (Michael W. Deem and Ramdas Pophale) SiO2 
 PCOD8100370
Probable space group: C 2/M
;
_chemical_formula_sum "Si O2"
_cell_formula_units_Z 64
_cell_length_a 21.091132
_cell_length_b 14.263558
_cell_length_c 15.914633
_cell_angle_alpha 90.000000
_cell_angle_beta 144.591409
_cell_angle_gamma 90.000000
_cell_volume 2773.993377
_symmetry_space_group_name_H-M "C 2/M"
_symmetry_group_IT_number 12
_symmetry_cell_setting 'monoclinic'
loop_
_space_group_symop_operation_xyz
x,y,z
-x,y,-z
-x,-y,-z
x,-y,z
1/2+x,1/2+y,z
1/2-x,1/2+y,-z
1/2-x,1/2-y,-z
1/2+x,1/2-y,z
loop_
_atom_site_type_symbol
_atom_site_label
_atom_site_fract_x
_atom_site_fract_y
_atom_site_fract_z
Si Si1 0.585521 0.892809 0.159702
Si Si2 0.253507 0.600749 0.689980
Si Si3 0.450525 0.604640 0.786285
Si Si4 0.225928 0.199134 0.875058
Si Si5 0.308882 0.704206 0.360803
Si Si6 0.945815 0.392878 0.173117
Si Si7 0.005803 0.211848 0.323208
Si Si8 0.198362 0.897848 0.067178
O O1 0.703368 0.843825 0.287432
O O2 0.535988 0.882594 0.198283
O O3 0.606377 0.000000 0.156506
O O4 0.500000 0.847969 0.000000
O O5 0.209874 0.500000 0.607072
O O6 0.373941 0.622142 0.783448
O O7 0.180790 0.689930 0.589478
O O8 0.250119 0.595958 0.786053
O O9 0.434965 0.500000 0.733788
O O10 0.427425 0.676356 0.685793
O O11 0.572429 0.622944 0.949411
O O12 0.200010 0.195935 0.748181
O O13 0.115461 0.164206 0.802570
O O14 0.249702 0.309164 0.927824
O O15 0.327553 0.133060 0.005905
O O16 0.426603 0.671750 0.523370
O O17 0.941069 0.500000 0.201561
O O18 0.983471 0.324277 0.289792
O O19 0.217845 0.000000 0.042769
#
# Coordination Sequence:
#
# PCOD8100370 Si02
#       8
#     8   8   8   8   8   8   8   8
#     4  10  21  41  68  97 124 158 215 269 314 373
#     4   9  19  35  58  89 121 155 200 252 312 379
#     4  10  20  35  58  88 125 158 194 254 320 371
#     4  11  23  43  64  88 123 173 223 256 298 374
#     4  11  24  40  68  90 126 169 209 259 322 374
#     4  11  24  42  68  96 126 167 213 267 318 367
#     4  12  26  42  56  95 133 168 209 259 315 380
#     4   9  18  34  60  91 117 153 204 259 310 362
#
# _framework density 23.071432000000001
#
# number of rings (size 3 to 8) (size 9 to 14) (size 15 to 20)
#    0.000    1.625    2.500    1.875    0.000    5.500 
#    0.000    2.500    0.000    6.000    0.000    0.000 
#    0.000    0.000    0.000    0.000    0.000    0.000 
#
# Total GULP energy -396453.656195 kJ/mol
# GULP energy per Si atom -12389.176756 kJ/mol
# Density = 2.301892 g / cm^3
# Si number density = 23.071432 Si / 1000 Ang^3
#
#
#
# Elastic Constant Matrix: (Units=GPa)
#
#
# Indices 1 2 3 4 5 6 
#
# 1 45.6468 -2.5875 -1.0887 0.0000 14.1115 0.0000
# 2 -2.5875 76.2894 11.0681 0.0000 -1.1368 0.0000
# 3 -1.0887 11.0681 109.6923 0.0000 3.5491 0.0000
# 4 0.0000 0.0000 0.0000 13.7389 0.0000 -5.3194
# 5 14.1115 -1.1368 3.5491 0.0000 19.7798 0.0000
# 6 0.0000 0.0000 0.0000 -5.3194 0.0000 19.2941
#
#
#
# Elastic Compliance Matrix: (Units=1/GPa)
#
#
# Indices 1 2 3 4 5 6 
#
# 1 0.028222 0.000527 0.000883 0.000000 -0.020263 0.000000
# 2 0.000527 0.013333 -0.001361 0.000000 0.000634 0.000000
# 3 0.000883 -0.001361 0.009340 0.000000 -0.002384 0.000000
# 4 0.000000 0.000000 0.000000 0.081484 0.000000 0.022465
# 5 -0.020263 0.000634 -0.002384 0.000000 0.065477 0.000000
# 6 0.000000 0.000000 0.000000 0.022465 0.000000 0.058023
#
#
# Mechanical properties :
#
#
# Convention : Reuss Voigt Hill
#
# Bulk Modulus (GPa) = 19.61049 27.37913 23.49481
# Shear Modulus (GPa) = 18.32993 25.51168 21.92080
#
# Velocity S-wave (km/s) = 2.82172 3.32892 3.08576
# Velocity P-wave (km/s) = 4.37430 5.16415 4.78555
#
# Compressibility (1/GPa) = 0.05099311
#
# Stress axis : x y z
#
# Youngs Moduli (GPa) = 35.43284 75.00353 107.07124
#
# Poissons Ratio (x) = -0.03955 -0.09449
# Poissons Ratio (y) = -0.01868 0.14568
# Poissons Ratio (z) = -0.03127 0.10205
#
# Static dielectric constant tensor:
#      x y z
#    x 4.139360 0.000000 0.054500 
#    y 0.000000 4.765560 0.000000 
#    z 0.054500 0.000000 3.913510 
# 
# 
# High freq. dielectric constant tensor:
#      x y z
#    x 1.916550 0.000000 0.003810 
#    y 0.000000 1.912680 0.000000 
#    z 0.003810 0.000000 1.893870 
# 
# From -- ./inp_files/290154.got.cif
#   From: 2010.06.25/outbox.cif.g09.slc.cpg/sg12_146_cif.got.tgz:290154.got - 2010.06.28 00:19:55.
