data_PCOD8100156
_publ_section_title
;
Structure prediction by ZEFSAII (Michael W. Deem and Ramdas Pophale) SiO2 
 PCOD8100156
Probable space group: C 2/M
;
_chemical_formula_sum "Si O2"
_cell_formula_units_Z 48
_cell_length_a 31.152870
_cell_length_b 18.377036
_cell_length_c 8.738952
_cell_angle_alpha 90.000000
_cell_angle_beta 151.258092
_cell_angle_gamma 90.000000
_cell_volume 2405.780490
_symmetry_space_group_name_H-M "C 2/M"
_symmetry_group_IT_number 12
_symmetry_cell_setting 'monoclinic'
loop_
_space_group_symop_operation_xyz
x,y,z
-x,y,-z
-x,-y,-z
x,-y,z
1/2+x,1/2+y,z
1/2-x,1/2+y,-z
1/2-x,1/2-y,-z
1/2+x,1/2-y,z
loop_
_atom_site_type_symbol
_atom_site_label
_atom_site_fract_x
_atom_site_fract_y
_atom_site_fract_z
Si Si1 0.700350 0.138178 0.854466
Si Si2 0.058093 0.500000 0.904511
Si Si3 0.360015 0.000000 0.160418
Si Si4 0.632417 0.710354 0.753619
Si Si5 0.801282 0.179726 0.714048
Si Si6 0.542333 0.708843 0.976177
Si Si7 0.872878 0.633007 0.707361
O O1 0.662725 0.207347 0.824464
O O2 0.641610 0.124544 0.518987
O O3 0.693978 0.070257 0.949266
O O4 0.803749 0.153682 0.137009
O O5 0.131948 0.500000 0.999245
O O6 0.959487 0.500000 0.533005
O O7 0.065430 0.569947 0.035675
O O8 0.531084 0.701871 0.384696
O O9 0.637059 0.695878 0.947383
O O10 0.750000 0.250000 0.500000
O O11 0.723774 0.122355 0.511342
O O12 0.872527 0.157893 0.804078
O O13 0.500000 0.679313 0.000000
O O14 0.577741 0.791150 0.105427
#
# Coordination Sequence:
#
# PCOD8100156 Si02
#       7
#     8   4   4   8   8   8   8
#     4  10  21  37  57  81 115 150 193 234 282 342
#     4  11  25  37  55  78 117 158 193 227 279 342
#     4  11  25  37  53  86 113 156 193 235 282 336
#     4  10  20  35  58  83 113 148 188 240 291 332
#     4   9  21  35  54  79 113 147 185 233 290 335
#     4  11  20  33  56  88 110 144 189 237 285 336
#     4  10  21  39  54  80 115 155 190 224 288 345
#
# _framework density 19.951944999999998
#
# number of rings (size 3 to 8) (size 9 to 14) (size 15 to 20)
#    0.000    1.833    1.667    2.000    7.000    0.667 
#    0.000    0.000    0.000    1.000    0.000    7.000 
#    0.000    0.000    0.000    0.000    0.000    0.000 
#
# Total GULP energy -297457.877259 kJ/mol
# GULP energy per Si atom -12394.078219 kJ/mol
# Density = 1.990653 g / cm^3
# Si number density = 19.951945 Si / 1000 Ang^3
#
#
#
# Elastic Constant Matrix: (Units=GPa)
#
#
# Indices 1 2 3 4 5 6 
#
# 1 96.4157 14.7362 11.7195 0.0000 22.4256 0.0000
# 2 14.7362 52.7874 -8.9368 0.0000 2.6765 0.0000
# 3 11.7195 -8.9368 67.8672 0.0000 7.8264 0.0000
# 4 0.0000 0.0000 0.0000 188.6820 0.0000 -56.2888
# 5 22.4256 2.6765 7.8264 0.0000 33.3148 0.0000
# 6 0.0000 0.0000 0.0000 -56.2888 0.0000 41.4937
#
#
#
# Elastic Compliance Matrix: (Units=1/GPa)
#
#
# Indices 1 2 3 4 5 6 
#
# 1 0.012999 -0.003522 -0.001780 0.000000 -0.008049 0.000000
# 2 -0.003522 0.020491 0.003313 0.000000 -0.000054 0.000000
# 3 -0.001780 0.003313 0.015799 0.000000 -0.002779 0.000000
# 4 0.000000 0.000000 0.000000 0.008903 0.000000 0.012077
# 5 -0.008049 -0.000054 -0.002779 0.000000 0.036092 0.000000
# 6 0.000000 0.000000 0.000000 0.012077 0.000000 0.040484
#
#
# Mechanical properties :
#
#
# Convention : Reuss Voigt Hill
#
# Bulk Modulus (GPa) = 22.07082 28.01203 25.04142
# Shear Modulus (GPa) = 32.49949 66.00153 49.25051
#
# Velocity S-wave (km/s) = 4.04033 5.75778 4.97375
# Velocity P-wave (km/s) = 5.73164 7.63367 6.74999
#
# Compressibility (1/GPa) = 0.04530869
#
# Stress axis : x y z
#
# Youngs Moduli (GPa) = 76.93193 48.80276 63.29597
#
# Poissons Ratio (x) = 0.17188 0.11268
# Poissons Ratio (y) = 0.27095 -0.20967
# Poissons Ratio (z) = 0.13696 -0.16166
#
# Static dielectric constant tensor:
#      x y z
#    x 4.138690 0.000000 0.234530 
#    y 0.000000 3.217710 0.000000 
#    z 0.234530 0.000000 3.877810 
# 
# 
# High freq. dielectric constant tensor:
#      x y z
#    x 1.800860 0.000000 0.002940 
#    y 0.000000 1.725900 0.000000 
#    z 0.002940 0.000000 1.789420 
# 
# From -- ./inp_files/112765.got.cif
#   From: 2010.06.25/outbox.cif.g09.slc.cpg/sg12_57_cif.got.tgz:112765.got - 2010.06.28 00:19:55.
