data_PCOD8100606
_publ_section_title
;
Structure prediction by ZEFSAII (Michael W. Deem and Ramdas Pophale) SiO2 
 PCOD8100606
Probable space group: C 2/M
;
_chemical_formula_sum "Si O2"
_cell_formula_units_Z 56
_cell_length_a 21.500970
_cell_length_b 9.089559
_cell_length_c 32.823512
_cell_angle_alpha 90.000000
_cell_angle_beta 154.022433
_cell_angle_gamma 90.000000
_cell_volume 2809.823689
_symmetry_space_group_name_H-M "C 2/M"
_symmetry_group_IT_number 12
_symmetry_cell_setting 'monoclinic'
loop_
_space_group_symop_operation_xyz
x,y,z
-x,y,-z
-x,-y,-z
x,-y,z
1/2+x,1/2+y,z
1/2-x,1/2+y,-z
1/2-x,1/2-y,-z
1/2+x,1/2-y,z
loop_
_atom_site_type_symbol
_atom_site_label
_atom_site_fract_x
_atom_site_fract_y
_atom_site_fract_z
Si Si1 0.983887 0.325787 0.944930
Si Si2 0.490529 0.172916 0.590496
Si Si3 0.347583 0.160148 0.390489
Si Si4 0.453209 0.665248 0.230478
Si Si5 0.831265 0.165723 0.243596
Si Si6 0.235161 0.672745 0.396206
Si Si7 0.767063 0.327112 0.966745
O O1 0.004254 0.500000 0.959999
O O2 0.826509 0.284002 0.836070
O O3 0.000000 0.258025 0.000000
O O4 0.098065 0.263570 0.979451
O O5 0.621872 0.212324 0.637553
O O6 0.544626 0.230553 0.665678
O O7 0.345222 0.251276 0.491756
O O8 0.459079 0.000000 0.573491
O O9 0.500000 0.140371 0.500000
O O10 0.257861 0.279704 0.362429
O O11 0.270169 0.000000 0.345888
O O12 0.516687 0.500000 0.265046
O O13 0.337295 0.673446 0.198142
O O14 0.577098 0.779174 0.314438
O O15 0.375083 0.707353 0.142596
O O16 0.861072 0.000000 0.276428
O O17 0.253566 0.500000 0.411192
O O18 0.786047 0.500000 0.985372
O O19 0.750000 0.250000 0.000000
#
# Coordination Sequence:
#
# PCOD8100606 Si02
#       7
#     8   8   8   8   8   8   8
#     4   9  16  34  63  88 110 146 196 242 288 342
#     4  10  21  37  56  81 116 153 189 234 292 352
#     4   8  16  33  54  75 104 145 185 225 283 349
#     4  10  21  38  58  81 114 157 195 233 292 357
#     4  10  20  35  60  88 111 145 199 247 284 340
#     4  11  22  35  56  83 113 151 195 243 288 336
#     4  10  21  38  62  91 122 154 193 243 296 354
#
# _framework density 19.930076
#
# number of rings (size 3 to 8) (size 9 to 14) (size 15 to 20)
#    0.000    2.286    1.429    2.571    0.000    6.000 
#    0.000    3.571    0.000    0.857    0.000    0.000 
#    0.000    0.000    0.000    0.000    0.000    0.000 
#
# Total GULP energy -347093.107418 kJ/mol
# GULP energy per Si atom -12396.182408 kJ/mol
# Density = 1.988471 g / cm^3
# Si number density = 19.930076 Si / 1000 Ang^3
#
#
#
# Elastic Constant Matrix: (Units=GPa)
#
#
# Indices 1 2 3 4 5 6 
#
# 1 108.2204 35.7301 54.7341 0.0000 0.4805 0.0003
# 2 35.7301 94.6961 54.6495 0.0010 2.5190 0.0017
# 3 54.7341 54.6495 111.3508 0.0058 -1.7929 0.0034
# 4 0.0000 0.0010 0.0058 2.3141 0.0007 -15.2824
# 5 0.4805 2.5190 -1.7929 0.0007 34.4133 0.0001
# 6 0.0003 0.0017 0.0034 -15.2824 0.0001 14.9206
#
#
#
# Elastic Compliance Matrix: (Units=1/GPa)
#
#
# Indices 1 2 3 4 5 6 
#
# 1 0.012479 -0.001614 -0.005348 -0.000004 -0.000335 -0.000003
# 2 -0.001614 0.015015 -0.006599 -0.000002 -0.001420 -0.000002
# 3 -0.005348 -0.006599 0.014869 0.000009 0.001332 0.000007
# 4 -0.000004 -0.000002 0.000009 -0.074969 0.000002 -0.076787
# 5 -0.000335 -0.001420 0.001332 0.000002 0.029237 0.000002
# 6 -0.000003 -0.000002 0.000007 -0.076787 0.000002 -0.011627
#
#
# Mechanical properties :
#
#
# Convention : Reuss Voigt Hill
#
# Bulk Modulus (GPa) = 65.60198 67.16606 66.38402
# Shear Modulus (GPa) = 290.61078 21.60651 156.10865
#
# Velocity S-wave (km/s) = 12.08850 3.29616 8.85992
# Velocity P-wave (km/s) = 15.09403 6.94696 11.74926
#
# Compressibility (1/GPa) = 0.01524344
#
# Stress axis : x y z
#
# Youngs Moduli (GPa) = 80.13294 66.60046 67.25263
#
# Poissons Ratio (x) = 0.10746 0.35964
# Poissons Ratio (y) = 0.12930 0.44379
# Poissons Ratio (z) = 0.42852 0.43949
#
# Static dielectric constant tensor:
#      x y z
#    x 4.085890 0.000000 -0.080970 
#    y 0.000000 3.322730 0.000000 
#    z -0.080970 0.000000 3.419070 
# 
# 
# High freq. dielectric constant tensor:
#      x y z
#    x 1.781700 0.000000 0.001040 
#    y 0.000000 1.749840 0.000000 
#    z 0.001040 0.000000 1.770110 
# 
# From -- ./inp_files/380756.got.cif
#   From: 2010.06.25/outbox.cif.g09.slc.cpg/sg12_191_cif.got.tgz:380756.got - 2010.06.28 00:19:55.
