data_PCOD8100981
_publ_section_title
;
Structure prediction by ZEFSAII (Michael W. Deem and Ramdas Pophale) SiO2 
 PCOD8100981
Probable space group: C 2/M
;
_chemical_formula_sum "Si O2"
_cell_formula_units_Z 64
_cell_length_a 24.139307
_cell_length_b 9.391147
_cell_length_c 31.252210
_cell_angle_alpha 90.000000
_cell_angle_beta 151.188440
_cell_angle_gamma 90.000000
_cell_volume 3414.354058
_symmetry_space_group_name_H-M "C 2/M"
_symmetry_group_IT_number 12
_symmetry_cell_setting 'monoclinic'
loop_
_space_group_symop_operation_xyz
x,y,z
-x,y,-z
-x,-y,-z
x,-y,z
1/2+x,1/2+y,z
1/2-x,1/2+y,-z
1/2-x,1/2-y,-z
1/2+x,1/2-y,z
loop_
_atom_site_type_symbol
_atom_site_label
_atom_site_fract_x
_atom_site_fract_y
_atom_site_fract_z
Si Si1 0.531993 0.330896 0.568337
Si Si2 0.118368 0.835036 0.367913
Si Si3 0.777594 0.668513 0.767058
Si Si4 0.342435 0.664680 0.507285
Si Si5 0.131497 0.835451 0.092303
Si Si6 0.692871 0.662390 0.038403
Si Si7 0.005176 0.665013 0.140556
Si Si8 0.048063 0.335579 0.800316
O O1 0.500000 0.268749 0.500000
O O2 0.534126 0.500000 0.568167
O O3 0.657025 0.274404 0.666869
O O4 0.438044 0.278777 0.539077
O O5 0.229023 0.757211 0.423095
O O6 0.109217 0.813347 0.412462
O O7 0.004856 0.765061 0.271580
O O8 0.124862 0.000000 0.359767
O O9 0.775100 0.500000 0.772860
O O10 0.800089 0.742089 0.827422
O O11 0.875359 0.714279 0.799526
O O12 0.310756 0.500000 0.477313
O O13 0.193913 0.809007 0.089684
O O14 0.135500 0.000000 0.109295
O O15 0.000000 0.783042 0.000000
O O16 0.659533 0.500000 0.006277
O O17 0.817613 0.700671 0.104415
O O18 0.600465 0.756919 0.952363
O O19 0.982413 0.500000 0.117159
O O20 0.012777 0.699226 0.195909
O O21 0.030515 0.500000 0.775008
#
# Coordination Sequence:
#
# PCOD8100981 Si02
#       8
#     8   8   8   8   8   8   8   8
#     4   9  19  35  59  86 111 143 183 228 277 330
#     4  10  21  36  56  84 110 140 182 226 273 325
#     4  10  21  35  56  86 111 140 187 233 274 324
#     4   9  19  37  59  80 109 144 179 223 276 327
#     4  10  20  36  56  79 111 151 187 221 273 336
#     4  10  21  37  56  79 110 148 187 222 270 330
#     4  10  21  36  55  81 111 143 184 230 274 321
#     4  10  22  37  56  81 109 144 185 226 273 327
#
# _framework density 18.744395000000001
#
# number of rings (size 3 to 8) (size 9 to 14) (size 15 to 20)
#    0.000    2.250    1.250    0.750    3.500    2.250 
#    0.000    0.625    0.000    0.750    0.000    0.000 
#    0.000    0.000    0.000    0.000    0.000    0.000 
#
# Total GULP energy -396918.975690 kJ/mol
# GULP energy per Si atom -12403.717990 kJ/mol
# Density = 1.870173 g / cm^3
# Si number density = 18.744395 Si / 1000 Ang^3
#
#
#
# Elastic Constant Matrix: (Units=GPa)
#
#
# Indices 1 2 3 4 5 6 
#
# 1 99.5848 36.6661 41.1230 0.0006 8.0613 -0.0002
# 2 36.6661 53.9492 47.1791 0.0010 0.9508 0.0004
# 3 41.1230 47.1791 117.2577 0.0034 -2.0581 -0.0004
# 4 0.0006 0.0010 0.0034 23.5160 0.0002 3.3583
# 5 8.0613 0.9508 -2.0581 0.0002 22.8505 -0.0001
# 6 -0.0002 0.0004 -0.0004 3.3583 -0.0001 19.6039
#
#
#
# Elastic Compliance Matrix: (Units=1/GPa)
#
#
# Indices 1 2 3 4 5 6 
#
# 1 0.014097 -0.007867 -0.001863 0.000000 -0.004814 0.000000
# 2 -0.007867 0.033103 -0.010552 0.000001 0.000447 -0.000001
# 3 -0.001863 -0.010552 0.013468 -0.000002 0.002309 0.000001
# 4 0.000000 0.000001 -0.000002 0.043591 -0.000001 -0.007467
# 5 -0.004814 0.000447 0.002309 -0.000001 0.045650 0.000000
# 6 0.000000 -0.000001 0.000001 -0.007467 0.000000 0.052289
#
#
# Mechanical properties :
#
#
# Convention : Reuss Voigt Hill
#
# Bulk Modulus (GPa) = 49.74293 57.85866 53.80080
# Shear Modulus (GPa) = 20.04297 22.91564 21.47931
#
# Velocity S-wave (km/s) = 3.27353 3.50027 3.38879
# Velocity P-wave (km/s) = 6.39399 6.87532 6.63902
#
# Compressibility (1/GPa) = 0.02010336
#
# Stress axis : x y z
#
# Youngs Moduli (GPa) = 70.93575 30.20906 74.25046
#
# Poissons Ratio (x) = 0.23765 0.13835
# Poissons Ratio (y) = 0.55804 0.78350
# Poissons Ratio (z) = 0.13217 0.31877
#
# Static dielectric constant tensor:
#      x y z
#    x 3.640870 0.000000 0.066330 
#    y 0.000000 3.285530 0.000000 
#    z 0.066330 0.000000 3.389900 
# 
# 
# High freq. dielectric constant tensor:
#      x y z
#    x 1.740680 0.000000 0.002740 
#    y 0.000000 1.708450 0.000000 
#    z 0.002740 0.000000 1.730690 
# 
# From -- ./inp_files/382478.got.cif
#   From: 2010.06.25/outbox.cif.g09.slc.cpg/sg12_192_cif.got.tgz:382478.got - 2010.06.28 00:19:55.
