data_PCOD8100809
_publ_section_title
;
Structure prediction by ZEFSAII (Michael W. Deem and Ramdas Pophale) SiO2 
 PCOD8100809
Probable space group: C 2/M
;
_chemical_formula_sum "Si O2"
_cell_formula_units_Z 44
_cell_length_a 17.595600
_cell_length_b 24.518829
_cell_length_c 5.259932
_cell_angle_alpha 90.000000
_cell_angle_beta 65.190212
_cell_angle_gamma 90.000000
_cell_volume 2059.818953
_symmetry_space_group_name_H-M "C 2/M"
_symmetry_group_IT_number 12
_symmetry_cell_setting 'monoclinic'
loop_
_space_group_symop_operation_xyz
x,y,z
-x,y,-z
-x,-y,-z
x,-y,z
1/2+x,1/2+y,z
1/2-x,1/2+y,-z
1/2-x,1/2-y,-z
1/2+x,1/2-y,z
loop_
_atom_site_type_symbol
_atom_site_label
_atom_site_fract_x
_atom_site_fract_y
_atom_site_fract_z
Si Si1 0.408720 0.799689 0.877215
Si Si2 0.000000 0.792697 0.000000
Si Si3 0.857983 0.125281 0.268697
Si Si4 0.097470 0.062907 0.308504
Si Si5 0.825912 0.333474 0.494586
Si Si6 0.472749 0.906212 0.288601
O O1 0.462945 0.744651 0.824959
O O2 0.355511 0.797268 0.692993
O O3 0.473452 0.849881 0.787177
O O4 0.345247 0.802473 0.205023
O O5 0.928347 0.829801 0.224072
O O6 0.850178 0.087949 0.530621
O O7 0.771487 0.155922 0.341466
O O8 0.880197 0.090368 0.989485
O O9 0.000000 0.070702 0.500000
O O10 0.122484 0.000000 0.251179
O O11 0.874582 0.391900 0.429217
O O12 0.500000 0.940371 0.500000
O O13 0.500000 0.940138 0.000000
#
# Coordination Sequence:
#
# PCOD8100809 Si02
#       6
#     8   4   8   8   8   8
#     4  10  20  36  54  77 119 179 202 237 286 332
#     4  12  24  38  57  82 130 170 215 246 278 338
#     4  12  25  39  62  97 116 152 210 259 289 357
#     4  11  23  46  68  86 116 154 192 247 329 380
#     4  10  20  36  55  82 120 152 214 243 290 335
#     4   8  14  29  49  70 102 154 203 224 273 326
#
# _framework density 21.361098999999999
#
# number of rings (size 3 to 8) (size 9 to 14) (size 15 to 20)
#    0.000    1.636    4.545    1.636    0.000    5.818 
#    0.000    0.000    0.000    0.000    0.000    0.000 
#    0.000  130.909    0.000    0.000    0.000    0.000 
#
# Total GULP energy -272732.203059 kJ/mol
# GULP energy per Si atom -12396.918321 kJ/mol
# Density = 2.131248 g / cm^3
# Si number density = 21.361099 Si / 1000 Ang^3
#
#
#
# Elastic Constant Matrix: (Units=GPa)
#
#
# Indices 1 2 3 4 5 6 
#
# 1 120.0436 42.1172 53.3291 0.0000 2.0001 0.0000
# 2 42.1172 75.9483 34.4981 0.0000 2.1754 0.0000
# 3 53.3291 34.4981 132.0307 0.0000 31.5575 0.0000
# 4 0.0000 0.0000 0.0000 8.8023 0.0000 16.8046
# 5 2.0001 2.1754 31.5575 0.0000 52.7290 0.0000
# 6 0.0000 0.0000 0.0000 16.8046 0.0000 49.9006
#
#
#
# Elastic Compliance Matrix: (Units=1/GPa)
#
#
# Indices 1 2 3 4 5 6 
#
# 1 0.011746 -0.004750 -0.004018 0.000000 0.002155 0.000000
# 2 -0.004750 0.017045 -0.002812 0.000000 0.001160 0.000000
# 3 -0.004018 -0.002812 0.011515 0.000000 -0.006623 0.000000
# 4 0.000000 0.000000 0.000000 0.318156 0.000000 -0.107143
# 5 0.002155 0.001160 -0.006623 0.000000 0.022799 0.000000
# 6 0.000000 0.000000 0.000000 -0.107143 0.000000 0.056121
#
#
# Mechanical properties :
#
#
# Convention : Reuss Voigt Hill
#
# Bulk Modulus (GPa) = 58.32814 65.32349 61.82581
# Shear Modulus (GPa) = 10.72364 35.49159 23.10761
#
# Velocity S-wave (km/s) = 2.24300 4.08058 3.29258
# Velocity P-wave (km/s) = 5.83722 7.26970 6.59248
#
# Compressibility (1/GPa) = 0.01714438
#
# Stress axis : x y z
#
# Youngs Moduli (GPa) = 85.13373 58.66700 86.84363
#
# Poissons Ratio (x) = 0.27869 0.34898
# Poissons Ratio (y) = 0.40441 0.24423
# Poissons Ratio (z) = 0.34210 0.16499
#
# Static dielectric constant tensor:
#      x y z
#    x 4.342150 0.000000 0.932690 
#    y 0.000000 3.483960 0.000000 
#    z 0.932690 0.000000 5.514530 
# 
# 
# High freq. dielectric constant tensor:
#      x y z
#    x 1.841570 0.000000 0.014450 
#    y 0.000000 1.798550 0.000000 
#    z 0.014450 0.000000 1.859700 
# 
# From -- ./inp_files/16812.got.cif
#   From: 2010.06.25/outbox.cif.g09.slc.cpg/sg12_9_cif.got.tgz:16812.got - 2010.06.28 00:19:55.
