data_PCOD8100676
_publ_section_title
;
Structure prediction by ZEFSAII (Michael W. Deem and Ramdas Pophale) SiO2 
 PCOD8100676
Probable space group: C 2/M
;
_chemical_formula_sum "Si O2"
_cell_formula_units_Z 40
_cell_length_a 14.060308
_cell_length_b 10.030564
_cell_length_c 13.532932
_cell_angle_alpha 90.000000
_cell_angle_beta 92.165157
_cell_angle_gamma 90.000000
_cell_volume 1907.224967
_symmetry_space_group_name_H-M "C 2/M"
_symmetry_group_IT_number 12
_symmetry_cell_setting 'monoclinic'
loop_
_space_group_symop_operation_xyz
x,y,z
-x,y,-z
-x,-y,-z
x,-y,z
1/2+x,1/2+y,z
1/2-x,1/2+y,-z
1/2-x,1/2-y,-z
1/2+x,1/2-y,z
loop_
_atom_site_type_symbol
_atom_site_label
_atom_site_fract_x
_atom_site_fract_y
_atom_site_fract_z
Si Si1 0.370887 0.500000 0.844239
Si Si2 0.453995 0.850556 0.594825
Si Si3 0.310239 0.250608 0.729306
Si Si4 0.288949 0.000000 0.870570
Si Si5 0.836794 0.500000 0.087238
Si Si6 0.103564 0.284490 0.760140
Si Si7 0.423272 0.500000 0.156673
O O1 0.371304 0.369644 0.776641
O O2 0.278557 0.500000 0.909999
O O3 0.476373 0.500000 0.902058
O O4 0.500000 0.778155 0.500000
O O5 0.355942 0.782367 0.624902
O O6 0.524456 0.853521 0.690810
O O7 0.427976 0.000000 0.562725
O O8 0.312947 0.128678 0.806824
O O9 0.202411 0.294369 0.704077
O O10 0.177895 0.000000 0.904739
O O11 0.356266 0.000000 0.970373
O O12 0.882847 0.367376 0.137036
O O13 0.075870 0.131702 0.775834
#
# Coordination Sequence:
#
# PCOD8100676 Si02
#       7
#     4   8   8   4   4   8   4
#     4  10  20  35  61  86 119 157 187 243 297 341
#     4  11  22  39  65  91 114 152 205 242 285 355
#     4  10  21  39  62  86 123 156 190 242 297 346
#     4  10  22  40  60  83 118 164 202 236 284 352
#     4  10  22  40  60  83 118 164 202 236 284 352
#     4  10  21  39  62  86 123 156 190 242 297 346
#     4  10  20  35  61  86 119 157 187 243 297 341
#
# _framework density 20.972878999999999
#
# number of rings (size 3 to 8) (size 9 to 14) (size 15 to 20)
#    0.000    1.800    4.000    0.000    0.000    8.400 
#    0.000    4.000    0.000    0.000    0.000    0.000 
#    0.000    0.000    0.000    0.000    0.000    0.000 
#
# Total GULP energy -247835.104961 kJ/mol
# GULP energy per Si atom -12391.755248 kJ/mol
# Density = 2.092514 g / cm^3
# Si number density = 20.972879 Si / 1000 Ang^3
#
#
#
# Elastic Constant Matrix: (Units=GPa)
#
#
# Indices 1 2 3 4 5 6 
#
# 1 60.5197 3.9169 -9.1466 0.0000 9.6372 0.0000
# 2 3.9169 114.8810 1.7417 0.0000 -2.0570 0.0000
# 3 -9.1466 1.7417 38.1214 0.0000 -3.0354 0.0000
# 4 0.0000 0.0000 0.0000 19.7685 0.0000 9.6862
# 5 9.6372 -2.0570 -3.0354 0.0000 18.7681 0.0000
# 6 0.0000 0.0000 0.0000 9.6862 0.0000 57.5056
#
#
#
# Elastic Compliance Matrix: (Units=1/GPa)
#
#
# Indices 1 2 3 4 5 6 
#
# 1 0.018587 -0.000853 0.003780 0.000000 -0.009027 0.000000
# 2 -0.000853 0.008765 -0.000500 0.000000 0.001318 0.000000
# 3 0.003780 -0.000500 0.027355 0.000000 0.002428 0.000000
# 4 0.000000 0.000000 0.000000 0.055136 0.000000 -0.009287
# 5 -0.009027 0.001318 0.002428 0.000000 0.058454 0.000000
# 6 0.000000 0.000000 0.000000 -0.009287 0.000000 0.018954
#
#
# Mechanical properties :
#
#
# Convention : Reuss Voigt Hill
#
# Bulk Modulus (GPa) = 16.78928 22.94956 19.86942
# Shear Modulus (GPa) = 24.72176 33.67579 29.19877
#
# Velocity S-wave (km/s) = 3.43702 4.01144 3.73529
# Velocity P-wave (km/s) = 4.87580 5.69402 5.30072
#
# Compressibility (1/GPa) = 0.05956183
#
# Stress axis : x y z
#
# Youngs Moduli (GPa) = 53.79986 114.09136 36.55622
#
# Poissons Ratio (x) = 0.09728 -0.13818
# Poissons Ratio (y) = 0.04587 0.01828
# Poissons Ratio (z) = -0.20336 0.05706
#
# Static dielectric constant tensor:
#      x y z
#    x 4.134400 0.000000 -0.020140 
#    y 0.000000 3.751330 0.000000 
#    z -0.020140 0.000000 3.370860 
# 
# 
# High freq. dielectric constant tensor:
#      x y z
#    x 1.839230 0.000000 -0.000320 
#    y 0.000000 1.829120 0.000000 
#    z -0.000320 0.000000 1.780490 
# 
# From -- ./inp_files/141170.got.cif
#   From: 2010.06.25/outbox.cif.g09.slc.cpg/sg12_71_cif.got.tgz:141170.got - 2010.06.28 00:19:55.
