data_PCOD8100027
_publ_section_title
;
Structure prediction by ZEFSAII (Michael W. Deem and Ramdas Pophale) SiO2 
 PCOD8100027
Probable space group: C 2/M
;
_chemical_formula_sum "Si O2"
_cell_formula_units_Z 56
_cell_length_a 13.312983
_cell_length_b 17.451220
_cell_length_c 17.107932
_cell_angle_alpha 90.000000
_cell_angle_beta 136.657084
_cell_angle_gamma 90.000000
_cell_volume 2728.052525
_symmetry_space_group_name_H-M "C 2/M"
_symmetry_group_IT_number 12
_symmetry_cell_setting 'monoclinic'
loop_
_space_group_symop_operation_xyz
x,y,z
-x,y,-z
-x,-y,-z
x,-y,z
1/2+x,1/2+y,z
1/2-x,1/2+y,-z
1/2-x,1/2-y,-z
1/2+x,1/2-y,z
loop_
_atom_site_type_symbol
_atom_site_label
_atom_site_fract_x
_atom_site_fract_y
_atom_site_fract_z
Si Si1 0.463315 0.170498 0.067768
Si Si2 0.775332 0.582282 0.183139
Si Si3 0.899912 0.911708 0.517435
Si Si4 0.122898 0.215329 0.377297
Si Si5 0.904508 0.827416 0.802870
Si Si6 0.432477 0.871439 0.711283
Si Si7 0.314370 0.587210 0.040288
O O1 0.502005 0.259148 0.104478
O O2 0.551352 0.123014 0.184923
O O3 0.292367 0.149397 0.979859
O O4 0.500000 0.145701 0.000000
O O5 0.729106 0.500000 0.192295
O O6 0.725204 0.647929 0.213451
O O7 0.691367 0.597179 0.055606
O O8 0.949194 0.576329 0.265182
O O9 0.951596 0.854729 0.616822
O O10 0.730022 0.898020 0.401792
O O11 0.000000 0.891662 0.500000
O O12 0.923164 0.000000 0.556371
O O13 0.250000 0.250000 0.500000
O O14 0.183148 0.189475 0.326809
O O15 0.019836 0.287074 0.295274
O O16 0.019076 0.893419 0.843427
O O17 0.276136 0.500000 0.044708
#
# Coordination Sequence:
#
# PCOD8100027 Si02
#       7
#     8   8   8   8   8   8   8
#     4  10  21  36  57  83 113 150 188 228 274 336
#     4  10  20  35  57  85 117 151 184 224 281 342
#     4  10  21  38  60  83 109 144 187 236 288 338
#     4   9  21  39  57  80 109 144 188 238 283 331
#     4  11  21  35  58  84 112 148 190 233 280 333
#     4   9  20  38  58  81 112 150 188 229 281 340
#     4  10  21  36  54  82 120 152 184 228 277 336
#
# _framework density 20.527463999999998
#
# number of rings (size 3 to 8) (size 9 to 14) (size 15 to 20)
#    0.000    2.143    0.000    2.571    0.000   10.000 
#    0.000    3.571    0.000    4.286    0.000    0.000 
#    0.000    0.000    0.000    0.000    0.000    0.000 
#
# Total GULP energy -346884.734747 kJ/mol
# GULP energy per Si atom -12388.740527 kJ/mol
# Density = 2.048074 g / cm^3
# Si number density = 20.527464 Si / 1000 Ang^3
#
#
#
# Elastic Constant Matrix: (Units=GPa)
#
#
# Indices 1 2 3 4 5 6 
#
# 1 109.3259 56.0992 43.7149 -0.0001 -11.3450 0.0000
# 2 56.0992 102.9866 27.8621 0.0000 -22.8927 0.0000
# 3 43.7149 27.8621 88.2778 -0.0001 -13.8732 0.0000
# 4 -0.0001 0.0000 -0.0001 16.5903 -0.0001 -3.6153
# 5 -11.3450 -22.8927 -13.8732 -0.0001 33.3742 0.0000
# 6 0.0000 0.0000 0.0000 -3.6153 0.0000 31.5969
#
#
#
# Elastic Compliance Matrix: (Units=1/GPa)
#
#
# Indices 1 2 3 4 5 6 
#
# 1 0.014674 -0.006992 -0.005381 0.000000 -0.002045 0.000000
# 2 -0.006992 0.015350 -0.000108 0.000000 0.008108 0.000000
# 3 -0.005381 -0.000108 0.014687 0.000000 0.004202 0.000000
# 4 0.000000 0.000000 0.000000 0.061817 0.000000 0.007073
# 5 -0.002045 0.008108 0.004202 0.000000 0.036576 0.000000
# 6 0.000000 0.000000 0.000000 0.007073 0.000000 0.032458
#
#
# Mechanical properties :
#
#
# Convention : Reuss Voigt Hill
#
# Bulk Modulus (GPa) = 50.63647 61.77141 56.20394
# Shear Modulus (GPa) = 24.14183 27.83989 25.99086
#
# Velocity S-wave (km/s) = 3.43312 3.68669 3.56216
# Velocity P-wave (km/s) = 6.35895 6.94836 6.66018
#
# Compressibility (1/GPa) = 0.01974861
#
# Stress axis : x y z
#
# Youngs Moduli (GPa) = 68.14554 65.14532 68.08688
#
# Poissons Ratio (x) = 0.45551 0.36639
# Poissons Ratio (y) = 0.47649 0.00737
# Poissons Ratio (z) = 0.36671 0.00705
#
# Static dielectric constant tensor:
#      x y z
#    x 3.538250 0.000000 -0.192820 
#    y 0.000000 4.074080 0.000000 
#    z -0.192820 0.000000 3.759300 
# 
# 
# High freq. dielectric constant tensor:
#      x y z
#    x 1.789710 0.000000 -0.008210 
#    y 0.000000 1.813360 0.000000 
#    z -0.008210 0.000000 1.793870 
# 
# From -- ./inp_files/206771.got.cif
#   From: 2010.06.25/outbox.cif.g09.slc.cpg/sg12_104_cif.got.tgz:206771.got - 2010.06.28 00:19:55.
