data_PCOD8100820
_publ_section_title
;
Structure prediction by ZEFSAII (Michael W. Deem and Ramdas Pophale) SiO2 
 PCOD8100820
Probable space group: C 2/M
;
_chemical_formula_sum "Si O2"
_cell_formula_units_Z 48
_cell_length_a 8.507152
_cell_length_b 20.018258
_cell_length_c 26.880880
_cell_angle_alpha 90.000000
_cell_angle_beta 33.130813
_cell_angle_gamma 90.000000
_cell_volume 2501.991100
_symmetry_space_group_name_H-M "C 2/M"
_symmetry_group_IT_number 12
_symmetry_cell_setting 'monoclinic'
loop_
_space_group_symop_operation_xyz
x,y,z
-x,y,-z
-x,-y,-z
x,-y,z
1/2+x,1/2+y,z
1/2-x,1/2+y,-z
1/2-x,1/2-y,-z
1/2+x,1/2-y,z
loop_
_atom_site_type_symbol
_atom_site_label
_atom_site_fract_x
_atom_site_fract_y
_atom_site_fract_z
Si Si1 0.791623 0.345031 0.904450
Si Si2 0.754992 0.721898 0.151101
Si Si3 0.712359 0.809388 0.548019
Si Si4 0.599324 0.079065 0.735364
Si Si5 0.188959 0.682551 0.256770
Si Si6 0.267122 0.572605 0.464909
O O1 0.666734 0.280785 0.908000
O O2 0.975533 0.323824 0.904442
O O3 0.984695 0.392230 0.818162
O O4 0.500000 0.382805 0.000000
O O5 0.521918 0.675022 0.184883
O O6 0.634285 0.756907 0.233063
O O7 0.750000 0.750000 0.500000
O O8 0.464595 0.793514 0.652439
O O9 0.647860 0.878029 0.537706
O O10 0.000000 0.822378 0.500000
O O11 0.427655 0.113027 0.734883
O O12 0.938727 0.097115 0.640356
O O13 0.543121 0.000000 0.748666
O O14 0.332641 0.500000 0.471541
O O15 0.000000 0.565742 0.500000
#
# Coordination Sequence:
#
# PCOD8100820 Si02
#       6
#     8   8   8   8   8   8
#     4  10  20  36  61  87 113 145 183 232 284 338
#     4   9  20  35  59  83 116 144 183 223 288 343
#     4  12  23  33  55  85 115 146 188 235 280 327
#     4  10  22  40  58  79 113 152 189 231 277 330
#     4  10  20  36  54  82 113 149 181 231 278 333
#     4  10  23  41  57  78 113 155 193 228 275 338
#
# _framework density 19.184722000000001
#
# number of rings (size 3 to 8) (size 9 to 14) (size 15 to 20)
#    0.000    1.833    1.667    2.000    7.000    1.333 
#    0.000    0.833    0.000    1.000    0.000    0.000 
#    0.000    0.000    0.000    0.000    0.000    0.000 
#
# Total GULP energy -297473.432094 kJ/mol
# GULP energy per Si atom -12394.726337 kJ/mol
# Density = 1.914106 g / cm^3
# Si number density = 19.184722 Si / 1000 Ang^3
#
#
#
# Elastic Constant Matrix: (Units=GPa)
#
#
# Indices 1 2 3 4 5 6 
#
# 1 99.9564 36.4438 28.1117 -0.1405 -14.8513 0.0397
# 2 36.4438 74.1567 16.8539 -0.2467 -11.9506 0.0887
# 3 28.1117 16.8539 96.2513 -0.2121 -9.3752 0.2195
# 4 -0.1405 -0.2467 -0.2121 21.3465 0.0366 -1.0743
# 5 -14.8513 -11.9506 -9.3752 0.0366 28.1193 -0.0534
# 6 0.0397 0.0887 0.2195 -1.0743 -0.0534 29.2629
#
#
#
# Elastic Compliance Matrix: (Units=1/GPa)
#
#
# Indices 1 2 3 4 5 6 
#
# 1 0.013232 -0.005295 -0.002559 -0.000005 0.003885 0.000024
# 2 -0.005295 0.016978 -0.001029 0.000143 0.004076 -0.000024
# 3 -0.002559 -0.001029 0.011517 0.000078 0.002051 -0.000073
# 4 -0.000005 0.000143 0.000078 0.046935 0.000026 0.001722
# 5 0.003885 0.004076 0.002051 0.000026 0.040030 0.000041
# 6 0.000024 -0.000024 -0.000073 0.001722 0.000041 0.034237
#
#
# Mechanical properties :
#
#
# Convention : Reuss Voigt Hill
#
# Bulk Modulus (GPa) = 41.73453 48.13147 44.93300
# Shear Modulus (GPa) = 26.49944 28.34275 27.42110
#
# Velocity S-wave (km/s) = 3.72059 3.84781 3.78474
# Velocity P-wave (km/s) = 6.34494 6.69954 6.52465
#
# Compressibility (1/GPa) = 0.02396098
#
# Stress axis : x y z
#
# Youngs Moduli (GPa) = 75.57541 58.89838 86.82695
#
# Poissons Ratio (x) = 0.31187 0.22219
# Poissons Ratio (y) = 0.40018 0.08935
# Poissons Ratio (z) = 0.19340 0.06061
#
# Static dielectric constant tensor:
#      x y z
#    x 3.704630 -0.000070 -0.105750 
#    y -0.000070 3.421170 0.000170 
#    z -0.105750 0.000170 3.549040 
# 
# 
# High freq. dielectric constant tensor:
#      x y z
#    x 1.756750 0.000000 -0.004870 
#    y 0.000000 1.726910 0.000010 
#    z -0.004870 0.000010 1.750160 
# 
# From -- ./inp_files/196509.got.cif
#   From: 2010.06.25/outbox.cif.g09.slc.cpg/sg12_99_cif.got.tgz:196509.got - 2010.06.28 00:19:55.
