data_PCOD8100240
_publ_section_title
;
Structure prediction by ZEFSAII (Michael W. Deem and Ramdas Pophale) SiO2 
 PCOD8100240
Probable space group: C 2/M
;
_chemical_formula_sum "Si O2"
_cell_formula_units_Z 56
_cell_length_a 19.221404
_cell_length_b 8.901046
_cell_length_c 26.768697
_cell_angle_alpha 90.000000
_cell_angle_beta 141.511462
_cell_angle_gamma 90.000000
_cell_volume 2850.320558
_symmetry_space_group_name_H-M "C 2/M"
_symmetry_group_IT_number 12
_symmetry_cell_setting 'monoclinic'
loop_
_space_group_symop_operation_xyz
x,y,z
-x,y,-z
-x,-y,-z
x,-y,z
1/2+x,1/2+y,z
1/2-x,1/2+y,-z
1/2-x,1/2-y,-z
1/2+x,1/2-y,z
loop_
_atom_site_type_symbol
_atom_site_label
_atom_site_fract_x
_atom_site_fract_y
_atom_site_fract_z
Si Si1 0.353756 0.323645 0.820749
Si Si2 0.746879 0.174418 0.865368
Si Si3 0.943623 0.668624 0.022036
Si Si4 0.300193 0.173321 0.689204
Si Si5 0.508684 0.171934 0.278496
Si Si6 0.870911 0.177224 0.564345
Si Si7 0.398771 0.174898 0.480012
O O1 0.355845 0.500000 0.812355
O O2 0.280036 0.279589 0.827551
O O3 0.480937 0.265847 0.897917
O O4 0.295701 0.244854 0.741296
O O5 0.618965 0.216833 0.803875
O O6 0.771996 0.000000 0.887501
O O7 0.819869 0.262782 0.947451
O O8 0.935023 0.500000 0.038422
O O9 0.000000 0.671997 0.000000
O O10 0.423298 0.191996 0.734645
O O11 0.214768 0.257631 0.605262
O O12 0.265111 0.000000 0.673370
O O13 0.555357 0.282635 0.346514
O O14 0.516804 0.000000 0.302451
O O15 0.750000 0.250000 0.500000
O O16 0.931917 0.242089 0.549746
O O17 0.857797 0.000000 0.552531
O O18 0.500000 0.204624 0.500000
O O19 0.379246 0.000000 0.479599
#
# Coordination Sequence:
#
# PCOD8100240 Si02
#       7
#     8   8   8   8   8   8   8
#     4  10  20  35  58  85 115 152 191 235 288 347
#     4   9  19  36  59  85 113 148 191 235 285 345
#     4   9  17  32  55  84 116 147 185 235 287 339
#     4  11  23  39  59  84 118 154 191 239 291 345
#     4  10  22  40  60  84 116 155 194 238 289 345
#     4  12  24  40  63  88 116 155 198 241 290 348
#     4  11  25  43  63  86 117 155 196 243 294 349
#
# _framework density 19.646912
#
# number of rings (size 3 to 8) (size 9 to 14) (size 15 to 20)
#    0.000    1.714    1.429    3.000    2.000    4.571 
#    0.000    0.714    0.000    0.000    0.000    0.000 
#    0.000    0.000    0.000    0.000    0.000    0.000 
#
# Total GULP energy -347324.205418 kJ/mol
# GULP energy per Si atom -12404.435908 kJ/mol
# Density = 1.960219 g / cm^3
# Si number density = 19.646912 Si / 1000 Ang^3
#
#
#
# Elastic Constant Matrix: (Units=GPa)
#
#
# Indices 1 2 3 4 5 6 
#
# 1 58.7428 34.2409 12.2492 0.0000 10.8738 0.0000
# 2 34.2409 102.6387 14.7154 0.0000 8.7588 0.0002
# 3 12.2492 14.7154 51.0141 0.0000 17.4153 0.0000
# 4 0.0000 0.0000 0.0000 39.1976 0.0000 -3.0753
# 5 10.8738 8.7588 17.4153 0.0000 33.4664 0.0000
# 6 0.0000 0.0002 0.0000 -3.0753 0.0000 25.1097
#
#
#
# Elastic Compliance Matrix: (Units=1/GPa)
#
#
# Indices 1 2 3 4 5 6 
#
# 1 0.022172 -0.006750 -0.001849 0.000000 -0.004475 0.000000
# 2 -0.006750 0.012271 -0.001911 0.000000 -0.000024 0.000000
# 3 -0.001849 -0.001911 0.024590 0.000000 -0.011695 0.000000
# 4 0.000000 0.000000 0.000000 0.025759 0.000000 0.003155
# 5 -0.004475 -0.000024 -0.011695 0.000000 0.037427 0.000000
# 6 0.000000 0.000000 0.000000 0.003155 0.000000 0.040212
#
#
# Mechanical properties :
#
#
# Convention : Reuss Voigt Hill
#
# Bulk Modulus (GPa) = 26.30608 37.20072 31.75340
# Shear Modulus (GPa) = 25.49456 29.63409 27.56433
#
# Velocity S-wave (km/s) = 3.60618 3.88794 3.74971
# Velocity P-wave (km/s) = 5.54598 6.25544 5.91136
#
# Compressibility (1/GPa) = 0.03801402
#
# Stress axis : x y z
#
# Youngs Moduli (GPa) = 45.10269 81.49556 40.66667
#
# Poissons Ratio (x) = 0.55006 0.07519
# Poissons Ratio (y) = 0.30443 0.07770
# Poissons Ratio (z) = 0.08339 0.15571
#
# Static dielectric constant tensor:
#      x y z
#    x 3.752330 0.000000 -0.019740 
#    y 0.000000 3.698560 0.000000 
#    z -0.019740 0.000000 3.674370 
# 
# 
# High freq. dielectric constant tensor:
#      x y z
#    x 1.753880 0.000000 0.003690 
#    y 0.000000 1.775050 0.000000 
#    z 0.003690 0.000000 1.768420 
# 
# From -- ./inp_files/363092.got.cif
#   From: 2010.06.25/outbox.cif.g09.slc.cpg/sg12_182_cif.got.tgz:363092.got - 2010.06.28 00:19:55.
