data_PCOD8100658
_publ_section_title
;
Structure prediction by ZEFSAII (Michael W. Deem and Ramdas Pophale) SiO2 
 PCOD8100658
Probable space group: C 2/M
;
_chemical_formula_sum "Si O2"
_cell_formula_units_Z 64
_cell_length_a 30.148697
_cell_length_b 8.925732
_cell_length_c 18.440720
_cell_angle_alpha 90.000000
_cell_angle_beta 142.297482
_cell_angle_gamma 90.000000
_cell_volume 3034.803820
_symmetry_space_group_name_H-M "C 2/M"
_symmetry_group_IT_number 12
_symmetry_cell_setting 'monoclinic'
loop_
_space_group_symop_operation_xyz
x,y,z
-x,y,-z
-x,-y,-z
x,-y,z
1/2+x,1/2+y,z
1/2-x,1/2+y,-z
1/2-x,1/2-y,-z
1/2+x,1/2-y,z
loop_
_atom_site_type_symbol
_atom_site_label
_atom_site_fract_x
_atom_site_fract_y
_atom_site_fract_z
Si Si1 0.177346 0.174849 0.879951
Si Si2 0.169750 0.322042 0.392077
Si Si3 0.085528 0.335521 0.872369
Si Si4 0.173233 0.329700 0.123693
Si Si5 0.436202 0.167455 0.622209
Si Si6 0.923280 0.674584 0.866949
Si Si7 0.315114 0.825678 0.258881
Si Si8 0.056545 0.824710 0.510784
O O1 0.114199 0.210533 0.854446
O O2 0.157530 0.235559 0.775664
O O3 0.189075 0.000000 0.889499
O O4 0.250000 0.250000 0.000000
O O5 0.178929 0.500000 0.394012
O O6 0.250000 0.250000 0.500000
O O7 0.135042 0.281367 0.425829
O O8 0.113840 0.261743 0.256076
O O9 0.114698 0.500000 0.885089
O O10 0.999142 0.334643 0.763891
O O11 0.108808 0.302051 0.983978
O O12 0.203120 0.500000 0.158537
O O13 0.141301 0.292564 0.160364
O O14 0.235851 0.214828 0.183983
O O15 0.466927 0.282118 0.600913
O O16 0.425590 0.000000 0.575632
O O17 0.938701 0.500000 0.875899
O O18 0.000000 0.743465 0.000000
O O19 0.371025 0.775014 0.392269
O O20 0.318369 0.000000 0.245976
O O21 0.000000 0.774864 0.500000
O O22 0.072925 0.000000 0.538774
#
# Coordination Sequence:
#
# PCOD8100658 Si02
#       8
#     8   8   8   8   8   8   8   8
#     4  12  23  37  57  85 122 163 206 252 304 367
#     4  10  22  40  63  94 130 169 214 265 320 380
#     4  10  20  36  60  89 124 163 205 255 310 368
#     4  10  20  35  60  92 123 159 204 255 306 367
#     4  10  22  40  63  92 126 167 211 255 310 376
#     4   9  18  36  64  94 123 160 211 263 312 371
#     4  12  25  40  60  87 122 162 202 252 309 372
#     4  11  25  44  65  90 120 159 208 262 315 372
#
# _framework density 21.088678000000002
#
# number of rings (size 3 to 8) (size 9 to 14) (size 15 to 20)
#    0.000    1.500    1.250    4.125    1.750    7.000 
#    0.000    0.000    0.000    3.000    0.000    0.000 
#    0.000    0.000    0.000    0.000    0.000    0.000 
#
# Total GULP energy -396577.242898 kJ/mol
# GULP energy per Si atom -12393.038841 kJ/mol
# Density = 2.104068 g / cm^3
# Si number density = 21.088678 Si / 1000 Ang^3
#
#
#
# Elastic Constant Matrix: (Units=GPa)
#
#
# Indices 1 2 3 4 5 6 
#
# 1 112.9494 39.7885 31.6071 0.0000 -8.0094 0.0000
# 2 39.7885 102.6543 30.0851 0.0000 1.5311 0.0000
# 3 31.6071 30.0851 107.6569 0.0000 1.0538 0.0000
# 4 0.0000 0.0000 0.0000 24.0364 0.0000 -2.5590
# 5 -8.0094 1.5311 1.0538 0.0000 28.1601 0.0000
# 6 0.0000 0.0000 0.0000 -2.5590 0.0000 -30.7646
#
#
#
# Elastic Compliance Matrix: (Units=1/GPa)
#
#
# Indices 1 2 3 4 5 6 
#
# 1 0.011014 -0.003662 -0.002243 0.000000 0.003416 0.000000
# 2 -0.003662 0.011834 -0.002216 0.000000 -0.001602 0.000000
# 3 -0.002243 -0.002216 0.010576 0.000000 -0.000913 0.000000
# 4 0.000000 0.000000 0.000000 0.041238 0.000000 -0.003430
# 5 0.003416 -0.001602 -0.000913 0.000000 0.036604 0.000000
# 6 0.000000 0.000000 0.000000 -0.003430 0.000000 -0.032220
#
#
# Mechanical properties :
#
#
# Convention : Reuss Voigt Hill
#
# Bulk Modulus (GPa) = 58.20850 58.46912 58.33881
# Shear Modulus (GPa) = 49.49654 19.07171 34.28412
#
# Velocity S-wave (km/s) = 4.84991 3.01052 4.03639
# Velocity P-wave (km/s) = 7.68270 6.31426 7.03185
#
# Compressibility (1/GPa) = 0.01717962
#
# Stress axis : x y z
#
# Youngs Moduli (GPa) = 90.79641 84.49980 94.55620
#
# Poissons Ratio (x) = 0.30946 0.21214
# Poissons Ratio (y) = 0.33252 0.20956
# Poissons Ratio (z) = 0.20370 0.18727
#
# Static dielectric constant tensor:
#      x y z
#    x 3.643970 0.000000 -0.058890 
#    y 0.000000 3.601480 0.000000 
#    z -0.058890 0.000000 4.053270 
# 
# 
# High freq. dielectric constant tensor:
#      x y z
#    x 1.830270 0.000000 -0.001090 
#    y 0.000000 1.797920 0.000000 
#    z -0.001090 0.000000 1.842640 
# 
# From -- ./inp_files/295839.got.cif
#   From: 2010.06.25/outbox.cif.g09.slc.cpg/sg12_148_cif.got.tgz:295839.got - 2010.06.28 00:19:55.
