data_PCOD8100512
_publ_section_title
;
Structure prediction by ZEFSAII (Michael W. Deem and Ramdas Pophale) SiO2 
 PCOD8100512
Probable space group: C 2/M
;
_chemical_formula_sum "Si O2"
_cell_formula_units_Z 64
_cell_length_a 30.640765
_cell_length_b 8.722279
_cell_length_c 18.991683
_cell_angle_alpha 90.000000
_cell_angle_beta 141.557132
_cell_angle_gamma 90.000000
_cell_volume 3155.713867
_symmetry_space_group_name_H-M "C 2/M"
_symmetry_group_IT_number 12
_symmetry_cell_setting 'monoclinic'
loop_
_space_group_symop_operation_xyz
x,y,z
-x,y,-z
-x,-y,-z
x,-y,z
1/2+x,1/2+y,z
1/2-x,1/2+y,-z
1/2-x,1/2-y,-z
1/2+x,1/2-y,z
loop_
_atom_site_type_symbol
_atom_site_label
_atom_site_fract_x
_atom_site_fract_y
_atom_site_fract_z
Si Si1 0.190100 0.180480 0.733863
Si Si2 0.208470 0.320395 0.511492
Si Si3 0.287745 0.319360 0.749259
Si Si4 0.817371 0.318580 0.122207
Si Si5 0.043664 0.180886 0.490234
Si Si6 0.458779 0.318880 0.249747
Si Si7 0.426411 0.821608 0.871104
Si Si8 0.941621 0.679641 0.729490
O O1 0.261160 0.237977 0.786806
O O2 0.178188 0.262414 0.792489
O O3 0.125140 0.226461 0.600939
O O4 0.193864 0.000000 0.752480
O O5 0.219401 0.500000 0.520011
O O6 0.250000 0.250000 0.500000
O O7 0.240211 0.257539 0.624532
O O8 0.126778 0.275988 0.402716
O O9 0.280784 0.500000 0.750298
O O10 0.368227 0.275286 0.838692
O O11 0.813145 0.500000 0.114980
O O12 0.884500 0.263160 0.163304
O O13 0.750000 0.250000 0.000000
O O14 0.000000 0.252772 0.500000
O O15 0.011489 0.244100 0.376928
O O16 0.034425 0.000000 0.479581
O O17 0.447232 0.500000 0.239132
O O18 0.492298 0.272448 0.217404
O O19 0.429176 0.767748 0.793793
O O20 0.406663 0.000000 0.851630
O O21 0.500000 0.784673 0.000000
O O22 0.958561 0.500000 0.747487
#
# Coordination Sequence:
#
# PCOD8100512 Si02
#       8
#     8   8   8   8   8   8   8   8
#     4  11  22  40  66  93 125 165 205 247 302 367
#     4  10  20  35  59  88 122 160 201 251 309 370
#     4  11  23  38  59  91 126 158 200 252 307 366
#     4  12  26  45  66  90 122 161 207 258 308 359
#     4   9  17  34  61  91 123 157 199 244 295 362
#     4  11  22  39  64  93 124 161 204 249 304 368
#     4  10  22  41  63  84 112 157 209 254 303 363
#     4  10  21  38  59  87 122 156 199 255 309 365
#
# _framework density 20.280674000000001
#
# number of rings (size 3 to 8) (size 9 to 14) (size 15 to 20)
#    0.000    1.500    2.500    3.000    0.000    2.750 
#    0.000    6.250    0.000    0.000    0.000    0.000 
#    0.000    0.000    0.000    0.000    0.000    0.000 
#
# Total GULP energy -396933.644168 kJ/mol
# GULP energy per Si atom -12404.176380 kJ/mol
# Density = 2.023451 g / cm^3
# Si number density = 20.280674 Si / 1000 Ang^3
#
#
#
# Elastic Constant Matrix: (Units=GPa)
#
#
# Indices 1 2 3 4 5 6 
#
# 1 127.0961 40.6207 19.1759 0.0000 25.2348 0.0000
# 2 40.6207 84.6812 31.8137 0.0000 12.6077 0.0000
# 3 19.1759 31.8137 82.8045 0.0000 24.2646 0.0000
# 4 0.0000 0.0000 0.0000 25.0369 0.0000 0.6734
# 5 25.2348 12.6077 24.2646 0.0000 22.1344 0.0000
# 6 0.0000 0.0000 0.0000 0.6734 0.0000 38.7995
#
#
#
# Elastic Compliance Matrix: (Units=1/GPa)
#
#
# Indices 1 2 3 4 5 6 
#
# 1 0.011716 -0.004730 0.003284 0.000000 -0.014263 0.000000
# 2 -0.004730 0.015849 -0.005788 0.000000 0.002710 0.000000
# 3 0.003284 -0.005788 0.020141 0.000000 -0.022526 0.000000
# 4 0.000000 0.000000 0.000000 0.039960 0.000000 -0.000694
# 5 -0.014263 0.002710 -0.022526 0.000000 0.084589 0.000000
# 6 0.000000 0.000000 0.000000 -0.000694 0.000000 0.025786
#
#
# Mechanical properties :
#
#
# Convention : Reuss Voigt Hill
#
# Bulk Modulus (GPa) = 30.08723 53.08917 41.58820
# Shear Modulus (GPa) = 22.36247 30.72560 26.54404
#
# Velocity S-wave (km/s) = 3.32422 3.89655 3.62171
# Velocity P-wave (km/s) = 5.44073 6.81749 6.16764
#
# Compressibility (1/GPa) = 0.03323669
#
# Stress axis : x y z
#
# Youngs Moduli (GPa) = 85.35109 63.09532 49.65027
#
# Poissons Ratio (x) = 0.29846 -0.16303
# Poissons Ratio (y) = 0.40374 0.28738
# Poissons Ratio (z) = -0.28026 0.36520
#
# Static dielectric constant tensor:
#      x y z
#    x 3.692780 0.000000 -0.019800 
#    y 0.000000 3.554710 0.000000 
#    z -0.019800 0.000000 3.844400 
# 
# 
# High freq. dielectric constant tensor:
#      x y z
#    x 1.805410 0.000000 0.003460 
#    y 0.000000 1.779970 0.000000 
#    z 0.003460 0.000000 1.793010 
# 
# From -- ./inp_files/295779.got.cif
#   From: 2010.06.25/outbox.cif.g09.slc.cpg/sg12_148_cif.got.tgz:295779.got - 2010.06.28 00:19:55.
