data_PCOD8100288
_publ_section_title
;
Structure prediction by ZEFSAII (Michael W. Deem and Ramdas Pophale) SiO2 
 PCOD8100288
Probable space group: C 2/M
;
_chemical_formula_sum "Si O2"
_cell_formula_units_Z 56
_cell_length_a 31.203919
_cell_length_b 8.817959
_cell_length_c 10.395004
_cell_angle_alpha 90.000000
_cell_angle_beta 68.881431
_cell_angle_gamma 90.000000
_cell_volume 2668.133496
_symmetry_space_group_name_H-M "C 2/M"
_symmetry_group_IT_number 12
_symmetry_cell_setting 'monoclinic'
loop_
_space_group_symop_operation_xyz
x,y,z
-x,y,-z
-x,-y,-z
x,-y,z
1/2+x,1/2+y,z
1/2-x,1/2+y,-z
1/2-x,1/2-y,-z
1/2+x,1/2-y,z
loop_
_atom_site_type_symbol
_atom_site_label
_atom_site_fract_x
_atom_site_fract_y
_atom_site_fract_z
Si Si1 0.259487 0.834278 0.798223
Si Si2 0.553158 0.824367 0.945141
Si Si3 0.448299 0.679371 0.540087
Si Si4 0.105712 0.179733 0.653326
Si Si5 0.202692 0.676963 0.503431
Si Si6 0.315008 0.833224 0.997597
Si Si7 0.593819 0.676101 0.145097
O O1 0.296993 0.791435 0.650263
O O2 0.283995 0.840638 0.906840
O O3 0.238761 0.000000 0.787440
O O4 0.216886 0.716717 0.847550
O O5 0.579223 0.725748 0.810790
O O6 0.563869 0.000000 0.907511
O O7 0.500000 0.786430 0.000000
O O8 0.567409 0.778985 0.072631
O O9 0.500000 0.745968 0.500000
O O10 0.451154 0.500000 0.523548
O O11 0.422370 0.743752 0.440927
O O12 0.419965 0.728322 0.696754
O O13 0.157080 0.245341 0.607690
O O14 0.109374 0.000000 0.642294
O O15 0.201229 0.500000 0.541033
O O16 0.250000 0.750000 0.500000
O O17 0.352559 0.705233 0.932880
O O18 0.335997 0.000000 0.005643
O O19 0.582349 0.500000 0.135025
#
# Coordination Sequence:
#
# PCOD8100288 Si02
#       7
#     8   8   8   8   8   8   8
#     4   9  20  38  58  82 116 157 202 249 299 357
#     4  11  25  44  64  90 126 166 210 260 314 374
#     4   9  19  37  63  95 126 158 203 258 314 377
#     4  11  23  41  67  96 129 169 212 260 320 382
#     4  11  24  41  61  86 123 166 214 263 309 369
#     4  10  20  35  58  86 117 153 195 249 304 358
#     4  11  22  37  62  91 122 158 201 252 307 372
#
# _framework density 20.988454000000001
#
# number of rings (size 3 to 8) (size 9 to 14) (size 15 to 20)
#    0.000    1.714    0.000    3.857    2.000    4.000 
#    0.000    2.143    0.000    5.143    0.000    0.000 
#    0.000    0.000    0.000    0.000    0.000    0.000 
#
# Total GULP energy -347151.347179 kJ/mol
# GULP energy per Si atom -12398.262399 kJ/mol
# Density = 2.094068 g / cm^3
# Si number density = 20.988454 Si / 1000 Ang^3
#
#
#
# Elastic Constant Matrix: (Units=GPa)
#
#
# Indices 1 2 3 4 5 6 
#
# 1 95.6898 37.0912 35.3232 0.0000 -17.4301 0.0000
# 2 37.0912 73.9738 41.7577 0.0000 -14.2750 0.0000
# 3 35.3232 41.7577 78.9358 0.0000 -5.2647 0.0000
# 4 0.0000 0.0000 0.0000 24.7279 0.0000 -1.8669
# 5 -17.4301 -14.2750 -5.2647 0.0000 32.4206 0.0000
# 6 0.0000 0.0000 0.0000 -1.8669 0.0000 31.3960
#
#
#
# Elastic Compliance Matrix: (Units=1/GPa)
#
#
# Indices 1 2 3 4 5 6 
#
# 1 0.014439 -0.003931 -0.004023 0.000000 0.005379 0.000000
# 2 -0.003931 0.022005 -0.009479 0.000000 0.006036 0.000000
# 3 -0.004023 -0.009479 0.019270 0.000000 -0.003208 0.000000
# 4 0.000000 0.000000 0.000000 0.040623 0.000000 0.002416
# 5 0.005379 0.006036 -0.003208 0.000000 0.035873 0.000000
# 6 0.000000 0.000000 0.000000 0.002416 0.000000 0.031995
#
#
# Mechanical properties :
#
#
# Convention : Reuss Voigt Hill
#
# Bulk Modulus (GPa) = 47.96834 52.99373 50.48103
# Shear Modulus (GPa) = 24.26952 26.67071 25.47011
#
# Velocity S-wave (km/s) = 3.40417 3.56860 3.48735
# Velocity P-wave (km/s) = 6.19317 6.50259 6.34977
#
# Compressibility (1/GPa) = 0.02084708
#
# Stress axis : x y z
#
# Youngs Moduli (GPa) = 69.25703 45.44395 51.89547
#
# Poissons Ratio (x) = 0.17864 0.20878
# Poissons Ratio (y) = 0.27224 0.49193
# Poissons Ratio (z) = 0.27863 0.43077
#
# Static dielectric constant tensor:
#      x y z
#    x 3.696150 0.000000 -0.056000 
#    y 0.000000 3.906020 0.000000 
#    z -0.056000 0.000000 4.084780 
# 
# 
# High freq. dielectric constant tensor:
#      x y z
#    x 1.824510 0.000000 -0.001850 
#    y 0.000000 1.814110 0.000000 
#    z -0.001850 0.000000 1.837220 
# 
# From -- ./inp_files/187137.got.cif
#   From: 2010.06.25/outbox.cif.g09.slc.cpg/sg12_94_cif.got.tgz:187137.got - 2010.06.28 00:19:55.
