data_PCOD8100919
_publ_section_title
;
Structure prediction by ZEFSAII (Michael W. Deem and Ramdas Pophale) SiO2 
 PCOD8100919
Probable space group: C 2/M
;
_chemical_formula_sum "Si O2"
_cell_formula_units_Z 36
_cell_length_a 13.199092
_cell_length_b 10.336535
_cell_length_c 13.918305
_cell_angle_alpha 90.000000
_cell_angle_beta 99.176318
_cell_angle_gamma 90.000000
_cell_volume 1874.612582
_symmetry_space_group_name_H-M "C 2/M"
_symmetry_group_IT_number 12
_symmetry_cell_setting 'monoclinic'
loop_
_space_group_symop_operation_xyz
x,y,z
-x,y,-z
-x,-y,-z
x,-y,z
1/2+x,1/2+y,z
1/2-x,1/2+y,-z
1/2-x,1/2-y,-z
1/2+x,1/2-y,z
loop_
_atom_site_type_symbol
_atom_site_label
_atom_site_fract_x
_atom_site_fract_y
_atom_site_fract_z
Si Si1 0.473269 0.354318 0.838435
Si Si2 0.410471 0.857822 0.680661
Si Si3 0.000000 0.263096 0.500000
Si Si4 0.836661 0.145734 0.000444
Si Si5 0.206569 0.855382 0.563793
O O1 0.459197 0.500000 0.795733
O O2 0.461555 0.253378 0.751006
O O3 0.585504 0.338277 0.899797
O O4 0.390275 0.325928 0.907511
O O5 0.448094 0.848215 0.575613
O O6 0.285154 0.847890 0.666580
O O7 0.443766 0.000000 0.723970
O O8 0.912683 0.176260 0.432974
O O9 0.791333 0.000000 0.994098
O O10 0.750000 0.250000 0.000000
O O11 0.250000 0.750000 0.500000
O O12 0.212135 0.000000 0.520190
#
# Coordination Sequence:
#
# PCOD8100919 Si02
#       5
#     8   8   4   8   8
#     4   9  20  38  56  78 111 145 176 215 266 324
#     4  10  21  36  54  79 109 141 181 227 268 310
#     4  10  20  36  56  76 106 146 184 222 268 320
#     4   9  19  37  59  82 109 141 176 216 266 322
#     4   9  19  34  52  74 101 135 177 222 266 313
#
# _framework density 19.203968
#
# number of rings (size 3 to 8) (size 9 to 14) (size 15 to 20)
#    0.000    2.667    0.000    2.000    0.000    8.889 
#    0.000    8.889    0.000    0.000    0.000    0.000 
#    0.000    0.000    0.000    0.000    0.000    0.000 
#
# Total GULP energy -223011.734139 kJ/mol
# GULP energy per Si atom -12389.540785 kJ/mol
# Density = 1.916026 g / cm^3
# Si number density = 19.203968 Si / 1000 Ang^3
#
#
#
# Elastic Constant Matrix: (Units=GPa)
#
#
# Indices 1 2 3 4 5 6 
#
# 1 107.5216 56.2518 22.5242 0.0000 10.0127 0.0000
# 2 56.2518 150.6089 49.2140 0.0000 9.3162 0.0000
# 3 22.5242 49.2140 77.4875 0.0000 6.2456 0.0000
# 4 0.0000 0.0000 0.0000 33.4613 0.0000 3.6136
# 5 10.0127 9.3162 6.2456 0.0000 11.7278 0.0000
# 6 0.0000 0.0000 0.0000 3.6136 0.0000 31.6066
#
#
#
# Elastic Compliance Matrix: (Units=1/GPa)
#
#
# Indices 1 2 3 4 5 6 
#
# 1 0.012107 -0.003943 -0.000454 0.000000 -0.006962 0.000000
# 2 -0.003943 0.009846 -0.004961 0.000000 -0.001813 0.000000
# 3 -0.000454 -0.004961 0.016550 0.000000 -0.004485 0.000000
# 4 0.000000 0.000000 0.000000 0.030259 0.000000 -0.003460
# 5 -0.006962 -0.001813 -0.004485 0.000000 0.095041 0.000000
# 6 0.000000 0.000000 0.000000 -0.003460 0.000000 0.032034
#
#
# Mechanical properties :
#
#
# Convention : Reuss Voigt Hill
#
# Bulk Modulus (GPa) = 50.53919 65.73312 58.13615
# Shear Modulus (GPa) = 22.60947 29.20099 25.90523
#
# Velocity S-wave (km/s) = 3.43495 3.90368 3.67679
# Velocity P-wave (km/s) = 6.48892 7.39064 6.95441
#
# Compressibility (1/GPa) = 0.01978663
#
# Stress axis : x y z
#
# Youngs Moduli (GPa) = 82.59927 101.56899 60.42474
#
# Poissons Ratio (x) = 0.40047 0.02742
# Poissons Ratio (y) = 0.32567 0.29976
# Poissons Ratio (z) = 0.03749 0.50387
#
# Static dielectric constant tensor:
#      x y z
#    x 3.911190 0.000000 0.315280 
#    y 0.000000 3.612220 0.000000 
#    z 0.315280 0.000000 3.240360 
# 
# 
# High freq. dielectric constant tensor:
#      x y z
#    x 1.751760 0.000000 0.015020 
#    y 0.000000 1.761370 0.000000 
#    z 0.015020 0.000000 1.718880 
# 
# From -- ./inp_files/210887.got.cif
#   From: 2010.06.25/outbox.cif.g09.slc.cpg/sg12_106_cif.got.tgz:210887.got - 2010.06.28 00:19:55.
