data_PCOD8100893
_publ_section_title
;
Structure prediction by ZEFSAII (Michael W. Deem and Ramdas Pophale) SiO2 
 PCOD8100893
Probable space group: C 2/M
;
_chemical_formula_sum "Si O2"
_cell_formula_units_Z 56
_cell_length_a 11.207425
_cell_length_b 13.019441
_cell_length_c 19.700794
_cell_angle_alpha 90.000000
_cell_angle_beta 70.808157
_cell_angle_gamma 90.000000
_cell_volume 2714.866928
_symmetry_space_group_name_H-M "C 2/M"
_symmetry_group_IT_number 12
_symmetry_cell_setting 'monoclinic'
loop_
_space_group_symop_operation_xyz
x,y,z
-x,y,-z
-x,-y,-z
x,-y,z
1/2+x,1/2+y,z
1/2-x,1/2+y,-z
1/2-x,1/2-y,-z
1/2+x,1/2-y,z
loop_
_atom_site_type_symbol
_atom_site_label
_atom_site_fract_x
_atom_site_fract_y
_atom_site_fract_z
Si Si1 0.971808 0.800835 0.230711
Si Si2 0.147188 0.613988 0.665323
Si Si3 0.898037 0.719476 0.458525
Si Si4 0.097144 0.192703 0.336347
Si Si5 0.785580 0.384115 0.749683
Si Si6 0.352648 0.882850 0.020444
Si Si7 0.681170 0.779599 0.113240
O O1 0.923895 0.693210 0.272353
O O2 0.862804 0.881768 0.238192
O O3 0.068105 0.852857 0.266987
O O4 0.044277 0.775553 0.146914
O O5 0.108926 0.500000 0.695867
O O6 0.111705 0.625520 0.592591
O O7 0.297801 0.627402 0.645068
O O8 0.750000 0.750000 0.500000
O O9 0.000000 0.691881 0.500000
O O10 0.968607 0.812037 0.405161
O O11 0.141540 0.312103 0.317719
O O12 0.836171 0.500000 0.732016
O O13 0.798462 0.346591 0.823984
O O14 0.285225 0.810066 0.087810
O O15 0.312997 0.000000 0.042307
O O16 0.500000 0.866071 0.000000
O O17 0.310748 0.853920 0.952419
#
# Coordination Sequence:
#
# PCOD8100893 Si02
#       7
#     8   8   8   8   8   8   8
#     4   9  20  36  58  84 115 152 188 242 293 351
#     4  10  21  38  61  89 119 154 197 243 294 356
#     4  11  21  38  64  85 119 163 199 244 298 350
#     4   9  20  38  58  84 119 154 192 239 295 345
#     4  10  20  36  59  85 112 147 192 242 294 347
#     4  10  21  36  55  79 111 151 193 235 286 353
#     4  10  20  36  55  81 115 147 189 241 294 343
#
# _framework density 20.627161999999998
#
# number of rings (size 3 to 8) (size 9 to 14) (size 15 to 20)
#    0.000    2.143    1.429    1.286    0.000    7.143 
#    0.000   10.000    0.000    4.714    0.000    0.000 
#    0.000    0.000    0.000    0.000    0.000    0.000 
#
# Total GULP energy -346868.832508 kJ/mol
# GULP energy per Si atom -12388.172590 kJ/mol
# Density = 2.058021 g / cm^3
# Si number density = 20.627162 Si / 1000 Ang^3
#
#
#
# Elastic Constant Matrix: (Units=GPa)
#
#
# Indices 1 2 3 4 5 6 
#
# 1 126.0969 27.3934 22.3248 0.0000 -4.9327 0.0000
# 2 27.3934 88.8171 22.7091 0.0000 -3.2406 0.0000
# 3 22.3248 22.7091 62.1846 0.0000 -12.2210 0.0000
# 4 0.0000 0.0000 0.0000 16.4550 0.0000 12.4205
# 5 -4.9327 -3.2406 -12.2210 0.0000 36.4046 0.0000
# 6 0.0000 0.0000 0.0000 12.4205 0.0000 -13.0801
#
#
#
# Elastic Compliance Matrix: (Units=1/GPa)
#
#
# Indices 1 2 3 4 5 6 
#
# 1 0.008813 -0.002109 -0.002351 0.000000 0.000217 0.000000
# 2 -0.002109 0.012930 -0.004063 0.000000 -0.000499 0.000000
# 3 -0.002351 -0.004063 0.019566 0.000000 0.005888 0.000000
# 4 0.000000 0.000000 0.000000 0.035399 0.000000 0.033614
# 5 0.000217 -0.000499 0.005888 0.000000 0.029431 0.000000
# 6 0.000000 0.000000 0.000000 0.033614 0.000000 -0.044533
#
#
# Mechanical properties :
#
#
# Convention : Reuss Voigt Hill
#
# Bulk Modulus (GPa) = 41.21420 46.88369 44.04895
# Shear Modulus (GPa) = 57.64305 21.60064 39.62185
#
# Velocity S-wave (km/s) = 5.29206 3.23955 4.38751
# Velocity P-wave (km/s) = 7.57398 6.06394 6.86063
#
# Compressibility (1/GPa) = 0.02426348
#
# Stress axis : x y z
#
# Youngs Moduli (GPa) = 113.46405 77.33824 51.10886
#
# Poissons Ratio (x) = 0.16312 0.12016
# Poissons Ratio (y) = 0.23932 0.20764
# Poissons Ratio (z) = 0.26677 0.31421
#
# Static dielectric constant tensor:
#      x y z
#    x 4.287370 0.000000 -0.026320 
#    y 0.000000 3.375890 0.000000 
#    z -0.026320 0.000000 3.786920 
# 
# 
# High freq. dielectric constant tensor:
#      x y z
#    x 1.832700 0.000000 -0.004200 
#    y 0.000000 1.771850 0.000000 
#    z -0.004200 0.000000 1.806590 
# 
# From -- ./inp_files/304704.got.cif
#   From: 2010.06.25/outbox.cif.g09.slc.cpg/sg12_153_cif.got.tgz:304704.got - 2010.06.28 00:19:55.
