data_PCOD8100257
_publ_section_title
;
Structure prediction by ZEFSAII (Michael W. Deem and Ramdas Pophale) SiO2 
 PCOD8100257
Probable space group: C 2/M
;
_chemical_formula_sum "Si O2"
_cell_formula_units_Z 64
_cell_length_a 20.389143
_cell_length_b 9.297528
_cell_length_c 20.120018
_cell_angle_alpha 90.000000
_cell_angle_beta 119.970752
_cell_angle_gamma 90.000000
_cell_volume 3304.101531
_symmetry_space_group_name_H-M "C 2/M"
_symmetry_group_IT_number 12
_symmetry_cell_setting 'monoclinic'
loop_
_space_group_symop_operation_xyz
x,y,z
-x,y,-z
-x,-y,-z
x,-y,z
1/2+x,1/2+y,z
1/2-x,1/2+y,-z
1/2-x,1/2-y,-z
1/2+x,1/2-y,z
loop_
_atom_site_type_symbol
_atom_site_label
_atom_site_fract_x
_atom_site_fract_y
_atom_site_fract_z
Si Si1 0.582876 0.835838 0.414963
Si Si2 0.071916 0.334874 0.262355
Si Si3 0.665650 0.837100 0.586719
Si Si4 0.455905 0.340666 0.409167
Si Si5 0.303113 0.665378 0.741193
Si Si6 0.399467 0.167514 0.165064
Si Si7 0.236830 0.830052 0.831072
Si Si8 0.813579 0.662177 0.997966
O O1 0.612376 0.815954 0.354795
O O2 0.647422 0.788660 0.501248
O O3 0.507030 0.742020 0.382096
O O4 0.558758 0.000000 0.415399
O O5 0.076291 0.500000 0.240501
O O6 0.115755 0.237533 0.231247
O O7 0.984905 0.284146 0.223885
O O8 0.622713 0.740383 0.619220
O O9 0.754444 0.823801 0.648129
O O10 0.637323 0.000000 0.582637
O O11 0.500000 0.346413 0.500000
O O12 0.438453 0.500000 0.373074
O O13 0.315175 0.500000 0.768663
O O14 0.257403 0.749330 0.774300
O O15 0.340744 0.264013 0.177664
O O16 0.389943 0.190454 0.079437
O O17 0.386519 0.000000 0.177585
O O18 0.224313 0.000000 0.811600
O O19 0.309955 0.802678 0.917233
O O20 0.787582 0.500000 0.993836
O O21 0.750000 0.750000 0.000000
#
# Coordination Sequence:
#
# PCOD8100257 Si02
#       8
#     8   8   8   8   8   8   8   8
#     4   9  18  34  54  75 102 139 180 221 267 323
#     4  10  22  38  56  79 109 143 180 224 274 325
#     4   9  19  35  53  72 100 141 184 222 267 321
#     4   9  17  29  48  77 106 130 165 218 271 315
#     4  11  24  39  54  75 108 148 187 228 274 321
#     4   9  18  35  59  86 114 143 176 217 267 326
#     4  10  20  35  58  86 112 142 180 222 268 319
#     4   8  15  30  54  83 112 140 173 214 262 318
#
# _framework density 19.369865000000001
#
# number of rings (size 3 to 8) (size 9 to 14) (size 15 to 20)
#    0.000    2.625    0.000    1.125    1.750    4.500 
#    0.000    0.625    0.000    3.750    0.000    0.000 
#    0.000    0.000    0.000    0.000    0.000    0.000 
#
# Total GULP energy -396468.594545 kJ/mol
# GULP energy per Si atom -12389.643580 kJ/mol
# Density = 1.932578 g / cm^3
# Si number density = 19.369865 Si / 1000 Ang^3
#
#
#
# Elastic Constant Matrix: (Units=GPa)
#
#
# Indices 1 2 3 4 5 6 
#
# 1 91.9101 52.4665 40.8923 0.0000 1.2390 0.0000
# 2 52.4665 98.2546 36.2912 0.0000 0.0231 0.0000
# 3 40.8923 36.2912 96.8630 0.0000 0.5783 0.0000
# 4 0.0000 0.0000 0.0000 21.7210 0.0000 -1.6241
# 5 1.2390 0.0231 0.5783 0.0000 13.8263 0.0000
# 6 0.0000 0.0000 0.0000 -1.6241 0.0000 29.0341
#
#
#
# Elastic Compliance Matrix: (Units=1/GPa)
#
#
# Indices 1 2 3 4 5 6 
#
# 1 0.017163 -0.007534 -0.004415 0.000000 -0.001341 0.000000
# 2 -0.007534 0.015120 -0.002489 0.000000 0.000754 0.000000
# 3 -0.004415 -0.002489 0.013121 0.000000 -0.000149 0.000000
# 4 0.000000 0.000000 0.000000 0.046232 0.000000 0.002586
# 5 -0.001341 0.000754 -0.000149 0.000000 0.072451 0.000000
# 6 0.000000 0.000000 0.000000 0.002586 0.000000 0.034587
#
#
# Mechanical properties :
#
#
# Convention : Reuss Voigt Hill
#
# Bulk Modulus (GPa) = 60.50110 60.70308 60.60209
# Shear Modulus (GPa) = 21.45382 23.40814 22.43098
#
# Velocity S-wave (km/s) = 3.33165 3.48009 3.40668
# Velocity P-wave (km/s) = 6.78987 6.89602 6.84315
#
# Compressibility (1/GPa) = 0.01652863
#
# Stress axis : x y z
#
# Youngs Moduli (GPa) = 58.26384 66.13886 76.21311
#
# Poissons Ratio (x) = 0.49828 0.33649
# Poissons Ratio (y) = 0.43895 0.18968
# Poissons Ratio (z) = 0.25724 0.16460
#
# Static dielectric constant tensor:
#      x y z
#    x 3.110120 0.000000 0.174170 
#    y 0.000000 3.673440 0.000000 
#    z 0.174170 0.000000 4.697090 
# 
# 
# High freq. dielectric constant tensor:
#      x y z
#    x 1.713780 0.000000 0.001540 
#    y 0.000000 1.757820 0.000000 
#    z 0.001540 0.000000 1.764070 
# 
# From -- ./inp_files/320162.got.cif
#   From: 2010.06.25/outbox.cif.g09.slc.cpg/sg12_161_cif.got.tgz:320162.got - 2010.06.28 00:19:55.
