data_PCOD8100497
_publ_section_title
;
Structure prediction by ZEFSAII (Michael W. Deem and Ramdas Pophale) SiO2 
 PCOD8100497
Probable space group: C 2/M
;
_chemical_formula_sum "Si O2"
_cell_formula_units_Z 56
_cell_length_a 11.549627
_cell_length_b 17.026785
_cell_length_c 14.177387
_cell_angle_alpha 90.000000
_cell_angle_beta 72.079792
_cell_angle_gamma 90.000000
_cell_volume 2652.767456
_symmetry_space_group_name_H-M "C 2/M"
_symmetry_group_IT_number 12
_symmetry_cell_setting 'monoclinic'
loop_
_space_group_symop_operation_xyz
x,y,z
-x,y,-z
-x,-y,-z
x,-y,z
1/2+x,1/2+y,z
1/2-x,1/2+y,-z
1/2-x,1/2-y,-z
1/2+x,1/2-y,z
loop_
_atom_site_type_symbol
_atom_site_label
_atom_site_fract_x
_atom_site_fract_y
_atom_site_fract_z
Si Si1 0.325466 0.407186 0.316864
Si Si2 0.098937 0.909602 0.235261
Si Si3 0.627629 0.093759 0.510167
Si Si4 0.171156 0.590109 0.708602
Si Si5 0.864255 0.805323 0.950650
Si Si6 0.232152 0.908085 0.876891
Si Si7 0.982567 0.651145 0.899772
O O1 0.315094 0.500000 0.324328
O O2 0.464571 0.380368 0.298827
O O3 0.237454 0.371316 0.419162
O O4 0.278289 0.377479 0.227355
O O5 0.185415 0.901695 0.304852
O O6 0.154027 0.856674 0.138412
O O7 0.094241 0.000000 0.200966
O O8 0.500000 0.124046 0.500000
O O9 0.644373 0.126015 0.612221
O O10 0.631668 0.000000 0.510037
O O11 0.128362 0.500000 0.722975
O O12 0.098607 0.636374 0.806391
O O13 0.977299 0.746205 0.910264
O O14 0.750000 0.750000 0.000000
O O15 0.874237 0.865032 0.036536
O O16 0.365152 0.888000 0.882234
O O17 0.207043 0.000000 0.889677
O O18 0.000000 0.614356 0.000000
#
# Coordination Sequence:
#
# PCOD8100497 Si02
#       7
#     8   8   8   8   8   8   8
#     4   9  19  34  56  87 117 149 188 237 290 344
#     4  10  21  38  58  84 117 153 196 239 286 343
#     4   9  17  32  57  90 122 147 183 234 293 349
#     4  10  20  35  59  88 117 150 188 239 290 339
#     4  10  22  37  54  81 113 157 192 233 288 342
#     4  10  20  36  58  84 114 149 193 240 288 338
#     4  11  23  36  55  85 116 153 191 238 293 349
#
# _framework density 21.110029999999998
#
# number of rings (size 3 to 8) (size 9 to 14) (size 15 to 20)
#    0.000    2.143    0.000    3.429    2.000    5.143 
#    0.000    5.000    0.000    0.857    7.429    0.000 
#    0.000    0.000    0.000    0.000    0.000    0.000 
#
# Total GULP energy -347149.184248 kJ/mol
# GULP energy per Si atom -12398.185152 kJ/mol
# Density = 2.106198 g / cm^3
# Si number density = 21.110030 Si / 1000 Ang^3
#
#
#
# Elastic Constant Matrix: (Units=GPa)
#
#
# Indices 1 2 3 4 5 6 
#
# 1 150.2417 28.5500 92.5726 0.0000 5.2420 0.0000
# 2 28.5500 60.0702 43.1188 0.0000 -3.5957 0.0000
# 3 92.5726 43.1188 185.8469 0.0000 7.2287 0.0000
# 4 0.0000 0.0000 0.0000 9.6244 0.0000 -6.2019
# 5 5.2420 -3.5957 7.2287 0.0000 38.6868 0.0000
# 6 0.0000 0.0000 0.0000 -6.2019 0.0000 22.5374
#
#
#
# Elastic Compliance Matrix: (Units=1/GPa)
#
#
# Indices 1 2 3 4 5 6 
#
# 1 0.009711 -0.001436 -0.004480 0.000000 -0.000612 0.000000
# 2 -0.001436 0.020479 -0.004148 0.000000 0.002873 0.000000
# 3 -0.004480 -0.004148 0.008629 0.000000 -0.001391 0.000000
# 4 0.000000 0.000000 0.000000 0.126298 0.000000 0.034755
# 5 -0.000612 0.002873 -0.001391 0.000000 0.026458 0.000000
# 6 0.000000 0.000000 0.000000 0.034755 0.000000 0.053935
#
#
# Mechanical properties :
#
#
# Convention : Reuss Voigt Hill
#
# Bulk Modulus (GPa) = 53.50280 80.51573 67.00927
# Shear Modulus (GPa) = 18.39130 29.63089 24.01110
#
# Velocity S-wave (km/s) = 2.95483 3.75058 3.37623
# Velocity P-wave (km/s) = 6.08614 7.54848 6.85641
#
# Compressibility (1/GPa) = 0.01869061
#
# Stress axis : x y z
#
# Youngs Moduli (GPa) = 102.98082 48.83045 115.89208
#
# Poissons Ratio (x) = 0.07013 0.51919
# Poissons Ratio (y) = 0.14789 0.48070
# Poissons Ratio (z) = 0.46135 0.20254
#
# Static dielectric constant tensor:
#      x y z
#    x 3.928580 0.000000 -0.038140 
#    y 0.000000 3.794890 0.000000 
#    z -0.038140 0.000000 4.043260 
# 
# 
# High freq. dielectric constant tensor:
#      x y z
#    x 1.838930 0.000000 0.000810 
#    y 0.000000 1.796630 0.000000 
#    z 0.000810 0.000000 1.827080 
# 
# From -- ./inp_files/206550.got.cif
#   From: 2010.06.25/outbox.cif.g09.slc.cpg/sg12_104_cif.got.tgz:206550.got - 2010.06.28 00:19:55.
