data_PCOD8100434
_publ_section_title
;
Structure prediction by ZEFSAII (Michael W. Deem and Ramdas Pophale) SiO2 
 PCOD8100434
Probable space group: C 2/M
;
_chemical_formula_sum "Si O2"
_cell_formula_units_Z 64
_cell_length_a 19.837238
_cell_length_b 9.083153
_cell_length_c 23.207523
_cell_angle_alpha 90.000000
_cell_angle_beta 51.596583
_cell_angle_gamma 90.000000
_cell_volume 3276.968860
_symmetry_space_group_name_H-M "C 2/M"
_symmetry_group_IT_number 12
_symmetry_cell_setting 'monoclinic'
loop_
_space_group_symop_operation_xyz
x,y,z
-x,y,-z
-x,-y,-z
x,-y,z
1/2+x,1/2+y,z
1/2-x,1/2+y,-z
1/2-x,1/2-y,-z
1/2+x,1/2-y,z
loop_
_atom_site_type_symbol
_atom_site_label
_atom_site_fract_x
_atom_site_fract_y
_atom_site_fract_z
Si Si1 0.875358 0.173790 0.900700
Si Si2 0.423044 0.831657 0.082072
Si Si3 0.968828 0.827869 0.255899
Si Si4 0.190130 0.333139 0.961229
Si Si5 0.332961 0.326832 0.661435
Si Si6 0.091241 0.665228 0.481984
Si Si7 0.487852 0.673206 0.374484
Si Si8 0.659177 0.327766 0.772974
O O1 0.876077 0.240249 0.964497
O O2 0.953161 0.242111 0.822289
O O3 0.885042 0.000000 0.901194
O O4 0.787575 0.223442 0.915626
O O5 0.411934 0.727923 0.143407
O O6 0.440080 0.000000 0.092900
O O7 0.500000 0.776599 0.000000
O O8 0.335196 0.819447 0.091999
O O9 0.879074 0.796891 0.270652
O O10 0.969504 0.763487 0.320259
O O11 0.986803 0.000000 0.252003
O O12 0.183013 0.500000 0.986931
O O13 0.321205 0.500000 0.660079
O O14 0.343309 0.255368 0.592832
O O15 0.414079 0.289784 0.659308
O O16 0.247654 0.259662 0.735326
O O17 0.127179 0.500000 0.472045
O O18 0.000000 0.660999 0.500000
O O19 0.081285 0.745669 0.548382
O O20 0.470695 0.500000 0.389062
O O21 0.675512 0.500000 0.774043
#
# Coordination Sequence:
#
# PCOD8100434 Si02
#       8
#     8   8   8   8   8   8   8   8
#     4   9  17  31  52  73  99 133 174 220 269 316
#     4  10  21  36  54  76 105 143 185 225 271 326
#     4   9  19  35  54  76 104 142 180 221 270 321
#     4   9  18  31  50  74 100 131 173 222 269 317
#     4  10  20  35  59  85 110 143 183 224 266 319
#     4   9  17  32  55  84 118 145 172 219 274 320
#     4   9  18  34  59  84 107 141 187 224 261 321
#     4  11  23  37  54  79 112 145 180 224 278 328
#
# _framework density 19.530244
#
# number of rings (size 3 to 8) (size 9 to 14) (size 15 to 20)
#    0.000    2.500    0.000    1.875    1.750    2.750 
#    0.000    3.125    0.000    0.000    0.000    0.000 
#    0.000    0.000    0.000    0.000    0.000    0.000 
#
# Total GULP energy -396776.915026 kJ/mol
# GULP energy per Si atom -12399.278595 kJ/mol
# Density = 1.948579 g / cm^3
# Si number density = 19.530244 Si / 1000 Ang^3
#
#
#
# Elastic Constant Matrix: (Units=GPa)
#
#
# Indices 1 2 3 4 5 6 
#
# 1 64.7144 29.4914 32.1983 0.0000 13.5937 0.0000
# 2 29.4914 76.1453 44.0884 0.0002 4.8764 -0.0001
# 3 32.1983 44.0884 103.8981 0.0000 11.9664 0.0000
# 4 0.0000 0.0002 0.0000 32.4954 0.0000 -0.5438
# 5 13.5937 4.8764 11.9664 0.0000 30.3732 0.0001
# 6 0.0000 -0.0001 0.0000 -0.5438 0.0001 18.8510
#
#
#
# Elastic Compliance Matrix: (Units=1/GPa)
#
#
# Indices 1 2 3 4 5 6 
#
# 1 0.021292 -0.005893 -0.003257 0.000000 -0.007300 0.000000
# 2 -0.005893 0.019042 -0.006501 0.000000 0.002141 0.000000
# 3 -0.003257 -0.006501 0.013727 0.000000 -0.002907 0.000000
# 4 0.000000 0.000000 0.000000 0.030788 0.000000 0.000888
# 5 -0.007300 0.002141 -0.002907 0.000000 0.036992 0.000000
# 6 0.000000 0.000000 0.000000 0.000888 0.000000 0.053073
#
#
# Mechanical properties :
#
#
# Convention : Reuss Voigt Hill
#
# Bulk Modulus (GPa) = 43.93693 50.70157 47.31925
# Shear Modulus (GPa) = 23.38592 25.60924 24.49758
#
# Velocity S-wave (km/s) = 3.46413 3.62506 3.54551
# Velocity P-wave (km/s) = 6.20854 6.59836 6.40641
#
# Compressibility (1/GPa) = 0.02275990
#
# Stress axis : x y z
#
# Youngs Moduli (GPa) = 46.96585 52.51544 72.84666
#
# Poissons Ratio (x) = 0.30949 0.23726
# Poissons Ratio (y) = 0.27678 0.47355
# Poissons Ratio (z) = 0.15296 0.34139
#
# Static dielectric constant tensor:
#      x y z
#    x 3.510590 0.000000 0.067840 
#    y 0.000000 3.424160 0.000000 
#    z 0.067840 0.000000 3.635610 
# 
# 
# High freq. dielectric constant tensor:
#      x y z
#    x 1.751990 0.000000 0.002250 
#    y 0.000000 1.744450 0.000000 
#    z 0.002250 0.000000 1.760040 
# 
# From -- ./inp_files/346059.got.cif
#   From: 2010.06.25/outbox.cif.g09.slc.cpg/sg12_174_cif.got.tgz:346059.got - 2010.06.28 00:19:55.
