data_PCOD8100616
_publ_section_title
;
Structure prediction by ZEFSAII (Michael W. Deem and Ramdas Pophale) SiO2 
 PCOD8100616
Probable space group: C 2/M
;
_chemical_formula_sum "Si O2"
_cell_formula_units_Z 64
_cell_length_a 16.273726
_cell_length_b 15.038322
_cell_length_c 18.096329
_cell_angle_alpha 90.000000
_cell_angle_beta 132.030241
_cell_angle_gamma 90.000000
_cell_volume 3289.605492
_symmetry_space_group_name_H-M "C 2/M"
_symmetry_group_IT_number 12
_symmetry_cell_setting 'monoclinic'
loop_
_space_group_symop_operation_xyz
x,y,z
-x,y,-z
-x,-y,-z
x,-y,z
1/2+x,1/2+y,z
1/2-x,1/2+y,-z
1/2-x,1/2-y,-z
1/2+x,1/2-y,z
loop_
_atom_site_type_symbol
_atom_site_label
_atom_site_fract_x
_atom_site_fract_y
_atom_site_fract_z
Si Si1 0.016994 0.902508 0.097056
Si Si2 0.152213 0.755521 0.998335
Si Si3 0.760290 0.816337 0.792574
Si Si4 0.486079 0.899959 0.137692
Si Si5 0.909271 0.103189 0.507082
Si Si6 0.461331 0.899461 0.293690
Si Si7 0.795953 0.314842 0.695295
Si Si8 0.874862 0.246234 0.600384
O O1 0.142000 0.871872 0.187153
O O2 0.928317 0.834594 0.077861
O O3 0.998022 0.000000 0.121175
O O4 0.000000 0.907024 0.000000
O O5 0.082651 0.664277 0.957695
O O6 0.250000 0.750000 0.000000
O O7 0.200147 0.771376 0.108051
O O8 0.656012 0.879886 0.739531
O O9 0.727535 0.738822 0.715529
O O10 0.443429 0.887582 0.195627
O O11 0.616620 0.879046 0.211697
O O12 0.465941 0.000000 0.097686
O O13 0.788020 0.125099 0.402338
O O14 0.931366 0.160064 0.595767
O O15 0.000000 0.127446 0.500000
O O16 0.915525 0.000000 0.532948
O O17 0.555323 0.833587 0.382012
O O18 0.497774 0.000000 0.335041
O O19 0.866953 0.246824 0.685065
O O20 0.750000 0.250000 0.500000
#
# Coordination Sequence:
#
# PCOD8100616 Si02
#       8
#     8   8   8   8   8   8   8   8
#     4   9  19  34  54  77 105 148 195 235 286 345
#     4  11  21  36  55  82 118 155 199 244 290 335
#     4  11  20  34  59  83 122 153 192 241 296 340
#     4  10  20  36  56  81 113 155 203 241 283 337
#     4  10  20  37  61  87 114 150 190 225 280 355
#     4  10  20  35  60  89 113 147 197 245 289 346
#     4  10  20  36  59  84 115 153 190 237 290 343
#     4   9  20  37  59  83 113 147 188 235 288 345
#
# _framework density 19.455221000000002
#
# number of rings (size 3 to 8) (size 9 to 14) (size 15 to 20)
#    0.000    2.000    2.500    1.500    0.000    4.000 
#    0.000    3.125    0.000    8.625    0.000    0.000 
#    0.000    0.000    0.000    0.000    0.000    0.000 
#
# Total GULP energy -396677.707480 kJ/mol
# GULP energy per Si atom -12396.178359 kJ/mol
# Density = 1.941094 g / cm^3
# Si number density = 19.455221 Si / 1000 Ang^3
#
#
#
# Elastic Constant Matrix: (Units=GPa)
#
#
# Indices 1 2 3 4 5 6 
#
# 1 101.6458 53.7791 21.5517 0.0000 13.3794 0.0000
# 2 53.7791 154.8870 44.5383 0.0000 2.4244 0.0000
# 3 21.5517 44.5383 58.2434 0.0000 13.3994 0.0000
# 4 0.0000 0.0000 0.0000 29.3090 0.0000 1.4671
# 5 13.3794 2.4244 13.3994 0.0000 28.5980 0.0000
# 6 0.0000 0.0000 0.0000 1.4671 0.0000 30.4471
#
#
#
# Elastic Compliance Matrix: (Units=1/GPa)
#
#
# Indices 1 2 3 4 5 6 
#
# 1 0.012910 -0.004347 -0.000166 0.000000 -0.005593 0.000000
# 2 -0.004347 0.009908 -0.006997 0.000000 0.004472 0.000000
# 3 -0.000166 -0.006997 0.025136 0.000000 -0.011107 0.000000
# 4 0.000000 0.000000 0.000000 0.034202 0.000000 -0.001648
# 5 -0.005593 0.004472 -0.011107 0.000000 0.042409 0.000000
# 6 0.000000 0.000000 0.000000 -0.001648 0.000000 0.032923
#
#
# Mechanical properties :
#
#
# Convention : Reuss Voigt Hill
#
# Bulk Modulus (GPa) = 40.10567 61.61270 50.85918
# Shear Modulus (GPa) = 26.48058 30.66462 28.57260
#
# Velocity S-wave (km/s) = 3.69332 3.97440 3.83643
# Velocity P-wave (km/s) = 6.23270 7.26628 6.76925
#
# Compressibility (1/GPa) = 0.02493413
#
# Stress axis : x y z
#
# Youngs Moduli (GPa) = 77.46233 100.93280 39.78348
#
# Poissons Ratio (x) = 0.43877 0.00660
# Poissons Ratio (y) = 0.33674 0.27835
# Poissons Ratio (z) = 0.01285 0.70618
#
# Static dielectric constant tensor:
#      x y z
#    x 3.705900 0.000000 0.079730 
#    y 0.000000 3.800990 0.000000 
#    z 0.079730 0.000000 3.277040 
# 
# 
# High freq. dielectric constant tensor:
#      x y z
#    x 1.761810 0.000000 0.016120 
#    y 0.000000 1.757610 0.000000 
#    z 0.016120 0.000000 1.736600 
# 
# From -- ./inp_files/315740.got.cif
#   From: 2010.06.25/outbox.cif.g09.slc.cpg/sg12_158_cif.got.tgz:315740.got - 2010.06.28 00:19:55.
