data_PCOD8100553
_publ_section_title
;
Structure prediction by ZEFSAII (Michael W. Deem and Ramdas Pophale) SiO2 
 PCOD8100553
Probable space group: C 2/M
;
_chemical_formula_sum "Si O2"
_cell_formula_units_Z 64
_cell_length_a 15.375192
_cell_length_b 8.709784
_cell_length_c 33.107711
_cell_angle_alpha 90.000000
_cell_angle_beta 134.422707
_cell_angle_gamma 90.000000
_cell_volume 3166.460680
_symmetry_space_group_name_H-M "C 2/M"
_symmetry_group_IT_number 12
_symmetry_cell_setting 'monoclinic'
loop_
_space_group_symop_operation_xyz
x,y,z
-x,y,-z
-x,-y,-z
x,-y,z
1/2+x,1/2+y,z
1/2-x,1/2+y,-z
1/2-x,1/2-y,-z
1/2+x,1/2-y,z
loop_
_atom_site_type_symbol
_atom_site_label
_atom_site_fract_x
_atom_site_fract_y
_atom_site_fract_z
Si Si1 0.739769 0.677519 0.260590
Si Si2 0.350626 0.822622 0.127570
Si Si3 0.599217 0.823045 0.066217
Si Si4 0.552564 0.176529 0.256393
Si Si5 0.136303 0.177648 0.359364
Si Si6 0.956188 0.820531 0.867227
Si Si7 0.908599 0.680876 0.437058
Si Si8 0.460419 0.674639 0.370143
O O1 0.777295 0.500000 0.273299
O O2 0.653301 0.711492 0.270416
O O3 0.668890 0.722563 0.196579
O O4 0.859726 0.779672 0.304066
O O5 0.228619 0.724348 0.089938
O O6 0.422812 0.795885 0.192934
O O7 0.430761 0.770540 0.115306
O O8 0.316363 0.000000 0.110527
O O9 0.561414 0.721777 0.092134
O O10 0.603519 0.000000 0.080769
O O11 0.500000 0.792005 0.000000
O O12 0.546655 0.223242 0.301380
O O13 0.592469 0.000000 0.263881
O O14 0.272930 0.245464 0.400709
O O15 0.090451 0.196936 0.390490
O O16 0.130307 0.000000 0.344240
O O17 0.984285 0.000000 0.871904
O O18 0.905691 0.500000 0.441086
O O19 0.955700 0.720030 0.407868
O O20 0.000000 0.753139 0.500000
O O21 0.439478 0.500000 0.376869
#
# Coordination Sequence:
#
# PCOD8100553 Si02
#       8
#     8   8   8   8   8   8   8   8
#     4  10  20  36  59  87 122 158 195 242 301 360
#     4  10  22  40  62  91 124 160 203 252 305 366
#     4  11  25  43  63  89 122 163 210 255 304 364
#     4  10  20  35  59  90 122 155 197 244 296 358
#     4  10  22  38  57  86 122 159 196 242 301 357
#     4  10  22  40  63  91 122 161 204 252 308 364
#     4  10  22  42  64  84 115 162 208 251 300 356
#     4  11  23  37  57  89 121 156 200 246 298 355
#
# _framework density 20.211842000000001
#
# number of rings (size 3 to 8) (size 9 to 14) (size 15 to 20)
#    0.000    1.750    1.250    2.250    1.750    6.250 
#    0.000    0.000    0.000    0.000    0.000    0.000 
#    0.000    0.000    0.000    0.000    0.000    0.000 
#
# Total GULP energy -396901.751822 kJ/mol
# GULP energy per Si atom -12403.179744 kJ/mol
# Density = 2.016584 g / cm^3
# Si number density = 20.211842 Si / 1000 Ang^3
#
#
#
# Elastic Constant Matrix: (Units=GPa)
#
#
# Indices 1 2 3 4 5 6 
#
# 1 92.0609 15.5001 46.8029 0.0000 -6.0613 0.0000
# 2 15.5001 33.7434 29.8608 0.0000 3.6501 0.0000
# 3 46.8029 29.8608 103.4304 0.0000 -1.4813 0.0000
# 4 0.0000 0.0000 0.0000 25.5646 0.0000 -3.7500
# 5 -6.0613 3.6501 -1.4813 0.0000 22.7440 0.0000
# 6 0.0000 0.0000 0.0000 -3.7500 0.0000 31.3855
#
#
#
# Elastic Compliance Matrix: (Units=1/GPa)
#
#
# Indices 1 2 3 4 5 6 
#
# 1 0.014441 -0.001750 -0.005976 0.000000 0.003740 0.000000
# 2 -0.001750 0.041211 -0.011218 0.000000 -0.007811 0.000000
# 3 -0.005976 -0.011218 0.015629 0.000000 0.001226 0.000000
# 4 0.000000 0.000000 0.000000 0.039814 0.000000 0.004757
# 5 0.003740 -0.007811 0.001226 0.000000 0.046298 0.000000
# 6 0.000000 0.000000 0.000000 0.004757 0.000000 0.032430
#
#
# Mechanical properties :
#
#
# Convention : Reuss Voigt Hill
#
# Bulk Modulus (GPa) = 29.94564 45.95136 37.94850
# Shear Modulus (GPa) = 20.93424 25.07687 23.00556
#
# Velocity S-wave (km/s) = 3.22179 3.52618 3.37741
# Velocity P-wave (km/s) = 5.35611 6.27398 5.83313
#
# Compressibility (1/GPa) = 0.03339384
#
# Stress axis : x y z
#
# Youngs Moduli (GPa) = 69.24518 24.26515 63.98456
#
# Poissons Ratio (x) = 0.04246 0.38238
# Poissons Ratio (y) = 0.12117 0.71777
# Poissons Ratio (z) = 0.41382 0.27220
#
# Static dielectric constant tensor:
#      x y z
#    x 3.566580 0.000000 0.108960 
#    y 0.000000 3.615720 0.000000 
#    z 0.108960 0.000000 3.759180 
# 
# 
# High freq. dielectric constant tensor:
#      x y z
#    x 1.790310 0.000000 -0.000120 
#    y 0.000000 1.791120 0.000000 
#    z -0.000120 0.000000 1.785350 
# 
# From -- ./inp_files/375522.got.cif
#   From: 2010.06.25/outbox.cif.g09.slc.cpg/sg12_188_cif.got.tgz:375522.got - 2010.06.28 00:19:55.
