data_PCOD8100484
_publ_section_title
;
Structure prediction by ZEFSAII (Michael W. Deem and Ramdas Pophale) SiO2 
 PCOD8100484
Probable space group: C 2/M
;
_chemical_formula_sum "Si O2"
_cell_formula_units_Z 64
_cell_length_a 15.617818
_cell_length_b 18.132515
_cell_length_c 20.418767
_cell_angle_alpha 90.000000
_cell_angle_beta 35.347996
_cell_angle_gamma 90.000000
_cell_volume 3345.354349
_symmetry_space_group_name_H-M "C 2/M"
_symmetry_group_IT_number 12
_symmetry_cell_setting 'monoclinic'
loop_
_space_group_symop_operation_xyz
x,y,z
-x,y,-z
-x,-y,-z
x,-y,z
1/2+x,1/2+y,z
1/2-x,1/2+y,-z
1/2-x,1/2-y,-z
1/2+x,1/2-y,z
loop_
_atom_site_type_symbol
_atom_site_label
_atom_site_fract_x
_atom_site_fract_y
_atom_site_fract_z
Si Si1 0.861485 0.914884 0.884539
Si Si2 0.253105 0.290941 0.176341
Si Si3 0.740901 0.916005 0.709940
Si Si4 0.287603 0.585841 0.534416
Si Si5 0.436079 0.141314 0.888780
Si Si6 0.040982 0.795734 0.078534
Si Si7 0.063500 0.856587 0.301005
Si Si8 0.449706 0.915484 0.734568
O O1 0.940066 0.871730 0.894783
O O2 0.932740 0.895424 0.771081
O O3 0.885678 0.000000 0.885191
O O4 0.688462 0.894554 0.987601
O O5 0.371256 0.289270 0.161193
O O6 0.137675 0.223581 0.253214
O O7 0.154706 0.364792 0.245360
O O8 0.342045 0.290760 0.053148
O O9 0.798686 0.888085 0.603343
O O10 0.593280 0.873849 0.824601
O O11 0.860954 0.907289 0.691140
O O12 0.694287 0.000000 0.729553
O O13 0.336384 0.500000 0.496424
O O14 0.390654 0.642183 0.429170
O O15 0.121738 0.596489 0.610229
O O16 0.419213 0.229756 0.896196
O O17 0.421981 0.106304 0.826657
O O18 0.402275 0.000000 0.753226
#
# Coordination Sequence:
#
# PCOD8100484 Si02
#       8
#     8   8   8   8   8   8   8   8
#     4  12  24  36  59  89 119 156 199 242 291 355
#     4  11  23  39  61  86 116 159 199 239 295 349
#     4  10  20  35  59  87 121 156 193 239 289 351
#     4   9  20  38  61  88 119 156 193 242 296 340
#     4  11  19  37  57  85 116 153 191 239 299 349
#     4  11  23  41  57  83 126 162 188 237 303 355
#     4  12  22  37  58  88 124 155 193 236 294 361
#     4  10  21  39  64  87 111 151 204 251 287 337
#
# _framework density 19.131007
#
# number of rings (size 3 to 8) (size 9 to 14) (size 15 to 20)
#    0.000    1.250    3.750    4.500    0.000    2.500 
#    0.000    2.500    0.000    0.000    0.000    2.625 
#    0.000    0.000    0.000    0.000    0.000    0.000 
#
# Total GULP energy -396813.980982 kJ/mol
# GULP energy per Si atom -12400.436906 kJ/mol
# Density = 1.908746 g / cm^3
# Si number density = 19.131007 Si / 1000 Ang^3
#
#
#
# Elastic Constant Matrix: (Units=GPa)
#
#
# Indices 1 2 3 4 5 6 
#
# 1 51.7299 46.9080 56.0201 0.0022 -9.9703 -0.0002
# 2 46.9080 143.6864 50.9633 0.0008 -6.3013 -0.0004
# 3 56.0201 50.9633 97.4483 0.0039 -3.3487 -0.0020
# 4 0.0022 0.0008 0.0039 23.8122 -0.0025 -2.7429
# 5 -9.9703 -6.3013 -3.3487 -0.0025 23.7976 0.0009
# 6 -0.0002 -0.0004 -0.0020 -2.7429 0.0009 34.6949
#
#
#
# Elastic Compliance Matrix: (Units=1/GPa)
#
#
# Indices 1 2 3 4 5 6 
#
# 1 0.068630 -0.009492 -0.033751 0.000002 0.021491 -0.000002
# 2 -0.009492 0.009922 0.000222 0.000000 -0.001318 0.000000
# 3 -0.033751 0.000222 0.029205 -0.000003 -0.009972 0.000002
# 4 0.000002 0.000000 -0.000003 0.042381 0.000005 0.003351
# 5 0.021491 -0.001318 -0.009972 0.000005 0.049273 -0.000001
# 6 -0.000002 0.000000 0.000002 0.003351 -0.000001 0.029088
#
#
# Mechanical properties :
#
#
# Convention : Reuss Voigt Hill
#
# Bulk Modulus (GPa) = 46.04771 66.73860 56.39316
# Shear Modulus (GPa) = 15.53863 25.72581 20.63222
#
# Velocity S-wave (km/s) = 2.85304 3.67102 3.28757
# Velocity P-wave (km/s) = 5.91397 7.27525 6.62964
#
# Compressibility (1/GPa) = 0.02171661
#
# Stress axis : x y z
#
# Youngs Moduli (GPa) = 14.57079 100.79052 34.24034
#
# Poissons Ratio (x) = 0.95668 1.15565
# Poissons Ratio (y) = 0.13830 -0.00762
# Poissons Ratio (z) = 0.49178 -0.02242
#
# Static dielectric constant tensor:
#      x y z
#    x 3.459970 0.000000 -0.196820 
#    y 0.000000 3.555790 0.000000 
#    z -0.196820 0.000000 3.572700 
# 
# 
# High freq. dielectric constant tensor:
#      x y z
#    x 1.734190 0.000000 -0.014610 
#    y 0.000000 1.745450 0.000000 
#    z -0.014610 0.000000 1.742330 
# 
# From -- ./inp_files/271722.got.cif
#   From: 2010.06.25/outbox.cif.g09.slc.cpg/sg12_136_cif.got.tgz:271722.got - 2010.06.28 00:19:55.
