data_PCOD8100682
_publ_section_title
;
Structure prediction by ZEFSAII (Michael W. Deem and Ramdas Pophale) SiO2 
 PCOD8100682
Probable space group: C 2/M
;
_chemical_formula_sum "Si O2"
_cell_formula_units_Z 40
_cell_length_a 12.550030
_cell_length_b 27.346842
_cell_length_c 8.052004
_cell_angle_alpha 90.000000
_cell_angle_beta 42.310267
_cell_angle_gamma 90.000000
_cell_volume 1860.221147
_symmetry_space_group_name_H-M "C 2/M"
_symmetry_group_IT_number 12
_symmetry_cell_setting 'monoclinic'
loop_
_space_group_symop_operation_xyz
x,y,z
-x,y,-z
-x,-y,-z
x,-y,z
1/2+x,1/2+y,z
1/2-x,1/2+y,-z
1/2-x,1/2-y,-z
1/2+x,1/2-y,z
loop_
_atom_site_type_symbol
_atom_site_label
_atom_site_fract_x
_atom_site_fract_y
_atom_site_fract_z
Si Si1 0.811056 0.105298 0.221475
Si Si2 0.676795 0.202678 0.256973
Si Si3 0.343296 0.443575 0.860757
Si Si4 0.173247 0.695919 0.874683
Si Si5 0.680136 0.398336 0.429325
O O1 0.731493 0.157731 0.303662
O O2 0.749943 0.085369 0.471072
O O3 0.754274 0.070034 0.135598
O O4 0.000000 0.109662 0.000000
O O5 0.500000 0.218447 0.500000
O O6 0.782918 0.247545 0.198192
O O7 0.690693 0.185900 0.050450
O O8 0.393629 0.500000 0.807350
O O9 0.492879 0.408062 0.663775
O O10 0.241837 0.431223 0.810035
O O11 0.290979 0.659106 0.641894
O O12 0.000000 0.686478 0.000000
#
# Coordination Sequence:
#
# PCOD8100682 Si02
#       5
#     8   8   8   8   8
#     4  10  21  37  61  92 126 164 204 253 310 368
#     4  11  24  39  61  90 128 167 208 254 305 369
#     4  10  21  38  63  95 125 159 212 263 310 365
#     4  11  24  40  61  91 128 167 207 252 308 375
#     4  10  20  35  61  88 125 159 201 252 307 360
#
# _framework density 21.502818999999999
#
# number of rings (size 3 to 8) (size 9 to 14) (size 15 to 20)
#    0.000    1.600    2.000    3.000    2.800    9.200 
#    0.000    0.000    0.000    3.000    0.000    0.000 
#    0.000    0.000    0.000    0.000    0.000    0.000 
#
# Total GULP energy -247777.828107 kJ/mol
# GULP energy per Si atom -12388.891405 kJ/mol
# Density = 2.145388 g / cm^3
# Si number density = 21.502819 Si / 1000 Ang^3
#
#
#
# Elastic Constant Matrix: (Units=GPa)
#
#
# Indices 1 2 3 4 5 6 
#
# 1 96.4707 58.3498 53.6647 0.0000 45.1301 0.0000
# 2 58.3498 116.7600 49.4304 0.0000 21.2601 0.0000
# 3 53.6647 49.4304 87.4349 0.0000 42.3566 0.0000
# 4 0.0000 0.0000 0.0000 67.3035 0.0000 24.3292
# 5 45.1301 21.2601 42.3566 0.0000 55.5211 0.0000
# 6 0.0000 0.0000 0.0000 24.3292 0.0000 26.2686
#
#
#
# Elastic Compliance Matrix: (Units=1/GPa)
#
#
# Indices 1 2 3 4 5 6 
#
# 1 0.023112 -0.007689 -0.003433 0.000000 -0.013224 0.000000
# 2 -0.007689 0.013844 -0.005658 0.000000 0.005265 0.000000
# 3 -0.003433 -0.005658 0.022748 0.000000 -0.012398 0.000000
# 4 0.000000 0.000000 0.000000 0.022336 0.000000 -0.020687
# 5 -0.013224 0.005265 -0.012398 0.000000 0.036202 0.000000
# 6 0.000000 0.000000 0.000000 -0.020687 0.000000 0.057228
#
#
# Mechanical properties :
#
#
# Convention : Reuss Voigt Hill
#
# Bulk Modulus (GPa) = 38.24742 69.28391 53.76566
# Shear Modulus (GPa) = 22.96268 39.10001 31.03135
#
# Velocity S-wave (km/s) = 3.27141 4.26886 3.80298
# Velocity P-wave (km/s) = 5.66527 7.52252 6.65896
#
# Compressibility (1/GPa) = 0.02614555
#
# Stress axis : x y z
#
# Youngs Moduli (GPa) = 43.26712 72.23547 43.95913
#
# Poissons Ratio (x) = 0.55543 0.15089
# Poissons Ratio (y) = 0.33269 0.24871
# Poissons Ratio (z) = 0.14851 0.40869
#
# Static dielectric constant tensor:
#      x y z
#    x 4.573510 0.000000 0.909710 
#    y 0.000000 3.660080 0.000000 
#    z 0.909710 0.000000 4.116650 
# 
# 
# High freq. dielectric constant tensor:
#      x y z
#    x 1.846850 0.000000 0.046770 
#    y 0.000000 1.833400 0.000000 
#    z 0.046770 0.000000 1.831060 
# 
# From -- ./inp_files/66195.got.cif
#   From: 2010.06.25/outbox.cif.g09.slc.cpg/sg12_34_cif.got.tgz:66195.got - 2010.06.28 00:19:55.
