data_PCOD8100091
_publ_section_title
;
Structure prediction by ZEFSAII (Michael W. Deem and Ramdas Pophale) SiO2 
 PCOD8100091
Probable space group: C 2/M
;
_chemical_formula_sum "Si O2"
_cell_formula_units_Z 56
_cell_length_a 29.378077
_cell_length_b 7.579905
_cell_length_c 18.281175
_cell_angle_alpha 90.000000
_cell_angle_beta 140.753066
_cell_angle_gamma 90.000000
_cell_volume 2575.516163
_symmetry_space_group_name_H-M "C 2/M"
_symmetry_group_IT_number 12
_symmetry_cell_setting 'monoclinic'
loop_
_space_group_symop_operation_xyz
x,y,z
-x,y,-z
-x,-y,-z
x,-y,z
1/2+x,1/2+y,z
1/2-x,1/2+y,-z
1/2-x,1/2-y,-z
1/2+x,1/2-y,z
loop_
_atom_site_type_symbol
_atom_site_label
_atom_site_fract_x
_atom_site_fract_y
_atom_site_fract_z
Si Si1 0.112830 0.209561 0.167573
Si Si2 0.093245 0.706993 0.414962
Si Si3 0.136469 0.196682 0.037718
Si Si4 0.250291 0.205300 0.416859
Si Si5 0.042953 0.000000 0.454651
Si Si6 0.379325 0.500000 0.301439
Si Si7 0.486709 0.200768 0.828601
Si Si8 0.269409 0.210393 0.108049
O O1 0.118405 0.292027 0.092890
O O2 0.181843 0.294900 0.293808
O O3 0.041872 0.262540 0.124756
O O4 0.112971 0.000000 0.163400
O O5 0.081465 0.500000 0.416947
O O6 0.175625 0.768971 0.527444
O O7 0.072189 0.754298 0.305059
O O8 0.047451 0.821021 0.413722
O O9 0.201102 0.280802 0.070887
O O10 0.162891 0.000000 0.086205
O O11 0.060190 0.195380 0.900575
O O12 0.250000 0.250000 0.500000
O O13 0.243593 0.000000 0.396494
O O14 0.108279 0.000000 0.595418
O O15 0.961446 0.000000 0.378808
O O16 0.338046 0.324140 0.221102
O O17 0.508459 0.000000 0.847720
O O18 0.284688 0.000000 0.136630
O O19 0.250000 0.250000 0.000000
#
# Coordination Sequence:
#
# PCOD8100091 Si02
#       8
#     8   8   8   8   4   4   8   8
#     4  10  21  38  59  86 127 177 226 274 330 403
#     4  10  24  42  65 100 135 179 234 281 336 409
#     4  10  24  41  63  92 127 178 222 275 347 408
#     4  10  20  35  57  86 125 169 225 274 323 387
#     4  11  28  48  76 102 141 189 225 287 358 426
#     4  11  28  52  72 112 141 172 239 285 358 430
#     4  11  23  37  57  93 135 176 228 279 332 398
#     4  11  25  47  77 108 142 178 229 294 356 420
#
# _framework density 21.743213999999998
#
# number of rings (size 3 to 8) (size 9 to 14) (size 15 to 20)
#    0.000    1.571    2.143    0.857    8.000    3.429 
#    0.000    1.429    0.000    0.000    0.000    0.000 
#    0.000    0.000    0.000    0.000    0.000    0.000 
#
# Total GULP energy -346976.094706 kJ/mol
# GULP energy per Si atom -12392.003382 kJ/mol
# Density = 2.169373 g / cm^3
# Si number density = 21.743214 Si / 1000 Ang^3
#
#
#
# Elastic Constant Matrix: (Units=GPa)
#
#
# Indices 1 2 3 4 5 6 
#
# 1 124.7382 32.1180 51.9609 0.0000 -0.6787 0.0000
# 2 32.1180 76.5460 33.8274 0.0000 -1.6992 0.0000
# 3 51.9609 33.8274 109.0782 0.0000 8.3591 0.0000
# 4 0.0000 0.0000 0.0000 28.3940 0.0000 3.7607
# 5 -0.6787 -1.6992 8.3591 0.0000 40.1885 0.0000
# 6 0.0000 0.0000 0.0000 3.7607 0.0000 29.1133
#
#
#
# Elastic Compliance Matrix: (Units=1/GPa)
#
#
# Indices 1 2 3 4 5 6 
#
# 1 0.010441 -0.002467 -0.004282 0.000000 0.000963 0.000000
# 2 -0.002467 0.015829 -0.003843 0.000000 0.001427 0.000000
# 3 -0.004282 -0.003843 0.012619 0.000000 -0.002859 0.000000
# 4 0.000000 0.000000 0.000000 0.035832 0.000000 -0.004629
# 5 0.000963 0.001427 -0.002859 0.000000 0.025554 0.000000
# 6 0.000000 0.000000 0.000000 -0.004629 0.000000 0.034946
#
#
# Mechanical properties :
#
#
# Convention : Reuss Voigt Hill
#
# Bulk Modulus (GPa) = 56.48518 60.68612 58.58565
# Shear Modulus (GPa) = 30.80562 32.36956 31.58759
#
# Velocity S-wave (km/s) = 3.76811 3.86258 3.81564
# Velocity P-wave (km/s) = 6.70569 6.91836 6.81285
#
# Compressibility (1/GPa) = 0.01770376
#
# Stress axis : x y z
#
# Youngs Moduli (GPa) = 95.77464 63.17422 79.24743
#
# Poissons Ratio (x) = 0.15586 0.33937
# Poissons Ratio (y) = 0.23629 0.30455
# Poissons Ratio (z) = 0.41015 0.24278
#
# Static dielectric constant tensor:
#      x y z
#    x 4.089740 0.000000 -0.054350 
#    y 0.000000 1.124080 0.000000 
#    z -0.054350 0.000000 4.292510 
# 
# 
# High freq. dielectric constant tensor:
#      x y z
#    x 1.854480 0.000000 0.005390 
#    y 0.000000 1.846670 0.000000 
#    z 0.005390 0.000000 1.865890 
# 
# From -- ./inp_files/292602.got.cif
#   From: 2010.06.25/outbox.cif.g09.slc.cpg/sg12_147_cif.got.tgz:292602.got - 2010.06.28 00:19:55.
