data_PCOD8100987
_publ_section_title
;
Structure prediction by ZEFSAII (Michael W. Deem and Ramdas Pophale) SiO2 
 PCOD8100987
Probable space group: C 2/M
;
_chemical_formula_sum "Si O2"
_cell_formula_units_Z 64
_cell_length_a 14.493268
_cell_length_b 8.922906
_cell_length_c 26.066797
_cell_angle_alpha 90.000000
_cell_angle_beta 89.781285
_cell_angle_gamma 90.000000
_cell_volume 3370.987533
_symmetry_space_group_name_H-M "C 2/M"
_symmetry_group_IT_number 12
_symmetry_cell_setting 'monoclinic'
loop_
_space_group_symop_operation_xyz
x,y,z
-x,y,-z
-x,-y,-z
x,-y,z
1/2+x,1/2+y,z
1/2-x,1/2+y,-z
1/2-x,1/2-y,-z
1/2+x,1/2-y,z
loop_
_atom_site_type_symbol
_atom_site_label
_atom_site_fract_x
_atom_site_fract_y
_atom_site_fract_z
Si Si1 0.897582 0.672407 0.237113
Si Si2 0.260451 0.325346 0.687098
Si Si3 0.754455 0.172858 0.420642
Si Si4 0.893220 0.676751 0.765494
Si Si5 0.239057 0.677969 0.055061
Si Si6 0.611136 0.674553 0.864555
Si Si7 0.606002 0.172966 0.506935
Si Si8 0.600406 0.322948 0.129388
O O1 0.894765 0.500000 0.222474
O O2 0.839448 0.707898 0.288099
O O3 0.852786 0.755241 0.188547
O O4 0.001894 0.725018 0.246855
O O5 0.285835 0.500000 0.689848
O O6 0.258868 0.273467 0.628939
O O7 0.336378 0.231335 0.717058
O O8 0.662146 0.195816 0.454245
O O9 0.846458 0.226350 0.449697
O O10 0.767767 0.000000 0.405407
O O11 0.881287 0.500000 0.772934
O O12 0.859110 0.758632 0.817374
O O13 0.231450 0.500000 0.050232
O O14 0.326826 0.729894 0.088425
O O15 0.147730 0.743322 0.081293
O O16 0.250000 0.750000 0.000000
O O17 0.621377 0.500000 0.857057
O O18 0.506399 0.721942 0.875802
O O19 0.500000 0.225341 0.500000
O O20 0.609575 0.000000 0.524617
O O21 0.617114 0.500000 0.127464
#
# Coordination Sequence:
#
# PCOD8100987 Si02
#       8
#     8   8   8   8   8   8   8   8
#     4   9  20  36  55  78 106 141 179 215 258 314
#     4  11  22  36  54  79 113 149 180 218 267 317
#     4  10  21  36  55  82 111 140 179 225 270 317
#     4  10  20  36  56  80 108 140 179 220 261 312
#     4  11  23  38  55  79 107 139 177 221 270 320
#     4   9  20  37  57  78 105 139 175 216 265 317
#     4   9  19  38  61  80 104 142 183 223 270 323
#     4  10  20  37  58  80 106 139 176 217 265 320
#
# _framework density 18.985534999999999
#
# number of rings (size 3 to 8) (size 9 to 14) (size 15 to 20)
#    0.000    2.125    0.000    2.625    0.000    7.250 
#    0.000    7.500    0.000    0.000    0.000    0.000 
#    0.000    0.000    0.000    0.000    0.000    0.000 
#
# Total GULP energy -396909.063315 kJ/mol
# GULP energy per Si atom -12403.408229 kJ/mol
# Density = 1.894232 g / cm^3
# Si number density = 18.985535 Si / 1000 Ang^3
#
#
#
# Elastic Constant Matrix: (Units=GPa)
#
#
# Indices 1 2 3 4 5 6 
#
# 1 77.0848 23.8477 24.5536 0.0000 -5.8985 0.0000
# 2 23.8477 56.8541 24.6598 0.0000 -6.3181 0.0000
# 3 24.5536 24.6598 93.9854 0.0000 -8.6503 0.0000
# 4 0.0000 0.0000 0.0000 40.1435 0.0000 1.0315
# 5 -5.8985 -6.3181 -8.6503 0.0000 19.0823 0.0000
# 6 0.0000 0.0000 0.0000 1.0315 0.0000 29.6054
#
#
#
# Elastic Compliance Matrix: (Units=1/GPa)
#
#
# Indices 1 2 3 4 5 6 
#
# 1 0.015533 -0.005210 -0.002513 0.000000 0.001937 0.000000
# 2 -0.005210 0.021955 -0.004047 0.000000 0.003824 0.000000
# 3 -0.002513 -0.004047 0.012693 0.000000 0.003637 0.000000
# 4 0.000000 0.000000 0.000000 0.024933 0.000000 -0.000869
# 5 0.001937 0.003824 0.003637 0.000000 0.055918 0.000000
# 6 0.000000 0.000000 0.000000 -0.000869 0.000000 0.033808
#
#
# Mechanical properties :
#
#
# Convention : Reuss Voigt Hill
#
# Bulk Modulus (GPa) = 37.53689 41.56069 39.54879
# Shear Modulus (GPa) = 25.34710 28.09045 26.71878
#
# Velocity S-wave (km/s) = 3.65783 3.85069 3.75550
# Velocity P-wave (km/s) = 6.13628 6.45823 6.29931
#
# Compressibility (1/GPa) = 0.02664046
#
# Stress axis : x y z
#
# Youngs Moduli (GPa) = 64.37806 45.54808 78.78313
#
# Poissons Ratio (x) = 0.23732 0.19795
# Poissons Ratio (y) = 0.33543 0.31886
# Poissons Ratio (z) = 0.16176 0.18435
#
# Static dielectric constant tensor:
#      x y z
#    x 3.413250 0.000000 0.094170 
#    y 0.000000 3.531520 0.000000 
#    z 0.094170 0.000000 3.411350 
# 
# 
# High freq. dielectric constant tensor:
#      x y z
#    x 1.745820 0.000000 -0.001290 
#    y 0.000000 1.745260 0.000000 
#    z -0.001290 0.000000 1.735430 
# 
# From -- ./inp_files/338724.got.cif
#   From: 2010.06.25/outbox.cif.g09.slc.cpg/sg12_170_cif.got.tgz:338724.got - 2010.06.28 00:19:55.
