data_PCOD8100858
_publ_section_title
;
Structure prediction by ZEFSAII (Michael W. Deem and Ramdas Pophale) SiO2 
 PCOD8100858
Probable space group: C 2/M
;
_chemical_formula_sum "Si O2"
_cell_formula_units_Z 64
_cell_length_a 25.813743
_cell_length_b 9.207870
_cell_length_c 14.470815
_cell_angle_alpha 90.000000
_cell_angle_beta 87.718523
_cell_angle_gamma 90.000000
_cell_volume 3436.835598
_symmetry_space_group_name_H-M "C 2/M"
_symmetry_group_IT_number 12
_symmetry_cell_setting 'monoclinic'
loop_
_space_group_symop_operation_xyz
x,y,z
-x,y,-z
-x,-y,-z
x,-y,z
1/2+x,1/2+y,z
1/2-x,1/2+y,-z
1/2-x,1/2-y,-z
1/2+x,1/2-y,z
loop_
_atom_site_type_symbol
_atom_site_label
_atom_site_fract_x
_atom_site_fract_y
_atom_site_fract_z
Si Si1 0.700011 0.162001 0.977125
Si Si2 0.813251 0.828998 0.408434
Si Si3 0.399204 0.829039 0.708976
Si Si4 0.588892 0.671119 0.710674
Si Si5 0.100765 0.338579 0.085224
Si Si6 0.196783 0.668801 0.403215
Si Si7 0.009416 0.169181 0.392616
Si Si8 0.111025 0.171171 0.912409
O O1 0.667848 0.253095 0.902386
O O2 0.714177 0.000000 0.939759
O O3 0.750000 0.250000 0.000000
O O4 0.663262 0.149902 0.070096
O O5 0.857158 0.767837 0.335350
O O6 0.822374 0.757078 0.506827
O O7 0.756098 0.789492 0.372663
O O8 0.819195 0.000000 0.422050
O O9 0.409123 0.771365 0.812770
O O10 0.340755 0.792085 0.679874
O O11 0.438784 0.751667 0.638348
O O12 0.408961 0.000000 0.705237
O O13 0.589837 0.500000 0.697489
O O14 0.539296 0.735008 0.660582
O O15 0.582440 0.711810 0.819111
O O16 0.076120 0.500000 0.077205
O O17 0.078969 0.235806 0.003291
O O18 0.192911 0.500000 0.429309
O O19 0.000000 0.198884 0.500000
O O20 0.017154 0.000000 0.370541
O O21 0.117873 0.000000 0.924624
#
# Coordination Sequence:
#
# PCOD8100858 Si02
#       8
#     8   8   8   8   8   8   8   8
#     4   9  17  30  49  73 104 140 178 220 265 312
#     4   9  17  32  53  74 101 137 173 210 261 322
#     4  10  20  36  55  77 106 141 179 218 266 325
#     4   9  18  33  54  79 105 137 178 217 265 325
#     4   8  18  34  50  70 102 136 172 217 263 313
#     4   9  18  31  50  76 104 132 169 215 263 316
#     4  10  21  37  57  82 109 138 177 227 272 316
#     4   9  17  31  51  73 101 135 174 217 262 316
#
# _framework density 18.621782
#
# number of rings (size 3 to 8) (size 9 to 14) (size 15 to 20)
#    0.750    2.125    0.000    1.125    0.000    3.250 
#    0.000    7.500    0.000    5.250    0.000    0.000 
#    0.000    0.000    0.000    0.000    0.000    0.000 
#
# Total GULP energy -396511.109171 kJ/mol
# GULP energy per Si atom -12390.972162 kJ/mol
# Density = 1.857940 g / cm^3
# Si number density = 18.621782 Si / 1000 Ang^3
#
#
#
# Elastic Constant Matrix: (Units=GPa)
#
#
# Indices 1 2 3 4 5 6 
#
# 1 85.9537 26.0631 44.9271 0.0000 15.0429 0.0000
# 2 26.0631 60.4535 38.4311 0.0000 9.9441 0.0000
# 3 44.9271 38.4311 112.4668 0.0000 17.7834 0.0000
# 4 0.0000 0.0000 0.0000 27.0697 0.0000 -0.9548
# 5 15.0429 9.9441 17.7834 0.0000 28.5533 0.0000
# 6 0.0000 0.0000 0.0000 -0.9548 0.0000 21.1458
#
#
#
# Elastic Compliance Matrix: (Units=1/GPa)
#
#
# Indices 1 2 3 4 5 6 
#
# 1 0.015718 -0.003201 -0.004495 0.000000 -0.004367 0.000000
# 2 -0.003201 0.022047 -0.005887 0.000000 -0.002325 0.000000
# 3 -0.004495 -0.005887 0.013311 0.000000 -0.003872 0.000000
# 4 0.000000 0.000000 0.000000 0.037001 0.000000 0.001671
# 5 -0.004367 -0.002325 -0.003872 0.000000 0.040544 0.000000
# 6 0.000000 0.000000 0.000000 0.001671 0.000000 0.047366
#
#
# Mechanical properties :
#
#
# Convention : Reuss Voigt Hill
#
# Bulk Modulus (GPa) = 41.82314 53.07962 47.45138
# Shear Modulus (GPa) = 23.68289 25.31727 24.50008
#
# Velocity S-wave (km/s) = 3.57008 3.69121 3.63115
# Velocity P-wave (km/s) = 6.28506 6.83613 6.56638
#
# Compressibility (1/GPa) = 0.02391021
#
# Stress axis : x y z
#
# Youngs Moduli (GPa) = 63.61984 45.35824 75.12586
#
# Poissons Ratio (x) = 0.14519 0.33767
# Poissons Ratio (y) = 0.20364 0.44229
# Poissons Ratio (z) = 0.28595 0.26704
#
# Static dielectric constant tensor:
#      x y z
#    x 3.392580 0.000000 0.087520 
#    y 0.000000 3.304020 0.000000 
#    z 0.087520 0.000000 3.499030 
# 
# 
# High freq. dielectric constant tensor:
#      x y z
#    x 1.713050 0.000000 0.006470 
#    y 0.000000 1.708380 0.000000 
#    z 0.006470 0.000000 1.715990 
# 
# From -- ./inp_files/243942.got.cif
#   From: 2010.06.25/outbox.cif.g09.slc.cpg/sg12_122_cif.got.tgz:243942.got - 2010.06.28 00:19:55.
