data_PCOD8100972
_publ_section_title
;
Structure prediction by ZEFSAII (Michael W. Deem and Ramdas Pophale) SiO2 
 PCOD8100972
Probable space group: C 2/M
;
_chemical_formula_sum "Si O2"
_cell_formula_units_Z 56
_cell_length_a 18.960491
_cell_length_b 8.604566
_cell_length_c 18.718615
_cell_angle_alpha 90.000000
_cell_angle_beta 117.046610
_cell_angle_gamma 90.000000
_cell_volume 2719.900084
_symmetry_space_group_name_H-M "C 2/M"
_symmetry_group_IT_number 12
_symmetry_cell_setting 'monoclinic'
loop_
_space_group_symop_operation_xyz
x,y,z
-x,y,-z
-x,-y,-z
x,-y,z
1/2+x,1/2+y,z
1/2-x,1/2+y,-z
1/2-x,1/2-y,-z
1/2+x,1/2-y,z
loop_
_atom_site_type_symbol
_atom_site_label
_atom_site_fract_x
_atom_site_fract_y
_atom_site_fract_z
Si Si1 0.175781 0.682292 0.734448
Si Si2 0.161983 0.681888 0.244268
Si Si3 0.599105 0.679238 0.830044
Si Si4 0.079554 0.816912 0.075306
Si Si5 0.987266 0.682498 0.413964
Si Si6 0.169868 0.317995 0.993136
Si Si7 0.066368 0.179663 0.320433
O O1 0.177671 0.500000 0.750952
O O2 0.255848 0.731864 0.732683
O O3 0.167790 0.769876 0.806528
O O4 0.101573 0.728514 0.650262
O O5 0.175507 0.500000 0.243245
O O6 0.093086 0.737955 0.158290
O O7 0.135274 0.724694 0.312390
O O8 0.611673 0.500000 0.855970
O O9 0.602198 0.779522 0.903892
O O10 0.514818 0.713640 0.757660
O O11 0.075320 0.000000 0.085907
O O12 0.152973 0.770031 0.059306
O O13 0.000000 0.754663 0.000000
O O14 0.001280 0.500000 0.414534
O O15 0.054284 0.763446 0.395945
O O16 0.000000 0.743438 0.500000
O O17 0.175678 0.500000 0.010689
O O18 0.250000 0.250000 0.000000
O O19 0.089968 0.000000 0.330818
#
# Coordination Sequence:
#
# PCOD8100972 Si02
#       7
#     8   8   8   8   8   8   8
#     4  10  20  36  59  85 115 150 187 229 280 336
#     4  12  24  38  57  82 115 151 191 236 280 332
#     4  10  20  36  56  79 108 142 185 233 280 333
#     4  11  24  41  59  80 110 148 190 238 291 341
#     4   9  19  38  64  92 119 147 182 226 276 332
#     4  12  24  37  54  77 107 143 187 236 285 334
#     4  10  21  37  59  85 113 147 185 225 273 331
#
# _framework density 20.588991
#
# number of rings (size 3 to 8) (size 9 to 14) (size 15 to 20)
#    0.000    1.429    0.000    6.000    0.000    7.143 
#    0.000    0.714    0.000    0.000    0.000    0.000 
#    0.000    0.000    0.000    0.000    0.000    0.000 
#
# Total GULP energy -347339.340681 kJ/mol
# GULP energy per Si atom -12404.976453 kJ/mol
# Density = 2.054213 g / cm^3
# Si number density = 20.588991 Si / 1000 Ang^3
#
#
#
# Elastic Constant Matrix: (Units=GPa)
#
#
# Indices 1 2 3 4 5 6 
#
# 1 90.2019 6.6673 10.9653 0.0000 -18.7978 0.0000
# 2 6.6673 47.8707 8.2072 0.0000 -1.3980 0.0000
# 3 10.9653 8.2072 75.5567 0.0000 -20.3604 0.0000
# 4 0.0000 0.0000 0.0000 27.8777 0.0000 -6.1496
# 5 -18.7978 -1.3980 -20.3604 0.0000 31.4863 0.0000
# 6 0.0000 0.0000 0.0000 -6.1496 0.0000 31.6778
#
#
#
# Elastic Compliance Matrix: (Units=1/GPa)
#
#
# Indices 1 2 3 4 5 6 
#
# 1 0.012788 -0.001627 0.000434 0.000000 0.007843 0.000000
# 2 -0.001627 0.021504 -0.002548 0.000000 -0.001664 0.000000
# 3 0.000434 -0.002548 0.016335 0.000000 0.010709 0.000000
# 4 0.000000 0.000000 0.000000 0.037476 0.000000 0.007275
# 5 0.007843 -0.001664 0.010709 0.000000 0.043293 0.000000
# 6 0.000000 0.000000 0.000000 0.007275 0.000000 0.032980
#
#
# Mechanical properties :
#
#
# Convention : Reuss Voigt Hill
#
# Bulk Modulus (GPa) = 23.17692 29.47879 26.32785
# Shear Modulus (GPa) = 26.84714 30.72766 28.78740
#
# Velocity S-wave (km/s) = 3.61495 3.86739 3.74330
# Velocity P-wave (km/s) = 5.35772 5.85586 5.61232
#
# Compressibility (1/GPa) = 0.04314638
#
# Stress axis : x y z
#
# Youngs Moduli (GPa) = 78.19704 46.50209 61.21982
#
# Poissons Ratio (x) = 0.07564 -0.02659
# Poissons Ratio (y) = 0.12719 0.15600
# Poissons Ratio (z) = -0.03396 0.11850
#
# Static dielectric constant tensor:
#      x y z
#    x 3.792230 0.000000 -0.137030 
#    y 0.000000 3.715410 0.000000 
#    z -0.137030 0.000000 3.852680 
# 
# 
# High freq. dielectric constant tensor:
#      x y z
#    x 1.812100 0.000000 -0.013110 
#    y 0.000000 1.809930 0.000000 
#    z -0.013110 0.000000 1.792890 
# 
# From -- ./inp_files/275500.got.cif
#   From: 2010.06.25/outbox.cif.g09.slc.cpg/sg12_138_cif.got.tgz:275500.got - 2010.06.28 00:19:55.
