data_PCOD8100752
_publ_section_title
;
Structure prediction by ZEFSAII (Michael W. Deem and Ramdas Pophale) SiO2 
 PCOD8100752
Probable space group: C 2/M
;
_chemical_formula_sum "Si O2"
_cell_formula_units_Z 56
_cell_length_a 9.214980
_cell_length_b 16.766885
_cell_length_c 21.634341
_cell_angle_alpha 90.000000
_cell_angle_beta 118.804719
_cell_angle_gamma 90.000000
_cell_volume 2929.050837
_symmetry_space_group_name_H-M "C 2/M"
_symmetry_group_IT_number 12
_symmetry_cell_setting 'monoclinic'
loop_
_space_group_symop_operation_xyz
x,y,z
-x,y,-z
-x,-y,-z
x,-y,z
1/2+x,1/2+y,z
1/2-x,1/2+y,-z
1/2-x,1/2-y,-z
1/2+x,1/2-y,z
loop_
_atom_site_type_symbol
_atom_site_label
_atom_site_fract_x
_atom_site_fract_y
_atom_site_fract_z
Si Si1 0.336149 0.286817 0.826956
Si Si2 0.403077 0.808016 0.042614
Si Si3 0.005818 0.205639 0.267646
Si Si4 0.669173 0.592608 0.066694
Si Si5 0.984188 0.090169 0.371768
Si Si6 0.669741 0.139074 0.515024
Si Si7 0.756557 0.700211 0.598578
O O1 0.476194 0.228868 0.882055
O O2 0.169350 0.236794 0.790840
O O3 0.384668 0.317543 0.769072
O O4 0.310000 0.363589 0.864030
O O5 0.325451 0.889189 0.054433
O O6 0.500000 0.828597 0.000000
O O7 0.250000 0.750000 0.000000
O O8 0.980039 0.125588 0.302021
O O9 0.097457 0.274951 0.325015
O O10 0.660118 0.500000 0.079101
O O11 0.500000 0.623637 0.000000
O O12 0.878855 0.146562 0.394935
O O13 0.171799 0.086753 0.434825
O O14 0.913377 0.000000 0.356373
O O15 0.500000 0.094389 0.500000
O O16 0.668241 0.222495 0.552125
O O17 0.662592 0.149973 0.439924
#
# Coordination Sequence:
#
# PCOD8100752 Si02
#       7
#     8   8   8   8   8   8   8
#     4  12  21  39  66  91 119 166 210 247 301 372
#     4  12  20  38  67  95 122 164 212 254 296 368
#     4  11  23  38  64  91 118 163 211 253 295 372
#     4  11  24  41  62  95 130 158 200 263 315 353
#     4  11  24  41  60  89 125 159 200 256 315 360
#     4  10  20  35  64  88 118 155 208 252 298 362
#     4  10  20  38  59  89 118 161 204 251 299 365
#
# _framework density 19.118821000000001
#
# number of rings (size 3 to 8) (size 9 to 14) (size 15 to 20)
#    0.000    1.000    5.714    3.000    2.000    2.286 
#    0.000    2.857    0.000    0.000    0.000    0.000 
#    0.000    0.000    0.000    0.000    0.000    0.000 
#
# Total GULP energy -347277.502754 kJ/mol
# GULP energy per Si atom -12402.767956 kJ/mol
# Density = 1.907531 g / cm^3
# Si number density = 19.118821 Si / 1000 Ang^3
#
#
#
# Elastic Constant Matrix: (Units=GPa)
#
#
# Indices 1 2 3 4 5 6 
#
# 1 118.9669 32.4478 43.0698 0.0000 -12.5477 0.0000
# 2 32.4478 81.3270 31.3184 0.0000 -5.2469 0.0000
# 3 43.0698 31.3184 111.4735 0.0000 -4.6958 0.0000
# 4 0.0000 0.0000 0.0000 11.4159 0.0000 1.0964
# 5 -12.5477 -5.2469 -4.6958 0.0000 50.9422 0.0000
# 6 0.0000 0.0000 0.0000 1.0964 0.0000 23.3762
#
#
#
# Elastic Compliance Matrix: (Units=1/GPa)
#
#
# Indices 1 2 3 4 5 6 
#
# 1 0.010551 -0.002851 -0.003191 0.000000 0.002011 0.000000
# 2 -0.002851 0.014616 -0.002983 0.000000 0.000528 0.000000
# 3 -0.003191 -0.002983 0.011038 0.000000 -0.000076 0.000000
# 4 0.000000 0.000000 0.000000 0.087993 0.000000 -0.004127
# 5 0.002011 0.000528 -0.000076 0.000000 0.020173 0.000000
# 6 0.000000 0.000000 0.000000 -0.004127 0.000000 0.042972
#
#
# Mechanical properties :
#
#
# Convention : Reuss Voigt Hill
#
# Bulk Modulus (GPa) = 55.07699 58.38217 56.72958
# Shear Modulus (GPa) = 23.64691 30.80896 27.22794
#
# Velocity S-wave (km/s) = 3.52069 4.01864 3.77788
# Velocity P-wave (km/s) = 6.73775 7.22048 6.98329
#
# Compressibility (1/GPa) = 0.01815640
#
# Stress axis : x y z
#
# Youngs Moduli (GPa) = 94.78191 68.41726 90.59358
#
# Poissons Ratio (x) = 0.19506 0.28906
# Poissons Ratio (y) = 0.27022 0.27021
# Poissons Ratio (z) = 0.30242 0.20406
#
# Static dielectric constant tensor:
#      x y z
#    x 3.840480 0.000000 -0.053050 
#    y 0.000000 3.193690 0.000000 
#    z -0.053050 0.000000 3.664100 
# 
# 
# High freq. dielectric constant tensor:
#      x y z
#    x 1.764790 0.000000 -0.003750 
#    y 0.000000 1.713710 0.000000 
#    z -0.003750 0.000000 1.753460 
# 
# From -- ./inp_files/300872.got.cif
#   From: 2010.06.25/outbox.cif.g09.slc.cpg/sg12_151_cif.got.tgz:300872.got - 2010.06.28 00:19:55.
