data_PCOD8100917
_publ_section_title
;
Structure prediction by ZEFSAII (Michael W. Deem and Ramdas Pophale) SiO2 
 PCOD8100917
Probable space group: C 2/M
;
_chemical_formula_sum "Si O2"
_cell_formula_units_Z 48
_cell_length_a 14.231396
_cell_length_b 9.137982
_cell_length_c 28.659712
_cell_angle_alpha 90.000000
_cell_angle_beta 41.638721
_cell_angle_gamma 90.000000
_cell_volume 2476.394275
_symmetry_space_group_name_H-M "C 2/M"
_symmetry_group_IT_number 12
_symmetry_cell_setting 'monoclinic'
loop_
_space_group_symop_operation_xyz
x,y,z
-x,y,-z
-x,-y,-z
x,-y,z
1/2+x,1/2+y,z
1/2-x,1/2+y,-z
1/2-x,1/2-y,-z
1/2+x,1/2-y,z
loop_
_atom_site_type_symbol
_atom_site_label
_atom_site_fract_x
_atom_site_fract_y
_atom_site_fract_z
Si Si1 0.440908 0.668560 0.625005
Si Si2 0.691045 0.828484 0.647806
Si Si3 0.087374 0.171799 0.257115
Si Si4 0.626994 0.834575 0.489321
Si Si5 0.670602 0.671078 0.886431
Si Si6 0.652784 0.330173 0.999355
O O1 0.482098 0.500000 0.603352
O O2 0.300061 0.706338 0.648553
O O3 0.408849 0.710629 0.689760
O O4 0.574891 0.760955 0.556706
O O5 0.543457 0.756179 0.718065
O O6 0.741291 0.754314 0.580747
O O7 0.671649 0.000000 0.646516
O O8 0.231638 0.228676 0.181606
O O9 0.071535 0.000000 0.253801
O O10 0.500000 0.829206 0.500000
O O11 0.676751 0.000000 0.480778
O O12 0.700885 0.500000 0.866227
O O13 0.510519 0.711694 0.932105
O O14 0.698974 0.711338 0.929811
O O15 0.674550 0.500000 0.999590
O O16 0.750000 0.250000 0.000000
#
# Coordination Sequence:
#
# PCOD8100917 Si02
#       6
#     8   8   8   8   8   8
#     4   9  20  37  54  74 104 142 182 223 272 326
#     4  10  20  36  56  76 104 144 183 222 274 329
#     4  11  23  37  54  80 111 142 180 225 267 313
#     4   9  17  31  53  79 104 133 178 233 276 315
#     4   9  20  39  57  79 114 148 176 212 262 320
#     4   9  19  37  62  87 111 142 179 216 258 312
#
# _framework density 19.383020999999999
#
# number of rings (size 3 to 8) (size 9 to 14) (size 15 to 20)
#    0.000    2.500    0.000    2.500    0.000    7.333 
#    0.000    6.667    0.000    0.000    0.000    0.000 
#    0.000    0.000    0.000    0.000    0.000    0.000 
#
# Total GULP energy -297664.337345 kJ/mol
# GULP energy per Si atom -12402.680723 kJ/mol
# Density = 1.933890 g / cm^3
# Si number density = 19.383021 Si / 1000 Ang^3
#
#
#
# Elastic Constant Matrix: (Units=GPa)
#
#
# Indices 1 2 3 4 5 6 
#
# 1 87.2597 37.9177 37.6604 0.0000 -0.7494 0.0001
# 2 37.9177 92.0767 53.6291 0.0000 -3.8928 0.0001
# 3 37.6604 53.6291 118.6876 0.0001 -6.5066 0.0000
# 4 0.0000 0.0000 0.0001 41.4559 0.0000 -2.3149
# 5 -0.7494 -3.8928 -6.5066 0.0000 22.4940 0.0000
# 6 0.0001 0.0001 0.0000 -2.3149 0.0000 30.7366
#
#
#
# Elastic Compliance Matrix: (Units=1/GPa)
#
#
# Indices 1 2 3 4 5 6 
#
# 1 0.014545 -0.004496 -0.002642 0.000000 -0.001058 0.000000
# 2 -0.004496 0.016138 -0.005813 0.000000 0.000962 0.000000
# 3 -0.002642 -0.005813 0.012021 0.000000 0.002383 0.000000
# 4 0.000000 0.000000 0.000000 0.024224 0.000000 0.001824
# 5 -0.001058 0.000962 0.002383 0.000000 0.045277 0.000000
# 6 0.000000 0.000000 0.000000 0.001824 0.000000 0.032672
#
#
# Mechanical properties :
#
#
# Convention : Reuss Voigt Hill
#
# Bulk Modulus (GPa) = 59.51213 61.82648 60.66931
# Shear Modulus (GPa) = 28.34826 30.19175 29.27000
#
# Velocity S-wave (km/s) = 3.82845 3.95098 3.89020
# Velocity P-wave (km/s) = 7.09314 7.26499 7.17958
#
# Compressibility (1/GPa) = 0.01680330
#
# Stress axis : x y z
#
# Youngs Moduli (GPa) = 68.75391 61.96517 83.18860
#
# Poissons Ratio (x) = 0.27857 0.21976
# Poissons Ratio (y) = 0.30909 0.48356
# Poissons Ratio (z) = 0.18163 0.36019
#
# Static dielectric constant tensor:
#      x y z
#    x 3.340570 0.000000 -0.039160 
#    y 0.000000 3.519080 0.000000 
#    z -0.039160 0.000000 3.509650 
# 
# 
# High freq. dielectric constant tensor:
#      x y z
#    x 1.757750 0.000000 -0.004690 
#    y 0.000000 1.756800 0.000000 
#    z -0.004690 0.000000 1.752120 
# 
# From -- ./inp_files/308585.got.cif
#   From: 2010.06.25/outbox.cif.g09.slc.cpg/sg12_155_cif.got.tgz:308585.got - 2010.06.28 00:19:55.
