data_PCOD8100680
_publ_section_title
;
Structure prediction by ZEFSAII (Michael W. Deem and Ramdas Pophale) SiO2 
 PCOD8100680
Probable space group: C 2/M
;
_chemical_formula_sum "Si O2"
_cell_formula_units_Z 44
_cell_length_a 9.086343
_cell_length_b 20.140088
_cell_length_c 14.789177
_cell_angle_alpha 90.000000
_cell_angle_beta 113.729547
_cell_angle_gamma 90.000000
_cell_volume 2477.602261
_symmetry_space_group_name_H-M "C 2/M"
_symmetry_group_IT_number 12
_symmetry_cell_setting 'monoclinic'
loop_
_space_group_symop_operation_xyz
x,y,z
-x,y,-z
-x,-y,-z
x,-y,z
1/2+x,1/2+y,z
1/2-x,1/2+y,-z
1/2-x,1/2-y,-z
1/2+x,1/2-y,z
loop_
_atom_site_type_symbol
_atom_site_label
_atom_site_fract_x
_atom_site_fract_y
_atom_site_fract_z
Si Si1 0.473499 0.426736 0.593521
Si Si2 0.342755 0.618498 0.197773
Si Si3 0.099055 0.500000 0.118256
Si Si4 0.099890 0.115661 0.112427
Si Si5 0.832109 0.260986 0.926222
Si Si6 0.336603 0.000000 0.203291
Si Si7 0.678226 0.000000 0.585356
O O1 0.500000 0.396560 0.500000
O O2 0.554527 0.500000 0.616173
O O3 0.580517 0.380062 0.683693
O O4 0.284722 0.435226 0.578928
O O5 0.205698 0.565370 0.146945
O O6 0.490615 0.600271 0.170721
O O7 0.269032 0.690670 0.162198
O O8 0.000087 0.500000 0.187190
O O9 0.000000 0.500000 0.000000
O O10 0.152657 0.192473 0.124917
O O11 0.250977 0.067565 0.152053
O O12 0.000000 0.097351 0.000000
O O13 0.750000 0.250000 0.000000
O O14 0.000000 0.292690 0.000000
O O15 0.354435 0.000000 0.315725
O O16 0.500000 0.000000 0.500000
#
# Coordination Sequence:
#
# PCOD8100680 Si02
#       7
#     8   8   4   8   8   4   4
#     4   9  19  38  61  85 117 155 200 241 311 358
#     4  12  21  40  60  83 123 162 199 241 301 362
#     4  12  26  33  53  91 128 155 197 252 289 352
#     4  11  21  39  60  82 121 161 193 241 299 360
#     4  11  23  39  59  86 118 167 204 238 292 360
#     4  12  24  36  58  94 120 151 201 252 308 344
#     4  10  20  35  61  88 118 146 195 252 305 363
#
# _framework density 17.759105999999999
#
# number of rings (size 3 to 8) (size 9 to 14) (size 15 to 20)
#    0.545    0.545    6.364    2.455    5.091    0.000 
#    0.000    0.000    0.000    2.182    0.000    0.000 
#    0.000    0.000    0.000    0.000    0.000    0.000 
#
# Total GULP energy -272649.960099 kJ/mol
# GULP energy per Si atom -12393.180004 kJ/mol
# Density = 1.771869 g / cm^3
# Si number density = 17.759106 Si / 1000 Ang^3
#
#
#
# Elastic Constant Matrix: (Units=GPa)
#
#
# Indices 1 2 3 4 5 6 
#
# 1 120.0409 40.0419 52.6614 0.0000 -9.8159 0.0000
# 2 40.0419 83.2418 51.2740 0.0000 8.1708 0.0000
# 3 52.6614 51.2740 152.0744 0.0000 -5.8996 0.0000
# 4 0.0000 0.0000 0.0000 23.8821 0.0000 0.7864
# 5 -9.8159 8.1708 -5.8996 0.0000 38.7033 0.0000
# 6 0.0000 0.0000 0.0000 0.7864 0.0000 24.9065
#
#
#
# Elastic Compliance Matrix: (Units=1/GPa)
#
#
# Indices 1 2 3 4 5 6 
#
# 1 0.011005 -0.004233 -0.002254 0.000000 0.003341 0.000000
# 2 -0.004233 0.017433 -0.004624 0.000000 -0.005459 0.000000
# 3 -0.002254 -0.004624 0.008984 0.000000 0.001774 0.000000
# 4 0.000000 0.000000 0.000000 0.041916 0.000000 -0.001323
# 5 0.003341 -0.005459 0.001774 0.000000 0.028108 0.000000
# 6 0.000000 0.000000 0.000000 -0.001323 0.000000 0.040192
#
#
# Mechanical properties :
#
#
# Convention : Reuss Voigt Hill
#
# Bulk Modulus (GPa) = 65.78818 71.47908 68.63363
# Shear Modulus (GPa) = 28.58354 31.59038 30.08696
#
# Velocity S-wave (km/s) = 4.01623 4.22219 4.12050
# Velocity P-wave (km/s) = 7.65715 8.00661 7.83383
#
# Compressibility (1/GPa) = 0.01520030
#
# Stress axis : x y z
#
# Youngs Moduli (GPa) = 90.87185 57.36115 111.30917
#
# Poissons Ratio (x) = 0.24282 0.25087
# Poissons Ratio (y) = 0.38468 0.51467
# Poissons Ratio (z) = 0.20481 0.26523
#
# Static dielectric constant tensor:
#      x y z
#    x 3.446890 0.000000 -0.051830 
#    y 0.000000 2.734350 0.000000 
#    z -0.051830 0.000000 3.245160 
# 
# 
# High freq. dielectric constant tensor:
#      x y z
#    x 1.704060 0.000000 -0.006340 
#    y 0.000000 1.665870 0.000000 
#    z -0.006340 0.000000 1.684750 
# 
# From -- ./inp_files/197295.got.cif
#   From: 2010.06.25/outbox.cif.g09.slc.cpg/sg12_99_cif.got.tgz:197295.got - 2010.06.28 00:19:55.
