data_PCOD8100700
_publ_section_title
;
Structure prediction by ZEFSAII (Michael W. Deem and Ramdas Pophale) SiO2 
 PCOD8100700
Probable space group: C 2/M
;
_chemical_formula_sum "Si O2"
_cell_formula_units_Z 64
_cell_length_a 27.484278
_cell_length_b 15.505738
_cell_length_c 20.200184
_cell_angle_alpha 90.000000
_cell_angle_beta 158.196961
_cell_angle_gamma 90.000000
_cell_volume 3197.377936
_symmetry_space_group_name_H-M "C 2/M"
_symmetry_group_IT_number 12
_symmetry_cell_setting 'monoclinic'
loop_
_space_group_symop_operation_xyz
x,y,z
-x,y,-z
-x,-y,-z
x,-y,z
1/2+x,1/2+y,z
1/2-x,1/2+y,-z
1/2-x,1/2-y,-z
1/2+x,1/2-y,z
loop_
_atom_site_type_symbol
_atom_site_label
_atom_site_fract_x
_atom_site_fract_y
_atom_site_fract_z
Si Si1 0.778010 0.829975 0.987414
Si Si2 0.856854 0.267527 0.959551
Si Si3 0.083058 0.813533 0.164461
Si Si4 0.501043 0.902696 0.361855
Si Si5 0.301284 0.600560 0.566458
Si Si6 0.017936 0.597720 0.227678
Si Si7 0.457945 0.600122 0.637045
Si Si8 0.678462 0.254907 0.614621
O O1 0.649926 0.886207 0.811928
O O2 0.750000 0.750000 0.000000
O O3 0.831466 0.803522 0.983199
O O4 0.886205 0.890014 0.159119
O O5 0.984783 0.249329 0.077896
O O6 0.888763 0.357233 0.035994
O O7 0.730070 0.276623 0.753146
O O8 0.135594 0.883777 0.282042
O O9 0.202640 0.758040 0.286263
O O10 0.000000 0.859150 0.000000
O O11 0.521224 0.892361 0.309951
O O12 0.592944 0.832380 0.513471
O O13 0.538741 0.000000 0.432779
O O14 0.283414 0.500000 0.537181
O O15 0.155042 0.641254 0.376015
O O16 0.391113 0.634725 0.620404
O O17 0.006829 0.500000 0.190172
O O18 0.424068 0.500000 0.578598
O O19 0.407752 0.662744 0.515609
#
# Coordination Sequence:
#
# PCOD8100700 Si02
#       8
#     8   8   8   8   8   8   8   8
#     4  12  22  41  64  87 118 160 205 256 298 349
#     4  11  23  39  61  90 123 163 201 243 306 364
#     4  10  21  36  58  90 126 160 193 242 310 368
#     4  11  23  41  64  88 117 158 205 252 302 356
#     4  10  20  35  61  92 120 158 205 248 300 363
#     4  10  20  36  61  91 119 153 202 253 296 353
#     4  11  23  40  63  92 123 159 203 252 304 360
#     4  11  23  40  63  92 125 161 198 246 308 368
#
# _framework density 20.016400999999998
#
# number of rings (size 3 to 8) (size 9 to 14) (size 15 to 20)
#    0.000    1.250    5.000    1.125    0.000    2.250 
#    0.000    3.750    0.000    5.250    0.000    0.000 
#    0.000    0.000    0.000    0.000    0.000    0.000 
#
# Total GULP energy -396752.037931 kJ/mol
# GULP energy per Si atom -12398.501185 kJ/mol
# Density = 1.997084 g / cm^3
# Si number density = 20.016401 Si / 1000 Ang^3
#
#
#
# Elastic Constant Matrix: (Units=GPa)
#
#
# Indices 1 2 3 4 5 6 
#
# 1 19.6778 15.9966 21.2675 -0.0002 5.7333 -0.0001
# 2 15.9966 87.0625 57.6925 -0.0003 -5.6736 -0.0003
# 3 21.2675 57.6925 129.2000 -0.0005 -2.7796 -0.0005
# 4 -0.0002 -0.0003 -0.0005 27.6967 -0.0004 8.5824
# 5 5.7333 -5.6736 -2.7796 -0.0004 37.8441 -0.0004
# 6 -0.0001 -0.0003 -0.0005 8.5824 -0.0004 17.7886
#
#
#
# Elastic Compliance Matrix: (Units=1/GPa)
#
#
# Indices 1 2 3 4 5 6 
#
# 1 0.069913 -0.008312 -0.008064 0.000000 -0.012430 0.000000
# 2 -0.008312 0.017441 -0.006346 0.000000 0.003408 0.000000
# 3 -0.008064 -0.006346 0.011926 0.000000 0.001146 0.000000
# 4 0.000000 0.000000 0.000000 0.042452 0.000000 -0.020482
# 5 -0.012430 0.003408 0.001146 0.000000 0.028902 0.000001
# 6 0.000000 0.000000 0.000000 -0.020482 0.000001 0.066098
#
#
# Mechanical properties :
#
#
# Convention : Reuss Voigt Hill
#
# Bulk Modulus (GPa) = 18.57540 47.31707 32.94624
# Shear Modulus (GPa) = 16.65993 26.06478 21.36235
#
# Velocity S-wave (km/s) = 2.88811 3.61248 3.27041
# Velocity P-wave (km/s) = 4.51905 6.41018 5.54582
#
# Compressibility (1/GPa) = 0.05383464
#
# Stress axis : x y z
#
# Youngs Moduli (GPa) = 14.30354 57.33686 83.85092
#
# Poissons Ratio (x) = 0.47658 0.67618
# Poissons Ratio (y) = 0.11889 0.53215
# Poissons Ratio (z) = 0.11535 0.36388
#
# Static dielectric constant tensor:
#      x y z
#    x 3.799740 0.000000 0.152970 
#    y 0.000000 3.473930 0.000000 
#    z 0.152970 0.000000 3.860610 
# 
# 
# High freq. dielectric constant tensor:
#      x y z
#    x 1.779600 0.000000 0.011480 
#    y 0.000000 1.767750 0.000000 
#    z 0.011480 0.000000 1.790150 
# 
# From -- ./inp_files/183825.got.cif
#   From: 2010.06.25/outbox.cif.g09.slc.cpg/sg12_92_cif.got.tgz:183825.got - 2010.06.28 00:19:55.
