data_PCOD8100487
_publ_section_title
;
Structure prediction by ZEFSAII (Michael W. Deem and Ramdas Pophale) SiO2 
 PCOD8100487
Probable space group: C 2/M
;
_chemical_formula_sum "Si O2"
_cell_formula_units_Z 40
_cell_length_a 25.103078
_cell_length_b 9.434149
_cell_length_c 10.549268
_cell_angle_alpha 90.000000
_cell_angle_beta 128.363994
_cell_angle_gamma 90.000000
_cell_volume 1958.909751
_symmetry_space_group_name_H-M "C 2/M"
_symmetry_group_IT_number 12
_symmetry_cell_setting 'monoclinic'
loop_
_space_group_symop_operation_xyz
x,y,z
-x,y,-z
-x,-y,-z
x,-y,z
1/2+x,1/2+y,z
1/2-x,1/2+y,-z
1/2-x,1/2-y,-z
1/2+x,1/2-y,z
loop_
_atom_site_type_symbol
_atom_site_label
_atom_site_fract_x
_atom_site_fract_y
_atom_site_fract_z
Si Si1 0.447813 0.664347 0.310758
Si Si2 0.969042 0.162578 0.818132
Si Si3 0.245720 0.846763 0.312010
Si Si4 0.654877 0.155254 0.313344
Si Si5 0.811517 0.667345 0.154912
O O1 0.500000 0.704922 0.500000
O O2 0.426064 0.500000 0.291750
O O3 0.479733 0.694982 0.220343
O O4 0.382712 0.764485 0.221747
O O5 0.903513 0.259129 0.701393
O O6 0.945384 0.000000 0.779657
O O7 0.000000 0.202352 0.000000
O O8 0.282791 0.860522 0.499919
O O9 0.183033 0.736409 0.229703
O O10 0.301020 0.804964 0.288736
O O11 0.213270 0.000000 0.228597
O O12 0.628447 0.000000 0.232522
O O13 0.811285 0.500000 0.119685
O O14 0.750000 0.750000 0.000000
#
# Coordination Sequence:
#
# PCOD8100487 Si02
#       5
#     8   8   8   8   8
#     4  10  22  41  64  89 119 160 207 249 295 360
#     4  10  22  38  57  82 117 157 191 234 297 354
#     4   9  20  38  58  82 116 155 189 232 294 355
#     4  10  20  35  59  88 114 146 194 243 285 341
#     4  11  24  40  61  88 122 160 200 248 303 357
#
# _framework density 20.419522000000001
#
# number of rings (size 3 to 8) (size 9 to 14) (size 15 to 20)
#    0.000    2.000    0.000    2.400    2.800    4.000 
#    0.000    0.000    0.000    0.000    0.000    0.000 
#    0.000    0.000    0.000    0.000    0.000    0.000 
#
# Total GULP energy -247951.520183 kJ/mol
# GULP energy per Si atom -12397.576009 kJ/mol
# Density = 2.037305 g / cm^3
# Si number density = 20.419522 Si / 1000 Ang^3
#
#
#
# Elastic Constant Matrix: (Units=GPa)
#
#
# Indices 1 2 3 4 5 6 
#
# 1 155.8673 94.2196 44.6043 0.0000 -0.0756 0.0000
# 2 94.2196 147.8820 45.3000 0.0000 15.6995 0.0000
# 3 44.6043 45.3000 73.4969 0.0000 -0.1212 0.0000
# 4 0.0000 0.0000 0.0000 24.2810 0.0000 8.9393
# 5 -0.0756 15.6995 -0.1212 0.0000 36.3029 0.0000
# 6 0.0000 0.0000 0.0000 8.9393 0.0000 42.3619
#
#
#
# Elastic Compliance Matrix: (Units=1/GPa)
#
#
# Indices 1 2 3 4 5 6 
#
# 1 0.011182 -0.006597 -0.002715 0.000000 0.002867 0.000000
# 2 -0.006597 0.012733 -0.003854 0.000000 -0.005533 0.000000
# 3 -0.002715 -0.003854 0.017632 0.000000 0.001720 0.000000
# 4 0.000000 0.000000 0.000000 0.044654 0.000000 -0.009423
# 5 0.002867 -0.005533 0.001720 0.000000 0.029951 0.000000
# 6 0.000000 0.000000 0.000000 -0.009423 0.000000 0.025595
#
#
# Mechanical properties :
#
#
# Convention : Reuss Voigt Hill
#
# Bulk Modulus (GPa) = 65.72409 82.83267 74.27838
# Shear Modulus (GPa) = 28.87684 33.46398 31.17041
#
# Velocity S-wave (km/s) = 3.76464 4.05263 3.91128
# Velocity P-wave (km/s) = 7.15216 7.90898 7.54007
#
# Compressibility (1/GPa) = 0.01521512
#
# Stress axis : x y z
#
# Youngs Moduli (GPa) = 89.43035 78.53574 56.71508
#
# Poissons Ratio (x) = 0.51809 0.15401
# Poissons Ratio (y) = 0.58996 0.21856
# Poissons Ratio (z) = 0.24284 0.30265
#
# Static dielectric constant tensor:
#      x y z
#    x 4.143790 0.000000 -0.129490 
#    y 0.000000 4.116700 0.000000 
#    z -0.129490 0.000000 3.546910 
# 
# 
# High freq. dielectric constant tensor:
#      x y z
#    x 1.809480 0.000000 -0.007090 
#    y 0.000000 1.807080 0.000000 
#    z -0.007090 0.000000 1.781750 
# 
# From -- ./inp_files/162399.got.cif
#   From: 2010.06.25/outbox.cif.g09.slc.cpg/sg12_82_cif.got.tgz:162399.got - 2010.06.28 00:19:55.
