data_PCOD8100369
_publ_section_title
;
Structure prediction by ZEFSAII (Michael W. Deem and Ramdas Pophale) SiO2 
 PCOD8100369
Probable space group: C 2/M
;
_chemical_formula_sum "Si O2"
_cell_formula_units_Z 44
_cell_length_a 9.033028
_cell_length_b 28.049236
_cell_length_c 11.222805
_cell_angle_alpha 90.000000
_cell_angle_beta 131.636768
_cell_angle_gamma 90.000000
_cell_volume 2125.164553
_symmetry_space_group_name_H-M "C 2/M"
_symmetry_group_IT_number 12
_symmetry_cell_setting 'monoclinic'
loop_
_space_group_symop_operation_xyz
x,y,z
-x,y,-z
-x,-y,-z
x,-y,z
1/2+x,1/2+y,z
1/2-x,1/2+y,-z
1/2-x,1/2-y,-z
1/2+x,1/2-y,z
loop_
_atom_site_type_symbol
_atom_site_label
_atom_site_fract_x
_atom_site_fract_y
_atom_site_fract_z
Si Si1 0.106900 0.856271 0.164858
Si Si2 0.000000 0.595493 0.000000
Si Si3 0.907931 0.946810 0.153286
Si Si4 0.829938 0.052816 0.485778
Si Si5 0.196374 0.700036 0.527873
Si Si6 0.479708 0.126226 0.729086
O O1 0.129878 0.823526 0.296075
O O2 0.320079 0.873535 0.237703
O O3 0.959470 0.902163 0.096632
O O4 0.000000 0.826383 0.000000
O O5 0.996224 0.629390 0.115060
O O6 0.197344 0.562769 0.106070
O O7 0.096888 0.947649 0.340420
O O8 0.894564 0.000000 0.085428
O O9 0.617310 0.076436 0.359692
O O10 0.000000 0.079758 0.500000
O O11 0.801464 0.000000 0.418012
O O12 0.250000 0.750000 0.500000
O O13 0.000000 0.706217 0.500000
O O14 0.163523 0.667792 0.393876
#
# Coordination Sequence:
#
# PCOD8100369 Si02
#       6
#     8   4   8   8   8   8
#     4  11  23  44  65  93 132 165 207 265 318 375
#     4  12  23  38  60  94 132 170 218 264 307 364
#     4  11  23  38  60  92 131 177 218 257 310 368
#     4  10  20  35  58  88 124 170 218 260 305 366
#     4  10  24  46  69  94 123 161 206 261 326 388
#     4  11  23  41  64  91 127 167 211 262 318 376
#
# _framework density 20.704277999999999
#
# number of rings (size 3 to 8) (size 9 to 14) (size 15 to 20)
#    0.000    1.273    5.455    0.273    0.000    4.000 
#    1.636    3.636    0.000    0.000    0.000    0.000 
#    0.000    0.000    0.000    0.000    0.000    0.000 
#
# Total GULP energy -272593.202327 kJ/mol
# GULP energy per Si atom -12390.600106 kJ/mol
# Density = 2.065715 g / cm^3
# Si number density = 20.704278 Si / 1000 Ang^3
#
#
#
# Elastic Constant Matrix: (Units=GPa)
#
#
# Indices 1 2 3 4 5 6 
#
# 1 74.3425 38.7592 33.3246 0.0000 -0.6104 0.0000
# 2 38.7592 117.5773 52.5370 0.0000 -9.0772 0.0000
# 3 33.3246 52.5370 123.9228 0.0000 -10.5953 0.0000
# 4 0.0000 0.0000 0.0000 11.7110 0.0000 -2.1121
# 5 -0.6104 -9.0772 -10.5953 0.0000 34.7770 0.0000
# 6 0.0000 0.0000 0.0000 -2.1121 0.0000 30.4082
#
#
#
# Elastic Compliance Matrix: (Units=1/GPa)
#
#
# Indices 1 2 3 4 5 6 
#
# 1 0.017045 -0.004489 -0.002829 0.000000 -0.001734 0.000000
# 2 -0.004489 0.011744 -0.003610 0.000000 0.001887 0.000000
# 3 -0.002829 -0.003610 0.010551 0.000000 0.002223 0.000000
# 4 0.000000 0.000000 0.000000 0.086473 0.000000 0.006006
# 5 -0.001734 0.001887 0.002223 0.000000 0.029894 0.000000
# 6 0.000000 0.000000 0.000000 0.006006 0.000000 0.033303
#
#
# Mechanical properties :
#
#
# Convention : Reuss Voigt Hill
#
# Bulk Modulus (GPa) = 57.19613 62.78714 59.99164
# Shear Modulus (GPa) = 23.07407 28.12738 25.60072
#
# Velocity S-wave (km/s) = 3.34197 3.68982 3.52020
# Velocity P-wave (km/s) = 6.52510 6.96739 6.74987
#
# Compressibility (1/GPa) = 0.01748370
#
# Stress axis : x y z
#
# Youngs Moduli (GPa) = 58.66675 85.15274 94.77862
#
# Poissons Ratio (x) = 0.38224 0.26813
# Poissons Ratio (y) = 0.26334 0.34218
# Poissons Ratio (z) = 0.16597 0.30743
#
# Static dielectric constant tensor:
#      x y z
#    x 3.880190 0.000000 -0.069460 
#    y 0.000000 3.650920 0.000000 
#    z -0.069460 0.000000 4.124020 
# 
# 
# High freq. dielectric constant tensor:
#      x y z
#    x 1.807590 0.000000 0.001030 
#    y 0.000000 1.781970 0.000000 
#    z 0.001030 0.000000 1.830010 
# 
# From -- ./inp_files/124466.got.cif
#   From: 2010.06.25/outbox.cif.g09.slc.cpg/sg12_63_cif.got.tgz:124466.got - 2010.06.28 00:19:55.
