data_PCOD8100401
_publ_section_title
;
Structure prediction by ZEFSAII (Michael W. Deem and Ramdas Pophale) SiO2 
 PCOD8100401
Probable space group: C 2/M
;
_chemical_formula_sum "Si O2"
_cell_formula_units_Z 56
_cell_length_a 22.729657
_cell_length_b 21.579649
_cell_length_c 19.011609
_cell_angle_alpha 90.000000
_cell_angle_beta 162.787893
_cell_angle_gamma 90.000000
_cell_volume 2759.406153
_symmetry_space_group_name_H-M "C 2/M"
_symmetry_group_IT_number 12
_symmetry_cell_setting 'monoclinic'
loop_
_space_group_symop_operation_xyz
x,y,z
-x,y,-z
-x,-y,-z
x,-y,z
1/2+x,1/2+y,z
1/2-x,1/2+y,-z
1/2-x,1/2-y,-z
1/2+x,1/2-y,z
loop_
_atom_site_type_symbol
_atom_site_label
_atom_site_fract_x
_atom_site_fract_y
_atom_site_fract_z
Si Si1 0.277052 0.570691 0.915424
Si Si2 0.479789 0.744744 0.772895
Si Si3 0.494305 0.344503 0.913198
Si Si4 0.119771 0.570206 0.460454
Si Si5 0.019704 0.619509 0.201635
Si Si6 0.877758 0.927539 0.291748
Si Si7 0.471532 0.370604 0.678835
O O1 0.290450 0.500000 0.908387
O O2 0.056669 0.588248 0.688234
O O3 0.324376 0.609648 0.899113
O O4 0.441826 0.582266 0.164180
O O5 0.250000 0.750000 0.500000
O O6 0.519152 0.716689 0.895079
O O7 0.568038 0.813979 0.871409
O O8 0.554306 0.697961 0.796185
O O9 0.290229 0.379514 0.663413
O O10 0.500000 0.323824 0.000000
O O11 0.195707 0.500000 0.561009
O O12 0.034288 0.573636 0.284257
O O13 0.230958 0.626256 0.403896
O O14 0.854984 0.589099 0.961872
O O15 0.000000 0.907332 0.500000
O O16 0.955991 0.887659 0.315525
O O17 0.907576 0.000000 0.310081
#
# Coordination Sequence:
#
# PCOD8100401 Si02
#       7
#     8   8   8   8   8   8   8
#     4  10  20  35  58  91 121 154 203 245 288 362
#     4   9  19  41  64  89 115 156 206 254 288 357
#     4  11  23  40  59  88 125 161 194 248 310 352
#     4  11  21  35  62  92 120 159 203 246 297 361
#     4  11  21  40  66  90 117 159 210 249 302 360
#     4  11  25  42  59  91 131 158 197 261 316 357
#     4  10  20  37  64  91 116 158 204 249 299 362
#
# _framework density 20.294221
#
# number of rings (size 3 to 8) (size 9 to 14) (size 15 to 20)
#    0.000    1.571    5.714    1.286    0.000    4.571 
#    5.143    2.857    0.000    0.000    0.000    0.000 
#    0.000    0.000    0.000    0.000    0.000    0.000 
#
# Total GULP energy -347102.473310 kJ/mol
# GULP energy per Si atom -12396.516904 kJ/mol
# Density = 2.024803 g / cm^3
# Si number density = 20.294221 Si / 1000 Ang^3
#
#
#
# Elastic Constant Matrix: (Units=GPa)
#
#
# Indices 1 2 3 4 5 6 
#
# 1 87.3140 19.8405 7.2182 -0.0111 -6.9414 -0.0018
# 2 19.8405 67.9990 7.6246 -0.0043 1.7167 -0.0016
# 3 7.2182 7.6246 54.6800 -0.0170 1.4074 -0.0014
# 4 -0.0111 -0.0043 -0.0170 14.3950 -0.0152 -2.7208
# 5 -6.9414 1.7167 1.4074 -0.0152 33.6216 -0.0016
# 6 -0.0018 -0.0016 -0.0014 -2.7208 -0.0016 16.4728
#
#
#
# Elastic Compliance Matrix: (Units=1/GPa)
#
#
# Indices 1 2 3 4 5 6 
#
# 1 0.012601 -0.003610 -0.001233 0.000011 0.002837 0.000003
# 2 -0.003610 0.015989 -0.001715 -0.000002 -0.001490 0.000001
# 3 -0.001233 -0.001715 0.018715 0.000021 -0.000950 0.000005
# 4 0.000011 -0.000002 0.000021 0.071707 0.000034 0.011844
# 5 0.002837 -0.001490 -0.000950 0.000034 0.030444 0.000009
# 6 0.000003 0.000001 0.000005 0.011844 0.000009 0.062662
#
#
# Mechanical properties :
#
#
# Convention : Reuss Voigt Hill
#
# Bulk Modulus (GPa) = 29.24899 31.03996 30.14447
# Shear Modulus (GPa) = 21.13002 24.58520 22.85761
#
# Velocity S-wave (km/s) = 3.23024 3.48435 3.35970
# Velocity P-wave (km/s) = 5.32507 5.61389 5.47139
#
# Compressibility (1/GPa) = 0.03418922
#
# Stress axis : x y z
#
# Youngs Moduli (GPa) = 79.36050 62.54193 53.43429
#
# Poissons Ratio (x) = 0.22577 0.06589
# Poissons Ratio (y) = 0.28649 0.09162
# Poissons Ratio (z) = 0.09786 0.10724
#
# Static dielectric constant tensor:
#      x y z
#    x 3.613460 0.000030 0.088700 
#    y 0.000030 4.117470 -0.000040 
#    z 0.088700 -0.000040 3.732400 
# 
# 
# High freq. dielectric constant tensor:
#      x y z
#    x 1.776840 0.000000 0.012670 
#    y 0.000000 1.797830 0.000000 
#    z 0.012670 0.000000 1.789090 
# 
# From -- ./inp_files/286050.got.cif
#   From: 2010.06.25/outbox.cif.g09.slc.cpg/sg12_144_cif.got.tgz:286050.got - 2010.06.28 00:19:55.
