data_PCOD8100205
_publ_section_title
;
Structure prediction by ZEFSAII (Michael W. Deem and Ramdas Pophale) SiO2 
 PCOD8100205
Probable space group: C 2/M
;
_chemical_formula_sum "Si O2"
_cell_formula_units_Z 56
_cell_length_a 18.988265
_cell_length_b 9.076086
_cell_length_c 25.034040
_cell_angle_alpha 90.000000
_cell_angle_beta 135.558528
_cell_angle_gamma 90.000000
_cell_volume 3020.819119
_symmetry_space_group_name_H-M "C 2/M"
_symmetry_group_IT_number 12
_symmetry_cell_setting 'monoclinic'
loop_
_space_group_symop_operation_xyz
x,y,z
-x,y,-z
-x,-y,-z
x,-y,z
1/2+x,1/2+y,z
1/2-x,1/2+y,-z
1/2-x,1/2-y,-z
1/2+x,1/2-y,z
loop_
_atom_site_type_symbol
_atom_site_label
_atom_site_fract_x
_atom_site_fract_y
_atom_site_fract_z
Si Si1 0.903302 0.829169 0.411793
Si Si2 0.007719 0.672132 0.062374
Si Si3 0.996655 0.674068 0.756077
Si Si4 0.690655 0.342160 0.191387
Si Si5 0.856363 0.324969 0.069015
Si Si6 0.089245 0.669377 0.695181
Si Si7 0.708465 0.336449 0.325377
O O1 0.810389 0.753513 0.393403
O O2 0.000000 0.802045 0.500000
O O3 0.929477 0.767405 0.367131
O O4 0.876491 0.000000 0.390620
O O5 0.992444 0.500000 0.050306
O O6 0.118657 0.705434 0.143027
O O7 0.925425 0.735835 0.058147
O O8 0.000000 0.746645 0.000000
O O9 0.980936 0.500000 0.754237
O O10 0.021472 0.719222 0.708652
O O11 0.892057 0.752588 0.712053
O O12 0.087130 0.723592 0.845453
O O13 0.645703 0.500000 0.146787
O O14 0.712430 0.355508 0.264915
O O15 0.797160 0.311737 0.220932
O O16 0.841636 0.500000 0.059835
O O17 0.750000 0.250000 0.000000
O O18 0.067503 0.500000 0.667905
O O19 0.711012 0.500000 0.353483
#
# Coordination Sequence:
#
# PCOD8100205 Si02
#       7
#     8   8   8   8   8   8   8
#     4  10  21  38  61  88 116 146 181 221 270 331
#     4  10  21  35  50  72 102 137 182 230 277 328
#     4  10  20  37  58  80 113 151 188 233 282 333
#     4   9  18  33  52  75 101 135 180 226 271 324
#     4  10  22  37  53  75 108 147 186 232 285 334
#     4   9  20  36  56  84 113 143 184 228 275 327
#     4  10  20  35  58  85 111 143 185 227 272 329
#
# _framework density 18.538018000000001
#
# number of rings (size 3 to 8) (size 9 to 14) (size 15 to 20)
#    0.000    2.286    1.429    1.714    2.000    5.429 
#    0.000    0.714    0.000    0.000    0.000    0.000 
#    0.000    0.000    0.000    0.000    0.000    0.000 
#
# Total GULP energy -346987.048671 kJ/mol
# GULP energy per Si atom -12392.394595 kJ/mol
# Density = 1.849582 g / cm^3
# Si number density = 18.538018 Si / 1000 Ang^3
#
#
#
# Elastic Constant Matrix: (Units=GPa)
#
#
# Indices 1 2 3 4 5 6 
#
# 1 110.8049 48.1743 53.3517 0.0000 11.7109 0.0000
# 2 48.1743 69.2233 50.7297 0.0000 8.8295 0.0000
# 3 53.3517 50.7297 104.5031 0.0000 13.3637 0.0000
# 4 0.0000 0.0000 0.0000 25.5853 0.0000 -4.5446
# 5 11.7109 8.8295 13.3637 0.0000 26.8069 0.0000
# 6 0.0000 0.0000 0.0000 -4.5446 0.0000 6.1780
#
#
#
# Elastic Compliance Matrix: (Units=1/GPa)
#
#
# Indices 1 2 3 4 5 6 
#
# 1 0.013911 -0.006839 -0.003517 0.000000 -0.002071 0.000000
# 2 -0.006839 0.025896 -0.008941 0.000000 -0.001085 0.000000
# 3 -0.003517 -0.008941 0.016162 0.000000 -0.003576 0.000000
# 4 0.000000 0.000000 0.000000 0.044960 0.000000 0.033073
# 5 -0.002071 -0.001085 -0.003576 0.000000 0.040349 0.000000
# 6 0.000000 0.000000 0.000000 0.033073 0.000000 0.186195
#
#
# Mechanical properties :
#
#
# Convention : Reuss Voigt Hill
#
# Bulk Modulus (GPa) = 57.55353 65.44920 61.50136
# Shear Modulus (GPa) = 13.44603 20.53240 16.98922
#
# Velocity S-wave (km/s) = 2.69610 3.33165 3.03058
# Velocity P-wave (km/s) = 6.38792 7.08392 6.74490
#
# Compressibility (1/GPa) = 0.01737513
#
# Stress axis : x y z
#
# Youngs Moduli (GPa) = 71.88763 38.61604 61.87402
#
# Poissons Ratio (x) = 0.26411 0.21760
# Poissons Ratio (y) = 0.49166 0.55319
# Poissons Ratio (z) = 0.25282 0.34525
#
# Static dielectric constant tensor:
#      x y z
#    x 3.702530 0.000000 0.027470 
#    y 0.000000 3.463440 0.000000 
#    z 0.027470 0.000000 3.345300 
# 
# 
# High freq. dielectric constant tensor:
#      x y z
#    x 1.725500 0.000000 0.009330 
#    y 0.000000 1.716390 0.000000 
#    z 0.009330 0.000000 1.706380 
# 
# From -- ./inp_files/342337.got.cif
#   From: 2010.06.25/outbox.cif.g09.slc.cpg/sg12_172_cif.got.tgz:342337.got - 2010.06.28 00:19:55.
