data_PCOD8100677
_publ_section_title
;
Structure prediction by ZEFSAII (Michael W. Deem and Ramdas Pophale) SiO2 
 PCOD8100677
Probable space group: C 2/M
;
_chemical_formula_sum "Si O2"
_cell_formula_units_Z 32
_cell_length_a 21.290582
_cell_length_b 7.546275
_cell_length_c 27.047940
_cell_angle_alpha 90.000000
_cell_angle_beta 157.165450
_cell_angle_gamma 90.000000
_cell_volume 1686.421009
_symmetry_space_group_name_H-M "C 2/M"
_symmetry_group_IT_number 12
_symmetry_cell_setting 'monoclinic'
loop_
_space_group_symop_operation_xyz
x,y,z
-x,y,-z
-x,-y,-z
x,-y,z
1/2+x,1/2+y,z
1/2-x,1/2+y,-z
1/2-x,1/2-y,-z
1/2+x,1/2-y,z
loop_
_atom_site_type_symbol
_atom_site_label
_atom_site_fract_x
_atom_site_fract_y
_atom_site_fract_z
Si Si1 0.629614 0.207034 0.848741
Si Si2 0.574724 0.206189 0.393454
Si Si3 0.471953 0.500000 0.560766
Si Si4 0.014029 0.198272 0.867538
Si Si5 0.765863 0.500000 0.701353
O O1 0.556442 0.260008 0.743003
O O2 0.529955 0.303933 0.819614
O O3 0.611203 0.000000 0.846352
O O4 0.817253 0.264476 0.985962
O O5 0.750000 0.250000 0.500000
O O6 0.538472 0.321599 0.415113
O O7 0.561006 0.000000 0.397860
O O8 0.641320 0.500000 0.655756
O O9 0.321485 0.500000 0.414658
O O10 0.873166 0.324694 0.784383
O O11 0.971047 0.000000 0.854112
#
# Coordination Sequence:
#
# PCOD8100677 Si02
#       5
#     8   8   4   8   4
#     4   9  19  35  57  91 121 144 193 244 287 340
#     4  11  22  38  60  88 119 149 188 244 294 341
#     4  11  26  41  59  85 115 160 196 234 297 354
#     4  10  20  35  61  87 115 156 191 237 291 339
#     4  11  24  43  57  81 123 153 198 243 282 355
#
# _framework density 18.975096000000001
#
# number of rings (size 3 to 8) (size 9 to 14) (size 15 to 20)
#    0.000    1.750    2.500    1.500    3.500    4.000 
#    0.000    5.000    0.000    4.500    0.000    0.000 
#    0.000    0.000    0.000    0.000    0.000    0.000 
#
# Total GULP energy -198457.460276 kJ/mol
# GULP energy per Si atom -12403.591267 kJ/mol
# Density = 1.893191 g / cm^3
# Si number density = 18.975096 Si / 1000 Ang^3
#
#
#
# Elastic Constant Matrix: (Units=GPa)
#
#
# Indices 1 2 3 4 5 6 
#
# 1 102.3848 56.3792 71.1226 -0.0034 -5.3529 -0.0013
# 2 56.3792 110.5015 54.7414 -0.0022 6.7278 0.0009
# 3 71.1226 54.7414 122.8777 -0.0026 4.6729 0.0045
# 4 -0.0034 -0.0022 -0.0026 32.1208 0.0009 1.2770
# 5 -5.3529 6.7278 4.6729 0.0009 27.0563 0.0015
# 6 -0.0013 0.0009 0.0045 1.2770 0.0015 23.4309
#
#
#
# Elastic Compliance Matrix: (Units=1/GPa)
#
#
# Indices 1 2 3 4 5 6 
#
# 1 0.019675 -0.006016 -0.008972 0.000001 0.006938 0.000003
# 2 -0.006016 0.013562 -0.002401 0.000000 -0.004148 0.000000
# 3 -0.008972 -0.002401 0.014541 0.000000 -0.003689 -0.000003
# 4 0.000001 0.000000 0.000000 0.031200 -0.000001 -0.001700
# 5 0.006938 -0.004148 -0.003689 -0.000001 0.040001 -0.000001
# 6 0.000003 0.000000 -0.000003 -0.001700 -0.000001 0.042771
#
#
# Mechanical properties :
#
#
# Convention : Reuss Voigt Hill
#
# Bulk Modulus (GPa) = 76.93116 77.80559 77.36837
# Shear Modulus (GPa) = 24.89267 26.75634 25.82450
#
# Velocity S-wave (km/s) = 3.62589 3.75917 3.69313
# Velocity P-wave (km/s) = 7.62632 7.74176 7.68426
#
# Compressibility (1/GPa) = 0.01299863
#
# Stress axis : x y z
#
# Youngs Moduli (GPa) = 50.82574 73.73810 68.77016
#
# Poissons Ratio (x) = 0.44364 0.61698
# Poissons Ratio (y) = 0.30579 0.16515
# Poissons Ratio (z) = 0.45599 0.17708
#
# Static dielectric constant tensor:
#      x y z
#    x 3.209160 0.000010 -0.122790 
#    y 0.000010 4.150840 0.000020 
#    z -0.122790 0.000020 3.841390 
# 
# 
# High freq. dielectric constant tensor:
#      x y z
#    x 1.707560 0.000000 -0.008060 
#    y 0.000000 1.751750 0.000000 
#    z -0.008060 0.000000 1.752780 
# 
# From -- ./inp_files/92323.got.cif
#   From: 2010.06.25/outbox.cif.g09.slc.cpg/sg12_47_cif.got.tgz:92323.got - 2010.06.28 00:19:55.
