data_PCOD8100657
_publ_section_title
;
Structure prediction by ZEFSAII (Michael W. Deem and Ramdas Pophale) SiO2 
 PCOD8100657
Probable space group: C 2/M
;
_chemical_formula_sum "Si O2"
_cell_formula_units_Z 56
_cell_length_a 18.869304
_cell_length_b 21.816495
_cell_length_c 8.517759
_cell_angle_alpha 90.000000
_cell_angle_beta 130.267439
_cell_angle_gamma 90.000000
_cell_volume 2675.537908
_symmetry_space_group_name_H-M "C 2/M"
_symmetry_group_IT_number 12
_symmetry_cell_setting 'monoclinic'
loop_
_space_group_symop_operation_xyz
x,y,z
-x,y,-z
-x,-y,-z
x,-y,z
1/2+x,1/2+y,z
1/2-x,1/2+y,-z
1/2-x,1/2-y,-z
1/2+x,1/2-y,z
loop_
_atom_site_type_symbol
_atom_site_label
_atom_site_fract_x
_atom_site_fract_y
_atom_site_fract_z
Si Si1 0.899375 0.071010 0.914382
Si Si2 0.666971 0.929831 0.033615
Si Si3 0.600454 0.300882 0.578996
Si Si4 0.030089 0.569063 0.364246
Si Si5 0.707554 0.349460 0.005558
Si Si6 0.666455 0.818961 0.539814
Si Si7 0.780929 0.878461 0.469496
O O1 0.873567 0.109174 0.033093
O O2 0.822270 0.080562 0.668622
O O3 0.902584 0.000000 0.965764
O O4 0.000000 0.093794 0.000000
O O5 0.707377 0.917771 0.264353
O O6 0.680751 0.000000 0.006648
O O7 0.557346 0.913402 0.872072
O O8 0.719052 0.892013 0.976112
O O9 0.500000 0.315990 0.500000
O O10 0.599122 0.238974 0.471126
O O11 0.634482 0.356226 0.517822
O O12 0.665913 0.299082 0.826582
O O13 0.065494 0.500000 0.375925
O O14 0.111926 0.617014 0.454558
O O15 0.000000 0.573182 0.500000
O O16 0.760803 0.312716 0.215262
O O17 0.725785 0.819201 0.462598
#
# Coordination Sequence:
#
# PCOD8100657 Si02
#       7
#     8   8   8   8   8   8   8
#     4  10  20  36  60  88 121 158 201 246 301 360
#     4  10  20  36  59  89 125 157 193 241 301 361
#     4  11  23  40  62  83 114 156 202 255 298 350
#     4  10  20  35  60  92 123 156 198 250 297 359
#     4  10  21  36  59  86 115 153 203 246 297 351
#     4  11  22  39  61  84 119 155 203 245 302 361
#     4  10  23  39  58  87 125 155 198 248 305 357
#
# _framework density 20.930371999999998
#
# number of rings (size 3 to 8) (size 9 to 14) (size 15 to 20)
#    0.000    1.714    1.429    3.000    0.000    3.429 
#    0.000    1.429    9.429    6.857    0.000    0.000 
#    0.000    0.000    0.000    0.000    0.000    0.000 
#
# Total GULP energy -347160.836418 kJ/mol
# GULP energy per Si atom -12398.601301 kJ/mol
# Density = 2.088273 g / cm^3
# Si number density = 20.930372 Si / 1000 Ang^3
#
#
#
# Elastic Constant Matrix: (Units=GPa)
#
#
# Indices 1 2 3 4 5 6 
#
# 1 85.8223 13.1827 12.6981 0.0000 6.0301 0.0000
# 2 13.1827 55.5947 7.9005 0.0000 11.7240 0.0000
# 3 12.6981 7.9005 76.2388 0.0000 7.8569 0.0000
# 4 0.0000 0.0000 0.0000 12.5119 0.0000 0.2974
# 5 6.0301 11.7240 7.8569 0.0000 28.1916 0.0000
# 6 0.0000 0.0000 0.0000 0.2974 0.0000 18.1259
#
#
#
# Elastic Compliance Matrix: (Units=1/GPa)
#
#
# Indices 1 2 3 4 5 6 
#
# 1 0.012359 -0.002447 -0.001686 0.000000 -0.001156 0.000000
# 2 -0.002447 0.020314 -0.000907 0.000000 -0.007672 0.000000
# 3 -0.001686 -0.000907 0.013812 0.000000 -0.003112 0.000000
# 4 0.000000 0.000000 0.000000 0.079955 0.000000 -0.001312
# 5 -0.001156 -0.007672 -0.003112 0.000000 0.039777 0.000000
# 6 0.000000 0.000000 0.000000 -0.001312 0.000000 0.055191
#
#
# Mechanical properties :
#
#
# Convention : Reuss Voigt Hill
#
# Bulk Modulus (GPa) = 27.46836 31.69092 29.57964
# Shear Modulus (GPa) = 20.52357 24.02417 22.27387
#
# Velocity S-wave (km/s) = 3.13479 3.39162 3.26573
# Velocity P-wave (km/s) = 5.12394 5.52371 5.32758
#
# Compressibility (1/GPa) = 0.03640552
#
# Stress axis : x y z
#
# Youngs Moduli (GPa) = 80.91590 49.22624 72.40023
#
# Poissons Ratio (x) = 0.12046 0.12204
# Poissons Ratio (y) = 0.19801 0.06566
# Poissons Ratio (z) = 0.13640 0.04464
#
# Static dielectric constant tensor:
#      x y z
#    x 3.883770 0.000000 -0.012740 
#    y 0.000000 3.562600 0.000000 
#    z -0.012740 0.000000 3.976880 
# 
# 
# High freq. dielectric constant tensor:
#      x y z
#    x 1.829350 0.000000 -0.000430 
#    y 0.000000 1.807720 0.000000 
#    z -0.000430 0.000000 1.822310 
# 
# From -- ./inp_files/79169.got.cif
#   From: 2010.06.25/outbox.cif.g09.slc.cpg/sg12_40_cif.got.tgz:79169.got - 2010.06.28 00:19:55.
