data_PCOD8100482
_publ_section_title
;
Structure prediction by ZEFSAII (Michael W. Deem and Ramdas Pophale) SiO2 
 PCOD8100482
Probable space group: C 2/M
;
_chemical_formula_sum "Si O2"
_cell_formula_units_Z 64
_cell_length_a 24.412386
_cell_length_b 8.858426
_cell_length_c 15.185748
_cell_angle_alpha 90.000000
_cell_angle_beta 74.868317
_cell_angle_gamma 90.000000
_cell_volume 3170.137328
_symmetry_space_group_name_H-M "C 2/M"
_symmetry_group_IT_number 12
_symmetry_cell_setting 'monoclinic'
loop_
_space_group_symop_operation_xyz
x,y,z
-x,y,-z
-x,-y,-z
x,-y,z
1/2+x,1/2+y,z
1/2-x,1/2+y,-z
1/2-x,1/2-y,-z
1/2+x,1/2-y,z
loop_
_atom_site_type_symbol
_atom_site_label
_atom_site_fract_x
_atom_site_fract_y
_atom_site_fract_z
Si Si1 0.596635 0.673647 0.573063
Si Si2 0.610642 0.176565 0.066164
Si Si3 0.129698 0.173221 0.372846
Si Si4 0.191379 0.324150 0.193081
Si Si5 0.121079 0.827455 0.758469
Si Si6 0.309590 0.822895 0.124820
Si Si7 0.981815 0.676866 0.642828
Si Si8 0.992350 0.174516 0.822149
O O1 0.575473 0.500000 0.589866
O O2 0.641045 0.692497 0.473535
O O3 0.625157 0.719867 0.653857
O O4 0.542401 0.778754 0.576706
O O5 0.641348 0.214003 0.145720
O O6 0.551578 0.269836 0.084504
O O7 0.597565 0.000000 0.061966
O O8 0.649694 0.234920 0.970174
O O9 0.174837 0.266963 0.297337
O O10 0.066059 0.229375 0.386306
O O11 0.135136 0.000000 0.341488
O O12 0.202808 0.500000 0.194095
O O13 0.248427 0.248312 0.134994
O O14 0.164619 0.722517 0.791998
O O15 0.057575 0.802631 0.823615
O O16 0.140072 0.000000 0.763366
O O17 0.301908 0.000000 0.124195
O O18 0.970380 0.500000 0.635068
O O19 0.979576 0.717359 0.745976
O O20 0.981391 0.000000 0.802421
#
# Coordination Sequence:
#
# PCOD8100482 Si02
#       8
#     8   8   8   8   8   8   8   8
#     4   9  20  37  57  82 115 154 194 236 285 339
#     4  10  22  39  60  88 120 149 187 238 295 350
#     4  11  21  35  57  85 116 151 192 237 286 344
#     4  11  23  40  61  86 117 152 191 240 292 345
#     4   9  20  40  60  83 116 154 197 240 283 336
#     4  11  24  41  61  85 113 153 197 240 291 346
#     4  11  20  31  51  83 122 156 189 231 285 344
#     4  10  20  35  59  87 118 156 193 235 289 343
#
# _framework density 20.188400999999999
#
# number of rings (size 3 to 8) (size 9 to 14) (size 15 to 20)
#    0.000    1.750    1.250    4.125    0.000    7.000 
#    0.000    3.125    0.000    0.000    0.000    0.000 
#    0.000    0.000    0.000    0.000    0.000    0.000 
#
# Total GULP energy -396841.190141 kJ/mol
# GULP energy per Si atom -12401.287192 kJ/mol
# Density = 2.014245 g / cm^3
# Si number density = 20.188401 Si / 1000 Ang^3
#
#
#
# Elastic Constant Matrix: (Units=GPa)
#
#
# Indices 1 2 3 4 5 6 
#
# 1 35.4424 14.7206 3.1377 0.0000 0.4943 0.0000
# 2 14.7206 57.6680 16.9193 0.0000 -1.1885 0.0000
# 3 3.1377 16.9193 82.7695 0.0000 -9.1914 0.0000
# 4 0.0000 0.0000 0.0000 30.4539 0.0000 -5.0841
# 5 0.4943 -1.1885 -9.1914 0.0000 14.2760 0.0000
# 6 0.0000 0.0000 0.0000 -5.0841 0.0000 33.4697
#
#
#
# Elastic Compliance Matrix: (Units=1/GPa)
#
#
# Indices 1 2 3 4 5 6 
#
# 1 0.031612 -0.008190 0.000300 0.000000 -0.001583 0.000000
# 2 -0.008190 0.020581 -0.003958 0.000000 -0.000551 0.000000
# 3 0.000300 -0.003958 0.013831 0.000000 0.008565 0.000000
# 4 0.000000 0.000000 0.000000 0.033691 0.000000 0.005118
# 5 -0.001583 -0.000551 0.008565 0.000000 0.075571 0.000000
# 6 0.000000 0.000000 0.000000 0.005118 0.000000 0.030655
#
#
# Mechanical properties :
#
#
# Convention : Reuss Voigt Hill
#
# Bulk Modulus (GPa) = 23.62513 27.27058 25.44785
# Shear Modulus (GPa) = 20.51318 25.04673 22.77996
#
# Velocity S-wave (km/s) = 3.19107 3.52611 3.36276
# Velocity P-wave (km/s) = 5.03041 5.48774 5.26404
#
# Compressibility (1/GPa) = 0.04232781
#
# Stress axis : x y z
#
# Youngs Moduli (GPa) = 31.63355 48.58829 72.30395
#
# Poissons Ratio (x) = 0.39794 -0.02169
# Poissons Ratio (y) = 0.25908 0.28617
# Poissons Ratio (z) = -0.00949 0.19230
#
# Static dielectric constant tensor:
#      x y z
#    x 3.429610 0.000000 -0.081720 
#    y 0.000000 3.597940 0.000000 
#    z -0.081720 0.000000 3.837750 
# 
# 
# High freq. dielectric constant tensor:
#      x y z
#    x 1.764660 0.000000 -0.006790 
#    y 0.000000 1.790280 0.000000 
#    z -0.006790 0.000000 1.797420 
# 
# From -- ./inp_files/243885.got.cif
#   From: 2010.06.25/outbox.cif.g09.slc.cpg/sg12_122_cif.got.tgz:243885.got - 2010.06.28 00:19:55.
