data_PCOD8100661
_publ_section_title
;
Structure prediction by ZEFSAII (Michael W. Deem and Ramdas Pophale) SiO2 
 PCOD8100661
Probable space group: C 2/M
;
_chemical_formula_sum "Si O2"
_cell_formula_units_Z 56
_cell_length_a 24.643964
_cell_length_b 13.309727
_cell_length_c 9.468610
_cell_angle_alpha 90.000000
_cell_angle_beta 62.159795
_cell_angle_gamma 90.000000
_cell_volume 2746.266786
_symmetry_space_group_name_H-M "C 2/M"
_symmetry_group_IT_number 12
_symmetry_cell_setting 'monoclinic'
loop_
_space_group_symop_operation_xyz
x,y,z
-x,y,-z
-x,-y,-z
x,-y,z
1/2+x,1/2+y,z
1/2-x,1/2+y,-z
1/2-x,1/2-y,-z
1/2+x,1/2-y,z
loop_
_atom_site_type_symbol
_atom_site_label
_atom_site_fract_x
_atom_site_fract_y
_atom_site_fract_z
Si Si1 0.057904 0.717454 0.334169
Si Si2 0.836574 0.312415 0.266022
Si Si3 0.710673 0.614189 0.765543
Si Si4 0.353677 0.388461 0.869145
Si Si5 0.553116 0.881704 0.043966
Si Si6 0.845019 0.681478 0.563694
Si Si7 0.793409 0.110226 0.659118
O O1 0.089414 0.818162 0.239288
O O2 0.038047 0.651231 0.222969
O O3 0.103613 0.655239 0.382263
O O4 0.000000 0.747463 0.500000
O O5 0.816887 0.194692 0.311589
O O6 0.862566 0.355329 0.383869
O O7 0.776762 0.375474 0.298646
O O8 0.885719 0.326133 0.082805
O O9 0.695362 0.500000 0.738067
O O10 0.783505 0.627468 0.691536
O O11 0.679399 0.646221 0.949020
O O12 0.381632 0.500000 0.851545
O O13 0.299007 0.386778 0.821763
O O14 0.563673 0.000000 0.027955
O O15 0.500000 0.848995 0.000000
O O16 0.837480 0.801487 0.551557
O O17 0.814781 0.000000 0.576167
#
# Coordination Sequence:
#
# PCOD8100661 Si02
#       7
#     8   8   8   8   8   8   8
#     4  11  23  42  64  85 117 160 202 250 295 344
#     4  11  21  37  58  88 122 159 197 239 292 356
#     4  10  20  35  60  92 127 157 191 243 298 352
#     4   9  19  36  60  93 123 153 195 244 298 356
#     4  11  25  43  63  84 113 155 201 247 294 347
#     4  10  23  35  57  91 123 156 198 242 295 349
#     4   9  18  32  55  85 121 157 194 236 291 352
#
# _framework density 20.391317999999998
#
# number of rings (size 3 to 8) (size 9 to 14) (size 15 to 20)
#    0.000    1.857    1.429    3.000    2.000    5.714 
#    0.000    0.000    0.000    3.429    0.000    0.000 
#    0.000    0.000    0.000    0.000    0.000    0.000 
#
# Total GULP energy -347037.712313 kJ/mol
# GULP energy per Si atom -12394.204011 kJ/mol
# Density = 2.034491 g / cm^3
# Si number density = 20.391318 Si / 1000 Ang^3
#
#
#
# Elastic Constant Matrix: (Units=GPa)
#
#
# Indices 1 2 3 4 5 6 
#
# 1 102.7807 23.0632 47.7148 0.0000 23.0155 0.0000
# 2 23.0632 87.7567 16.4715 0.0000 3.0702 0.0000
# 3 47.7148 16.4715 120.2833 0.0000 3.3257 0.0000
# 4 0.0000 0.0000 0.0000 13.9607 0.0000 2.0480
# 5 23.0155 3.0702 3.3257 0.0000 30.9572 0.0000
# 6 0.0000 0.0000 0.0000 2.0480 0.0000 19.8156
#
#
#
# Elastic Compliance Matrix: (Units=1/GPa)
#
#
# Indices 1 2 3 4 5 6 
#
# 1 0.015135 -0.002607 -0.005359 0.000000 -0.010418 0.000000
# 2 -0.002607 0.012175 -0.000655 0.000000 0.000801 0.000000
# 3 -0.005359 -0.000655 0.010448 0.000000 0.002927 0.000000
# 4 0.000000 0.000000 0.000000 0.072732 0.000000 -0.007517
# 5 -0.010418 0.000801 0.002927 0.000000 0.039654 0.000000
# 6 0.000000 0.000000 0.000000 -0.007517 0.000000 0.051242
#
#
# Mechanical properties :
#
#
# Convention : Reuss Voigt Hill
#
# Bulk Modulus (GPa) = 48.74203 53.92439 51.33321
# Shear Modulus (GPa) = 22.17599 27.85145 25.01372
#
# Velocity S-wave (km/s) = 3.30134 3.69975 3.50621
# Velocity P-wave (km/s) = 6.20379 6.68977 6.45136
#
# Compressibility (1/GPa) = 0.02051617
#
# Stress axis : x y z
#
# Youngs Moduli (GPa) = 66.07104 82.13343 95.70955
#
# Poissons Ratio (x) = 0.21415 0.51289
# Poissons Ratio (y) = 0.17227 0.06270
# Poissons Ratio (z) = 0.35406 0.05381
#
# Static dielectric constant tensor:
#      x y z
#    x 3.660800 0.000000 0.239080 
#    y 0.000000 3.750270 0.000000 
#    z 0.239080 0.000000 3.733510 
# 
# 
# High freq. dielectric constant tensor:
#      x y z
#    x 1.783650 0.000000 0.020460 
#    y 0.000000 1.796340 0.000000 
#    z 0.020460 0.000000 1.804470 
# 
# From -- ./inp_files/96482.got.cif
#   From: 2010.06.25/outbox.cif.g09.slc.cpg/sg12_49_cif.got.tgz:96482.got - 2010.06.28 00:19:55.
