data_PCOD8100407
_publ_section_title
;
Structure prediction by ZEFSAII (Michael W. Deem and Ramdas Pophale) SiO2 
 PCOD8100407
Probable space group: C 2/M
;
_chemical_formula_sum "Si O2"
_cell_formula_units_Z 48
_cell_length_a 29.917385
_cell_length_b 13.287896
_cell_length_c 11.877132
_cell_angle_alpha 90.000000
_cell_angle_beta 29.421408
_cell_angle_gamma 90.000000
_cell_volume 2319.399950
_symmetry_space_group_name_H-M "C 2/M"
_symmetry_group_IT_number 12
_symmetry_cell_setting 'monoclinic'
loop_
_space_group_symop_operation_xyz
x,y,z
-x,y,-z
-x,-y,-z
x,-y,z
1/2+x,1/2+y,z
1/2-x,1/2+y,-z
1/2-x,1/2-y,-z
1/2+x,1/2-y,z
loop_
_atom_site_type_symbol
_atom_site_label
_atom_site_fract_x
_atom_site_fract_y
_atom_site_fract_z
Si Si1 0.478586 0.722790 0.848376
Si Si2 0.053436 0.614288 0.270592
Si Si3 0.282975 0.232349 0.052367
Si Si4 0.560168 0.613636 0.266462
Si Si5 0.696123 0.380277 0.664393
Si Si6 0.170632 0.760183 0.513509
O O1 0.469951 0.821748 0.789175
O O2 0.497404 0.628638 0.722209
O O3 0.560644 0.741117 0.755496
O O4 0.387052 0.692543 0.115678
O O5 0.031097 0.500000 0.289513
O O6 0.000000 0.649437 0.500000
O O7 0.160039 0.628874 0.065984
O O8 0.198853 0.225805 0.321834
O O9 0.250000 0.250000 0.000000
O O10 0.347442 0.323978 0.949528
O O11 0.500000 0.655778 0.500000
O O12 0.588801 0.500000 0.224425
O O13 0.680110 0.500000 0.719260
O O14 0.787488 0.344156 0.528787
O O15 0.706489 0.355167 0.508829
#
# Coordination Sequence:
#
# PCOD8100407 Si02
#       6
#     8   8   8   8   8   8
#     4  11  21  41  66  91 129 169 219 269 326 382
#     4  10  21  38  59  89 131 175 213 259 326 396
#     4  11  21  38  61  91 130 166 210 268 323 383
#     4  10  20  35  58  91 130 168 211 264 323 386
#     4  11  25  46  68  95 133 175 221 274 328 392
#     4  11  24  41  66  99 127 170 218 270 326 389
#
# _framework density 20.695007
#
# number of rings (size 3 to 8) (size 9 to 14) (size 15 to 20)
#    0.000    1.333    3.333    5.000    0.000    4.000 
#    0.000    0.000    0.000    3.000    0.000    0.000 
#    0.000    0.000    0.000    0.000    0.000    0.000 
#
# Total GULP energy -297412.825381 kJ/mol
# GULP energy per Si atom -12392.201058 kJ/mol
# Density = 2.064790 g / cm^3
# Si number density = 20.695007 Si / 1000 Ang^3
#
#
#
# Elastic Constant Matrix: (Units=GPa)
#
#
# Indices 1 2 3 4 5 6 
#
# 1 130.1435 27.3771 33.7023 0.0000 -6.8137 0.0000
# 2 27.3771 120.9224 32.8486 0.0000 -1.8686 0.0000
# 3 33.7023 32.8486 80.3158 0.0000 -2.2752 0.0000
# 4 0.0000 0.0000 0.0000 23.3011 0.0000 3.8259
# 5 -6.8137 -1.8686 -2.2752 0.0000 42.9324 0.0000
# 6 0.0000 0.0000 0.0000 3.8259 0.0000 19.5456
#
#
#
# Elastic Compliance Matrix: (Units=1/GPa)
#
#
# Indices 1 2 3 4 5 6 
#
# 1 0.008810 -0.001104 -0.003212 0.000000 0.001180 0.000000
# 2 -0.001104 0.009443 -0.003398 0.000000 0.000056 0.000000
# 3 -0.003212 -0.003398 0.015192 0.000000 0.000147 0.000000
# 4 0.000000 0.000000 0.000000 0.044342 0.000000 -0.008680
# 5 0.001180 0.000056 0.000147 0.000000 0.023490 0.000000
# 6 0.000000 0.000000 0.000000 -0.008680 0.000000 0.052861
#
#
# Mechanical properties :
#
#
# Convention : Reuss Voigt Hill
#
# Bulk Modulus (GPa) = 55.49679 57.69305 56.59492
# Shear Modulus (GPa) = 28.47855 32.98608 30.73231
#
# Velocity S-wave (km/s) = 3.71362 3.99672 3.85776
# Velocity P-wave (km/s) = 6.72775 7.01688 6.87384
#
# Compressibility (1/GPa) = 0.01801906
#
# Stress axis : x y z
#
# Youngs Moduli (GPa) = 113.51349 105.89326 65.82259
#
# Poissons Ratio (x) = 0.11688 0.21141
# Poissons Ratio (y) = 0.12529 0.22364
# Poissons Ratio (z) = 0.36458 0.35978
#
# Static dielectric constant tensor:
#      x y z
#    x 4.091870 0.000000 0.088770 
#    y 0.000000 3.603340 0.000000 
#    z 0.088770 0.000000 3.861100 
# 
# 
# High freq. dielectric constant tensor:
#      x y z
#    x 1.816930 0.000000 0.014880 
#    y 0.000000 1.794610 0.000000 
#    z 0.014880 0.000000 1.815930 
# 
# From -- ./inp_files/189360.got.cif
#   From: 2010.06.25/outbox.cif.g09.slc.cpg/sg12_95_cif.got.tgz:189360.got - 2010.06.28 00:19:55.
