data_PCOD8100081
_publ_section_title
;
Structure prediction by ZEFSAII (Michael W. Deem and Ramdas Pophale) SiO2 
 PCOD8100081
Probable space group: C 2/M
;
_chemical_formula_sum "Si O2"
_cell_formula_units_Z 64
_cell_length_a 25.070448
_cell_length_b 8.926727
_cell_length_c 29.874448
_cell_angle_alpha 90.000000
_cell_angle_beta 28.701834
_cell_angle_gamma 90.000000
_cell_volume 3210.872306
_symmetry_space_group_name_H-M "C 2/M"
_symmetry_group_IT_number 12
_symmetry_cell_setting 'monoclinic'
loop_
_space_group_symop_operation_xyz
x,y,z
-x,y,-z
-x,-y,-z
x,-y,z
1/2+x,1/2+y,z
1/2-x,1/2+y,-z
1/2-x,1/2-y,-z
1/2+x,1/2-y,z
loop_
_atom_site_type_symbol
_atom_site_label
_atom_site_fract_x
_atom_site_fract_y
_atom_site_fract_z
Si Si1 0.674466 0.825363 0.759259
Si Si2 0.581596 0.678116 0.401041
Si Si3 0.741009 0.825602 0.124406
Si Si4 0.553596 0.826492 0.329219
Si Si5 0.862507 0.324232 0.402584
Si Si6 0.025566 0.325344 0.032668
Si Si7 0.063734 0.674241 0.749307
Si Si8 0.159355 0.823292 0.097639
O O1 0.794535 0.754591 0.682358
O O2 0.576559 0.759560 0.862832
O O3 0.651335 0.793699 0.724183
O O4 0.679962 0.000000 0.765685
O O5 0.500000 0.738323 0.500000
O O6 0.583435 0.500000 0.400202
O O7 0.536413 0.732190 0.386683
O O8 0.677097 0.799621 0.218349
O O9 0.669345 0.739833 0.140192
O O10 0.743899 0.000000 0.109556
O O11 0.864896 0.764077 0.034874
O O12 0.463248 0.769249 0.359767
O O13 0.535240 0.000000 0.354073
O O14 0.848697 0.500000 0.416393
O O15 0.750000 0.250000 0.500000
O O16 0.883086 0.275088 0.336467
O O17 0.046526 0.500000 0.027602
O O18 0.000000 0.296490 0.000000
O O19 0.027698 0.500000 0.774962
O O20 0.957928 0.776820 0.837001
O O21 0.173582 0.000000 0.087348
O O22 0.250000 0.750000 0.000000
#
# Coordination Sequence:
#
# PCOD8100081 Si02
#       8
#     8   8   8   8   8   8   8   8
#     4   9  19  36  58  85 118 155 193 242 300 352
#     4  10  22  39  63  92 117 151 204 252 292 353
#     4  11  22  39  61  86 119 156 202 251 302 359
#     4  10  22  41  61  86 122 159 194 245 308 361
#     4  10  22  39  61  88 119 157 201 248 306 362
#     4  10  20  35  57  86 121 159 201 247 302 362
#     4  10  20  39  62  84 121 162 198 248 305 358
#     4  12  24  38  59  88 122 159 202 245 298 362
#
# _framework density 19.932279000000001
#
# number of rings (size 3 to 8) (size 9 to 14) (size 15 to 20)
#    0.000    1.750    1.250    3.000    1.750    4.500 
#    0.000    1.250    0.000    0.000    0.000    0.000 
#    0.000    0.000    0.000    0.000    0.000    0.000 
#
# Total GULP energy -396891.723210 kJ/mol
# GULP energy per Si atom -12402.866350 kJ/mol
# Density = 1.988691 g / cm^3
# Si number density = 19.932279 Si / 1000 Ang^3
#
#
#
# Elastic Constant Matrix: (Units=GPa)
#
#
# Indices 1 2 3 4 5 6 
#
# 1 117.0026 28.7873 61.8989 0.0003 9.3150 -0.0029
# 2 28.7873 59.1802 32.7374 -0.0349 1.5725 0.0559
# 3 61.8989 32.7374 155.9207 0.0071 2.1502 -0.0055
# 4 0.0003 -0.0349 0.0071 28.3295 0.0021 -1.6275
# 5 9.3150 1.5725 2.1502 0.0021 37.8275 -0.0058
# 6 -0.0029 0.0559 -0.0055 -1.6275 -0.0058 30.2202
#
#
#
# Elastic Compliance Matrix: (Units=1/GPa)
#
#
# Indices 1 2 3 4 5 6 
#
# 1 0.011639 -0.003460 -0.003860 -0.000003 -0.002503 0.000006
# 2 -0.003460 0.020159 -0.002861 0.000023 0.000177 -0.000037
# 3 -0.003860 -0.002861 0.008539 -0.000005 0.000584 0.000006
# 4 -0.000003 0.000023 -0.000005 0.035408 -0.000002 0.001907
# 5 -0.002503 0.000177 0.000584 -0.000002 0.027012 0.000005
# 6 0.000006 -0.000037 0.000006 0.001907 0.000005 0.033193
#
#
# Mechanical properties :
#
#
# Convention : Reuss Voigt Hill
#
# Bulk Modulus (GPa) = 50.06443 64.32787 57.19615
# Shear Modulus (GPa) = 30.68038 33.18744 31.93391
#
# Velocity S-wave (km/s) = 3.92756 4.08488 4.00699
# Velocity P-wave (km/s) = 6.76309 7.38861 7.08276
#
# Compressibility (1/GPa) = 0.01997426
#
# Stress axis : x y z
#
# Youngs Moduli (GPa) = 85.91541 49.60587 117.11659
#
# Poissons Ratio (x) = 0.17165 0.45203
# Poissons Ratio (y) = 0.29728 0.33512
# Poissons Ratio (z) = 0.33161 0.14194
#
# Static dielectric constant tensor:
#      x y z
#    x 3.437550 0.000300 -0.048810 
#    y 0.000300 3.394680 0.000080 
#    z -0.048810 0.000080 3.794020 
# 
# 
# High freq. dielectric constant tensor:
#      x y z
#    x 1.788530 0.000000 0.002590 
#    y 0.000000 1.753220 0.000000 
#    z 0.002590 0.000000 1.790700 
# 
# From -- ./inp_files/382227.got.cif
#   From: 2010.06.25/outbox.cif.g09.slc.cpg/sg12_192_cif.got.tgz:382227.got - 2010.06.28 00:19:55.
