data_PCOD8100318
_publ_section_title
;
Structure prediction by ZEFSAII (Michael W. Deem and Ramdas Pophale) SiO2 
 PCOD8100318
Probable space group: C 2/M
;
_chemical_formula_sum "Si O2"
_cell_formula_units_Z 56
_cell_length_a 27.068134
_cell_length_b 14.241125
_cell_length_c 11.804605
_cell_angle_alpha 90.000000
_cell_angle_beta 140.958240
_cell_angle_gamma 90.000000
_cell_volume 2866.265901
_symmetry_space_group_name_H-M "C 2/M"
_symmetry_group_IT_number 12
_symmetry_cell_setting 'monoclinic'
loop_
_space_group_symop_operation_xyz
x,y,z
-x,y,-z
-x,-y,-z
x,-y,z
1/2+x,1/2+y,z
1/2-x,1/2+y,-z
1/2-x,1/2-y,-z
1/2+x,1/2-y,z
loop_
_atom_site_type_symbol
_atom_site_label
_atom_site_fract_x
_atom_site_fract_y
_atom_site_fract_z
Si Si1 0.697310 0.723975 0.513197
Si Si2 0.102898 0.892070 0.921014
Si Si3 0.835739 0.395637 0.170430
Si Si4 0.956250 0.892275 0.804672
Si Si5 0.410625 0.707319 0.328542
Si Si6 0.217879 0.889994 0.760024
Si Si7 0.733813 0.896609 0.711469
O O1 0.750000 0.750000 0.500000
O O2 0.616097 0.678775 0.328538
O O3 0.741028 0.652273 0.677998
O O4 0.681450 0.821889 0.550617
O O5 0.123624 0.831553 0.848834
O O6 0.019029 0.862158 0.821582
O O7 0.101366 0.000000 0.880493
O O8 0.172717 0.876855 0.137817
O O9 0.872554 0.500000 0.222508
O O10 0.904397 0.320432 0.312290
O O11 0.778639 0.391816 0.176058
O O12 0.786719 0.368630 0.971181
O O13 0.927550 0.000000 0.736193
O O14 0.000000 0.881544 0.000000
O O15 0.500000 0.676549 0.500000
O O16 0.361860 0.662997 0.345322
O O17 0.200638 0.000000 0.718751
O O18 0.711652 0.000000 0.625076
#
# Coordination Sequence:
#
# PCOD8100318 Si02
#       7
#     8   8   8   8   8   8   8
#     4  12  24  37  59  89 118 157 200 245 294 357
#     4  10  20  35  58  87 117 152 191 238 304 364
#     4  10  21  39  60  83 118 164 203 240 289 349
#     4  10  22  41  61  86 123 158 195 245 304 364
#     4  12  22  33  56  88 123 157 192 238 298 356
#     4  11  22  39  62  90 123 152 194 253 306 354
#     4  10  20  38  62  85 114 156 204 245 289 350
#
# _framework density 19.537616
#
# number of rings (size 3 to 8) (size 9 to 14) (size 15 to 20)
#    0.000    1.286    2.857    3.857    0.000    4.857 
#    0.000    0.000    0.000    0.429    0.000    0.000 
#    0.000    0.000    0.000    0.000    0.000    0.000 
#
# Total GULP energy -347164.165933 kJ/mol
# GULP energy per Si atom -12398.720212 kJ/mol
# Density = 1.949315 g / cm^3
# Si number density = 19.537616 Si / 1000 Ang^3
#
#
#
# Elastic Constant Matrix: (Units=GPa)
#
#
# Indices 1 2 3 4 5 6 
#
# 1 85.7065 41.1153 28.4117 0.0000 -6.7952 0.0000
# 2 41.1153 125.6629 41.4298 0.0000 2.6599 0.0000
# 3 28.4117 41.4298 65.2897 0.0000 -0.5560 0.0000
# 4 0.0000 0.0000 0.0000 36.3328 0.0000 -0.6360
# 5 -6.7952 2.6599 -0.5560 0.0000 27.3429 0.0000
# 6 0.0000 0.0000 0.0000 -0.6360 0.0000 29.9554
#
#
#
# Elastic Compliance Matrix: (Units=1/GPa)
#
#
# Indices 1 2 3 4 5 6 
#
# 1 0.015140 -0.003640 -0.004245 0.000000 0.004030 0.000000
# 2 -0.003640 0.010972 -0.005396 0.000000 -0.002082 0.000000
# 3 -0.004245 -0.005396 0.020587 0.000000 -0.000111 0.000000
# 4 0.000000 0.000000 0.000000 0.027534 0.000000 0.000585
# 5 0.004030 -0.002082 -0.000111 0.000000 0.037774 0.000000
# 6 0.000000 0.000000 0.000000 0.000585 0.000000 0.033395
#
#
# Mechanical properties :
#
#
# Convention : Reuss Voigt Hill
#
# Bulk Modulus (GPa) = 49.65730 55.39697 52.52713
# Shear Modulus (GPa) = 27.98371 29.77305 28.87838
#
# Velocity S-wave (km/s) = 3.78868 3.90793 3.84877
# Velocity P-wave (km/s) = 6.67909 6.98413 6.83331
#
# Compressibility (1/GPa) = 0.02013802
#
# Stress axis : x y z
#
# Youngs Moduli (GPa) = 66.04848 91.14347 48.57530
#
# Poissons Ratio (x) = 0.33173 0.20619
# Poissons Ratio (y) = 0.24039 0.26211
# Poissons Ratio (z) = 0.28036 0.49181
#
# Static dielectric constant tensor:
#      x y z
#    x 3.621820 0.000000 -0.114860 
#    y 0.000000 3.833890 0.000000 
#    z -0.114860 0.000000 3.380620 
# 
# 
# High freq. dielectric constant tensor:
#      x y z
#    x 1.751170 0.000000 -0.012270 
#    y 0.000000 1.769700 0.000000 
#    z -0.012270 0.000000 1.748750 
# 
# From -- ./inp_files/183532.got.cif
#   From: 2010.06.25/outbox.cif.g09.slc.cpg/sg12_92_cif.got.tgz:183532.got - 2010.06.28 00:19:55.
