data_PCOD8100615
_publ_section_title
;
Structure prediction by ZEFSAII (Michael W. Deem and Ramdas Pophale) SiO2 
 PCOD8100615
Probable space group: C 2/M
;
_chemical_formula_sum "Si O2"
_cell_formula_units_Z 56
_cell_length_a 30.680438
_cell_length_b 9.025799
_cell_length_c 23.235320
_cell_angle_alpha 90.000000
_cell_angle_beta 27.066643
_cell_angle_gamma 90.000000
_cell_volume 2927.740740
_symmetry_space_group_name_H-M "C 2/M"
_symmetry_group_IT_number 12
_symmetry_cell_setting 'monoclinic'
loop_
_space_group_symop_operation_xyz
x,y,z
-x,y,-z
-x,-y,-z
x,-y,z
1/2+x,1/2+y,z
1/2-x,1/2+y,-z
1/2-x,1/2-y,-z
1/2+x,1/2-y,z
loop_
_atom_site_type_symbol
_atom_site_label
_atom_site_fract_x
_atom_site_fract_y
_atom_site_fract_z
Si Si1 0.564025 0.326243 0.821637
Si Si2 0.770675 0.172467 0.282321
Si Si3 0.371968 0.825409 0.063121
Si Si4 0.609311 0.326937 0.193292
Si Si5 0.310903 0.172489 0.007405
Si Si6 0.148236 0.673620 0.616008
Si Si7 0.078273 0.671138 0.571047
O O1 0.551492 0.500000 0.825334
O O2 0.655020 0.292407 0.754232
O O3 0.576041 0.242469 0.747160
O O4 0.469757 0.261022 0.963019
O O5 0.792060 0.272956 0.202076
O O6 0.665502 0.218678 0.427424
O O7 0.776002 0.000000 0.259159
O O8 0.335206 0.779602 0.043388
O O9 0.388962 0.000000 0.048773
O O10 0.597119 0.500000 0.200031
O O11 0.700617 0.285364 0.125004
O O12 0.515900 0.263260 0.335212
O O13 0.619419 0.257940 0.117920
O O14 0.330001 0.000000 0.974744
O O15 0.160723 0.500000 0.612854
O O16 0.250000 0.750000 0.500000
O O17 0.104695 0.706579 0.605355
O O18 0.054370 0.500000 0.590582
#
# Coordination Sequence:
#
# PCOD8100615 Si02
#       7
#     8   8   8   8   8   8   8
#     4  11  22  38  57  81 112 149 187 230 279 327
#     4  10  22  40  56  75 110 153 188 225 274 328
#     4  11  23  38  57  82 109 145 188 232 278 326
#     4  10  20  35  60  89 110 139 182 225 273 331
#     4   9  20  39  58  81 116 145 173 224 284 330
#     4  11  21  35  55  81 113 147 182 224 273 325
#     4  10  21  38  56  79 114 151 181 220 280 329
#
# _framework density 19.127378
#
# number of rings (size 3 to 8) (size 9 to 14) (size 15 to 20)
#    0.000    1.714    1.429    3.000    0.000    9.714 
#    0.000    0.714    0.000    4.286    0.000    0.000 
#    0.000    0.000    0.000    0.000    0.000    0.000 
#
# Total GULP energy -347355.319638 kJ/mol
# GULP energy per Si atom -12405.547130 kJ/mol
# Density = 1.908384 g / cm^3
# Si number density = 19.127378 Si / 1000 Ang^3
#
#
#
# Elastic Constant Matrix: (Units=GPa)
#
#
# Indices 1 2 3 4 5 6 
#
# 1 44.5592 27.9011 31.9260 -0.0052 -5.8225 0.0006
# 2 27.9011 57.9556 35.8180 -0.0103 -6.1199 0.0021
# 3 31.9260 35.8180 126.6685 -0.0159 -11.1048 0.0028
# 4 -0.0052 -0.0103 -0.0159 42.4784 0.0019 -0.2992
# 5 -5.8225 -6.1199 -11.1048 0.0019 30.0311 -0.0012
# 6 0.0006 0.0021 0.0028 -0.2992 -0.0012 28.6820
#
#
#
# Elastic Compliance Matrix: (Units=1/GPa)
#
#
# Indices 1 2 3 4 5 6 
#
# 1 0.034547 -0.013495 -0.004697 -0.000001 0.002211 0.000001
# 2 -0.013495 0.026314 -0.003926 0.000003 0.001294 -0.000001
# 3 -0.004697 -0.003926 0.010375 0.000002 0.002126 -0.000001
# 4 -0.000001 0.000003 0.000002 0.023543 0.000000 0.000246
# 5 0.002211 0.001294 0.002126 0.000000 0.034777 0.000001
# 6 0.000001 -0.000001 -0.000001 0.000246 0.000001 0.034868
#
#
# Mechanical properties :
#
#
# Convention : Reuss Voigt Hill
#
# Bulk Modulus (GPa) = 37.03821 46.71930 41.87876
# Shear Modulus (GPa) = 22.97154 29.14087 26.05621
#
# Velocity S-wave (km/s) = 3.46927 3.90746 3.69487
# Velocity P-wave (km/s) = 5.95431 6.69597 6.33600
#
# Compressibility (1/GPa) = 0.02699914
#
# Stress axis : x y z
#
# Youngs Moduli (GPa) = 28.94648 38.00199 96.38420
#
# Poissons Ratio (x) = 0.51283 0.45276
# Poissons Ratio (y) = 0.39063 0.37842
# Poissons Ratio (z) = 0.13598 0.14920
#
# Static dielectric constant tensor:
#      x y z
#    x 3.383290 0.000000 -0.027900 
#    y 0.000000 3.491800 0.000030 
#    z -0.027900 0.000030 3.754740 
# 
# 
# High freq. dielectric constant tensor:
#      x y z
#    x 1.732570 0.000000 -0.006500 
#    y 0.000000 1.748290 0.000000 
#    z -0.006500 0.000000 1.754570 
# 
# From -- ./inp_files/237431.got.cif
#   From: 2010.06.25/outbox.cif.g09.slc.cpg/sg12_119_cif.got.tgz:237431.got - 2010.06.28 00:19:55.
