data_PCOD8100192
_publ_section_title
;
Structure prediction by ZEFSAII (Michael W. Deem and Ramdas Pophale) SiO2 
 PCOD8100192
Probable space group: C 2/M
;
_chemical_formula_sum "Si O2"
_cell_formula_units_Z 64
_cell_length_a 25.789261
_cell_length_b 9.136930
_cell_length_c 13.942649
_cell_angle_alpha 90.000000
_cell_angle_beta 87.115779
_cell_angle_gamma 90.000000
_cell_volume 3281.209794
_symmetry_space_group_name_H-M "C 2/M"
_symmetry_group_IT_number 12
_symmetry_cell_setting 'monoclinic'
loop_
_space_group_symop_operation_xyz
x,y,z
-x,y,-z
-x,-y,-z
x,-y,z
1/2+x,1/2+y,z
1/2-x,1/2+y,-z
1/2-x,1/2-y,-z
1/2+x,1/2-y,z
loop_
_atom_site_type_symbol
_atom_site_label
_atom_site_fract_x
_atom_site_fract_y
_atom_site_fract_z
Si Si1 0.277060 0.831542 0.910806
Si Si2 0.438497 0.668920 0.712111
Si Si3 0.259012 0.332985 0.294010
Si Si4 0.554265 0.830423 0.945494
Si Si5 0.151246 0.327460 0.393958
Si Si6 0.118644 0.168568 0.089173
Si Si7 0.957240 0.328121 0.273743
Si Si8 0.147733 0.328690 0.615319
O O1 0.241001 0.817678 0.820792
O O2 0.331608 0.757928 0.880837
O O3 0.286275 0.000000 0.937763
O O4 0.250000 0.750000 0.000000
O O5 0.441697 0.500000 0.682477
O O6 0.396010 0.744817 0.650279
O O7 0.424811 0.687700 0.825352
O O8 0.493714 0.743458 0.687761
O O9 0.266250 0.500000 0.325748
O O10 0.205081 0.272856 0.342627
O O11 0.306767 0.242382 0.328339
O O12 0.552334 0.784085 0.835292
O O13 0.569162 0.000000 0.956804
O O14 0.500000 0.794313 0.000000
O O15 0.598328 0.733019 0.991021
O O16 0.143161 0.500000 0.379084
O O17 0.152255 0.282538 0.504795
O O18 0.134062 0.000000 0.071980
O O19 0.968351 0.500000 0.282467
O O20 0.907733 0.276714 0.339422
O O21 0.153929 0.500000 0.628916
#
# Coordination Sequence:
#
# PCOD8100192 Si02
#       8
#     8   8   8   8   8   8   8   8
#     4  11  24  41  61  89 123 159 197 239 296 355
#     4  11  23  38  61  91 120 157 202 251 302 350
#     4  10  22  40  63  89 119 157 198 244 299 356
#     4  10  20  35  58  84 113 155 199 235 284 354
#     4  10  21  41  65  88 116 155 202 249 301 361
#     4  11  23  38  58  87 120 155 199 248 298 351
#     4  10  22  40  59  86 122 159 199 244 300 361
#     4  10  23  40  62  90 119 156 200 249 304 358
#
# _framework density 19.504999999999999
#
# number of rings (size 3 to 8) (size 9 to 14) (size 15 to 20)
#    0.000    1.625    2.500    1.500    1.750    4.750 
#    0.000    2.500    0.000    0.000    0.000    0.000 
#    0.000    0.000    0.000    0.000    0.000    0.000 
#
# Total GULP energy -396980.717926 kJ/mol
# GULP energy per Si atom -12405.647435 kJ/mol
# Density = 1.946061 g / cm^3
# Si number density = 19.505000 Si / 1000 Ang^3
#
#
#
# Elastic Constant Matrix: (Units=GPa)
#
#
# Indices 1 2 3 4 5 6 
#
# 1 140.5272 62.6201 52.6278 0.0000 4.4907 0.0000
# 2 62.6201 87.2531 43.1976 0.0000 8.2431 0.0000
# 3 52.6278 43.1976 94.2491 0.0000 -9.4544 0.0000
# 4 0.0000 0.0000 0.0000 27.8892 0.0000 7.3732
# 5 4.4907 8.2431 -9.4544 0.0000 33.2229 0.0000
# 6 0.0000 0.0000 0.0000 7.3732 0.0000 39.4812
#
#
#
# Elastic Compliance Matrix: (Units=1/GPa)
#
#
# Indices 1 2 3 4 5 6 
#
# 1 0.011243 -0.006235 -0.003518 0.000000 -0.000974 0.000000
# 2 -0.006235 0.019444 -0.006001 0.000000 -0.005689 0.000000
# 3 -0.003518 -0.006001 0.015978 0.000000 0.006511 0.000000
# 4 0.000000 0.000000 0.000000 0.037718 0.000000 -0.007044
# 5 -0.000974 -0.005689 0.006511 0.000000 0.033496 0.000000
# 6 0.000000 0.000000 0.000000 -0.007044 0.000000 0.026644
#
#
# Mechanical properties :
#
#
# Convention : Reuss Voigt Hill
#
# Bulk Modulus (GPa) = 65.97491 70.99116 68.48304
# Shear Modulus (GPa) = 27.61133 31.02425 29.31779
#
# Velocity S-wave (km/s) = 3.76653 3.99253 3.88118
# Velocity P-wave (km/s) = 7.26731 7.59797 7.43448
#
# Compressibility (1/GPa) = 0.01515728
#
# Stress axis : x y z
#
# Youngs Moduli (GPa) = 88.94280 51.42859 62.58551
#
# Poissons Ratio (x) = 0.32068 0.22017
# Poissons Ratio (y) = 0.55460 0.37557
# Poissons Ratio (z) = 0.31289 0.30862
#
# Static dielectric constant tensor:
#      x y z
#    x 3.566500 0.000000 -0.112300 
#    y 0.000000 3.526170 0.000000 
#    z -0.112300 0.000000 3.653710 
# 
# 
# High freq. dielectric constant tensor:
#      x y z
#    x 1.766290 0.000000 0.000960 
#    y 0.000000 1.757210 0.000000 
#    z 0.000960 0.000000 1.765910 
# 
# From -- ./inp_files/238711.got.cif
#   From: 2010.06.25/outbox.cif.g09.slc.cpg/sg12_120_cif.got.tgz:238711.got - 2010.06.28 00:19:55.
