data_PCOD8100389
_publ_section_title
;
Structure prediction by ZEFSAII (Michael W. Deem and Ramdas Pophale) SiO2 
 PCOD8100389
Probable space group: C 2/M
;
_chemical_formula_sum "Si O2"
_cell_formula_units_Z 48
_cell_length_a 24.402337
_cell_length_b 8.707690
_cell_length_c 11.230736
_cell_angle_alpha 90.000000
_cell_angle_beta 73.946402
_cell_angle_gamma 90.000000
_cell_volume 2293.335189
_symmetry_space_group_name_H-M "C 2/M"
_symmetry_group_IT_number 12
_symmetry_cell_setting 'monoclinic'
loop_
_space_group_symop_operation_xyz
x,y,z
-x,y,-z
-x,-y,-z
x,-y,z
1/2+x,1/2+y,z
1/2-x,1/2+y,-z
1/2-x,1/2-y,-z
1/2+x,1/2-y,z
loop_
_atom_site_type_symbol
_atom_site_label
_atom_site_fract_x
_atom_site_fract_y
_atom_site_fract_z
Si Si1 0.726711 0.819105 0.731198
Si Si2 0.558260 0.675673 0.925161
Si Si3 0.165918 0.322080 0.248472
Si Si4 0.831028 0.824118 0.007525
Si Si5 0.434846 0.822073 0.524458
Si Si6 0.125531 0.181684 0.662129
O O1 0.789992 0.746568 0.680560
O O2 0.703054 0.774423 0.875529
O O3 0.687729 0.755425 0.646783
O O4 0.731009 0.000000 0.716052
O O5 0.544101 0.500000 0.902435
O O6 0.601802 0.689945 0.008051
O O7 0.584302 0.750010 0.790122
O O8 0.500000 0.761095 0.000000
O O9 0.178586 0.500000 0.222312
O O10 0.100847 0.296418 0.332342
O O11 0.179003 0.236907 0.117902
O O12 0.810298 0.000000 0.029434
O O13 0.500000 0.763248 0.500000
O O14 0.402245 0.724087 0.445633
O O15 0.434645 0.000000 0.486423
O O16 0.133019 0.000000 0.669352
#
# Coordination Sequence:
#
# PCOD8100389 Si02
#       6
#     8   8   8   8   8   8
#     4  11  22  39  63  89 121 156 196 245 301 357
#     4   8  16  31  53  83 116 150 187 235 290 342
#     4  11  23  39  60  86 120 160 202 244 294 353
#     4  10  20  35  58  89 125 156 194 244 296 353
#     4  10  24  44  62  84 120 162 200 244 296 353
#     4  10  21  38  62  89 119 154 197 249 297 348
#
# _framework density 20.930216000000001
#
# number of rings (size 3 to 8) (size 9 to 14) (size 15 to 20)
#    0.000    2.000    0.000    4.500    2.333    2.333 
#    0.000    0.000    0.000    3.000    0.000    0.000 
#    0.000    0.000    0.000    0.000    0.000    0.000 
#
# Total GULP energy -297575.182435 kJ/mol
# GULP energy per Si atom -12398.965935 kJ/mol
# Density = 2.088258 g / cm^3
# Si number density = 20.930216 Si / 1000 Ang^3
#
#
#
# Elastic Constant Matrix: (Units=GPa)
#
#
# Indices 1 2 3 4 5 6 
#
# 1 118.4029 19.2297 27.9222 0.0000 -9.5201 0.0000
# 2 19.2297 56.0474 9.5196 0.0000 -4.7282 0.0000
# 3 27.9222 9.5196 44.2769 0.0000 8.0497 0.0000
# 4 0.0000 0.0000 0.0000 25.3661 0.0000 5.6615
# 5 -9.5201 -4.7282 8.0497 0.0000 34.5103 0.0000
# 6 0.0000 0.0000 0.0000 5.6615 0.0000 29.9232
#
#
#
# Elastic Compliance Matrix: (Units=1/GPa)
#
#
# Indices 1 2 3 4 5 6 
#
# 1 0.010833 -0.002131 -0.007168 0.000000 0.004369 0.000000
# 2 -0.002131 0.019381 -0.003341 0.000000 0.002847 0.000000
# 3 -0.007168 -0.003341 0.029518 0.000000 -0.009320 0.000000
# 4 0.000000 0.000000 0.000000 0.041161 0.000000 -0.007788
# 5 0.004369 0.002847 -0.009320 0.000000 0.032746 0.000000
# 6 0.000000 0.000000 0.000000 -0.007788 0.000000 0.034892
#
#
# Mechanical properties :
#
#
# Convention : Reuss Voigt Hill
#
# Bulk Modulus (GPa) = 29.02474 36.89668 32.96071
# Shear Modulus (GPa) = 24.35521 28.76362 26.55942
#
# Velocity S-wave (km/s) = 3.41492 3.71113 3.56610
# Velocity P-wave (km/s) = 5.42645 6.00250 5.72173
#
# Compressibility (1/GPa) = 0.03445337
#
# Stress axis : x y z
#
# Youngs Moduli (GPa) = 92.30676 51.59774 33.87744
#
# Poissons Ratio (x) = 0.10995 0.24283
# Poissons Ratio (y) = 0.19670 0.11317
# Poissons Ratio (z) = 0.66165 0.17237
#
# Static dielectric constant tensor:
#      x y z
#    x 4.121330 0.000000 -0.213120 
#    y 0.000000 3.579360 0.000000 
#    z -0.213120 0.000000 3.703780 
# 
# 
# High freq. dielectric constant tensor:
#      x y z
#    x 1.834960 0.000000 -0.006460 
#    y 0.000000 1.805530 0.000000 
#    z -0.006460 0.000000 1.811350 
# 
# From -- ./inp_files/172452.got.cif
#   From: 2010.06.25/outbox.cif.g09.slc.cpg/sg12_87_cif.got.tgz:172452.got - 2010.06.28 00:19:55.
