data_PCOD8100354
_publ_section_title
;
Structure prediction by ZEFSAII (Michael W. Deem and Ramdas Pophale) SiO2 
 PCOD8100354
Probable space group: C 2/M
;
_chemical_formula_sum "Si O2"
_cell_formula_units_Z 64
_cell_length_a 16.706064
_cell_length_b 16.390741
_cell_length_c 24.017403
_cell_angle_alpha 90.000000
_cell_angle_beta 150.210876
_cell_angle_gamma 90.000000
_cell_volume 3267.295622
_symmetry_space_group_name_H-M "C 2/M"
_symmetry_group_IT_number 12
_symmetry_cell_setting 'monoclinic'
loop_
_space_group_symop_operation_xyz
x,y,z
-x,y,-z
-x,-y,-z
x,-y,z
1/2+x,1/2+y,z
1/2-x,1/2+y,-z
1/2-x,1/2-y,-z
1/2+x,1/2-y,z
loop_
_atom_site_type_symbol
_atom_site_label
_atom_site_fract_x
_atom_site_fract_y
_atom_site_fract_z
Si Si1 0.624147 0.593393 0.723798
Si Si2 0.066353 0.178707 0.307139
Si Si3 0.436336 0.236511 0.121891
Si Si4 0.064911 0.672970 0.706272
Si Si5 0.040242 0.406982 0.254082
Si Si6 0.623670 0.227967 0.124311
Si Si7 0.912167 0.403392 0.505849
Si Si8 0.398195 0.596745 0.489222
O O1 0.668225 0.500000 0.739891
O O2 0.552376 0.607455 0.742029
O O3 0.787065 0.642444 0.810482
O O4 0.482849 0.624976 0.597069
O O5 0.244347 0.144134 0.406830
O O6 0.000039 0.202566 0.207132
O O7 0.052326 0.253951 0.342735
O O8 0.463823 0.143151 0.157262
O O9 0.530133 0.256391 0.122339
O O10 0.250000 0.250000 0.000000
O O11 0.247969 0.703093 0.813914
O O12 0.062318 0.601689 0.751130
O O13 0.018120 0.635824 0.618661
O O14 0.046482 0.500000 0.238225
O O15 0.217206 0.369857 0.375167
O O16 0.500000 0.215195 0.000000
O O17 0.886177 0.500000 0.500454
O O18 0.000000 0.387814 0.500000
O O19 0.500000 0.634322 0.500000
O O20 0.392450 0.500000 0.482546
#
# Coordination Sequence:
#
# PCOD8100354 Si02
#       8
#     8   8   8   8   8   8   8   8
#     4  10  20  35  58  88 119 148 181 227 284 341
#     4  10  21  38  58  82 115 152 188 226 280 340
#     4  11  23  41  61  82 112 149 190 234 280 335
#     4  10  21  38  59  82 113 150 191 231 278 333
#     4  10  20  36  61  88 113 146 190 238 280 323
#     4  11  23  40  60  81 110 150 191 233 279 333
#     4  11  22  36  57  86 118 150 187 233 282 334
#     4   9  17  30  50  81 118 148 177 221 276 330
#
# _framework density 19.588065
#
# number of rings (size 3 to 8) (size 9 to 14) (size 15 to 20)
#    0.000    1.750    0.000    5.625    0.000    5.750 
#    0.000    8.750    0.000    8.250    0.000    0.000 
#    0.000    0.000    0.000    0.000    0.000    0.000 
#
# Total GULP energy -396769.677332 kJ/mol
# GULP energy per Si atom -12399.052417 kJ/mol
# Density = 1.954348 g / cm^3
# Si number density = 19.588065 Si / 1000 Ang^3
#
#
#
# Elastic Constant Matrix: (Units=GPa)
#
#
# Indices 1 2 3 4 5 6 
#
# 1 130.1031 34.4063 44.8253 -0.0003 7.5482 -0.0006
# 2 34.4063 71.4741 57.9048 0.0008 0.9625 -0.0008
# 3 44.8253 57.9048 135.7805 -0.0013 5.2772 -0.0035
# 4 -0.0003 0.0008 -0.0013 23.9110 -0.0010 -2.0448
# 5 7.5482 0.9625 5.2772 -0.0010 38.9724 -0.0001
# 6 -0.0006 -0.0008 -0.0035 -2.0448 -0.0001 28.7952
#
#
#
# Elastic Compliance Matrix: (Units=1/GPa)
#
#
# Indices 1 2 3 4 5 6 
#
# 1 0.009149 -0.003031 -0.001671 0.000000 -0.001471 0.000000
# 2 -0.003031 0.022400 -0.008599 -0.000001 0.001198 -0.000001
# 3 -0.001671 -0.008599 0.011624 0.000001 -0.001038 0.000001
# 4 0.000000 -0.000001 0.000001 0.042077 0.000001 0.002988
# 5 -0.001471 0.001198 -0.001038 0.000001 0.026055 0.000000
# 6 0.000000 -0.000001 0.000001 0.002988 0.000000 0.034940
#
#
# Mechanical properties :
#
#
# Convention : Reuss Voigt Hill
#
# Bulk Modulus (GPa) = 60.34165 67.95894 64.15030
# Shear Modulus (GPa) = 28.03170 31.68379 29.85775
#
# Velocity S-wave (km/s) = 3.78704 4.02618 3.90844
# Velocity P-wave (km/s) = 7.07067 7.50886 7.29306
#
# Compressibility (1/GPa) = 0.01657230
#
# Stress axis : x y z
#
# Youngs Moduli (GPa) = 109.30606 44.64247 86.03111
#
# Poissons Ratio (x) = 0.13530 0.14372
# Poissons Ratio (y) = 0.33128 0.73976
# Poissons Ratio (z) = 0.18261 0.38387
#
# Static dielectric constant tensor:
#      x y z
#    x 3.798300 0.000000 0.053720 
#    y 0.000000 3.525120 -0.000010 
#    z 0.053720 -0.000010 3.497430 
# 
# 
# High freq. dielectric constant tensor:
#      x y z
#    x 1.781950 0.000000 0.002490 
#    y 0.000000 1.756100 0.000000 
#    z 0.002490 0.000000 1.757780 
# 
# From -- ./inp_files/340841.got.cif
#   From: 2010.06.25/outbox.cif.g09.slc.cpg/sg12_171_cif.got.tgz:340841.got - 2010.06.28 00:19:55.
