data_PCOD8100343
_publ_section_title
;
Structure prediction by ZEFSAII (Michael W. Deem and Ramdas Pophale) SiO2 
 PCOD8100343
Probable space group: C 2/M
;
_chemical_formula_sum "Si O2"
_cell_formula_units_Z 48
_cell_length_a 22.810212
_cell_length_b 9.349683
_cell_length_c 11.924092
_cell_angle_alpha 90.000000
_cell_angle_beta 106.100899
_cell_angle_gamma 90.000000
_cell_volume 2443.279387
_symmetry_space_group_name_H-M "C 2/M"
_symmetry_group_IT_number 12
_symmetry_cell_setting 'monoclinic'
loop_
_space_group_symop_operation_xyz
x,y,z
-x,y,-z
-x,-y,-z
x,-y,z
1/2+x,1/2+y,z
1/2-x,1/2+y,-z
1/2-x,1/2-y,-z
1/2+x,1/2-y,z
loop_
_atom_site_type_symbol
_atom_site_label
_atom_site_fract_x
_atom_site_fract_y
_atom_site_fract_z
Si Si1 0.123230 0.666308 0.062494
Si Si2 0.621280 0.835335 0.811292
Si Si3 0.583037 0.331160 0.246882
Si Si4 0.521327 0.668301 0.634212
Si Si5 0.713205 0.341721 0.394514
Si Si6 0.756476 0.839086 0.838366
O O1 0.127521 0.500000 0.098006
O O2 0.078778 0.747848 0.126137
O O3 0.191190 0.730824 0.095983
O O4 0.094808 0.685448 0.923060
O O5 0.584222 0.743570 0.701128
O O6 0.691751 0.784793 0.851050
O O7 0.617421 0.000000 0.771475
O O8 0.584876 0.500000 0.221400
O O9 0.528283 0.287636 0.299140
O O10 0.645080 0.280855 0.340499
O O11 0.500000 0.720920 0.500000
O O12 0.532822 0.500000 0.638848
O O13 0.708230 0.500000 0.442721
O O14 0.750000 0.250000 0.500000
O O15 0.749920 0.340911 0.298643
O O16 0.771955 0.000000 0.889713
#
# Coordination Sequence:
#
# PCOD8100343 Si02
#       6
#     8   8   8   8   8   8
#     4  10  20  35  58  88 115 143 186 234 277 329
#     4  10  22  38  57  84 117 150 185 229 282 333
#     4   9  20  39  57  77 112 149 182 230 283 331
#     4  10  23  41  60  82 109 147 194 236 275 327
#     4   9  18  31  51  77 105 140 179 221 271 325
#     4   9  19  36  55  80 116 151 181 223 282 338
#
# _framework density 19.645727000000001
#
# number of rings (size 3 to 8) (size 9 to 14) (size 15 to 20)
#    0.000    2.500    0.000    2.000    2.333    6.333 
#    0.000    3.333    0.000    0.000    0.000    0.000 
#    0.000    0.000    0.000    0.000    0.000    0.000 
#
# Total GULP energy -297588.583690 kJ/mol
# GULP energy per Si atom -12399.524320 kJ/mol
# Density = 1.960101 g / cm^3
# Si number density = 19.645727 Si / 1000 Ang^3
#
#
#
# Elastic Constant Matrix: (Units=GPa)
#
#
# Indices 1 2 3 4 5 6 
#
# 1 78.2862 27.9542 26.5103 0.0000 -16.6035 0.0000
# 2 27.9542 66.2971 42.5368 0.0000 -1.3192 0.0000
# 3 26.5103 42.5368 92.1643 0.0000 -1.8964 0.0000
# 4 0.0000 0.0000 0.0000 35.4347 0.0000 0.8045
# 5 -16.6035 -1.3192 -1.8964 0.0000 19.9277 0.0000
# 6 0.0000 0.0000 0.0000 0.8045 0.0000 26.9665
#
#
#
# Elastic Compliance Matrix: (Units=1/GPa)
#
#
# Indices 1 2 3 4 5 6 
#
# 1 0.018998 -0.006255 -0.002265 0.000000 0.015199 0.000000
# 2 -0.006255 0.023493 -0.009137 0.000000 -0.004526 0.000000
# 3 -0.002265 -0.009137 0.015698 0.000000 -0.000998 0.000000
# 4 0.000000 0.000000 0.000000 0.028240 0.000000 -0.000843
# 5 0.015199 -0.004526 -0.000998 0.000000 0.062450 0.000000
# 6 0.000000 0.000000 0.000000 -0.000843 0.000000 0.037108
#
#
# Mechanical properties :
#
#
# Convention : Reuss Voigt Hill
#
# Bulk Modulus (GPa) = 43.71442 47.86111 45.78776
# Shear Modulus (GPa) = 21.84117 25.78220 23.81168
#
# Velocity S-wave (km/s) = 3.33791 3.62658 3.48523
# Velocity P-wave (km/s) = 6.09551 6.47696 6.28913
#
# Compressibility (1/GPa) = 0.02287575
#
# Stress axis : x y z
#
# Youngs Moduli (GPa) = 52.63848 42.56566 63.70193
#
# Poissons Ratio (x) = 0.26623 0.14429
# Poissons Ratio (y) = 0.32923 0.58204
# Poissons Ratio (z) = 0.11923 0.38892
#
# Static dielectric constant tensor:
#      x y z
#    x 3.667960 0.000000 -0.216670 
#    y 0.000000 3.495830 0.000000 
#    z -0.216670 0.000000 3.522070 
# 
# 
# High freq. dielectric constant tensor:
#      x y z
#    x 1.763690 0.000000 -0.010500 
#    y 0.000000 1.757840 0.000000 
#    z -0.010500 0.000000 1.764550 
# 
# From -- ./inp_files/173064.got.cif
#   From: 2010.06.25/outbox.cif.g09.slc.cpg/sg12_87_cif.got.tgz:173064.got - 2010.06.28 00:19:55.
