data_PCOD8100785
_publ_section_title
;
Structure prediction by ZEFSAII (Michael W. Deem and Ramdas Pophale) SiO2 
 PCOD8100785
Probable space group: C 2/M
;
_chemical_formula_sum "Si O2"
_cell_formula_units_Z 56
_cell_length_a 9.791573
_cell_length_b 19.227230
_cell_length_c 31.462016
_cell_angle_alpha 90.000000
_cell_angle_beta 147.956189
_cell_angle_gamma 90.000000
_cell_volume 3142.653017
_symmetry_space_group_name_H-M "C 2/M"
_symmetry_group_IT_number 12
_symmetry_cell_setting 'monoclinic'
loop_
_space_group_symop_operation_xyz
x,y,z
-x,y,-z
-x,-y,-z
x,-y,z
1/2+x,1/2+y,z
1/2-x,1/2+y,-z
1/2-x,1/2-y,-z
1/2+x,1/2-y,z
loop_
_atom_site_type_symbol
_atom_site_label
_atom_site_fract_x
_atom_site_fract_y
_atom_site_fract_z
Si Si1 0.795497 0.181846 0.181743
Si Si2 0.164996 0.422875 0.501523
Si Si3 0.695185 0.819697 0.633299
Si Si4 0.999258 0.189389 0.370558
Si Si5 0.468442 0.081753 0.040355
Si Si6 0.506941 0.811321 0.813604
Si Si7 0.564373 0.577402 0.065885
O O1 0.685397 0.117263 0.126456
O O2 0.600104 0.204000 0.167574
O O3 0.828244 0.245527 0.158048
O O4 0.070847 0.159982 0.273826
O O5 0.251971 0.500000 0.508783
O O6 0.412551 0.374954 0.576781
O O7 0.000000 0.431585 0.500000
O O8 0.987980 0.386954 0.418799
O O9 0.521233 0.757933 0.606080
O O10 0.799204 0.796316 0.614402
O O11 0.720730 0.170594 0.278803
O O12 0.493222 0.000000 0.055868
O O13 0.500000 0.101697 0.000000
O O14 0.184778 0.109617 0.976858
O O15 0.685097 0.878232 0.859121
O O16 0.622190 0.500000 0.098442
O O17 0.500000 0.575395 0.000000
#
# Coordination Sequence:
#
# PCOD8100785 Si02
#       7
#     8   8   8   8   8   8   8
#     4  10  21  35  52  77 105 133 170 214 255 301
#     4   9  17  30  51  80 106 130 167 210 249 292
#     4   9  18  33  53  76 102 135 169 204 251 299
#     4   9  18  33  52  76 104 134 168 206 249 299
#     4  10  22  38  54  74 101 135 172 210 257 308
#     4  10  21  34  52  78 104 134 171 211 257 300
#     4  10  20  36  54  73 100 133 172 212 252 305
#
# _framework density 17.819338999999999
#
# number of rings (size 3 to 8) (size 9 to 14) (size 15 to 20)
#    0.000    2.429    1.429    0.429    2.000    2.286 
#    0.000    2.857    0.000    1.714    0.000    0.000 
#    0.000    0.000    0.000    0.000    0.000    0.000 
#
# Total GULP energy -347184.647372 kJ/mol
# GULP energy per Si atom -12399.451692 kJ/mol
# Density = 1.777878 g / cm^3
# Si number density = 17.819339 Si / 1000 Ang^3
#
#
#
# Elastic Constant Matrix: (Units=GPa)
#
#
# Indices 1 2 3 4 5 6 
#
# 1 89.6016 44.1876 39.1383 0.0024 1.3902 0.0013
# 2 44.1876 116.1810 66.9213 0.0017 -4.6633 0.0012
# 3 39.1383 66.9213 91.0065 -0.0082 -3.5262 -0.0018
# 4 0.0024 0.0017 -0.0082 36.4398 0.0014 -0.8272
# 5 1.3902 -4.6633 -3.5262 0.0014 19.6876 0.0013
# 6 0.0013 0.0012 -0.0018 -0.8272 0.0013 26.3390
#
#
#
# Elastic Compliance Matrix: (Units=1/GPa)
#
#
# Indices 1 2 3 4 5 6 
#
# 1 0.014569 -0.003430 -0.003841 -0.000002 -0.002529 -0.000001
# 2 -0.003430 0.015788 -0.010050 -0.000003 0.002182 -0.000001
# 3 -0.003841 -0.010050 0.020088 0.000005 0.001489 0.000002
# 4 -0.000002 -0.000003 0.000005 0.027462 -0.000002 0.000863
# 5 -0.002529 0.002182 0.001489 -0.000002 0.051755 -0.000002
# 6 -0.000001 -0.000001 0.000002 0.000863 -0.000002 0.037994
#
#
# Mechanical properties :
#
#
# Convention : Reuss Voigt Hill
#
# Bulk Modulus (GPa) = 63.28069 66.36483 64.82276
# Shear Modulus (GPa) = 24.08844 26.26272 25.17558
#
# Velocity S-wave (km/s) = 3.68069 3.84322 3.76283
# Velocity P-wave (km/s) = 7.32481 7.55101 7.43877
#
# Compressibility (1/GPa) = 0.01580261
#
# Stress axis : x y z
#
# Youngs Moduli (GPa) = 68.63780 63.33730 49.77989
#
# Poissons Ratio (x) = 0.21725 0.19122
# Poissons Ratio (y) = 0.23543 0.50031
# Poissons Ratio (z) = 0.26367 0.63656
#
# Static dielectric constant tensor:
#      x y z
#    x 3.373950 0.000000 0.027250 
#    y 0.000000 3.394350 0.000000 
#    z 0.027250 0.000000 3.300120 
# 
# 
# High freq. dielectric constant tensor:
#      x y z
#    x 1.683880 0.000000 0.001540 
#    y 0.000000 1.682550 0.000000 
#    z 0.001540 0.000000 1.696180 
# 
# From -- ./inp_files/206229.got.cif
#   From: 2010.06.25/outbox.cif.g09.slc.cpg/sg12_104_cif.got.tgz:206229.got - 2010.06.28 00:19:55.
