data_PCOD8100366
_publ_section_title
;
Structure prediction by ZEFSAII (Michael W. Deem and Ramdas Pophale) SiO2 
 PCOD8100366
Probable space group: C 2/M
;
_chemical_formula_sum "Si O2"
_cell_formula_units_Z 56
_cell_length_a 20.081890
_cell_length_b 8.688095
_cell_length_c 14.484754
_cell_angle_alpha 90.000000
_cell_angle_beta 86.306048
_cell_angle_gamma 90.000000
_cell_volume 2521.953360
_symmetry_space_group_name_H-M "C 2/M"
_symmetry_group_IT_number 12
_symmetry_cell_setting 'monoclinic'
loop_
_space_group_symop_operation_xyz
x,y,z
-x,y,-z
-x,-y,-z
x,-y,z
1/2+x,1/2+y,z
1/2-x,1/2+y,-z
1/2-x,1/2-y,-z
1/2+x,1/2-y,z
loop_
_atom_site_type_symbol
_atom_site_label
_atom_site_fract_x
_atom_site_fract_y
_atom_site_fract_z
Si Si1 0.285386 0.674944 0.138818
Si Si2 0.512234 0.177648 0.711881
Si Si3 0.985089 0.823887 0.900320
Si Si4 0.761821 0.679254 0.324575
Si Si5 0.876879 0.820066 0.424299
Si Si6 0.877769 0.321249 0.619211
Si Si7 0.834840 0.826913 0.942302
O O1 0.288973 0.500000 0.173759
O O2 0.299704 0.784146 0.224919
O O3 0.212123 0.704996 0.103531
O O4 0.339017 0.707186 0.052583
O O5 0.521093 0.225995 0.817786
O O6 0.562171 0.278049 0.647026
O O7 0.436659 0.210230 0.686773
O O8 0.532029 0.000000 0.698439
O O9 0.906426 0.813437 0.889813
O O10 0.010867 0.000000 0.893006
O O11 0.000000 0.753760 0.000000
O O12 0.747621 0.500000 0.336122
O O13 0.808585 0.733225 0.403883
O O14 0.691487 0.766832 0.330140
O O15 0.895535 0.773485 0.526140
O O16 0.863036 0.000000 0.419672
O O17 0.873114 0.500000 0.593799
O O18 0.805880 0.000000 0.931360
#
# Coordination Sequence:
#
# PCOD8100366 Si02
#       7
#     8   8   8   8   8   8   8
#     4  10  20  35  58  88 121 162 209 259 316 375
#     4  11  25  44  67  97 131 171 216 267 322 383
#     4  10  22  39  61  89 123 166 212 261 314 372
#     4  12  25  41  64  95 132 170 214 264 322 384
#     4  12  26  44  68  97 131 170 215 267 325 387
#     4  11  24  45  70  97 132 170 213 266 322 384
#     4   9  19  36  57  84 120 161 210 260 314 375
#
# _framework density 22.205010000000001
#
# number of rings (size 3 to 8) (size 9 to 14) (size 15 to 20)
#    0.000    1.286    0.000    5.571    2.000    7.714 
#    0.000    0.000    0.000    0.000    0.000    0.000 
#    0.000    0.000    0.000    0.000    0.000    0.000 
#
# Total GULP energy -347352.843558 kJ/mol
# GULP energy per Si atom -12405.458698 kJ/mol
# Density = 2.215447 g / cm^3
# Si number density = 22.205010 Si / 1000 Ang^3
#
#
#
# Elastic Constant Matrix: (Units=GPa)
#
#
# Indices 1 2 3 4 5 6 
#
# 1 52.4832 21.3950 2.5319 0.0000 -5.0737 0.0000
# 2 21.3950 74.1628 26.8864 0.0000 0.2414 0.0000
# 3 2.5319 26.8864 116.2437 0.0000 -3.0860 0.0000
# 4 0.0000 0.0000 0.0000 40.2643 0.0000 0.7370
# 5 -5.0737 0.2414 -3.0860 0.0000 33.8540 0.0000
# 6 0.0000 0.0000 0.0000 0.7370 0.0000 31.3002
#
#
#
# Elastic Compliance Matrix: (Units=1/GPa)
#
#
# Indices 1 2 3 4 5 6 
#
# 1 0.022113 -0.006821 0.001188 0.000000 0.003471 0.000000
# 2 -0.006821 0.016828 -0.003783 0.000000 -0.001487 0.000000
# 3 0.001188 -0.003783 0.009480 0.000000 0.001069 0.000000
# 4 0.000000 0.000000 0.000000 0.024847 0.000000 -0.000585
# 5 0.003471 -0.001487 0.001069 0.000000 0.030167 0.000000
# 6 0.000000 0.000000 0.000000 -0.000585 0.000000 0.031962
#
#
# Mechanical properties :
#
#
# Convention : Reuss Voigt Hill
#
# Bulk Modulus (GPa) = 33.79693 38.27959 36.03826
# Shear Modulus (GPa) = 30.47073 33.88879 32.17976
#
# Velocity S-wave (km/s) = 3.70840 3.91087 3.81098
# Velocity P-wave (km/s) = 5.79567 6.13757 5.96907
#
# Compressibility (1/GPa) = 0.02958848
#
# Stress axis : x y z
#
# Youngs Moduli (GPa) = 45.22300 59.42467 105.48374
#
# Poissons Ratio (x) = 0.40535 -0.12534
# Poissons Ratio (y) = 0.30848 0.39906
# Poissons Ratio (z) = -0.05373 0.22481
#
# Static dielectric constant tensor:
#      x y z
#    x 3.875620 0.000000 -0.026670 
#    y 0.000000 3.924560 0.000000 
#    z -0.026670 0.000000 4.099210 
# 
# 
# High freq. dielectric constant tensor:
#      x y z
#    x 1.872230 0.000000 -0.004060 
#    y 0.000000 1.870970 0.000000 
#    z -0.004060 0.000000 1.887500 
# 
# From -- ./inp_files/231064.got.cif
#   From: 2010.06.25/outbox.cif.g09.slc.cpg/sg12_116_cif.got.tgz:231064.got - 2010.06.28 00:19:55.
