data_PCOD8100895
_publ_section_title
;
Structure prediction by ZEFSAII (Michael W. Deem and Ramdas Pophale) SiO2 
 PCOD8100895
Probable space group: C 2/M
;
_chemical_formula_sum "Si O2"
_cell_formula_units_Z 56
_cell_length_a 9.617205
_cell_length_b 26.627152
_cell_length_c 14.563307
_cell_angle_alpha 90.000000
_cell_angle_beta 50.237820
_cell_angle_gamma 90.000000
_cell_volume 2866.776264
_symmetry_space_group_name_H-M "C 2/M"
_symmetry_group_IT_number 12
_symmetry_cell_setting 'monoclinic'
loop_
_space_group_symop_operation_xyz
x,y,z
-x,y,-z
-x,-y,-z
x,-y,z
1/2+x,1/2+y,z
1/2-x,1/2+y,-z
1/2-x,1/2-y,-z
1/2+x,1/2-y,z
loop_
_atom_site_type_symbol
_atom_site_label
_atom_site_fract_x
_atom_site_fract_y
_atom_site_fract_z
Si Si1 0.068131 0.557752 0.758630
Si Si2 0.182872 0.085813 0.865284
Si Si3 0.185681 0.615035 0.879777
Si Si4 0.466980 0.556430 0.252469
Si Si5 0.363615 0.301856 0.141742
Si Si6 0.849112 0.058545 0.496141
Si Si7 0.681451 0.277666 0.120904
O O1 0.110994 0.500000 0.770497
O O2 0.172553 0.597911 0.779128
O O3 0.149521 0.568451 0.622483
O O4 0.852592 0.565363 0.850846
O O5 0.222501 0.143504 0.824972
O O6 0.171826 0.056519 0.773765
O O7 0.000000 0.077624 0.000000
O O8 0.359315 0.588807 0.851877
O O9 0.201254 0.674078 0.896799
O O10 0.000000 0.593883 0.000000
O O11 0.531500 0.500000 0.244768
O O12 0.371027 0.580580 0.383580
O O13 0.472331 0.293202 0.191576
O O14 0.201234 0.261587 0.197053
O O15 0.500000 0.294505 0.000000
O O16 0.000000 0.082477 0.500000
O O17 0.886482 0.000000 0.471712
O O18 0.750000 0.250000 0.000000
#
# Coordination Sequence:
#
# PCOD8100895 Si02
#       7
#     8   8   8   8   8   8   8
#     4  11  24  38  58  86 120 164 206 247 292 350
#     4  11  23  38  55  86 130 162 198 240 307 372
#     4  12  23  34  56  88 121 153 200 235 299 376
#     4  11  22  38  60  82 118 166 201 249 302 348
#     4   9  19  33  54  77 112 149 190 237 290 346
#     4   9  18  38  60  81 111 153 215 265 288 331
#     4  10  20  36  55  82 113 153 195 244 289 354
#
# _framework density 19.534137000000001
#
# number of rings (size 3 to 8) (size 9 to 14) (size 15 to 20)
#    0.000    1.571    2.857    3.000    6.000    4.000 
#    0.000    2.143    0.000    0.000    0.000    6.000 
#    0.000    0.000    0.000    0.000    0.000    0.000 
#
# Total GULP energy -346980.062615 kJ/mol
# GULP energy per Si atom -12392.145093 kJ/mol
# Density = 1.948968 g / cm^3
# Si number density = 19.534137 Si / 1000 Ang^3
#
#
#
# Elastic Constant Matrix: (Units=GPa)
#
#
# Indices 1 2 3 4 5 6 
#
# 1 103.7139 33.0860 21.3740 0.0000 6.2805 0.0000
# 2 33.0860 100.3488 35.3078 0.0000 4.2699 0.0000
# 3 21.3740 35.3078 64.2102 0.0000 4.0918 0.0000
# 4 0.0000 0.0000 0.0000 4.4104 0.0000 4.8662
# 5 6.2805 4.2699 4.0918 0.0000 28.5039 0.0000
# 6 0.0000 0.0000 0.0000 4.8662 0.0000 38.8133
#
#
#
# Elastic Compliance Matrix: (Units=1/GPa)
#
#
# Indices 1 2 3 4 5 6 
#
# 1 0.011075 -0.002876 -0.001995 0.000000 -0.001723 0.000000
# 2 -0.002876 0.013125 -0.006232 0.000000 -0.000438 0.000000
# 3 -0.001995 -0.006232 0.019758 0.000000 -0.001463 0.000000
# 4 0.000000 0.000000 0.000000 0.263137 0.000000 -0.032991
# 5 -0.001723 -0.000438 -0.001463 0.000000 0.035738 0.000000
# 6 0.000000 0.000000 0.000000 -0.032991 0.000000 0.029901
#
#
# Mechanical properties :
#
#
# Convention : Reuss Voigt Hill
#
# Bulk Modulus (GPa) = 45.97399 49.75647 47.86523
# Shear Modulus (GPa) = 12.43192 26.24586 19.33889
#
# Velocity S-wave (km/s) = 2.52547 3.66948 3.14985
# Velocity P-wave (km/s) = 5.66483 6.59396 6.14697
#
# Compressibility (1/GPa) = 0.02175143
#
# Stress axis : x y z
#
# Youngs Moduli (GPa) = 90.29367 76.19156 50.61252
#
# Poissons Ratio (x) = 0.21914 0.10098
# Poissons Ratio (y) = 0.25970 0.31540
# Poissons Ratio (z) = 0.18016 0.47481
#
# Static dielectric constant tensor:
#      x y z
#    x 3.930070 0.000000 0.093980 
#    y 0.000000 3.600470 0.000000 
#    z 0.093980 0.000000 3.335280 
# 
# 
# High freq. dielectric constant tensor:
#      x y z
#    x 1.775900 0.000000 0.003710 
#    y 0.000000 1.748670 0.000000 
#    z 0.003710 0.000000 1.717000 
# 
# From -- ./inp_files/200854.got.cif
#   From: 2010.06.25/outbox.cif.g09.slc.cpg/sg12_101_cif.got.tgz:200854.got - 2010.06.28 00:19:55.
