data_PCOD8100886
_publ_section_title
;
Structure prediction by ZEFSAII (Michael W. Deem and Ramdas Pophale) SiO2 
 PCOD8100886
Probable space group: C 2/M
;
_chemical_formula_sum "Si O2"
_cell_formula_units_Z 64
_cell_length_a 19.230069
_cell_length_b 14.398448
_cell_length_c 26.932205
_cell_angle_alpha 90.000000
_cell_angle_beta 23.442952
_cell_angle_gamma 90.000000
_cell_volume 2966.690718
_symmetry_space_group_name_H-M "C 2/M"
_symmetry_group_IT_number 12
_symmetry_cell_setting 'monoclinic'
loop_
_space_group_symop_operation_xyz
x,y,z
-x,y,-z
-x,-y,-z
x,-y,z
1/2+x,1/2+y,z
1/2-x,1/2+y,-z
1/2-x,1/2-y,-z
1/2+x,1/2-y,z
loop_
_atom_site_type_symbol
_atom_site_label
_atom_site_fract_x
_atom_site_fract_y
_atom_site_fract_z
Si Si1 0.766972 0.784400 0.397024
Si Si2 0.272032 0.599676 0.625222
Si Si3 0.086784 0.294166 0.328110
Si Si4 0.716197 0.396028 0.270349
Si Si5 0.144222 0.739013 0.184886
Si Si6 0.304718 0.104989 0.648136
Si Si7 0.357403 0.897963 0.899742
Si Si8 0.124958 0.606639 0.001328
O O1 0.675480 0.685946 0.443122
O O2 0.614410 0.828250 0.531505
O O3 0.809610 0.842962 0.318959
O O4 0.945735 0.775228 0.309489
O O5 0.329537 0.500000 0.563886
O O6 0.353016 0.608698 0.627280
O O7 0.064660 0.600906 0.766201
O O8 0.107476 0.182034 0.312751
O O9 0.148574 0.323396 0.232314
O O10 0.208969 0.341300 0.290241
O O11 0.682013 0.500000 0.271465
O O12 0.920392 0.371282 0.133028
O O13 0.210647 0.675579 0.095882
O O14 0.273585 0.827173 0.103747
O O15 0.500000 0.106242 0.500000
O O16 0.235783 0.000000 0.700406
O O17 0.294812 0.872707 0.996402
O O18 0.286041 0.000000 0.931735
O O19 0.159461 0.500000 0.963531
#
# Coordination Sequence:
#
# PCOD8100886 Si02
#       8
#     8   8   8   8   8   8   8   8
#     4  10  20  36  55  80 113 148 194 236 279 339
#     4   8  14  28  53  80 104 134 176 226 275 329
#     4  11  22  35  53  83 116 149 187 237 289 343
#     4   9  18  34  57  83 112 144 182 230 283 340
#     4  11  22  34  56  84 115 148 184 235 300 342
#     4   9  19  37  58  76 103 151 202 238 270 323
#     4   8  16  33  55  79 105 138 183 229 275 332
#     4   9  19  37  60  84 111 146 190 233 279 345
#
# _framework density 21.572859999999999
#
# number of rings (size 3 to 8) (size 9 to 14) (size 15 to 20)
#    0.000    2.625    1.250    2.250    0.000    2.500 
#    0.000    2.500    0.000    4.500    0.000    1.750 
#    0.000    0.000    0.000    0.000    0.000    0.000 
#
# Total GULP energy -396627.595018 kJ/mol
# GULP energy per Si atom -12394.612344 kJ/mol
# Density = 2.152376 g / cm^3
# Si number density = 21.572860 Si / 1000 Ang^3
#
#
#
# Elastic Constant Matrix: (Units=GPa)
#
#
# Indices 1 2 3 4 5 6 
#
# 1 65.2415 17.7291 17.4452 0.0144 15.0976 -0.0104
# 2 17.7291 89.6476 13.3291 -0.0023 5.3742 0.0247
# 3 17.4452 13.3291 58.2203 0.0160 14.4527 0.0557
# 4 0.0144 -0.0023 0.0160 23.6472 0.0055 -2.8862
# 5 15.0976 5.3742 14.4527 0.0055 25.0186 -0.0034
# 6 -0.0104 0.0247 0.0557 -2.8862 -0.0034 15.7949
#
#
#
# Elastic Compliance Matrix: (Units=1/GPa)
#
#
# Indices 1 2 3 4 5 6 
#
# 1 0.018961 -0.002787 -0.002745 -0.000005 -0.009258 0.000024
# 2 -0.002787 0.011984 -0.001969 0.000003 0.000245 -0.000013
# 3 -0.002745 -0.001969 0.020936 -0.000020 -0.010014 -0.000078
# 4 -0.000005 0.000003 -0.000020 0.043253 0.000006 0.007904
# 5 -0.009258 0.000245 -0.010014 0.000006 0.051289 0.000041
# 6 0.000024 -0.000013 -0.000078 0.007904 0.000041 0.064756
#
#
# Mechanical properties :
#
#
# Convention : Reuss Voigt Hill
#
# Bulk Modulus (GPa) = 27.11656 34.45734 30.78695
# Shear Modulus (GPa) = 20.96652 23.86588 22.41620
#
# Velocity S-wave (km/s) = 3.12090 3.32970 3.22699
# Velocity P-wave (km/s) = 5.05804 5.54886 5.30912
#
# Compressibility (1/GPa) = 0.03687784
#
# Stress axis : x y z
#
# Youngs Moduli (GPa) = 52.73873 83.44437 47.76523
#
# Poissons Ratio (x) = 0.23253 0.13114
# Poissons Ratio (y) = 0.14697 0.09407
# Poissons Ratio (z) = 0.14479 0.16434
#
# Static dielectric constant tensor:
#      x y z
#    x 3.708710 -0.000030 0.220190 
#    y -0.000030 4.274910 0.000210 
#    z 0.220190 0.000210 3.640420 
# 
# 
# High freq. dielectric constant tensor:
#      x y z
#    x 1.823250 0.000000 0.005940 
#    y 0.000000 1.840350 0.000020 
#    z 0.005940 0.000020 1.832830 
# 
# From -- ./inp_files/344026.got.cif
#   From: 2010.06.25/outbox.cif.g09.slc.cpg/sg12_173_cif.got.tgz:344026.got - 2010.06.28 00:19:55.
