data_PCOD8100648
_publ_section_title
;
Structure prediction by ZEFSAII (Michael W. Deem and Ramdas Pophale) SiO2 
 PCOD8100648
Probable space group: C 2/M
;
_chemical_formula_sum "Si O2"
_cell_formula_units_Z 56
_cell_length_a 13.777540
_cell_length_b 29.499443
_cell_length_c 8.494384
_cell_angle_alpha 90.000000
_cell_angle_beta 130.906660
_cell_angle_gamma 90.000000
_cell_volume 2609.223391
_symmetry_space_group_name_H-M "C 2/M"
_symmetry_group_IT_number 12
_symmetry_cell_setting 'monoclinic'
loop_
_space_group_symop_operation_xyz
x,y,z
-x,y,-z
-x,-y,-z
x,-y,z
1/2+x,1/2+y,z
1/2-x,1/2+y,-z
1/2-x,1/2-y,-z
1/2+x,1/2-y,z
loop_
_atom_site_type_symbol
_atom_site_label
_atom_site_fract_x
_atom_site_fract_y
_atom_site_fract_z
Si Si1 0.285156 0.189056 0.626824
Si Si2 0.312292 0.704556 0.129945
Si Si3 0.265739 0.094217 0.474540
Si Si4 0.501405 0.550979 0.814874
Si Si5 0.521521 0.049606 0.707075
Si Si6 0.744504 0.390275 0.081614
Si Si7 0.944196 0.229300 0.775384
O O1 0.218670 0.199825 0.721132
O O2 0.304084 0.136037 0.626247
O O3 0.193000 0.205592 0.388248
O O4 0.420818 0.216005 0.753108
O O5 0.464459 0.711827 0.267441
O O6 0.250000 0.750000 0.000000
O O7 0.260263 0.661409 0.979010
O O8 0.132366 0.071913 0.390101
O O9 0.382868 0.060362 0.634396
O O10 0.255545 0.108708 0.281738
O O11 0.518643 0.500000 0.764691
O O12 0.500000 0.548192 0.000000
O O13 0.618616 0.582969 0.885609
O O14 0.500000 0.048538 0.500000
O O15 0.631168 0.086152 0.865829
O O16 0.566002 0.000000 0.814432
O O17 0.000000 0.212314 0.000000
#
# Coordination Sequence:
#
# PCOD8100648 Si02
#       7
#     8   8   8   8   8   8   8
#     4  11  25  41  63  90 121 171 205 269 316 378
#     4  12  25  42  62  89 123 170 212 260 314 375
#     4  10  20  35  60  91 123 158 205 259 319 372
#     4   9  17  33  60  90 118 154 201 253 308 366
#     4   9  18  34  58  92 127 160 206 264 317 372
#     4  10  21  36  60  88 122 162 210 261 309 373
#     4  11  23  43  63  86 121 161 216 262 308 372
#
# _framework density 21.462326999999998
#
# number of rings (size 3 to 8) (size 9 to 14) (size 15 to 20)
#    0.000    1.714    1.429    3.000    4.000    4.571 
#    0.000    0.000    0.000    5.143    0.000    0.000 
#    0.000    0.000    0.000    0.000    0.000    0.000 
#
# Total GULP energy -347146.926901 kJ/mol
# GULP energy per Si atom -12398.104532 kJ/mol
# Density = 2.141348 g / cm^3
# Si number density = 21.462327 Si / 1000 Ang^3
#
#
#
# Elastic Constant Matrix: (Units=GPa)
#
#
# Indices 1 2 3 4 5 6 
#
# 1 94.6725 51.8523 41.1913 0.0000 25.6189 0.0000
# 2 51.8523 170.5928 37.6509 0.0000 14.0463 0.0000
# 3 41.1913 37.6509 62.9958 0.0000 11.7302 0.0000
# 4 0.0000 0.0000 0.0000 34.1156 0.0000 8.6948
# 5 25.6189 14.0463 11.7302 0.0000 35.9799 0.0000
# 6 0.0000 0.0000 0.0000 8.6948 0.0000 24.9979
#
#
#
# Elastic Compliance Matrix: (Units=1/GPa)
#
#
# Indices 1 2 3 4 5 6 
#
# 1 0.018369 -0.002944 -0.008549 0.000000 -0.009143 0.000000
# 2 -0.002944 0.007292 -0.002442 0.000000 0.000045 0.000000
# 3 -0.008549 -0.002442 0.023009 0.000000 -0.000461 0.000000
# 4 0.000000 0.000000 0.000000 0.032163 0.000000 -0.011187
# 5 -0.009143 0.000045 -0.000461 0.000000 0.034436 0.000000
# 6 0.000000 0.000000 0.000000 -0.011187 0.000000 0.043894
#
#
# Mechanical properties :
#
#
# Convention : Reuss Voigt Hill
#
# Bulk Modulus (GPa) = 48.07487 65.51669 56.79578
# Shear Modulus (GPa) = 25.77773 32.18978 28.98376
#
# Velocity S-wave (km/s) = 3.46940 3.87696 3.67883
# Velocity P-wave (km/s) = 6.20462 7.11574 6.67574
#
# Compressibility (1/GPa) = 0.02080089
#
# Stress axis : x y z
#
# Youngs Moduli (GPa) = 54.44060 137.13991 43.46067
#
# Poissons Ratio (x) = 0.40368 0.37155
# Poissons Ratio (y) = 0.16025 0.10612
# Poissons Ratio (z) = 0.46541 0.33487
#
# Static dielectric constant tensor:
#      x y z
#    x 2.964750 0.000000 0.610470 
#    y 0.000000 4.140330 0.000000 
#    z 0.610470 0.000000 3.592000 
# 
# 
# High freq. dielectric constant tensor:
#      x y z
#    x 1.832980 0.000000 0.025000 
#    y 0.000000 1.853740 0.000000 
#    z 0.025000 0.000000 1.822980 
# 
# From -- ./inp_files/68309.got.cif
#   From: 2010.06.25/outbox.cif.g09.slc.cpg/sg12_35_cif.got.tgz:68309.got - 2010.06.28 00:19:55.
