data_PCOD8100087
_publ_section_title
;
Structure prediction by ZEFSAII (Michael W. Deem and Ramdas Pophale) SiO2 
 PCOD8100087
Probable space group: C 2/M
;
_chemical_formula_sum "Si O2"
_cell_formula_units_Z 64
_cell_length_a 26.013688
_cell_length_b 8.830824
_cell_length_c 14.753537
_cell_angle_alpha 90.000000
_cell_angle_beta 63.534614
_cell_angle_gamma 90.000000
_cell_volume 3034.039313
_symmetry_space_group_name_H-M "C 2/M"
_symmetry_group_IT_number 12
_symmetry_cell_setting 'monoclinic'
loop_
_space_group_symop_operation_xyz
x,y,z
-x,y,-z
-x,-y,-z
x,-y,z
1/2+x,1/2+y,z
1/2-x,1/2+y,-z
1/2-x,1/2-y,-z
1/2+x,1/2-y,z
loop_
_atom_site_type_symbol
_atom_site_label
_atom_site_fract_x
_atom_site_fract_y
_atom_site_fract_z
Si Si1 0.561698 0.824932 0.471702
Si Si2 0.629081 0.320846 0.263961
Si Si3 0.443828 0.675239 0.186774
Si Si4 0.775564 0.668871 0.564942
Si Si5 0.372911 0.322209 0.065028
Si Si6 0.256136 0.820577 0.779245
Si Si7 0.893414 0.334005 0.382028
Si Si8 0.064031 0.320933 0.147822
O O1 0.500000 0.757918 0.500000
O O2 0.608704 0.726271 0.380623
O O3 0.556622 0.807347 0.585036
O O4 0.570614 0.000000 0.435833
O O5 0.630131 0.500000 0.251899
O O6 0.694370 0.258461 0.199073
O O7 0.585149 0.252627 0.224768
O O8 0.460223 0.500000 0.174026
O O9 0.415800 0.722252 0.113370
O O10 0.395191 0.709466 0.301318
O O11 0.500410 0.769311 0.167155
O O12 0.750608 0.500000 0.586041
O O13 0.750000 0.750000 0.500000
O O14 0.760062 0.744535 0.673247
O O15 0.842746 0.675438 0.495231
O O16 0.378505 0.500000 0.039937
O O17 0.307039 0.277998 0.135934
O O18 0.391046 0.225885 0.964504
O O19 0.267110 0.000000 0.772334
O O20 0.895205 0.500000 0.333903
O O21 0.063003 0.500000 0.160671
#
# Coordination Sequence:
#
# PCOD8100087 Si02
#       8
#     8   8   8   8   8   8   8   8
#     4  10  20  37  61  87 121 164 205 248 307 372
#     4  12  25  41  64  94 128 165 213 269 319 374
#     4  11  23  41  66  97 132 164 207 265 322 379
#     4  10  20  35  57  86 123 165 207 250 299 362
#     4  10  23  43  68  95 126 166 211 265 324 378
#     4  10  21  42  66  90 128 173 213 256 316 381
#     4  10  20  35  57  88 125 164 204 243 297 367
#     4  12  26  44  67  92 124 167 213 264 325 388
#
# _framework density 21.093990999999999
#
# number of rings (size 3 to 8) (size 9 to 14) (size 15 to 20)
#    0.000    1.375    1.250    4.500    0.000    7.250 
#    0.000    0.000    0.000    0.000    0.000    0.000 
#    0.000    0.000    0.000    0.000    0.000    0.000 
#
# Total GULP energy -396652.603462 kJ/mol
# GULP energy per Si atom -12395.393858 kJ/mol
# Density = 2.104598 g / cm^3
# Si number density = 21.093991 Si / 1000 Ang^3
#
#
#
# Elastic Constant Matrix: (Units=GPa)
#
#
# Indices 1 2 3 4 5 6 
#
# 1 92.4050 38.4400 8.4810 0.0000 0.9941 0.0000
# 2 38.4400 95.1112 31.3199 0.0000 -0.4196 0.0000
# 3 8.4810 31.3199 82.5399 0.0000 -1.4853 0.0000
# 4 0.0000 0.0000 0.0000 36.2946 0.0000 0.7665
# 5 0.9941 -0.4196 -1.4853 0.0000 29.0589 0.0000
# 6 0.0000 0.0000 0.0000 0.7665 0.0000 34.1040
#
#
#
# Elastic Compliance Matrix: (Units=1/GPa)
#
#
# Indices 1 2 3 4 5 6 
#
# 1 0.013057 -0.005525 0.000746 0.000000 -0.000488 0.000000
# 2 -0.005525 0.014353 -0.004876 0.000000 0.000147 0.000000
# 3 0.000746 -0.004876 0.013900 0.000000 0.000615 0.000000
# 4 0.000000 0.000000 0.000000 0.027565 0.000000 -0.000620
# 5 -0.000488 0.000147 0.000615 0.000000 0.034463 0.000000
# 6 0.000000 0.000000 0.000000 -0.000620 0.000000 0.029336
#
#
# Mechanical properties :
#
#
# Convention : Reuss Voigt Hill
#
# Bulk Modulus (GPa) = 45.45364 47.39309 46.42337
# Shear Modulus (GPa) = 31.38373 32.67917 32.03145
#
# Velocity S-wave (km/s) = 3.86139 3.94028 3.90103
# Velocity P-wave (km/s) = 6.44014 6.57400 6.50741
#
# Compressibility (1/GPa) = 0.02200044
#
# Stress axis : x y z
#
# Youngs Moduli (GPa) = 76.58696 69.67053 71.94253
#
# Poissons Ratio (x) = 0.38493 -0.05367
# Poissons Ratio (y) = 0.42314 0.35079
# Poissons Ratio (z) = -0.05714 0.33972
#
# Static dielectric constant tensor:
#      x y z
#    x 3.743410 0.000000 0.054810 
#    y 0.000000 3.661150 0.000000 
#    z 0.054810 0.000000 4.003520 
# 
# 
# High freq. dielectric constant tensor:
#      x y z
#    x 1.843500 0.000000 0.000710 
#    y 0.000000 1.810580 0.000000 
#    z 0.000710 0.000000 1.831400 
# 
# From -- ./inp_files/243867.got.cif
#   From: 2010.06.25/outbox.cif.g09.slc.cpg/sg12_122_cif.got.tgz:243867.got - 2010.06.28 00:19:55.
