data_PCOD8100882
_publ_section_title
;
Structure prediction by ZEFSAII (Michael W. Deem and Ramdas Pophale) SiO2 
 PCOD8100882
Probable space group: C 2/M
;
_chemical_formula_sum "Si O2"
_cell_formula_units_Z 56
_cell_length_a 20.989655
_cell_length_b 13.462800
_cell_length_c 10.362053
_cell_angle_alpha 90.000000
_cell_angle_beta 81.253344
_cell_angle_gamma 90.000000
_cell_volume 2894.051323
_symmetry_space_group_name_H-M "C 2/M"
_symmetry_group_IT_number 12
_symmetry_cell_setting 'monoclinic'
loop_
_space_group_symop_operation_xyz
x,y,z
-x,y,-z
-x,-y,-z
x,-y,z
1/2+x,1/2+y,z
1/2-x,1/2+y,-z
1/2-x,1/2-y,-z
1/2+x,1/2-y,z
loop_
_atom_site_type_symbol
_atom_site_label
_atom_site_fract_x
_atom_site_fract_y
_atom_site_fract_z
Si Si1 0.898003 0.611095 0.773647
Si Si2 0.657065 0.707370 0.079409
Si Si3 0.023954 0.114581 0.133375
Si Si4 0.357486 0.886327 0.350005
Si Si5 0.485010 0.767903 0.358826
Si Si6 0.719646 0.765549 0.806663
Si Si7 0.719142 0.890966 0.380204
O O1 0.904918 0.500000 0.827935
O O2 0.873006 0.682290 0.895393
O O3 0.848703 0.615417 0.671583
O O4 0.966381 0.645787 0.698274
O O5 0.601357 0.626382 0.116563
O O6 0.712867 0.686681 0.167387
O O7 0.687760 0.699559 0.928848
O O8 0.989573 0.175812 0.258197
O O9 0.005737 0.000000 0.159715
O O10 0.000000 0.152192 0.000000
O O11 0.414316 0.813927 0.375835
O O12 0.329032 0.852303 0.220788
O O13 0.297175 0.874645 0.465311
O O14 0.381832 0.000000 0.334287
O O15 0.500000 0.730934 0.500000
O O16 0.730475 0.690551 0.684121
O O17 0.750203 0.000000 0.349362
#
# Coordination Sequence:
#
# PCOD8100882 Si02
#       7
#     8   8   8   8   8   8   8
#     4   9  17  32  55  83 112 142 180 224 276 332
#     4   9  20  36  57  82 108 150 189 229 279 329
#     4  10  22  41  62  83 111 148 191 236 284 339
#     4  11  22  34  54  84 116 148 183 227 281 337
#     4  11  21  36  61  87 115 146 185 235 286 336
#     4  10  20  36  55  79 115 149 188 230 276 328
#     4   9  18  33  53  78 107 144 186 226 270 324
#
# _framework density 19.350035999999999
#
# number of rings (size 3 to 8) (size 9 to 14) (size 15 to 20)
#    0.000    2.143    1.429    1.714    0.000    2.571 
#    0.000    3.571    0.000    4.714    0.000    0.000 
#    0.000    0.000    0.000    0.000    0.000    0.000 
#
# Total GULP energy -347206.071308 kJ/mol
# GULP energy per Si atom -12400.216832 kJ/mol
# Density = 1.930599 g / cm^3
# Si number density = 19.350036 Si / 1000 Ang^3
#
#
#
# Elastic Constant Matrix: (Units=GPa)
#
#
# Indices 1 2 3 4 5 6 
#
# 1 64.3795 30.4715 36.2383 0.0000 2.9717 0.0000
# 2 30.4715 95.8143 45.2952 0.0000 5.9944 0.0000
# 3 36.2383 45.2952 91.3984 0.0000 8.7277 0.0000
# 4 0.0000 0.0000 0.0000 24.1032 0.0000 3.4103
# 5 2.9717 5.9944 8.7277 0.0000 24.8811 0.0000
# 6 0.0000 0.0000 0.0000 3.4103 0.0000 22.2333
#
#
#
# Elastic Compliance Matrix: (Units=1/GPa)
#
#
# Indices 1 2 3 4 5 6 
#
# 1 0.020898 -0.003579 -0.006576 0.000000 0.000673 0.000000
# 2 -0.003579 0.014265 -0.005549 0.000000 -0.001063 0.000000
# 3 -0.006576 -0.005549 0.016653 0.000000 -0.003719 0.000000
# 4 0.000000 0.000000 0.000000 0.042409 0.000000 -0.006505
# 5 0.000673 -0.001063 -0.003719 0.000000 0.041672 0.000000
# 6 0.000000 0.000000 0.000000 -0.006505 0.000000 0.045975
#
#
# Mechanical properties :
#
#
# Convention : Reuss Voigt Hill
#
# Bulk Modulus (GPa) = 49.00135 52.84469 50.92302
# Shear Modulus (GPa) = 22.71883 23.54933 23.13408
#
# Velocity S-wave (km/s) = 3.43023 3.49236 3.46143
# Velocity P-wave (km/s) = 6.40837 6.60540 6.50763
#
# Compressibility (1/GPa) = 0.02040760
#
# Stress axis : x y z
#
# Youngs Moduli (GPa) = 47.85253 70.10284 60.04781
#
# Poissons Ratio (x) = 0.25092 0.39488
# Poissons Ratio (y) = 0.17128 0.33319
# Poissons Ratio (z) = 0.31468 0.38898
#
# Static dielectric constant tensor:
#      x y z
#    x 3.452350 0.000000 -0.005230 
#    y 0.000000 3.454910 0.000000 
#    z -0.005230 0.000000 3.530140 
# 
# 
# High freq. dielectric constant tensor:
#      x y z
#    x 1.750330 0.000000 -0.003040 
#    y 0.000000 1.742000 0.000000 
#    z -0.003040 0.000000 1.753630 
# 
# From -- ./inp_files/86387.got.cif
#   From: 2010.06.25/outbox.cif.g09.slc.cpg/sg12_44_cif.got.tgz:86387.got - 2010.06.28 00:19:55.
