data_PCOD8100851
_publ_section_title
;
Structure prediction by ZEFSAII (Michael W. Deem and Ramdas Pophale) SiO2 
 PCOD8100851
Probable space group: C 2/M
;
_chemical_formula_sum "Si O2"
_cell_formula_units_Z 56
_cell_length_a 8.832260
_cell_length_b 17.625031
_cell_length_c 24.636321
_cell_angle_alpha 90.000000
_cell_angle_beta 131.630588
_cell_angle_gamma 90.000000
_cell_volume 2866.526633
_symmetry_space_group_name_H-M "C 2/M"
_symmetry_group_IT_number 12
_symmetry_cell_setting 'monoclinic'
loop_
_space_group_symop_operation_xyz
x,y,z
-x,y,-z
-x,-y,-z
x,-y,z
1/2+x,1/2+y,z
1/2-x,1/2+y,-z
1/2-x,1/2-y,-z
1/2+x,1/2-y,z
loop_
_atom_site_type_symbol
_atom_site_label
_atom_site_fract_x
_atom_site_fract_y
_atom_site_fract_z
Si Si1 0.698682 0.213506 0.266775
Si Si2 0.126348 0.709533 0.366849
Si Si3 0.138754 0.085116 0.763622
Si Si4 0.763185 0.877249 0.600862
Si Si5 0.326640 0.083838 0.534836
Si Si6 0.526664 0.717928 0.949057
Si Si7 0.868673 0.817697 0.141059
O O1 0.674454 0.174380 0.319525
O O2 0.708855 0.146476 0.225348
O O3 0.494807 0.258357 0.206526
O O4 0.887840 0.271499 0.313880
O O5 0.255079 0.786359 0.404080
O O6 0.209301 0.648317 0.429111
O O7 0.121422 0.102876 0.824004
O O8 0.927770 0.092925 0.682194
O O9 0.223252 0.000000 0.777630
O O10 0.816029 0.902163 0.551723
O O11 0.556808 0.914575 0.570286
O O12 0.279139 0.000000 0.547527
O O13 0.361265 0.785721 0.914096
O O14 0.519134 0.669935 0.890977
O O15 0.500000 0.670572 0.000000
O O16 0.750000 0.750000 0.000000
#
# Coordination Sequence:
#
# PCOD8100851 Si02
#       7
#     8   8   8   8   8   8   8
#     4  11  20  35  59  83 111 149 190 240 276 336
#     4  11  20  36  54  81 107 146 197 238 292 340
#     4  11  22  35  56  85 117 149 188 237 292 335
#     4  10  20  36  55  76 109 152 197 236 289 353
#     4  11  21  34  54  78 108 148 195 248 299 343
#     4   9  19  32  58  95 115 144 188 230 259 318
#     4  11  17  35  59  86 117 148 189 228 271 330
#
# _framework density 19.535837999999998
#
# number of rings (size 3 to 8) (size 9 to 14) (size 15 to 20)
#    0.000    1.429    5.714    2.143    0.000    0.571 
#    0.000    0.000    0.000   11.143    0.000    0.000 
#    0.000    0.000    0.000    0.000    0.000    0.000 
#
# Total GULP energy -346934.145526 kJ/mol
# GULP energy per Si atom -12390.505197 kJ/mol
# Density = 1.949137 g / cm^3
# Si number density = 19.535838 Si / 1000 Ang^3
#
#
#
# Elastic Constant Matrix: (Units=GPa)
#
#
# Indices 1 2 3 4 5 6 
#
# 1 92.8048 16.6323 36.0467 0.0000 -28.2651 0.0000
# 2 16.6323 108.1010 19.5169 0.0000 -19.0847 0.0000
# 3 36.0467 19.5169 85.3672 0.0000 -18.8749 0.0000
# 4 0.0000 0.0000 0.0000 9.6811 0.0000 -8.4002
# 5 -28.2651 -19.0847 -18.8749 0.0000 46.7792 0.0000
# 6 0.0000 0.0000 0.0000 -8.4002 0.0000 18.3312
#
#
#
# Elastic Compliance Matrix: (Units=1/GPa)
#
#
# Indices 1 2 3 4 5 6 
#
# 1 0.014728 -0.000203 -0.004637 0.000000 0.006945 0.000000
# 2 -0.000203 0.010153 -0.001479 0.000000 0.003423 0.000000
# 3 -0.004637 -0.001479 0.014556 0.000000 0.002468 0.000000
# 4 0.000000 0.000000 0.000000 0.171476 0.000000 0.078578
# 5 0.006945 0.003423 0.002468 0.000000 0.027966 0.000000
# 6 0.000000 0.000000 0.000000 0.078578 0.000000 0.090560
#
#
# Mechanical properties :
#
#
# Convention : Reuss Voigt Hill
#
# Bulk Modulus (GPa) = 37.31344 47.85164 42.58254
# Shear Modulus (GPa) = 14.24464 29.23011 21.73738
#
# Velocity S-wave (km/s) = 2.70322 3.87231 3.33932
# Velocity P-wave (km/s) = 5.37444 6.67387 6.05909
#
# Compressibility (1/GPa) = 0.02679999
#
# Stress axis : x y z
#
# Youngs Moduli (GPa) = 67.89780 98.49208 68.70075
#
# Poissons Ratio (x) = 0.01996 0.31857
# Poissons Ratio (y) = 0.01376 0.10160
# Poissons Ratio (z) = 0.31484 0.14565
#
# Static dielectric constant tensor:
#      x y z
#    x 3.901970 0.000000 -0.423640 
#    y 0.000000 3.401200 0.000000 
#    z -0.423640 0.000000 3.981420 
# 
# 
# High freq. dielectric constant tensor:
#      x y z
#    x 1.766020 0.000000 -0.015440 
#    y 0.000000 1.719390 0.000000 
#    z -0.015440 0.000000 1.773560 
# 
# From -- ./inp_files/356482.got.cif
#   From: 2010.06.25/outbox.cif.g09.slc.cpg/sg12_179_cif.got.tgz:356482.got - 2010.06.28 00:19:55.
