data_PCOD8100996
_publ_section_title
;
Structure prediction by ZEFSAII (Michael W. Deem and Ramdas Pophale) SiO2 
 PCOD8100996
Probable space group: C 2/M
;
_chemical_formula_sum "Si O2"
_cell_formula_units_Z 56
_cell_length_a 9.366028
_cell_length_b 28.141141
_cell_length_c 13.507120
_cell_angle_alpha 90.000000
_cell_angle_beta 61.322380
_cell_angle_gamma 90.000000
_cell_volume 3123.379182
_symmetry_space_group_name_H-M "C 2/M"
_symmetry_group_IT_number 12
_symmetry_cell_setting 'monoclinic'
loop_
_space_group_symop_operation_xyz
x,y,z
-x,y,-z
-x,-y,-z
x,-y,z
1/2+x,1/2+y,z
1/2-x,1/2+y,-z
1/2-x,1/2-y,-z
1/2+x,1/2-y,z
loop_
_atom_site_type_symbol
_atom_site_label
_atom_site_fract_x
_atom_site_fract_y
_atom_site_fract_z
Si Si1 0.696622 0.383189 0.698599
Si Si2 0.034024 0.051818 0.102121
Si Si3 0.113502 0.554645 0.054986
Si Si4 0.239296 0.299397 0.632091
Si Si5 0.335661 0.052452 0.493581
Si Si6 0.426782 0.704214 0.369103
Si Si7 0.486098 0.887400 0.283135
O O1 0.592777 0.411663 0.812038
O O2 0.710876 0.414183 0.594046
O O3 0.599219 0.335606 0.705368
O O4 0.871517 0.371163 0.688629
O O5 0.017243 0.000000 0.160642
O O6 0.216253 0.071786 0.048280
O O7 0.000000 0.044633 0.000000
O O8 0.123325 0.500000 0.091457
O O9 0.058991 0.589520 0.160422
O O10 0.000000 0.559343 0.000000
O O11 0.384668 0.292066 0.662290
O O12 0.312705 0.309632 0.499509
O O13 0.126769 0.253117 0.663685
O O14 0.124546 0.342157 0.706562
O O15 0.500000 0.048220 0.500000
O O16 0.370670 0.073871 0.373908
O O17 0.258772 0.000000 0.505155
#
# Coordination Sequence:
#
# PCOD8100996 Si02
#       7
#     8   8   8   8   8   8   8
#     4  11  20  33  57  85 115 147 187 234 282 335
#     4  10  20  36  56  80 111 153 201 238 269 319
#     4  10  22  38  56  80 112 156 201 238 276 325
#     4  10  21  37  58  83 115 147 186 231 280 344
#     4   9  18  30  49  81 115 147 179 222 279 334
#     4  10  21  37  58  84 114 147 186 230 283 342
#     4  11  20  34  57  83 115 148 187 234 283 337
#
# _framework density 17.929299
#
# number of rings (size 3 to 8) (size 9 to 14) (size 15 to 20)
#    0.000    1.857    2.857    1.714    2.000    2.286 
#    0.000    0.000    0.000    2.571    0.000    0.000 
#    0.000    0.000    0.000    0.000    0.000    0.000 
#
# Total GULP energy -347171.090155 kJ/mol
# GULP energy per Si atom -12398.967506 kJ/mol
# Density = 1.788849 g / cm^3
# Si number density = 17.929299 Si / 1000 Ang^3
#
#
#
# Elastic Constant Matrix: (Units=GPa)
#
#
# Indices 1 2 3 4 5 6 
#
# 1 106.4155 49.6518 23.0270 0.0000 -9.6145 0.0000
# 2 49.6518 120.0324 35.3371 0.0000 -4.2275 0.0000
# 3 23.0270 35.3371 52.7850 0.0000 -4.5677 0.0000
# 4 0.0000 0.0000 0.0000 23.9049 0.0000 -2.1010
# 5 -9.6145 -4.2275 -4.5677 0.0000 22.0891 0.0000
# 6 0.0000 0.0000 0.0000 -2.1010 0.0000 30.1138
#
#
#
# Elastic Compliance Matrix: (Units=1/GPa)
#
#
# Indices 1 2 3 4 5 6 
#
# 1 0.012223 -0.004293 -0.002107 0.000000 0.004063 0.000000
# 2 -0.004293 0.011890 -0.006162 0.000000 -0.000867 0.000000
# 3 -0.002107 -0.006162 0.024242 0.000000 0.002916 0.000000
# 4 0.000000 0.000000 0.000000 0.042091 0.000000 0.002937
# 5 0.004063 -0.000867 0.002916 0.000000 0.047477 0.000000
# 6 0.000000 0.000000 0.000000 0.002937 0.000000 0.033412
#
#
# Mechanical properties :
#
#
# Convention : Reuss Voigt Hill
#
# Bulk Modulus (GPa) = 43.04567 55.02942 49.03754
# Shear Modulus (GPa) = 24.48549 26.63603 25.56076
#
# Velocity S-wave (km/s) = 3.69951 3.85855 3.77986
# Velocity P-wave (km/s) = 6.50455 7.11409 6.81614
#
# Compressibility (1/GPa) = 0.02323114
#
# Stress axis : x y z
#
# Youngs Moduli (GPa) = 81.81279 84.10096 41.25119
#
# Poissons Ratio (x) = 0.36103 0.08691
# Poissons Ratio (y) = 0.35120 0.25421
# Poissons Ratio (z) = 0.17236 0.51827
#
# Static dielectric constant tensor:
#      x y z
#    x 3.304780 0.000000 -0.026620 
#    y 0.000000 3.351230 0.000000 
#    z -0.026620 0.000000 3.036290 
# 
# 
# High freq. dielectric constant tensor:
#      x y z
#    x 1.695310 0.000000 -0.005640 
#    y 0.000000 1.693790 0.000000 
#    z -0.005640 0.000000 1.674610 
# 
# From -- ./inp_files/125612.got.cif
#   From: 2010.06.25/outbox.cif.g09.slc.cpg/sg12_63_cif.got.tgz:125612.got - 2010.06.28 00:19:55.
