data_PCOD8100275
_publ_section_title
;
Structure prediction by ZEFSAII (Michael W. Deem and Ramdas Pophale) SiO2 
 PCOD8100275
Probable space group: C 2/M
;
_chemical_formula_sum "Si O2"
_cell_formula_units_Z 56
_cell_length_a 20.654130
_cell_length_b 9.093320
_cell_length_c 13.791183
_cell_angle_alpha 90.000000
_cell_angle_beta 73.924194
_cell_angle_gamma 90.000000
_cell_volume 2488.899519
_symmetry_space_group_name_H-M "C 2/M"
_symmetry_group_IT_number 12
_symmetry_cell_setting 'monoclinic'
loop_
_space_group_symop_operation_xyz
x,y,z
-x,y,-z
-x,-y,-z
x,-y,z
1/2+x,1/2+y,z
1/2-x,1/2+y,-z
1/2-x,1/2-y,-z
1/2+x,1/2-y,z
loop_
_atom_site_type_symbol
_atom_site_label
_atom_site_fract_x
_atom_site_fract_y
_atom_site_fract_z
Si Si1 0.798409 0.661480 0.412653
Si Si2 0.633212 0.332474 0.281097
Si Si3 0.628876 0.328086 0.768341
Si Si4 0.188606 0.328713 0.080129
Si Si5 0.422067 0.830942 0.030452
Si Si6 0.983201 0.164390 0.335313
Si Si7 0.413556 0.162736 0.515247
O O1 0.768716 0.500000 0.402048
O O2 0.750000 0.750000 0.500000
O O3 0.807286 0.748333 0.307836
O O4 0.868543 0.648834 0.438488
O O5 0.659519 0.500000 0.281157
O O6 0.682317 0.242509 0.189650
O O7 0.559001 0.330171 0.264789
O O8 0.627549 0.259002 0.389683
O O9 0.643670 0.500000 0.765756
O O10 0.620769 0.268367 0.879158
O O11 0.562158 0.285119 0.735755
O O12 0.206814 0.500000 0.084026
O O13 0.250000 0.250000 0.000000
O O14 0.116462 0.309939 0.055700
O O15 0.419465 0.000000 0.065637
O O16 0.500000 0.777145 0.000000
O O17 0.979695 0.262801 0.435968
O O18 0.961504 0.000000 0.376071
O O19 0.430379 0.000000 0.550150
#
# Coordination Sequence:
#
# PCOD8100275 Si02
#       7
#     8   8   8   8   8   8   8
#     4  10  21  37  56  79 110 147 188 234 283 341
#     4  11  22  37  59  84 114 153 193 236 287 345
#     4  10  20  35  58  86 116 150 188 236 292 348
#     4  11  25  44  64  87 119 158 201 250 300 354
#     4  10  22  41  65  92 120 153 197 249 303 355
#     4   9  19  35  55  85 121 152 186 231 286 346
#     4  10  21  35  54  83 115 148 188 232 282 344
#
# _framework density 22.499903
#
# number of rings (size 3 to 8) (size 9 to 14) (size 15 to 20)
#    0.000    1.857    0.000    3.429    0.000    7.714 
#    0.000    0.000    0.000    0.000    0.000    0.000 
#    0.000    0.000    0.000    0.000    0.000    0.000 
#
# Total GULP energy -347141.177013 kJ/mol
# GULP energy per Si atom -12397.899179 kJ/mol
# Density = 2.244869 g / cm^3
# Si number density = 22.499903 Si / 1000 Ang^3
#
#
#
# Elastic Constant Matrix: (Units=GPa)
#
#
# Indices 1 2 3 4 5 6 
#
# 1 36.2851 7.4725 3.5890 0.0000 -5.7715 0.0000
# 2 7.4725 156.6600 76.6505 0.0000 -9.3632 0.0000
# 3 3.5890 76.6505 142.4836 0.0000 -17.7984 0.0000
# 4 0.0000 0.0000 0.0000 48.3531 0.0000 -3.9622
# 5 -5.7715 -9.3632 -17.7984 0.0000 36.0362 0.0000
# 6 0.0000 0.0000 0.0000 -3.9622 0.0000 26.1434
#
#
#
# Elastic Compliance Matrix: (Units=1/GPa)
#
#
# Indices 1 2 3 4 5 6 
#
# 1 0.028500 -0.001377 0.000584 0.000000 0.004495 0.000000
# 2 -0.001377 0.008730 -0.004696 0.000000 -0.000271 0.000000
# 3 0.000584 -0.004696 0.010006 0.000000 0.003816 0.000000
# 4 0.000000 0.000000 0.000000 0.020941 0.000000 0.003174
# 5 0.004495 -0.000271 0.003816 0.000000 0.030284 0.000000
# 6 0.000000 0.000000 0.000000 0.003174 0.000000 0.038732
#
#
# Mechanical properties :
#
#
# Convention : Reuss Voigt Hill
#
# Bulk Modulus (GPa) = 27.57810 56.76143 42.16977
# Shear Modulus (GPa) = 31.19992 38.62098 34.91045
#
# Velocity S-wave (km/s) = 3.72784 4.14756 3.94329
# Velocity P-wave (km/s) = 5.55091 6.94395 6.28614
#
# Compressibility (1/GPa) = 0.03626065
#
# Stress axis : x y z
#
# Youngs Moduli (GPa) = 35.08737 114.54469 99.93621
#
# Poissons Ratio (x) = 0.15768 -0.05838
# Poissons Ratio (y) = 0.04830 0.46927
# Poissons Ratio (z) = -0.02050 0.53787
#
# Static dielectric constant tensor:
#      x y z
#    x 4.393490 0.000000 0.004870 
#    y 0.000000 4.298350 0.000000 
#    z 0.004870 0.000000 3.854990 
# 
# 
# High freq. dielectric constant tensor:
#      x y z
#    x 1.888250 0.000000 0.000930 
#    y 0.000000 1.893430 0.000000 
#    z 0.000930 0.000000 1.883290 
# 
# From -- ./inp_files/238413.got.cif
#   From: 2010.06.25/outbox.cif.g09.slc.cpg/sg12_120_cif.got.tgz:238413.got - 2010.06.28 00:19:55.
