data_PCOD8100219
_publ_section_title
;
Structure prediction by ZEFSAII (Michael W. Deem and Ramdas Pophale) SiO2 
 PCOD8100219
Probable space group: C 2/M
;
_chemical_formula_sum "Si O2"
_cell_formula_units_Z 56
_cell_length_a 28.399821
_cell_length_b 8.925187
_cell_length_c 19.506153
_cell_angle_alpha 90.000000
_cell_angle_beta 35.188913
_cell_angle_gamma 90.000000
_cell_volume 2849.270737
_symmetry_space_group_name_H-M "C 2/M"
_symmetry_group_IT_number 12
_symmetry_cell_setting 'monoclinic'
loop_
_space_group_symop_operation_xyz
x,y,z
-x,y,-z
-x,-y,-z
x,-y,z
1/2+x,1/2+y,z
1/2-x,1/2+y,-z
1/2-x,1/2-y,-z
1/2+x,1/2-y,z
loop_
_atom_site_type_symbol
_atom_site_label
_atom_site_fract_x
_atom_site_fract_y
_atom_site_fract_z
Si Si1 0.306753 0.176883 0.989777
Si Si2 0.208114 0.170959 0.708108
Si Si3 0.111568 0.324235 0.540714
Si Si4 0.414496 0.331736 0.565282
Si Si5 0.262471 0.172891 0.796471
Si Si6 0.486468 0.177133 0.803025
Si Si7 0.043025 0.322518 0.880623
O O1 0.280378 0.224621 0.096656
O O2 0.298436 0.000000 0.991950
O O3 0.250000 0.250000 0.000000
O O4 0.401243 0.230925 0.869998
O O5 0.291894 0.212428 0.568510
O O6 0.217837 0.198945 0.777480
O O7 0.137481 0.276626 0.763920
O O8 0.183750 0.000000 0.722710
O O9 0.099408 0.500000 0.539883
O O10 0.071752 0.231811 0.526757
O O11 0.063987 0.271543 0.665440
O O12 0.500000 0.332819 0.500000
O O13 0.377952 0.500000 0.604779
O O14 0.355799 0.224512 0.678745
O O15 0.260580 0.000000 0.821669
O O16 0.497443 0.241780 0.867116
O O17 0.484852 0.000000 0.810205
O O18 0.038599 0.500000 0.887721
O O19 0.000000 0.254654 0.000000
#
# Coordination Sequence:
#
# PCOD8100219 Si02
#       7
#     8   8   8   8   8   8   8
#     4  11  23  39  59  84 115 152 194 242 292 343
#     4   9  19  35  56  83 113 144 186 237 288 339
#     4   9  19  37  57  79 112 154 194 231 280 351
#     4  10  21  35  54  83 113 142 184 243 293 337
#     4  10  21  38  58  81 111 151 192 231 283 347
#     4   9  20  38  58  82 114 154 195 235 283 347
#     4  10  20  35  58  85 112 148 194 236 282 342
#
# _framework density 19.654152
#
# number of rings (size 3 to 8) (size 9 to 14) (size 15 to 20)
#    0.000    2.286    0.000    3.000    2.000    6.000 
#    0.000    2.857    0.000    0.000    0.000    0.000 
#    0.000    0.000    0.000    0.000    0.000    0.000 
#
# Total GULP energy -347183.520709 kJ/mol
# GULP energy per Si atom -12399.411454 kJ/mol
# Density = 1.960942 g / cm^3
# Si number density = 19.654152 Si / 1000 Ang^3
#
#
#
# Elastic Constant Matrix: (Units=GPa)
#
#
# Indices 1 2 3 4 5 6 
#
# 1 107.7339 37.8015 76.9206 -0.0025 -9.4573 -0.0014
# 2 37.8015 48.8837 23.2072 -0.0250 -6.0646 0.0031
# 3 76.9206 23.2072 134.4035 -0.0163 3.5950 0.0037
# 4 -0.0025 -0.0250 -0.0163 29.2674 0.0054 -3.9974
# 5 -9.4573 -6.0646 3.5950 0.0054 28.3930 0.0020
# 6 -0.0014 0.0031 0.0037 -3.9974 0.0020 28.6988
#
#
#
# Elastic Compliance Matrix: (Units=1/GPa)
#
#
# Indices 1 2 3 4 5 6 
#
# 1 0.020812 -0.010478 -0.010262 -0.000014 0.005993 0.000001
# 2 -0.010478 0.028372 0.001033 0.000023 0.002439 -0.000001
# 3 -0.010262 0.001033 0.013265 0.000008 -0.004877 -0.000001
# 4 -0.000014 0.000023 0.000008 0.034830 -0.000008 0.004851
# 5 0.005993 0.002439 -0.004877 -0.000008 0.038355 -0.000003
# 6 0.000001 -0.000001 -0.000001 0.004851 -0.000003 0.035520
#
#
# Mechanical properties :
#
#
# Convention : Reuss Voigt Hill
#
# Bulk Modulus (GPa) = 43.41391 62.98664 53.20028
# Shear Modulus (GPa) = 22.90983 27.47795 25.19389
#
# Velocity S-wave (km/s) = 3.41786 3.74314 3.58419
# Velocity P-wave (km/s) = 6.14106 7.12731 6.65249
#
# Compressibility (1/GPa) = 0.02303409
#
# Stress axis : x y z
#
# Youngs Moduli (GPa) = 48.05020 35.24620 75.38450
#
# Poissons Ratio (x) = 0.36932 0.77358
# Poissons Ratio (y) = 0.50348 -0.07785
# Poissons Ratio (z) = 0.49308 -0.03640
#
# Static dielectric constant tensor:
#      x y z
#    x 3.624370 -0.000010 0.047050 
#    y -0.000010 3.523180 0.000030 
#    z 0.047050 0.000030 3.784910 
# 
# 
# High freq. dielectric constant tensor:
#      x y z
#    x 1.764140 0.000000 -0.001980 
#    y 0.000000 1.751770 0.000000 
#    z -0.001980 0.000000 1.775120 
# 
# From -- ./inp_files/329471.got.cif
#   From: 2010.06.25/outbox.cif.g09.slc.cpg/sg12_165_cif.got.tgz:329471.got - 2010.06.28 00:19:55.
