data_PCOD8100631
_publ_section_title
;
Structure prediction by ZEFSAII (Michael W. Deem and Ramdas Pophale) SiO2 
 PCOD8100631
Probable space group: C 2/M
;
_chemical_formula_sum "Si O2"
_cell_formula_units_Z 64
_cell_length_a 15.180097
_cell_length_b 16.710277
_cell_length_c 15.032060
_cell_angle_alpha 90.000000
_cell_angle_beta 124.626915
_cell_angle_gamma 90.000000
_cell_volume 3137.672978
_symmetry_space_group_name_H-M "C 2/M"
_symmetry_group_IT_number 12
_symmetry_cell_setting 'monoclinic'
loop_
_space_group_symop_operation_xyz
x,y,z
-x,y,-z
-x,-y,-z
x,-y,z
1/2+x,1/2+y,z
1/2-x,1/2+y,-z
1/2-x,1/2-y,-z
1/2+x,1/2-y,z
loop_
_atom_site_type_symbol
_atom_site_label
_atom_site_fract_x
_atom_site_fract_y
_atom_site_fract_z
Si Si1 0.267511 0.906276 0.630875
Si Si2 0.647830 0.294306 0.901685
Si Si3 0.903618 0.149495 0.608236
Si Si4 0.635622 0.408302 0.732214
Si Si5 0.813597 0.907934 0.735704
Si Si6 0.023923 0.308961 0.288798
Si Si7 0.117729 0.086254 0.040270
Si Si8 0.073793 0.408174 0.618425
O O1 0.198002 0.876705 0.507230
O O2 0.201902 0.887457 0.682027
O O3 0.380801 0.860431 0.700667
O O4 0.290822 0.000000 0.632353
O O5 0.674992 0.344591 0.828239
O O6 0.550482 0.232343 0.829161
O O7 0.750000 0.250000 0.000000
O O8 0.611242 0.357676 0.952515
O O9 0.883645 0.135775 0.701829
O O10 0.924950 0.244192 0.613903
O O11 0.009167 0.101031 0.638568
O O12 0.657587 0.500000 0.774752
O O13 0.826943 0.871150 0.842615
O O14 0.689883 0.897866 0.642303
O O15 0.850650 0.000000 0.758568
O O16 0.942982 0.363600 0.298330
O O17 0.174659 0.000000 0.050655
O O18 0.000000 0.065124 0.000000
O O19 0.044894 0.500000 0.620610
O O20 0.000000 0.370599 0.500000
#
# Coordination Sequence:
#
# PCOD8100631 Si02
#       8
#     8   8   8   8   8   8   8   8
#     4  11  23  41  63  86 121 166 203 238 289 360
#     4  11  24  40  60  85 117 157 198 252 310 351
#     4  11  22  37  62  94 126 156 191 245 306 363
#     4  10  22  40  62  88 119 160 208 250 291 355
#     4  10  20  35  60  90 117 150 194 243 294 355
#     4  11  24  38  58  89 122 155 197 250 300 356
#     4  10  20  36  59  84 111 146 190 242 296 345
#     4  10  21  38  59  83 116 157 195 236 292 359
#
# _framework density 20.397282000000001
#
# number of rings (size 3 to 8) (size 9 to 14) (size 15 to 20)
#    0.000    1.500    0.000    5.625    0.000    9.000 
#    0.000    1.875    0.000    1.500    0.000    0.000 
#    0.000    0.000    0.000    0.000    0.000    0.000 
#
# Total GULP energy -396729.249451 kJ/mol
# GULP energy per Si atom -12397.789045 kJ/mol
# Density = 2.035086 g / cm^3
# Si number density = 20.397282 Si / 1000 Ang^3
#
#
#
# Elastic Constant Matrix: (Units=GPa)
#
#
# Indices 1 2 3 4 5 6 
#
# 1 108.6602 52.7073 35.6219 0.0000 -4.3115 0.0000
# 2 52.7073 102.0589 50.8202 0.0000 -2.1024 0.0000
# 3 35.6219 50.8202 122.1724 0.0000 1.7906 0.0000
# 4 0.0000 0.0000 0.0000 31.1678 0.0000 8.9352
# 5 -4.3115 -2.1024 1.7906 0.0000 32.7545 0.0000
# 6 0.0000 0.0000 0.0000 8.9352 0.0000 8.7911
#
#
#
# Elastic Compliance Matrix: (Units=1/GPa)
#
#
# Indices 1 2 3 4 5 6 
#
# 1 0.012476 -0.005794 -0.001247 0.000000 0.001338 0.000000
# 2 -0.005794 0.015087 -0.004593 0.000000 0.000457 0.000000
# 3 -0.001247 -0.004593 0.010474 0.000000 -0.001032 0.000000
# 4 0.000000 0.000000 0.000000 0.045277 0.000000 -0.046019
# 5 0.001338 0.000457 -0.001032 0.000000 0.030792 0.000000
# 6 0.000000 0.000000 0.000000 -0.046019 0.000000 0.160524
#
#
# Mechanical properties :
#
#
# Convention : Reuss Voigt Hill
#
# Bulk Modulus (GPa) = 67.71141 67.91004 67.81072
# Shear Modulus (GPa) = 16.51132 27.45882 21.98507
#
# Velocity S-wave (km/s) = 2.84823 3.67304 3.28661
# Velocity P-wave (km/s) = 6.63965 7.16619 6.90794
#
# Compressibility (1/GPa) = 0.01476856
#
# Stress axis : x y z
#
# Youngs Moduli (GPa) = 80.15688 66.28100 95.47098
#
# Poissons Ratio (x) = 0.38406 0.11903
# Poissons Ratio (y) = 0.46447 0.43850
# Poissons Ratio (z) = 0.09994 0.30443
#
# Static dielectric constant tensor:
#      x y z
#    x 3.622130 0.000000 0.112940 
#    y 0.000000 3.962090 0.000000 
#    z 0.112940 0.000000 3.688550 
# 
# 
# High freq. dielectric constant tensor:
#      x y z
#    x 1.797890 0.000000 0.001730 
#    y 0.000000 1.802600 0.000000 
#    z 0.001730 0.000000 1.797140 
# 
# From -- ./inp_files/216811.got.cif
#   From: 2010.06.25/outbox.cif.g09.slc.cpg/sg12_109_cif.got.tgz:216811.got - 2010.06.28 00:19:55.
