data_PCOD8100193
_publ_section_title
;
Structure prediction by ZEFSAII (Michael W. Deem and Ramdas Pophale) SiO2 
 PCOD8100193
Probable space group: C 2/M
;
_chemical_formula_sum "Si O2"
_cell_formula_units_Z 64
_cell_length_a 22.418978
_cell_length_b 13.311781
_cell_length_c 11.041220
_cell_angle_alpha 90.000000
_cell_angle_beta 110.438443
_cell_angle_gamma 90.000000
_cell_volume 3087.669664
_symmetry_space_group_name_H-M "C 2/M"
_symmetry_group_IT_number 12
_symmetry_cell_setting 'monoclinic'
loop_
_space_group_symop_operation_xyz
x,y,z
-x,y,-z
-x,-y,-z
x,-y,z
1/2+x,1/2+y,z
1/2-x,1/2+y,-z
1/2-x,1/2-y,-z
1/2+x,1/2-y,z
loop_
_atom_site_type_symbol
_atom_site_label
_atom_site_fract_x
_atom_site_fract_y
_atom_site_fract_z
Si Si1 0.065940 0.199357 0.609235
Si Si2 0.226837 0.385054 0.389446
Si Si3 0.467190 0.116519 0.264329
Si Si4 0.097055 0.293299 0.277655
Si Si5 0.378357 0.613655 0.121873
Si Si6 0.137458 0.117468 0.439495
Si Si7 0.109835 0.696810 0.006264
Si Si8 0.243455 0.617780 0.131178
O O1 0.067971 0.315641 0.658187
O O2 0.075117 0.126361 0.730614
O O3 0.120978 0.174920 0.552605
O O4 0.000000 0.171120 0.500000
O O5 0.206999 0.500000 0.365198
O O6 0.163054 0.329021 0.386613
O O7 0.285902 0.370645 0.523783
O O8 0.248914 0.345778 0.273436
O O9 0.539765 0.155002 0.308850
O O10 0.464961 0.000000 0.302249
O O11 0.435031 0.128746 0.109914
O O12 0.099124 0.172436 0.302739
O O13 0.092008 0.322332 0.133231
O O14 0.380856 0.500000 0.076412
O O15 0.307281 0.648432 0.106959
O O16 0.401837 0.685735 0.030698
O O17 0.118268 0.000000 0.430525
O O18 0.182552 0.669861 0.026967
O O19 0.232818 0.500000 0.115532
#
# Coordination Sequence:
#
# PCOD8100193 Si02
#       8
#     8   8   8   8   8   8   8   8
#     4  11  22  41  61  89 117 148 194 243 297 346
#     4   9  18  34  60  89 115 149 197 245 292 347
#     4  11  24  42  63  87 118 153 193 242 299 358
#     4  11  22  39  58  88 120 162 198 240 285 349
#     4  10  20  35  58  84 114 152 197 245 290 344
#     4  11  22  39  62  88 121 158 199 243 292 349
#     4  10  22  36  57  83 120 153 197 241 292 344
#     4   9  16  31  56  84 110 147 196 244 294 345
#
# _framework density 20.727608
#
# number of rings (size 3 to 8) (size 9 to 14) (size 15 to 20)
#    0.000    1.750    2.500    2.250    0.000    3.750 
#    0.000    0.000    0.000    3.000    0.000    0.000 
#    0.000    0.000    0.000    0.000    0.000    0.000 
#
# Total GULP energy -396692.896175 kJ/mol
# GULP energy per Si atom -12396.653005 kJ/mol
# Density = 2.068043 g / cm^3
# Si number density = 20.727608 Si / 1000 Ang^3
#
#
#
# Elastic Constant Matrix: (Units=GPa)
#
#
# Indices 1 2 3 4 5 6 
#
# 1 60.8356 47.9138 22.8785 0.0000 12.3403 0.0000
# 2 47.9138 92.4312 14.0554 0.0000 10.0799 0.0000
# 3 22.8785 14.0554 49.1238 0.0000 11.6973 0.0000
# 4 0.0000 0.0000 0.0000 23.0572 0.0000 4.9887
# 5 12.3403 10.0799 11.6973 0.0000 23.5175 0.0000
# 6 0.0000 0.0000 0.0000 4.9887 0.0000 26.8081
#
#
#
# Elastic Compliance Matrix: (Units=1/GPa)
#
#
# Indices 1 2 3 4 5 6 
#
# 1 0.033188 -0.015061 -0.009685 0.000000 -0.006142 0.000000
# 2 -0.015061 0.018433 0.001974 0.000000 -0.000979 0.000000
# 3 -0.009685 0.001974 0.026423 0.000000 -0.008907 0.000000
# 4 0.000000 0.000000 0.000000 0.045190 0.000000 -0.008409
# 5 -0.006142 -0.000979 -0.008907 0.000000 0.050594 0.000000
# 6 0.000000 0.000000 0.000000 -0.008409 0.000000 0.038867
#
#
# Mechanical properties :
#
#
# Convention : Reuss Voigt Hill
#
# Bulk Modulus (GPa) = 30.76979 41.34288 36.05633
# Shear Modulus (GPa) = 18.58230 22.51275 20.54752
#
# Velocity S-wave (km/s) = 2.99741 3.29921 3.15193
# Velocity P-wave (km/s) = 5.18231 5.87386 5.53889
#
# Compressibility (1/GPa) = 0.03249941
#
# Stress axis : x y z
#
# Youngs Moduli (GPa) = 30.13141 54.25098 37.84525
#
# Poissons Ratio (x) = 0.81709 0.36652
# Poissons Ratio (y) = 0.45382 -0.07469
# Poissons Ratio (z) = 0.29182 -0.10707
#
# Static dielectric constant tensor:
#      x y z
#    x 3.761550 0.000000 0.212760 
#    y 0.000000 3.693180 0.000000 
#    z 0.212760 0.000000 3.656800 
# 
# 
# High freq. dielectric constant tensor:
#      x y z
#    x 1.808480 0.000000 0.019720 
#    y 0.000000 1.809290 0.000000 
#    z 0.019720 0.000000 1.798040 
# 
# From -- ./inp_files/175311.got.cif
#   From: 2010.06.25/outbox.cif.g09.slc.cpg/sg12_88_cif.got.tgz:175311.got - 2010.06.28 00:19:55.
