data_PCOD8100805
_publ_section_title
;
Structure prediction by ZEFSAII (Michael W. Deem and Ramdas Pophale) SiO2 
 PCOD8100805
Probable space group: C 2/M
;
_chemical_formula_sum "Si O2"
_cell_formula_units_Z 64
_cell_length_a 21.615041
_cell_length_b 21.693267
_cell_length_c 9.614173
_cell_angle_alpha 90.000000
_cell_angle_beta 124.822525
_cell_angle_gamma 90.000000
_cell_volume 3700.806022
_symmetry_space_group_name_H-M "C 2/M"
_symmetry_group_IT_number 12
_symmetry_cell_setting 'monoclinic'
loop_
_space_group_symop_operation_xyz
x,y,z
-x,y,-z
-x,-y,-z
x,-y,z
1/2+x,1/2+y,z
1/2-x,1/2+y,-z
1/2-x,1/2-y,-z
1/2+x,1/2-y,z
loop_
_atom_site_type_symbol
_atom_site_label
_atom_site_fract_x
_atom_site_fract_y
_atom_site_fract_z
Si Si1 0.810042 0.679217 0.454449
Si Si2 0.654732 0.363038 0.565244
Si Si3 0.555115 0.244160 0.957551
Si Si4 0.450196 0.753578 0.569400
Si Si5 0.069092 0.886729 0.997125
Si Si6 0.294450 0.216406 0.741493
Si Si7 0.798610 0.928462 0.649798
Si Si8 0.572322 0.569595 0.689945
O O1 0.891416 0.688468 0.482644
O O2 0.745523 0.717239 0.290304
O O3 0.824133 0.710694 0.622075
O O4 0.780061 0.609008 0.427285
O O5 0.595972 0.308551 0.455115
O O6 0.737349 0.337830 0.702886
O O7 0.657785 0.407126 0.434258
O O8 0.637799 0.397774 0.686944
O O9 0.515788 0.234008 0.762128
O O10 0.573537 0.314027 0.024754
O O11 0.500000 0.214144 0.000000
O O12 0.635607 0.209619 0.063158
O O13 0.500000 0.743153 0.500000
O O14 0.056340 0.898807 0.817084
O O15 0.145977 0.918398 0.148444
O O16 0.000000 0.914106 0.000000
O O17 0.776682 0.000000 0.609006
O O18 0.500000 0.574136 0.500000
O O19 0.596750 0.500000 0.750553
#
# Coordination Sequence:
#
# PCOD8100805 Si02
#       8
#     8   8   8   8   8   8   8   8
#     4   9  18  35  51  76 108 136 175 220 260 317
#     4  10  20  36  54  77 108 137 173 216 265 322
#     4  11  18  31  54  80 102 137 170 211 267 317
#     4  11  21  34  54  79 111 139 172 216 275 319
#     4  11  22  33  51  77 108 136 179 216 249 309
#     4   9  17  32  55  77 102 135 167 219 271 313
#     4  11  21  35  56  78 104 144 184 219 257 305
#     4  11  22  36  50  69 105 146 179 211 250 303
#
# _framework density 17.293528999999999
#
# number of rings (size 3 to 8) (size 9 to 14) (size 15 to 20)
#    0.000    1.625    2.500    5.625    0.000    2.000 
#    2.250    1.875    0.000    0.375    0.000    7.875 
#    0.000    0.000    0.000    0.000    0.000    0.000 
#
# Total GULP energy -396705.731089 kJ/mol
# GULP energy per Si atom -12397.054097 kJ/mol
# Density = 1.725417 g / cm^3
# Si number density = 17.293529 Si / 1000 Ang^3
#
#
#
# Elastic Constant Matrix: (Units=GPa)
#
#
# Indices 1 2 3 4 5 6 
#
# 1 59.6304 25.8389 29.5367 0.0000 10.2190 0.0000
# 2 25.8389 68.8513 17.2294 0.0000 11.4538 0.0000
# 3 29.5367 17.2294 102.9607 0.0000 15.4039 0.0000
# 4 0.0000 0.0000 0.0000 16.1220 0.0000 1.6613
# 5 10.2190 11.4538 15.4039 0.0000 32.0959 0.0000
# 6 0.0000 0.0000 0.0000 1.6613 0.0000 22.4507
#
#
#
# Elastic Compliance Matrix: (Units=1/GPa)
#
#
# Indices 1 2 3 4 5 6 
#
# 1 0.022611 -0.006844 -0.004988 0.000000 -0.002363 0.000000
# 2 -0.006844 0.017864 -0.000429 0.000000 -0.003990 0.000000
# 3 -0.004988 -0.000429 0.011802 0.000000 -0.003923 0.000000
# 4 0.000000 0.000000 0.000000 0.062504 0.000000 -0.004625
# 5 -0.002363 -0.003990 -0.003923 0.000000 0.035216 0.000000
# 6 0.000000 0.000000 0.000000 -0.004625 0.000000 0.044884
#
#
# Mechanical properties :
#
#
# Convention : Reuss Voigt Hill
#
# Bulk Modulus (GPa) = 36.02976 41.85028 38.94002
# Shear Modulus (GPa) = 21.86707 24.72288 23.29498
#
# Velocity S-wave (km/s) = 3.55979 3.78511 3.67418
# Velocity P-wave (km/s) = 6.14619 6.58447 6.36910
#
# Compressibility (1/GPa) = 0.02775483
#
# Stress axis : x y z
#
# Youngs Moduli (GPa) = 44.22563 55.97929 84.73148
#
# Poissons Ratio (x) = 0.38315 0.42262
# Poissons Ratio (y) = 0.30270 0.03634
# Poissons Ratio (z) = 0.22059 0.02401
#
# Static dielectric constant tensor:
#      x y z
#    x 3.349050 0.000000 0.032150 
#    y 0.000000 3.070730 0.000000 
#    z 0.032150 0.000000 3.080920 
# 
# 
# High freq. dielectric constant tensor:
#      x y z
#    x 1.665660 0.000000 0.001500 
#    y 0.000000 1.637880 0.000000 
#    z 0.001500 0.000000 1.666270 
# 
# From -- ./inp_files/91119.got.cif
#   From: 2010.06.25/outbox.cif.g09.slc.cpg/sg12_46_cif.got.tgz:91119.got - 2010.06.28 00:19:55.
