data_PCOD8100400
_publ_section_title
;
Structure prediction by ZEFSAII (Michael W. Deem and Ramdas Pophale) SiO2 
 PCOD8100400
Probable space group: C 2/M
;
_chemical_formula_sum "Si O2"
_cell_formula_units_Z 56
_cell_length_a 9.005394
_cell_length_b 19.264123
_cell_length_c 26.201829
_cell_angle_alpha 90.000000
_cell_angle_beta 140.020627
_cell_angle_gamma 90.000000
_cell_volume 2920.550144
_symmetry_space_group_name_H-M "C 2/M"
_symmetry_group_IT_number 12
_symmetry_cell_setting 'monoclinic'
loop_
_space_group_symop_operation_xyz
x,y,z
-x,y,-z
-x,-y,-z
x,-y,z
1/2+x,1/2+y,z
1/2-x,1/2+y,-z
1/2-x,1/2-y,-z
1/2+x,1/2-y,z
loop_
_atom_site_type_symbol
_atom_site_label
_atom_site_fract_x
_atom_site_fract_y
_atom_site_fract_z
Si Si1 0.283520 0.181104 0.477077
Si Si2 0.977006 0.317685 0.131995
Si Si3 0.858070 0.581820 0.014268
Si Si4 0.594800 0.328879 0.115745
Si Si5 0.960877 0.661758 0.293727
Si Si6 0.757829 0.580234 0.557069
Si Si7 0.820164 0.794032 0.308784
O O1 0.500000 0.196304 0.500000
O O2 0.250000 0.250000 0.500000
O O3 0.345817 0.116640 0.529238
O O4 0.055821 0.164705 0.383156
O O5 0.990250 0.381519 0.096027
O O6 0.739122 0.318750 0.101575
O O7 0.989540 0.245101 0.104800
O O8 0.199299 0.327127 0.227037
O O9 0.834820 0.500000 0.019398
O O10 0.605290 0.615423 0.944845
O O11 0.000000 0.595493 0.000000
O O12 0.755505 0.361834 0.202292
O O13 0.867722 0.712700 0.312924
O O14 0.075962 0.595468 0.351015
O O15 0.151123 0.704245 0.312317
O O16 0.500000 0.607933 0.500000
O O17 0.759998 0.500000 0.546197
#
# Coordination Sequence:
#
# PCOD8100400 Si02
#       7
#     8   8   8   8   8   8   8
#     4  12  22  36  62  89 117 155 202 247 290 344
#     4  10  21  38  61  90 120 152 191 246 297 346
#     4  11  24  42  61  84 118 158 198 239 293 355
#     4  10  21  37  63  90 119 150 193 244 292 353
#     4  10  20  36  59  89 116 148 195 246 295 346
#     4  11  23  39  57  81 121 162 198 241 295 348
#     4  10  20  35  58  91 116 147 195 243 295 341
#
# _framework density 19.174468999999998
#
# number of rings (size 3 to 8) (size 9 to 14) (size 15 to 20)
#    0.000    1.429    2.857    3.000    0.000    3.143 
#    0.000    2.857    0.000    0.000    0.000    0.000 
#    0.000    0.000    0.000    0.000    0.000    0.000 
#
# Total GULP energy -347249.256117 kJ/mol
# GULP energy per Si atom -12401.759147 kJ/mol
# Density = 1.913083 g / cm^3
# Si number density = 19.174469 Si / 1000 Ang^3
#
#
#
# Elastic Constant Matrix: (Units=GPa)
#
#
# Indices 1 2 3 4 5 6 
#
# 1 121.1543 52.7998 43.1603 0.0002 0.7893 0.0002
# 2 52.7998 104.6067 53.9712 0.0002 -7.2310 0.0002
# 3 43.1603 53.9712 132.2270 0.0002 2.6961 0.0000
# 4 0.0002 0.0002 0.0002 26.3904 0.0002 -0.9456
# 5 0.7893 -7.2310 2.6961 0.0002 28.7620 0.0001
# 6 0.0002 0.0002 0.0000 -0.9456 0.0001 25.6740
#
#
#
# Elastic Compliance Matrix: (Units=1/GPa)
#
#
# Indices 1 2 3 4 5 6 
#
# 1 0.010911 -0.004786 -0.001581 0.000000 -0.001354 0.000000
# 2 -0.004786 0.014574 -0.004473 0.000000 0.004215 0.000000
# 3 -0.001581 -0.004473 0.009945 0.000000 -0.002013 0.000000
# 4 0.000000 0.000000 0.000000 0.037943 0.000000 0.001397
# 5 -0.001354 0.004215 -0.002013 0.000000 0.036054 0.000000
# 6 0.000000 0.000000 0.000000 0.001397 0.000000 0.039001
#
#
# Mechanical properties :
#
#
# Convention : Reuss Voigt Hill
#
# Bulk Modulus (GPa) = 72.71050 73.09453 72.90251
# Shear Modulus (GPa) = 28.62207 30.03574 29.32890
#
# Velocity S-wave (km/s) = 3.86776 3.96213 3.91523
# Velocity P-wave (km/s) = 7.61242 7.68991 7.65126
#
# Compressibility (1/GPa) = 0.01375317
#
# Stress axis : x y z
#
# Youngs Moduli (GPa) = 91.64685 68.61506 100.54981
#
# Poissons Ratio (x) = 0.32836 0.15893
# Poissons Ratio (y) = 0.43859 0.44972
# Poissons Ratio (z) = 0.14486 0.30689
#
# Static dielectric constant tensor:
#      x y z
#    x 3.618260 0.000000 -0.004660 
#    y 0.000000 3.273090 0.000000 
#    z -0.004660 0.000000 3.873580 
# 
# 
# High freq. dielectric constant tensor:
#      x y z
#    x 1.756310 0.000000 -0.002640 
#    y 0.000000 1.719120 0.000000 
#    z -0.002640 0.000000 1.766400 
# 
# From -- ./inp_files/356662.got.cif
#   From: 2010.06.25/outbox.cif.g09.slc.cpg/sg12_179_cif.got.tgz:356662.got - 2010.06.28 00:19:55.
