data_PCOD8100023
_publ_section_title
;
Structure prediction by ZEFSAII (Michael W. Deem and Ramdas Pophale) SiO2 
 PCOD8100023
Probable space group: C 2/M
;
_chemical_formula_sum "Si O2"
_cell_formula_units_Z 64
_cell_length_a 15.417161
_cell_length_b 8.906386
_cell_length_c 30.580830
_cell_angle_alpha 90.000000
_cell_angle_beta 129.030158
_cell_angle_gamma 90.000000
_cell_volume 3261.914497
_symmetry_space_group_name_H-M "C 2/M"
_symmetry_group_IT_number 12
_symmetry_cell_setting 'monoclinic'
loop_
_space_group_symop_operation_xyz
x,y,z
-x,y,-z
-x,-y,-z
x,-y,z
1/2+x,1/2+y,z
1/2-x,1/2+y,-z
1/2-x,1/2-y,-z
1/2+x,1/2-y,z
loop_
_atom_site_type_symbol
_atom_site_label
_atom_site_fract_x
_atom_site_fract_y
_atom_site_fract_z
Si Si1 0.918583 0.325185 0.052370
Si Si2 0.649067 0.824634 0.442931
Si Si3 0.680518 0.177254 0.745650
Si Si4 0.256739 0.329123 0.322316
Si Si5 0.430475 0.177280 0.673788
Si Si6 0.473952 0.329989 0.442579
Si Si7 0.762395 0.824819 0.934817
Si Si8 0.676526 0.177012 0.134662
O O1 0.906036 0.500000 0.036395
O O2 0.854209 0.289268 0.077318
O O3 0.046838 0.276110 0.096606
O O4 0.866244 0.230774 0.996439
O O5 0.750000 0.750000 0.500000
O O6 0.635083 0.759086 0.389419
O O7 0.534350 0.787805 0.430700
O O8 0.671593 0.000000 0.449588
O O9 0.711704 0.215998 0.705914
O O10 0.556432 0.240278 0.716681
O O11 0.766657 0.258626 0.804394
O O12 0.688945 0.000000 0.755348
O O13 0.252328 0.500000 0.302815
O O14 0.136635 0.279660 0.303642
O O15 0.342971 0.319274 0.390166
O O16 0.437994 0.000000 0.670199
O O17 0.500000 0.280387 0.500000
O O18 0.518009 0.500000 0.448701
O O19 0.762339 0.742223 0.888489
O O20 0.776465 0.000000 0.930561
O O21 0.690035 0.000000 0.137997
#
# Coordination Sequence:
#
# PCOD8100023 Si02
#       8
#     8   8   8   8   8   8   8   8
#     4   9  20  38  59  85 122 162 195 235 292 355
#     4  11  21  36  57  84 117 150 189 234 290 350
#     4  11  23  41  60  83 115 151 196 249 295 339
#     4  10  20  38  62  83 109 149 192 231 286 354
#     4   9  20  39  61  81 111 152 187 230 292 354
#     4  10  20  35  57  85 117 149 187 233 287 353
#     4  10  20  36  60  90 121 155 197 245 292 339
#     4  11  23  39  59  84 117 158 201 239 290 353
#
# _framework density 19.620380000000001
#
# number of rings (size 3 to 8) (size 9 to 14) (size 15 to 20)
#    0.000    1.875    1.250    2.625    0.000    6.250 
#    0.000    8.750    0.000    0.000    0.000    0.000 
#    0.000    0.000    0.000    0.000    0.000    0.000 
#
# Total GULP energy -396848.305363 kJ/mol
# GULP energy per Si atom -12401.509543 kJ/mol
# Density = 1.957572 g / cm^3
# Si number density = 19.620380 Si / 1000 Ang^3
#
#
#
# Elastic Constant Matrix: (Units=GPa)
#
#
# Indices 1 2 3 4 5 6 
#
# 1 110.6290 23.5493 41.2325 0.0000 1.3335 0.0000
# 2 23.5493 52.5368 28.9485 0.0000 0.2388 0.0000
# 3 41.2325 28.9485 97.8988 0.0000 -3.6939 0.0000
# 4 0.0000 0.0000 0.0000 31.8674 0.0000 -4.0057
# 5 1.3335 0.2388 -3.6939 0.0000 27.7029 0.0000
# 6 0.0000 0.0000 0.0000 -4.0057 0.0000 32.0397
#
#
#
# Elastic Compliance Matrix: (Units=1/GPa)
#
#
# Indices 1 2 3 4 5 6 
#
# 1 0.011099 -0.002835 -0.003875 0.000000 -0.001027 0.000000
# 2 -0.002835 0.023497 -0.005785 0.000000 -0.000838 0.000000
# 3 -0.003875 -0.005785 0.013635 0.000000 0.002055 0.000000
# 4 0.000000 0.000000 0.000000 0.031881 0.000000 0.003986
# 5 -0.001027 -0.000838 0.002055 0.000000 0.036428 0.000000
# 6 0.000000 0.000000 0.000000 0.003986 0.000000 0.031710
#
#
# Mechanical properties :
#
#
# Convention : Reuss Voigt Hill
#
# Bulk Modulus (GPa) = 43.03011 49.83612 46.43311
# Shear Modulus (GPa) = 27.62612 29.47762 28.55187
#
# Velocity S-wave (km/s) = 3.75645 3.88028 3.81887
# Velocity P-wave (km/s) = 6.38698 6.74765 6.56979
#
# Compressibility (1/GPa) = 0.02323954
#
# Stress axis : x y z
#
# Youngs Moduli (GPa) = 90.09455 42.55888 73.34074
#
# Poissons Ratio (x) = 0.12067 0.28421
# Poissons Ratio (y) = 0.25545 0.42431
# Poissons Ratio (z) = 0.34913 0.24622
#
# Static dielectric constant tensor:
#      x y z
#    x 3.836830 0.000000 0.148400 
#    y 0.000000 3.564540 0.000000 
#    z 0.148400 0.000000 3.647510 
# 
# 
# High freq. dielectric constant tensor:
#      x y z
#    x 1.774760 0.000000 0.001690 
#    y 0.000000 1.752630 0.000000 
#    z 0.001690 0.000000 1.765230 
# 
# From -- ./inp_files/375591.got.cif
#   From: 2010.06.25/outbox.cif.g09.slc.cpg/sg12_188_cif.got.tgz:375591.got - 2010.06.28 00:19:55.
