data_PCOD8100747
_publ_section_title
;
Structure prediction by ZEFSAII (Michael W. Deem and Ramdas Pophale) SiO2 
 PCOD8100747
Probable space group: C 2/M
;
_chemical_formula_sum "Si O2"
_cell_formula_units_Z 48
_cell_length_a 15.089768
_cell_length_b 11.172326
_cell_length_c 18.324323
_cell_angle_alpha 90.000000
_cell_angle_beta 130.311897
_cell_angle_gamma 90.000000
_cell_volume 2355.663869
_symmetry_space_group_name_H-M "C 2/M"
_symmetry_group_IT_number 12
_symmetry_cell_setting 'monoclinic'
loop_
_space_group_symop_operation_xyz
x,y,z
-x,y,-z
-x,-y,-z
x,-y,z
1/2+x,1/2+y,z
1/2-x,1/2+y,-z
1/2-x,1/2-y,-z
1/2+x,1/2-y,z
loop_
_atom_site_type_symbol
_atom_site_label
_atom_site_fract_x
_atom_site_fract_y
_atom_site_fract_z
Si Si1 0.819397 0.362704 0.072228
Si Si2 0.416723 0.862029 0.279793
Si Si3 0.458469 0.500000 0.596038
Si Si4 0.260044 0.754635 0.710680
Si Si5 0.825025 0.000000 0.374868
Si Si6 0.146273 0.776394 0.388678
Si Si7 0.452557 0.135175 0.897761
O O1 0.766545 0.500000 0.031599
O O2 0.834928 0.336615 0.166283
O O3 0.947442 0.362664 0.108336
O O4 0.750000 0.250000 0.000000
O O5 0.360331 0.793590 0.319731
O O6 0.551819 0.830798 0.337232
O O7 0.412919 0.000000 0.298929
O O8 0.394210 0.500000 0.485772
O O9 0.595503 0.500000 0.654804
O O10 0.430792 0.385465 0.627489
O O11 0.304620 0.680712 0.664225
O O12 0.355455 0.767233 0.825023
O O13 0.253207 0.883563 0.668400
O O14 0.250000 0.750000 0.500000
O O15 0.400625 0.000000 0.877219
O O16 0.500000 0.180349 0.000000
#
# Coordination Sequence:
#
# PCOD8100747 Si02
#       7
#     8   8   4   8   4   8   8
#     4  10  21  42  66  95 133 176 219 276 335 398
#     4  11  26  45  64  95 138 177 216 269 340 399
#     4  11  24  44  60  96 128 162 225 281 322 388
#     4  12  23  42  67  95 128 173 219 267 328 391
#     4  11  22  40  69  89 126 167 217 276 329 371
#     4  12  26  42  68  94 129 175 224 271 331 394
#     4  10  20  35  63  97 125 161 215 267 320 386
#
# _framework density 20.376421000000001
#
# number of rings (size 3 to 8) (size 9 to 14) (size 15 to 20)
#    0.000    1.000    5.833    1.000    3.500    0.667 
#    3.000    1.667    0.000    3.000    0.000    0.000 
#    0.000    0.000    0.000    0.000    0.000    0.000 
#
# Total GULP energy -297453.948919 kJ/mol
# GULP energy per Si atom -12393.914538 kJ/mol
# Density = 2.033004 g / cm^3
# Si number density = 20.376421 Si / 1000 Ang^3
#
#
#
# Elastic Constant Matrix: (Units=GPa)
#
#
# Indices 1 2 3 4 5 6 
#
# 1 118.2808 13.9576 23.0597 0.0000 -9.1372 0.0000
# 2 13.9576 86.0556 27.1627 0.0000 -0.6029 0.0000
# 3 23.0597 27.1627 95.8901 0.0000 -2.6052 0.0000
# 4 0.0000 0.0000 0.0000 24.0087 0.0000 -17.1050
# 5 -9.1372 -0.6029 -2.6052 0.0000 30.7321 0.0000
# 6 0.0000 0.0000 0.0000 -17.1050 0.0000 11.7526
#
#
#
# Elastic Compliance Matrix: (Units=1/GPa)
#
#
# Indices 1 2 3 4 5 6 
#
# 1 0.009119 -0.000868 -0.001878 0.000000 0.002535 0.000000
# 2 -0.000868 0.012844 -0.003438 0.000000 -0.000298 0.000000
# 3 -0.001878 -0.003438 0.011864 0.000000 0.000380 0.000000
# 4 0.000000 0.000000 0.000000 -1.128281 0.000000 -1.642123
# 5 0.002535 -0.000298 0.000380 0.000000 0.033319 0.000000
# 6 0.000000 0.000000 0.000000 -1.642123 0.000000 -2.304894
#
#
# Mechanical properties :
#
#
# Convention : Reuss Voigt Hill
#
# Bulk Modulus (GPa) = 46.60003 47.62073 47.11038
# Shear Modulus (GPa) = -1.49410 29.03512 13.77051
#
# Velocity S-wave (km/s) = -0.85723 3.77893 2.60245
# Velocity P-wave (km/s) = 4.68396 6.51626 5.67455
#
# Compressibility (1/GPa) = 0.02145922
#
# Stress axis : x y z
#
# Youngs Moduli (GPa) = 109.66231 77.85605 84.28628
#
# Poissons Ratio (x) = 0.06762 0.15829
# Poissons Ratio (y) = 0.09524 0.28974
# Poissons Ratio (z) = 0.20595 0.26764
#
# Static dielectric constant tensor:
#      x y z
#    x 3.849070 0.000000 -0.094160 
#    y 0.000000 3.105950 0.000000 
#    z -0.094160 0.000000 3.637700 
# 
# 
# High freq. dielectric constant tensor:
#      x y z
#    x 1.812330 0.000000 -0.006950 
#    y 0.000000 1.789200 0.000000 
#    z -0.006950 0.000000 1.790560 
# 
# From -- ./inp_files/212680.got.cif
#   From: 2010.06.25/outbox.cif.g09.slc.cpg/sg12_107_cif.got.tgz:212680.got - 2010.06.28 00:19:55.
