data_PCOD8100347
_publ_section_title
;
Structure prediction by ZEFSAII (Michael W. Deem and Ramdas Pophale) SiO2 
 PCOD8100347
Probable space group: C 2/M
;
_chemical_formula_sum "Si O2"
_cell_formula_units_Z 48
_cell_length_a 19.907355
_cell_length_b 8.837914
_cell_length_c 31.171618
_cell_angle_alpha 90.000000
_cell_angle_beta 152.111432
_cell_angle_gamma 90.000000
_cell_volume 2565.309068
_symmetry_space_group_name_H-M "C 2/M"
_symmetry_group_IT_number 12
_symmetry_cell_setting 'monoclinic'
loop_
_space_group_symop_operation_xyz
x,y,z
-x,y,-z
-x,-y,-z
x,-y,z
1/2+x,1/2+y,z
1/2-x,1/2+y,-z
1/2-x,1/2-y,-z
1/2+x,1/2-y,z
loop_
_atom_site_type_symbol
_atom_site_label
_atom_site_fract_x
_atom_site_fract_y
_atom_site_fract_z
Si Si1 0.189518 0.322841 0.423068
Si Si2 0.361886 0.328155 0.951445
Si Si3 0.924024 0.176154 0.230132
Si Si4 0.612973 0.821982 0.944551
Si Si5 0.418679 0.325726 0.769360
Si Si6 0.838338 0.175416 0.419155
O O1 0.168006 0.500000 0.417974
O O2 0.250000 0.250000 0.500000
O O3 0.301358 0.288571 0.447775
O O4 0.035550 0.250144 0.326012
O O5 0.323324 0.500000 0.942854
O O6 0.228916 0.256560 0.850371
O O7 0.500000 0.323086 0.000000
O O8 0.398924 0.229818 0.013571
O O9 0.974040 0.202803 0.209608
O O10 0.910637 0.000000 0.233683
O O11 0.470363 0.771655 0.838922
O O12 0.629929 0.000000 0.952709
O O13 0.750000 0.750000 0.000000
O O14 0.415694 0.500000 0.781177
O O15 0.259305 0.274224 0.667353
O O16 0.000000 0.223471 0.500000
O O17 0.810395 0.000000 0.393211
#
# Coordination Sequence:
#
# PCOD8100347 Si02
#       6
#     8   8   8   8   8   8
#     4  10  20  36  59  84 112 147 190 238 285 341
#     4  11  24  41  60  85 119 154 191 239 293 344
#     4  10  20  36  60  85 113 151 193 236 285 344
#     4  12  23  37  61  88 116 152 194 240 284 340
#     4  10  20  35  58  88 116 148 191 238 285 338
#     4   9  19  37  59  83 113 148 187 235 288 339
#
# _framework density 18.711193999999999
#
# number of rings (size 3 to 8) (size 9 to 14) (size 15 to 20)
#    0.000    1.667    1.667    3.500    0.000    3.667 
#    3.000    0.000    0.000    0.000    0.000    0.000 
#    0.000    0.000    0.000    0.000    0.000    0.000 
#
# Total GULP energy -297726.954340 kJ/mol
# GULP energy per Si atom -12405.289764 kJ/mol
# Density = 1.866861 g / cm^3
# Si number density = 18.711194 Si / 1000 Ang^3
#
#
#
# Elastic Constant Matrix: (Units=GPa)
#
#
# Indices 1 2 3 4 5 6 
#
# 1 68.8811 50.1312 63.3150 0.0003 -5.4134 -0.0011
# 2 50.1312 151.7485 83.2452 0.0007 -7.5276 -0.0025
# 3 63.3150 83.2452 151.0883 0.0005 -6.8396 0.0005
# 4 0.0003 0.0007 0.0005 40.4021 0.0001 -4.5924
# 5 -5.4134 -7.5276 -6.8396 0.0001 36.0122 0.0002
# 6 -0.0011 -0.0025 0.0005 -4.5924 0.0002 27.5500
#
#
#
# Elastic Compliance Matrix: (Units=1/GPa)
#
#
# Indices 1 2 3 4 5 6 
#
# 1 0.024975 -0.003546 -0.008448 0.000000 0.001408 0.000001
# 2 -0.003546 0.009983 -0.003978 0.000000 0.000798 0.000001
# 3 -0.008448 -0.003978 0.012362 0.000000 0.000246 -0.000001
# 4 0.000000 0.000000 0.000000 0.025229 0.000000 0.004206
# 5 0.001408 0.000798 0.000246 0.000000 0.028194 0.000000
# 6 0.000001 0.000001 -0.000001 0.004206 0.000000 0.036999
#
#
# Mechanical properties :
#
#
# Convention : Reuss Voigt Hill
#
# Bulk Modulus (GPa) = 65.04226 85.01118 75.02672
# Shear Modulus (GPa) = 28.60198 32.46131 30.53165
#
# Velocity S-wave (km/s) = 3.91398 4.16968 4.04385
# Velocity P-wave (km/s) = 7.43386 8.28937 7.87324
#
# Compressibility (1/GPa) = 0.01537462
#
# Stress axis : x y z
#
# Youngs Moduli (GPa) = 40.03984 100.16645 80.89228
#
# Poissons Ratio (x) = 0.35522 0.68341
# Poissons Ratio (y) = 0.14199 0.32181
# Poissons Ratio (z) = 0.33827 0.39849
#
# Static dielectric constant tensor:
#      x y z
#    x 2.839520 0.000000 0.186910 
#    y 0.000000 3.658260 0.000000 
#    z 0.186910 0.000000 3.433690 
# 
# 
# High freq. dielectric constant tensor:
#      x y z
#    x 1.706510 0.000000 -0.004550 
#    y 0.000000 1.743560 0.000000 
#    z -0.004550 0.000000 1.738800 
# 
# From -- ./inp_files/244619.got.cif
#   From: 2010.06.25/outbox.cif.g09.slc.cpg/sg12_123_cif.got.tgz:244619.got - 2010.06.28 00:19:55.
