data_PCOD8100668
_publ_section_title
;
Structure prediction by ZEFSAII (Michael W. Deem and Ramdas Pophale) SiO2 
 PCOD8100668
Probable space group: C 2/M
;
_chemical_formula_sum "Si O2"
_cell_formula_units_Z 60
_cell_length_a 10.779252
_cell_length_b 29.142259
_cell_length_c 12.046823
_cell_angle_alpha 90.000000
_cell_angle_beta 127.156325
_cell_angle_gamma 90.000000
_cell_volume 3016.043099
_symmetry_space_group_name_H-M "C 2/M"
_symmetry_group_IT_number 12
_symmetry_cell_setting 'monoclinic'
loop_
_space_group_symop_operation_xyz
x,y,z
-x,y,-z
-x,-y,-z
x,-y,z
1/2+x,1/2+y,z
1/2-x,1/2+y,-z
1/2-x,1/2-y,-z
1/2+x,1/2-y,z
loop_
_atom_site_type_symbol
_atom_site_label
_atom_site_fract_x
_atom_site_fract_y
_atom_site_fract_z
Si Si1 0.410625 0.143909 0.068325
Si Si2 0.972639 0.449928 0.853870
Si Si3 0.705233 0.367489 0.420925
Si Si4 0.500000 0.183009 0.500000
Si Si5 0.517533 0.226540 0.275034
Si Si6 0.169212 0.052563 0.551702
Si Si7 0.170826 0.197331 0.606340
Si Si8 0.605232 0.674992 0.808811
O O1 0.428111 0.093750 0.136399
O O2 0.483750 0.181935 0.185506
O O3 0.500000 0.144673 0.000000
O O4 0.227217 0.154557 0.961513
O O5 0.027323 0.500000 0.835398
O O6 0.793173 0.441580 0.719817
O O7 0.000000 0.451247 0.000000
O O8 0.852801 0.350889 0.430487
O O9 0.717454 0.420693 0.464228
O O10 0.697169 0.342637 0.533909
O O11 0.549729 0.355764 0.266984
O O12 0.477330 0.215875 0.380874
O O13 0.701962 0.236896 0.352793
O O14 0.427546 0.271252 0.183728
O O15 0.000000 0.070727 0.500000
O O16 0.156834 0.000000 0.507848
O O17 0.188710 0.173135 0.734538
O O18 0.000000 0.219599 0.500000
#
# Coordination Sequence:
#
# PCOD8100668 Si02
#       8
#     8   8   8   4   8   8   8   8
#     4  11  22  38  60  81 119 158 195 244 302 361
#     4   9  19  33  55  86 117 151 186 233 301 363
#     4  10  22  36  57  84 118 158 200 245 300 358
#     4  10  24  38  59  82 118 158 205 250 288 356
#     4  11  23  38  56  84 116 158 203 245 295 355
#     4  10  20  35  60  93 125 151 193 258 311 355
#     4   9  19  34  54  80 109 144 194 242 293 349
#     4  11  23  36  57  86 115 158 200 249 300 353
#
# _framework density 19.893615
#
# number of rings (size 3 to 8) (size 9 to 14) (size 15 to 20)
#    0.000    1.867    1.333    3.200   10.267    2.667 
#    0.000    1.000    0.000    0.800    0.000    0.000 
#    0.000    4.267    0.000    0.000    0.000    0.000 
#
# Total GULP energy -371779.877178 kJ/mol
# GULP energy per Si atom -12392.662573 kJ/mol
# Density = 1.984834 g / cm^3
# Si number density = 19.893615 Si / 1000 Ang^3
#
#
#
# Elastic Constant Matrix: (Units=GPa)
#
#
# Indices 1 2 3 4 5 6 
#
# 1 105.1895 43.4865 35.8070 0.0000 22.2415 0.0000
# 2 43.4865 135.6298 57.1045 0.0000 21.8729 0.0000
# 3 35.8070 57.1045 83.8821 0.0000 23.2858 0.0000
# 4 0.0000 0.0000 0.0000 44.6846 0.0000 -28.6488
# 5 22.2415 21.8729 23.2858 0.0000 29.3260 0.0000
# 6 0.0000 0.0000 0.0000 -28.6488 0.0000 99.1555
#
#
#
# Elastic Compliance Matrix: (Units=1/GPa)
#
#
# Indices 1 2 3 4 5 6 
#
# 1 0.012401 -0.002068 -0.002185 0.000000 -0.006128 0.000000
# 2 -0.002068 0.010852 -0.006021 0.000000 -0.001745 0.000000
# 3 -0.002185 -0.006021 0.019557 0.000000 -0.009382 0.000000
# 4 0.000000 0.000000 0.000000 0.027467 0.000000 0.007936
# 5 -0.006128 -0.001745 -0.009382 0.000000 0.047498 0.000000
# 6 0.000000 0.000000 0.000000 0.007936 0.000000 0.012378
#
#
# Mechanical properties :
#
#
# Convention : Reuss Voigt Hill
#
# Bulk Modulus (GPa) = 44.91611 66.38861 55.65236
# Shear Modulus (GPa) = 31.62114 47.18677 39.40396
#
# Velocity S-wave (km/s) = 3.99119 4.87556 4.45537
# Velocity P-wave (km/s) = 6.62319 8.07087 7.38260
#
# Compressibility (1/GPa) = 0.02226373
#
# Stress axis : x y z
#
# Youngs Moduli (GPa) = 80.63874 92.14495 51.13211
#
# Poissons Ratio (x) = 0.19056 0.11171
# Poissons Ratio (y) = 0.16676 0.30786
# Poissons Ratio (z) = 0.17617 0.55479
#
# Static dielectric constant tensor:
#      x y z
#    x 5.285950 0.000000 0.075700 
#    y 0.000000 3.972340 0.000000 
#    z 0.075700 0.000000 3.753020 
# 
# 
# High freq. dielectric constant tensor:
#      x y z
#    x 1.746790 0.000000 0.027730 
#    y 0.000000 1.785590 0.000000 
#    z 0.027730 0.000000 1.775030 
# 
# From -- ./inp_files/137627.got.cif
#   From: 2010.06.25/outbox.cif.g09.slc.cpg/sg12_69_cif.got.tgz:137627.got - 2010.06.28 00:19:55.
