data_PCOD8100284
_publ_section_title
;
Structure prediction by ZEFSAII (Michael W. Deem and Ramdas Pophale) SiO2 
 PCOD8100284
Probable space group: C 2/M
;
_chemical_formula_sum "Si O2"
_cell_formula_units_Z 40
_cell_length_a 12.759126
_cell_length_b 20.484808
_cell_length_c 7.300350
_cell_angle_alpha 90.000000
_cell_angle_beta 100.955229
_cell_angle_gamma 90.000000
_cell_volume 1873.306799
_symmetry_space_group_name_H-M "C 2/M"
_symmetry_group_IT_number 12
_symmetry_cell_setting 'monoclinic'
loop_
_space_group_symop_operation_xyz
x,y,z
-x,y,-z
-x,-y,-z
x,-y,z
1/2+x,1/2+y,z
1/2-x,1/2+y,-z
1/2-x,1/2-y,-z
1/2+x,1/2-y,z
loop_
_atom_site_type_symbol
_atom_site_label
_atom_site_fract_x
_atom_site_fract_y
_atom_site_fract_z
Si Si1 0.290479 0.370982 0.684889
Si Si2 0.309008 0.425070 0.285235
Si Si3 0.517126 0.674501 0.720481
Si Si4 0.578709 0.186546 0.694492
Si Si5 0.152341 0.428032 0.925468
O O1 0.295653 0.403784 0.488906
O O2 0.405174 0.341536 0.782489
O O3 0.200677 0.313385 0.656656
O O4 0.254628 0.425118 0.821433
O O5 0.347475 0.500000 0.289876
O O6 0.397112 0.381571 0.208892
O O7 0.195951 0.415666 0.144979
O O8 0.500000 0.679653 0.500000
O O9 0.558386 0.745907 0.796253
O O10 0.500000 0.174101 0.500000
O O11 0.565619 0.126711 0.836793
O O12 0.099674 0.500000 0.893961
#
# Coordination Sequence:
#
# PCOD8100284 Si02
#       5
#     8   8   8   8   8
#     4   9  20  37  60  80 113 149 188 226 288 333
#     4  10  20  35  58  86 117 148 185 236 283 333
#     4   9  19  34  57  85 114 146 188 231 279 340
#     4   9  20  38  60  81 112 154 188 234 281 330
#     4   9  20  37  58  86 115 146 190 233 276 338
#
# _framework density 21.352616000000001
#
# number of rings (size 3 to 8) (size 9 to 14) (size 15 to 20)
#    1.200    1.600    0.000    0.600    0.000   13.600 
#    0.000    3.000   13.200    2.400    0.000    0.000 
#    0.000    0.000    0.000    0.000    0.000    0.000 
#
# Total GULP energy -247816.408087 kJ/mol
# GULP energy per Si atom -12390.820404 kJ/mol
# Density = 2.130402 g / cm^3
# Si number density = 21.352616 Si / 1000 Ang^3
#
#
#
# Elastic Constant Matrix: (Units=GPa)
#
#
# Indices 1 2 3 4 5 6 
#
# 1 54.6792 22.1950 3.0981 0.0000 14.4852 0.0000
# 2 22.1950 172.6636 46.6052 0.0000 22.7156 0.0000
# 3 3.0981 46.6052 51.3083 0.0000 6.6323 0.0000
# 4 0.0000 0.0000 0.0000 24.4516 0.0000 16.9038
# 5 14.4852 22.7156 6.6323 0.0000 22.5701 0.0000
# 6 0.0000 0.0000 0.0000 16.9038 0.0000 11.1878
#
#
#
# Elastic Compliance Matrix: (Units=1/GPa)
#
#
# Indices 1 2 3 4 5 6 
#
# 1 0.022355 -0.001627 0.001841 0.000000 -0.013250 0.000000
# 2 -0.001627 0.008629 -0.007019 0.000000 -0.005578 0.000000
# 3 0.001841 -0.007019 0.025981 0.000000 -0.001752 0.000000
# 4 0.000000 0.000000 0.000000 -0.918753 0.000000 1.388152
# 5 -0.013250 -0.005578 -0.001752 0.000000 0.058939 0.000000
# 6 0.000000 0.000000 0.000000 1.388152 0.000000 -2.007986
#
#
# Mechanical properties :
#
#
# Convention : Reuss Voigt Hill
#
# Bulk Modulus (GPa) = 23.06556 46.93862 35.00209
# Shear Modulus (GPa) = -1.79677 25.42543 11.81433
#
# Velocity S-wave (km/s) = -0.91831 3.45445 2.35478
# Velocity P-wave (km/s) = 3.11469 6.15965 4.88071
#
# Compressibility (1/GPa) = 0.04335469
#
# Stress axis : x y z
#
# Youngs Moduli (GPa) = 44.73286 115.88623 38.48985
#
# Poissons Ratio (x) = 0.18859 -0.07086
# Poissons Ratio (y) = 0.07280 0.27016
# Poissons Ratio (z) = -0.08236 0.81340
#
# Static dielectric constant tensor:
#      x y z
#    x 3.705000 0.000000 0.091800 
#    y 0.000000 3.971980 0.000000 
#    z 0.091800 0.000000 3.630290 
# 
# 
# High freq. dielectric constant tensor:
#      x y z
#    x 1.819040 0.000000 0.004610 
#    y 0.000000 1.838380 0.000000 
#    z 0.004610 0.000000 1.833480 
# 
# From -- ./inp_files/62934.got.cif
#   From: 2010.06.25/outbox.cif.g09.slc.cpg/sg12_32_cif.got.tgz:62934.got - 2010.06.28 00:19:55.
