data_PCOD8100068
_publ_section_title
;
Structure prediction by ZEFSAII (Michael W. Deem and Ramdas Pophale) SiO2 
 PCOD8100068
Probable space group: C 2/M
;
_chemical_formula_sum "Si O2"
_cell_formula_units_Z 56
_cell_length_a 17.847252
_cell_length_b 18.901537
_cell_length_c 13.753054
_cell_angle_alpha 90.000000
_cell_angle_beta 141.569522
_cell_angle_gamma 90.000000
_cell_volume 2883.725229
_symmetry_space_group_name_H-M "C 2/M"
_symmetry_group_IT_number 12
_symmetry_cell_setting 'monoclinic'
loop_
_space_group_symop_operation_xyz
x,y,z
-x,y,-z
-x,-y,-z
x,-y,z
1/2+x,1/2+y,z
1/2-x,1/2+y,-z
1/2-x,1/2-y,-z
1/2+x,1/2-y,z
loop_
_atom_site_type_symbol
_atom_site_label
_atom_site_fract_x
_atom_site_fract_y
_atom_site_fract_z
Si Si1 0.554639 0.203700 0.156010
Si Si2 0.462320 0.351230 0.060721
Si Si3 0.408355 0.580905 0.646085
Si Si4 0.327845 0.703173 0.441725
Si Si5 0.191005 0.419523 0.573605
Si Si6 0.702509 0.193415 0.753870
Si Si7 0.990620 0.675612 0.687885
O O1 0.561968 0.288842 0.160648
O O2 0.690011 0.180538 0.319944
O O3 0.470924 0.176849 0.159926
O O4 0.500000 0.172137 0.000000
O O5 0.473949 0.399767 0.168597
O O6 0.500000 0.394806 0.000000
O O7 0.335186 0.309788 0.934628
O O8 0.416482 0.500000 0.618582
O O9 0.401273 0.631089 0.542988
O O10 0.297528 0.595038 0.605878
O O11 0.329943 0.732008 0.332366
O O12 0.384689 0.765529 0.565084
O O13 0.190257 0.500000 0.607711
O O14 0.198536 0.372783 0.677746
O O15 0.064682 0.400967 0.393293
O O16 0.607158 0.188781 0.742492
#
# Coordination Sequence:
#
# PCOD8100068 Si02
#       7
#     8   8   8   8   8   8   8
#     4  11  20  35  60  84 113 150 186 243 296 334
#     4  11  19  36  55  84 117 148 191 243 301 342
#     4  11  22  35  60  87 113 156 203 244 287 342
#     4  11  19  38  59  82 118 151 197 240 281 343
#     4  10  20  35  57  86 119 150 186 234 293 355
#     4  11  23  35  58  91 119 151 190 239 300 346
#     4  11  22  36  58  89 116 152 192 237 291 351
#
# _framework density 19.419326000000002
#
# number of rings (size 3 to 8) (size 9 to 14) (size 15 to 20)
#    0.000    1.143    7.143    3.000    0.000    2.571 
#    0.000    0.000    0.000    3.429    0.000    0.000 
#    0.000    0.000    0.000    0.000    0.000    0.000 
#
# Total GULP energy -346904.424369 kJ/mol
# GULP energy per Si atom -12389.443727 kJ/mol
# Density = 1.937513 g / cm^3
# Si number density = 19.419326 Si / 1000 Ang^3
#
#
#
# Elastic Constant Matrix: (Units=GPa)
#
#
# Indices 1 2 3 4 5 6 
#
# 1 98.5475 20.6513 43.9185 0.0000 -10.3280 0.0000
# 2 20.6513 88.5255 44.7396 0.0000 -11.7074 0.0000
# 3 43.9185 44.7396 108.0465 0.0000 -4.9197 0.0000
# 4 0.0000 0.0000 0.0000 20.0722 0.0000 -2.2412
# 5 -10.3280 -11.7074 -4.9197 0.0000 17.4261 0.0000
# 6 0.0000 0.0000 0.0000 -2.2412 0.0000 12.1205
#
#
#
# Elastic Compliance Matrix: (Units=1/GPa)
#
#
# Indices 1 2 3 4 5 6 
#
# 1 0.013057 0.000448 -0.005194 0.000000 0.006573 0.000000
# 2 0.000448 0.015504 -0.006195 0.000000 0.008933 0.000000
# 3 -0.005194 -0.006195 0.013779 0.000000 -0.003350 0.000000
# 4 0.000000 0.000000 0.000000 0.050870 0.000000 0.009407
# 5 0.006573 0.008933 -0.003350 0.000000 0.066336 0.000000
# 6 0.000000 0.000000 0.000000 0.009407 0.000000 0.084244
#
#
# Mechanical properties :
#
#
# Convention : Reuss Voigt Hill
#
# Bulk Modulus (GPa) = 48.87921 57.08204 52.98063
# Shear Modulus (GPa) = 18.34914 22.31111 20.33012
#
# Velocity S-wave (km/s) = 3.07724 3.39324 3.23910
# Velocity P-wave (km/s) = 6.15231 6.69405 6.42889
#
# Compressibility (1/GPa) = 0.02045860
#
# Stress axis : x y z
#
# Youngs Moduli (GPa) = 76.58750 64.49960 72.57339
#
# Poissons Ratio (x) = -0.02891 0.37692
# Poissons Ratio (y) = -0.03432 0.44961
# Poissons Ratio (z) = 0.39777 0.39959
#
# Static dielectric constant tensor:
#      x y z
#    x 3.359550 0.000000 -0.108740 
#    y 0.000000 3.328500 0.000000 
#    z -0.108740 0.000000 3.819710 
# 
# 
# High freq. dielectric constant tensor:
#      x y z
#    x 1.737260 0.000000 -0.004280 
#    y 0.000000 1.721110 0.000000 
#    z -0.004280 0.000000 1.764610 
# 
# From -- ./inp_files/158332.got.cif
#   From: 2010.06.25/outbox.cif.g09.slc.cpg/sg12_80_cif.got.tgz:158332.got - 2010.06.28 00:19:55.
