data_PCOD8100331
_publ_section_title
;
Structure prediction by ZEFSAII (Michael W. Deem and Ramdas Pophale) SiO2 
 PCOD8100331
Probable space group: C 2/M
;
_chemical_formula_sum "Si O2"
_cell_formula_units_Z 64
_cell_length_a 31.901468
_cell_length_b 11.320721
_cell_length_c 15.182695
_cell_angle_alpha 90.000000
_cell_angle_beta 143.058160
_cell_angle_gamma 90.000000
_cell_volume 3295.421787
_symmetry_space_group_name_H-M "C 2/M"
_symmetry_group_IT_number 12
_symmetry_cell_setting 'monoclinic'
loop_
_space_group_symop_operation_xyz
x,y,z
-x,y,-z
-x,-y,-z
x,-y,z
1/2+x,1/2+y,z
1/2-x,1/2+y,-z
1/2-x,1/2-y,-z
1/2+x,1/2-y,z
loop_
_atom_site_type_symbol
_atom_site_label
_atom_site_fract_x
_atom_site_fract_y
_atom_site_fract_z
Si Si1 0.172824 0.748941 0.278196
Si Si2 0.896212 0.871975 0.994839
Si Si3 0.551449 0.867274 0.158151
Si Si4 0.955694 0.135714 0.508233
Si Si5 0.212107 0.134390 0.041743
Si Si6 0.312847 0.628397 0.524813
Si Si7 0.541927 0.701012 0.296974
Si Si8 0.799854 0.866117 0.183710
O O1 0.132314 0.776131 0.120966
O O2 0.131054 0.644052 0.257801
O O3 0.252948 0.717652 0.390745
O O4 0.171424 0.856964 0.344877
O O5 0.860120 0.850646 0.028133
O O6 0.875772 0.000000 0.922532
O O7 0.979079 0.871016 0.147095
O O8 0.544884 0.822214 0.247367
O O9 0.527289 0.000000 0.125094
O O10 0.500000 0.803237 0.000000
O O11 0.972128 0.215696 0.622108
O O12 0.874730 0.145291 0.352363
O O13 0.000000 0.185108 0.500000
O O14 0.977450 0.000000 0.564717
O O15 0.258233 0.249339 0.148076
O O16 0.244229 0.000000 0.114414
O O17 0.192504 0.144416 0.907550
O O18 0.281403 0.500000 0.455772
O O19 0.383848 0.636683 0.588538
O O20 0.769041 0.000000 0.155004
#
# Coordination Sequence:
#
# PCOD8100331 Si02
#       8
#     8   8   8   8   8   8   8   8
#     4  10  21  36  55  83 112 148 190 235 288 353
#     4  11  21  35  56  84 115 149 191 241 295 353
#     4  10  20  39  60  81 114 156 198 239 292 357
#     4  10  20  35  58  87 120 156 191 241 303 357
#     4   9  19  35  56  82 115 153 194 244 301 360
#     4  10  21  36  55  80 113 147 183 237 292 341
#     4  11  22  37  59  88 116 148 198 244 293 352
#     4   9  18  35  58  83 112 152 200 246 299 358
#
# _framework density 19.420881999999999
#
# number of rings (size 3 to 8) (size 9 to 14) (size 15 to 20)
#    0.000    2.000    1.250    2.625    1.750    2.000 
#    0.000    4.375    0.000    3.000    0.000    0.000 
#    0.000    0.000    0.000    0.000    0.000    0.000 
#
# Total GULP energy -396419.234651 kJ/mol
# GULP energy per Si atom -12388.101083 kJ/mol
# Density = 1.937668 g / cm^3
# Si number density = 19.420882 Si / 1000 Ang^3
#
#
#
# Elastic Constant Matrix: (Units=GPa)
#
#
# Indices 1 2 3 4 5 6 
#
# 1 112.4155 42.4534 47.3037 0.0000 2.4684 0.0000
# 2 42.4534 98.1854 30.4749 0.0000 -1.7449 0.0000
# 3 47.3037 30.4749 101.1771 0.0000 -0.5199 0.0000
# 4 0.0000 0.0000 0.0000 18.1175 0.0000 0.5210
# 5 2.4684 -1.7449 -0.5199 0.0000 30.0419 0.0000
# 6 0.0000 0.0000 0.0000 0.5210 0.0000 14.2452
#
#
#
# Elastic Compliance Matrix: (Units=1/GPa)
#
#
# Indices 1 2 3 4 5 6 
#
# 1 0.012343 -0.003935 -0.004592 0.000000 -0.001322 0.000000
# 2 -0.003935 0.012500 -0.001920 0.000000 0.001016 0.000000
# 3 -0.004592 -0.001920 0.012612 0.000000 0.000484 0.000000
# 4 0.000000 0.000000 0.000000 0.055253 0.000000 -0.002021
# 5 -0.001322 0.001016 0.000484 0.000000 0.033463 0.000000
# 6 0.000000 0.000000 0.000000 -0.002021 0.000000 0.070273
#
#
# Mechanical properties :
#
#
# Convention : Reuss Voigt Hill
#
# Bulk Modulus (GPa) = 60.38692 61.36024 60.87358
# Shear Modulus (GPa) = 22.43571 25.25066 23.84318
#
# Velocity S-wave (km/s) = 3.40256 3.60971 3.50767
# Velocity P-wave (km/s) = 6.82627 7.00264 6.91501
#
# Compressibility (1/GPa) = 0.01655988
#
# Stress axis : x y z
#
# Youngs Moduli (GPa) = 81.01706 79.99829 79.29217
#
# Poissons Ratio (x) = 0.31479 0.36414
# Poissons Ratio (y) = 0.31880 0.15225
# Poissons Ratio (z) = 0.37206 0.15361
#
# Static dielectric constant tensor:
#      x y z
#    x 3.584730 0.000000 -0.006580 
#    y 0.000000 3.551890 0.000000 
#    z -0.006580 0.000000 3.514990 
# 
# 
# High freq. dielectric constant tensor:
#      x y z
#    x 1.757440 0.000000 -0.001120 
#    y 0.000000 1.736140 0.000000 
#    z -0.001120 0.000000 1.757920 
# 
# From -- ./inp_files/250870.got.cif
#   From: 2010.06.25/outbox.cif.g09.slc.cpg/sg12_126_cif.got.tgz:250870.got - 2010.06.28 00:19:55.
