data_PCOD8100393
_publ_section_title
;
Structure prediction by ZEFSAII (Michael W. Deem and Ramdas Pophale) SiO2 
 PCOD8100393
Probable space group: C 2/M
;
_chemical_formula_sum "Si O2"
_cell_formula_units_Z 64
_cell_length_a 25.688349
_cell_length_b 21.580068
_cell_length_c 10.836485
_cell_angle_alpha 90.000000
_cell_angle_beta 148.713427
_cell_angle_gamma 90.000000
_cell_volume 3119.690642
_symmetry_space_group_name_H-M "C 2/M"
_symmetry_group_IT_number 12
_symmetry_cell_setting 'monoclinic'
loop_
_space_group_symop_operation_xyz
x,y,z
-x,y,-z
-x,-y,-z
x,-y,z
1/2+x,1/2+y,z
1/2-x,1/2+y,-z
1/2-x,1/2-y,-z
1/2+x,1/2-y,z
loop_
_atom_site_type_symbol
_atom_site_label
_atom_site_fract_x
_atom_site_fract_y
_atom_site_fract_z
Si Si1 0.172909 0.245062 0.106486
Si Si2 0.976570 0.931088 0.816166
Si Si3 0.612974 0.676328 0.750364
Si Si4 0.655027 0.433465 0.998445
Si Si5 0.839472 0.426705 0.794609
Si Si6 0.003663 0.674964 0.869758
Si Si7 0.713220 0.135347 0.569849
Si Si8 0.307992 0.356133 0.352701
O O1 0.197734 0.187052 0.246151
O O2 0.259187 0.294824 0.313381
O O3 0.171247 0.223871 0.959259
O O4 0.063484 0.274268 0.911260
O O5 0.913393 0.876607 0.623389
O O6 0.923695 0.000000 0.708004
O O7 0.000000 0.908239 0.000000
O O8 0.082776 0.937340 0.968292
O O9 0.500000 0.701293 0.500000
O O10 0.678597 0.662447 0.762410
O O11 0.603982 0.609783 0.794993
O O12 0.669062 0.500000 0.962633
O O13 0.762201 0.412848 0.270883
O O14 0.855946 0.500000 0.812867
O O15 0.789956 0.397306 0.570230
O O16 0.768988 0.412391 0.770778
O O17 0.945873 0.393430 0.031564
O O18 0.890076 0.667059 0.594048
O O19 0.000000 0.701372 0.000000
#
# Coordination Sequence:
#
# PCOD8100393 Si02
#       8
#     8   8   8   8   8   8   8   8
#     4  10  24  41  61  89 119 157 206 252 296 356
#     4  10  20  35  58  90 122 154 194 243 303 368
#     4  11  23  41  59  87 114 161 208 247 304 351
#     4  10  21  36  56  85 118 150 196 247 298 361
#     4  10  21  38  61  90 122 157 200 241 295 365
#     4   9  21  38  60  93 122 158 200 244 299 358
#     4  10  21  38  60  89 122 155 196 243 303 358
#     4  11  22  39  61  86 120 163 200 248 300 347
#
# _framework density 20.514855000000001
#
# number of rings (size 3 to 8) (size 9 to 14) (size 15 to 20)
#    0.000    1.875    1.250    1.875    1.750    9.500 
#    0.000    3.125    0.000    0.000    0.000    5.250 
#    0.000    0.000    0.000    0.000    0.000    0.000 
#
# Total GULP energy -396554.905880 kJ/mol
# GULP energy per Si atom -12392.340809 kJ/mol
# Density = 2.046816 g / cm^3
# Si number density = 20.514855 Si / 1000 Ang^3
#
#
#
# Elastic Constant Matrix: (Units=GPa)
#
#
# Indices 1 2 3 4 5 6 
#
# 1 92.8724 26.3775 13.7070 0.0000 0.2875 0.0000
# 2 26.3775 122.8994 37.5633 0.0000 -3.8945 0.0000
# 3 13.7070 37.5633 92.2525 0.0000 3.6145 0.0000
# 4 0.0000 0.0000 0.0000 10.6904 0.0000 6.9774
# 5 0.2875 -3.8945 3.6145 0.0000 24.0814 0.0000
# 6 0.0000 0.0000 0.0000 6.9774 0.0000 20.4657
#
#
#
# Elastic Compliance Matrix: (Units=1/GPa)
#
#
# Indices 1 2 3 4 5 6 
#
# 1 0.011522 -0.002246 -0.000782 0.000000 -0.000383 0.000000
# 2 -0.002246 0.009836 -0.003757 0.000000 0.002181 0.000000
# 3 -0.000782 -0.003757 0.012583 0.000000 -0.002487 0.000000
# 4 0.000000 0.000000 0.000000 0.120313 0.000000 -0.041018
# 5 -0.000383 0.002181 -0.002487 0.000000 0.042257 0.000000
# 6 0.000000 0.000000 0.000000 -0.041018 0.000000 0.062847
#
#
# Mechanical properties :
#
#
# Convention : Reuss Voigt Hill
#
# Bulk Modulus (GPa) = 49.08950 51.47998 50.28474
# Shear Modulus (GPa) = 17.87511 26.40594 22.14053
#
# Velocity S-wave (km/s) = 2.95502 3.59160 3.28875
# Velocity P-wave (km/s) = 5.96855 6.50753 6.24386
#
# Compressibility (1/GPa) = 0.02037096
#
# Stress axis : x y z
#
# Youngs Moduli (GPa) = 86.79036 101.66587 79.47095
#
# Poissons Ratio (x) = 0.22833 0.06218
# Poissons Ratio (y) = 0.19492 0.29856
# Poissons Ratio (z) = 0.06791 0.38194
#
# Static dielectric constant tensor:
#      x y z
#    x 3.766700 0.000000 0.195920 
#    y 0.000000 3.963300 0.000000 
#    z 0.195920 0.000000 3.683250 
# 
# 
# High freq. dielectric constant tensor:
#      x y z
#    x 1.790470 0.000000 0.007690 
#    y 0.000000 1.809930 0.000000 
#    z 0.007690 0.000000 1.796590 
# 
# From -- ./inp_files/184743.got.cif
#   From: 2010.06.25/outbox.cif.g09.slc.cpg/sg12_93_cif.got.tgz:184743.got - 2010.06.28 00:19:55.
