data_PCOD8100406
_publ_section_title
;
Structure prediction by ZEFSAII (Michael W. Deem and Ramdas Pophale) SiO2 
 PCOD8100406
Probable space group: C 2/M
;
_chemical_formula_sum "Si O2"
_cell_formula_units_Z 64
_cell_length_a 28.885441
_cell_length_b 13.734064
_cell_length_c 12.553748
_cell_angle_alpha 90.000000
_cell_angle_beta 38.080368
_cell_angle_gamma 90.000000
_cell_volume 3071.652219
_symmetry_space_group_name_H-M "C 2/M"
_symmetry_group_IT_number 12
_symmetry_cell_setting 'monoclinic'
loop_
_space_group_symop_operation_xyz
x,y,z
-x,y,-z
-x,-y,-z
x,-y,z
1/2+x,1/2+y,z
1/2-x,1/2+y,-z
1/2-x,1/2-y,-z
1/2+x,1/2-y,z
loop_
_atom_site_type_symbol
_atom_site_label
_atom_site_fract_x
_atom_site_fract_y
_atom_site_fract_z
Si Si1 0.690371 0.889036 0.044053
Si Si2 0.671256 0.246316 0.873736
Si Si3 0.195481 0.286486 0.507668
Si Si4 0.565937 0.385706 0.175021
Si Si5 0.911325 0.787701 0.453552
Si Si6 0.358382 0.390919 0.750578
Si Si7 0.588958 0.887659 0.849834
Si Si8 0.924557 0.389441 0.570868
O O1 0.685542 0.820346 0.950441
O O2 0.773045 0.886949 0.945008
O O3 0.667641 0.000000 0.052718
O O4 0.639039 0.850114 0.233120
O O5 0.747318 0.301431 0.695287
O O6 0.628393 0.179683 0.865744
O O7 0.618166 0.336503 0.993624
O O8 0.250000 0.250000 0.500000
O O9 0.136440 0.207040 0.569097
O O10 0.140454 0.373230 0.649166
O O11 0.575949 0.500000 0.144766
O O12 0.482209 0.353876 0.302914
O O13 0.587886 0.349968 0.254012
O O14 0.862750 0.829665 0.636636
O O15 0.930675 0.676225 0.453097
O O16 0.383965 0.500000 0.676332
O O17 0.594466 0.000000 0.874080
O O18 0.500000 0.859205 0.000000
O O19 0.908096 0.500000 0.563130
O O20 0.000000 0.383098 0.500000
#
# Coordination Sequence:
#
# PCOD8100406 Si02
#       8
#     8   8   8   8   8   8   8   8
#     4  10  20  35  58  91 127 164 210 257 309 375
#     4  11  21  40  64  90 124 164 207 251 317 379
#     4  10  24  41  62  92 120 156 203 259 308 363
#     4  11  25  40  61  94 130 169 210 255 306 373
#     4  12  21  39  63  86 122 170 211 252 308 371
#     4  10  21  36  58  91 128 167 213 256 298 364
#     4  10  22  42  67  92 119 152 201 263 320 374
#     4  10  22  36  54  88 127 162 204 256 311 371
#
# _framework density 20.835692999999999
#
# number of rings (size 3 to 8) (size 9 to 14) (size 15 to 20)
#    0.000    1.500    1.250    4.125    1.750    3.000 
#    0.000    3.750    0.000    7.875    0.000    0.000 
#    0.000    0.000    0.000    0.000    0.000    0.000 
#
# Total GULP energy -396542.333287 kJ/mol
# GULP energy per Si atom -12391.947915 kJ/mol
# Density = 2.078827 g / cm^3
# Si number density = 20.835693 Si / 1000 Ang^3
#
#
#
# Elastic Constant Matrix: (Units=GPa)
#
#
# Indices 1 2 3 4 5 6 
#
# 1 115.6431 32.7152 20.3840 0.0000 -9.9765 0.0000
# 2 32.7152 82.6805 38.6435 0.0000 2.6581 0.0000
# 3 20.3840 38.6435 92.1458 0.0000 -14.8342 0.0000
# 4 0.0000 0.0000 0.0000 32.2851 0.0000 2.4301
# 5 -9.9765 2.6581 -14.8342 0.0000 30.0624 0.0000
# 6 0.0000 0.0000 0.0000 2.4301 0.0000 16.9313
#
#
#
# Elastic Compliance Matrix: (Units=1/GPa)
#
#
# Indices 1 2 3 4 5 6 
#
# 1 0.010139 -0.004193 0.000127 0.000000 0.003798 0.000000
# 2 -0.004193 0.017451 -0.007456 0.000000 -0.006614 0.000000
# 3 0.000127 -0.007456 0.015277 0.000000 0.008240 0.000000
# 4 0.000000 0.000000 0.000000 0.031312 0.000000 -0.004494
# 5 0.003798 -0.006614 0.008240 0.000000 0.039175 0.000000
# 6 0.000000 0.000000 0.000000 -0.004494 0.000000 0.059707
#
#
# Mechanical properties :
#
#
# Convention : Reuss Voigt Hill
#
# Bulk Modulus (GPa) = 50.44405 52.66165 51.55285
# Shear Modulus (GPa) = 24.66529 29.10420 26.88475
#
# Velocity S-wave (km/s) = 3.44437 3.74149 3.59600
# Velocity P-wave (km/s) = 6.33097 6.63284 6.48367
#
# Compressibility (1/GPa) = 0.01982394
#
# Stress axis : x y z
#
# Youngs Moduli (GPa) = 98.63078 57.30260 65.45586
#
# Poissons Ratio (x) = 0.24029 -0.00832
# Poissons Ratio (y) = 0.41359 0.48802
# Poissons Ratio (z) = -0.01254 0.42723
#
# Static dielectric constant tensor:
#      x y z
#    x 3.872780 0.000000 -0.139950 
#    y 0.000000 3.842940 0.000000 
#    z -0.139950 0.000000 4.147650 
# 
# 
# High freq. dielectric constant tensor:
#      x y z
#    x 1.815420 0.000000 -0.016810 
#    y 0.000000 1.809530 0.000000 
#    z -0.016810 0.000000 1.828660 
# 
# From -- ./inp_files/183756.got.cif
#   From: 2010.06.25/outbox.cif.g09.slc.cpg/sg12_92_cif.got.tgz:183756.got - 2010.06.28 00:19:55.
