data_PCOD8100496
_publ_section_title
;
Structure prediction by ZEFSAII (Michael W. Deem and Ramdas Pophale) SiO2 
 PCOD8100496
Probable space group: C 2/M
;
_chemical_formula_sum "Si O2"
_cell_formula_units_Z 64
_cell_length_a 20.223652
_cell_length_b 8.731200
_cell_length_c 22.378147
_cell_angle_alpha 90.000000
_cell_angle_beta 124.077762
_cell_angle_gamma 90.000000
_cell_volume 3272.907270
_symmetry_space_group_name_H-M "C 2/M"
_symmetry_group_IT_number 12
_symmetry_cell_setting 'monoclinic'
loop_
_space_group_symop_operation_xyz
x,y,z
-x,y,-z
-x,-y,-z
x,-y,z
1/2+x,1/2+y,z
1/2-x,1/2+y,-z
1/2-x,1/2-y,-z
1/2+x,1/2-y,z
loop_
_atom_site_type_symbol
_atom_site_label
_atom_site_fract_x
_atom_site_fract_y
_atom_site_fract_z
Si Si1 0.966058 0.681091 0.166839
Si Si2 0.296150 0.675330 0.077146
Si Si3 0.409861 0.178080 0.448362
Si Si4 0.975056 0.818096 0.685393
Si Si5 0.163508 0.320500 0.461550
Si Si6 0.457675 0.182614 0.918670
Si Si7 0.718617 0.825133 0.162739
Si Si8 0.629969 0.681272 0.692876
O O1 0.972289 0.500000 0.175794
O O2 0.875983 0.733125 0.132114
O O3 0.021682 0.756668 0.245358
O O4 0.994509 0.736737 0.115803
O O5 0.318380 0.500000 0.074265
O O6 0.236203 0.687223 0.101806
O O7 0.250000 0.750000 0.000000
O O8 0.500000 0.236748 0.500000
O O9 0.365154 0.216267 0.486466
O O10 0.367547 0.272384 0.374774
O O11 0.407342 0.000000 0.430269
O O12 0.894075 0.757958 0.615333
O O13 0.050910 0.754375 0.686044
O O14 0.973821 0.000000 0.685776
O O15 0.165271 0.500000 0.449304
O O16 0.250000 0.250000 0.500000
O O17 0.367702 0.251477 0.868917
O O18 0.454402 0.000000 0.921188
O O19 0.500000 0.247777 0.000000
O O20 0.790523 0.746527 0.236520
O O21 0.713747 0.000000 0.181282
O O22 0.630140 0.500000 0.700275
#
# Coordination Sequence:
#
# PCOD8100496 Si02
#       8
#     8   8   8   8   8   8   8   8
#     4  11  22  36  59  90 119 156 199 242 302 363
#     4  11  21  36  58  85 116 151 195 247 297 352
#     4  10  21  38  60  87 118 153 193 246 303 349
#     4  11  22  39  61  88 123 160 199 247 302 358
#     4  11  24  42  63  90 125 162 200 246 300 358
#     4   9  18  34  57  84 115 152 197 245 291 348
#     4   9  18  35  56  81 113 148 192 243 289 339
#     4  10  20  35  59  88 116 154 200 247 296 354
#
# _framework density 19.554480000000002
#
# number of rings (size 3 to 8) (size 9 to 14) (size 15 to 20)
#    0.000    1.750    2.500    2.250    0.000    4.750 
#    0.000    1.250    0.000    9.000    0.000    0.000 
#    0.000    0.000    0.000    0.000    0.000    0.000 
#
# Total GULP energy -396862.587533 kJ/mol
# GULP energy per Si atom -12401.955860 kJ/mol
# Density = 1.950997 g / cm^3
# Si number density = 19.554480 Si / 1000 Ang^3
#
#
#
# Elastic Constant Matrix: (Units=GPa)
#
#
# Indices 1 2 3 4 5 6 
#
# 1 106.2849 33.2260 45.8873 0.0000 11.1987 0.0000
# 2 33.2260 52.2166 37.6311 0.0000 -3.4077 0.0000
# 3 45.8873 37.6311 153.1196 0.0000 4.6436 0.0000
# 4 0.0000 0.0000 0.0000 33.6523 0.0000 -3.0773
# 5 11.1987 -3.4077 4.6436 0.0000 39.1160 0.0000
# 6 0.0000 0.0000 0.0000 -3.0773 0.0000 23.6916
#
#
#
# Elastic Compliance Matrix: (Units=1/GPa)
#
#
# Indices 1 2 3 4 5 6 
#
# 1 0.012903 -0.007022 -0.002018 0.000000 -0.004066 0.000000
# 2 -0.007022 0.027385 -0.004776 0.000000 0.004963 0.000000
# 3 -0.002018 -0.004776 0.008335 0.000000 -0.000828 0.000000
# 4 0.000000 0.000000 0.000000 0.030073 0.000000 0.003906
# 5 -0.004066 0.004963 -0.000828 0.000000 0.027260 0.000000
# 6 0.000000 0.000000 0.000000 0.003906 0.000000 0.042716
#
#
# Mechanical properties :
#
#
# Convention : Reuss Voigt Hill
#
# Bulk Modulus (GPa) = 47.63967 60.56777 54.10372
# Shear Modulus (GPa) = 27.27749 32.28376 29.78063
#
# Velocity S-wave (km/s) = 3.73895 4.06762 3.90674
# Velocity P-wave (km/s) = 6.56164 7.28710 6.93386
#
# Compressibility (1/GPa) = 0.02099091
#
# Stress axis : x y z
#
# Youngs Moduli (GPa) = 77.49888 36.51619 119.98212
#
# Poissons Ratio (x) = 0.25640 0.24212
# Poissons Ratio (y) = 0.54417 0.57309
# Poissons Ratio (z) = 0.15639 0.17442
#
# Static dielectric constant tensor:
#      x y z
#    x 3.716070 0.000000 0.174650 
#    y 0.000000 3.329890 0.000000 
#    z 0.174650 0.000000 3.880200 
# 
# 
# High freq. dielectric constant tensor:
#      x y z
#    x 1.765270 0.000000 0.001290 
#    y 0.000000 1.736540 0.000000 
#    z 0.001290 0.000000 1.780160 
# 
# From -- ./inp_files/346185.got.cif
#   From: 2010.06.25/outbox.cif.g09.slc.cpg/sg12_174_cif.got.tgz:346185.got - 2010.06.28 00:19:55.
