data_PCOD8100182
_publ_section_title
;
Structure prediction by ZEFSAII (Michael W. Deem and Ramdas Pophale) SiO2 
 PCOD8100182
Probable space group: C 2/M
;
_chemical_formula_sum "Si O2"
_cell_formula_units_Z 48
_cell_length_a 31.681248
_cell_length_b 8.796127
_cell_length_c 20.458490
_cell_angle_alpha 90.000000
_cell_angle_beta 153.126122
_cell_angle_gamma 90.000000
_cell_volume 2577.108842
_symmetry_space_group_name_H-M "C 2/M"
_symmetry_group_IT_number 12
_symmetry_cell_setting 'monoclinic'
loop_
_space_group_symop_operation_xyz
x,y,z
-x,y,-z
-x,-y,-z
x,-y,z
1/2+x,1/2+y,z
1/2-x,1/2+y,-z
1/2-x,1/2-y,-z
1/2+x,1/2-y,z
loop_
_atom_site_type_symbol
_atom_site_label
_atom_site_fract_x
_atom_site_fract_y
_atom_site_fract_z
Si Si1 0.296178 0.675191 0.126579
Si Si2 0.702517 0.321246 0.121354
Si Si3 0.017243 0.172676 0.679864
Si Si4 0.806646 0.822385 0.383406
Si Si5 0.473633 0.824468 0.173551
Si Si6 0.687222 0.178891 0.468932
O O1 0.266072 0.500000 0.087844
O O2 0.264560 0.753698 0.149065
O O3 0.408640 0.692993 0.276306
O O4 0.250000 0.750000 0.000000
O O5 0.710101 0.500000 0.128290
O O6 0.739730 0.264378 0.241782
O O7 0.594563 0.271806 0.966882
O O8 0.046277 0.283615 0.778635
O O9 0.913922 0.211063 0.510944
O O10 0.019747 0.000000 0.710714
O O11 0.785856 0.759513 0.426525
O O12 0.783381 0.000000 0.349281
O O13 0.580050 0.786000 0.302145
O O14 0.450260 0.000000 0.130921
O O15 0.750000 0.250000 0.500000
O O16 0.705128 0.000000 0.500459
#
# Coordination Sequence:
#
# PCOD8100182 Si02
#       6
#     8   8   8   8   8   8
#     4  11  21  34  54  82 113 150 196 241 281 329
#     4  12  24  37  54  81 117 155 192 236 286 333
#     4   9  19  35  56  80 109 148 193 236 281 333
#     4  10  21  39  60  83 114 150 187 235 288 336
#     4  10  20  35  58  84 112 147 189 232 277 333
#     4  10  21  39  64  92 116 144 182 226 278 341
#
# _framework density 18.625522
#
# number of rings (size 3 to 8) (size 9 to 14) (size 15 to 20)
#    0.000    1.667    1.667    3.500    0.000    4.000 
#    0.000    4.167    0.000    5.000    0.000    0.000 
#    0.000    0.000    0.000    0.000    0.000    0.000 
#
# Total GULP energy -297671.447336 kJ/mol
# GULP energy per Si atom -12402.976972 kJ/mol
# Density = 1.858313 g / cm^3
# Si number density = 18.625522 Si / 1000 Ang^3
#
#
#
# Elastic Constant Matrix: (Units=GPa)
#
#
# Indices 1 2 3 4 5 6 
#
# 1 116.4907 56.4278 55.6435 0.0000 6.6777 0.0000
# 2 56.4278 136.5718 62.0463 0.0000 -2.4511 0.0000
# 3 55.6435 62.0463 116.6018 0.0000 -3.0991 0.0000
# 4 0.0000 0.0000 0.0000 30.5910 0.0000 -4.9484
# 5 6.6777 -2.4511 -3.0991 0.0000 21.4065 0.0000
# 6 0.0000 0.0000 0.0000 -4.9484 0.0000 32.7501
#
#
#
# Elastic Compliance Matrix: (Units=1/GPa)
#
#
# Indices 1 2 3 4 5 6 
#
# 1 0.012546 -0.003287 -0.004369 0.000000 -0.004922 0.000000
# 2 -0.003287 0.010521 -0.003986 0.000000 0.001653 0.000000
# 3 -0.004369 -0.003986 0.012855 0.000000 0.002768 0.000000
# 4 0.000000 0.000000 0.000000 0.033508 0.000000 0.005063
# 5 -0.004922 0.001653 0.002768 0.000000 0.048840 0.000000
# 6 0.000000 0.000000 0.000000 0.005063 0.000000 0.031299
#
#
# Mechanical properties :
#
#
# Convention : Reuss Voigt Hill
#
# Bulk Modulus (GPa) = 79.12115 79.76661 79.44388
# Shear Modulus (GPa) = 28.23819 29.98596 29.11207
#
# Velocity S-wave (km/s) = 3.89794 4.01676 3.95779
# Velocity P-wave (km/s) = 7.92659 8.02695 7.97693
#
# Compressibility (1/GPa) = 0.01263885
#
# Stress axis : x y z
#
# Youngs Moduli (GPa) = 79.70973 95.05024 77.78864
#
# Poissons Ratio (x) = 0.31244 0.33982
# Poissons Ratio (y) = 0.26202 0.31004
# Poissons Ratio (z) = 0.34821 0.37884
#
# Static dielectric constant tensor:
#      x y z
#    x 2.972230 0.000000 0.154290 
#    y 0.000000 3.612310 0.000000 
#    z 0.154290 0.000000 3.516630 
# 
# 
# High freq. dielectric constant tensor:
#      x y z
#    x 1.709430 0.000000 0.012380 
#    y 0.000000 1.739830 0.000000 
#    z 0.012380 0.000000 1.723820 
# 
# From -- ./inp_files/295361.got.cif
#   From: 2010.06.25/outbox.cif.g09.slc.cpg/sg12_148_cif.got.tgz:295361.got - 2010.06.28 00:19:55.
