data_PCOD8100722
_publ_section_title
;
Structure prediction by ZEFSAII (Michael W. Deem and Ramdas Pophale) SiO2 
 PCOD8100722
Probable space group: C 2/M
;
_chemical_formula_sum "Si O2"
_cell_formula_units_Z 40
_cell_length_a 18.666154
_cell_length_b 17.620867
_cell_length_c 12.664671
_cell_angle_alpha 90.000000
_cell_angle_beta 151.707278
_cell_angle_gamma 90.000000
_cell_volume 1974.388959
_symmetry_space_group_name_H-M "C 2/M"
_symmetry_group_IT_number 12
_symmetry_cell_setting 'monoclinic'
loop_
_space_group_symop_operation_xyz
x,y,z
-x,y,-z
-x,-y,-z
x,-y,z
1/2+x,1/2+y,z
1/2-x,1/2+y,-z
1/2-x,1/2-y,-z
1/2+x,1/2-y,z
loop_
_atom_site_type_symbol
_atom_site_label
_atom_site_fract_x
_atom_site_fract_y
_atom_site_fract_z
Si Si1 0.197101 0.087727 0.678149
Si Si2 0.116149 0.138262 0.801198
Si Si3 0.586775 0.087219 0.718811
Si Si4 0.850002 0.712536 0.761151
Si Si5 0.555806 0.217302 0.354871
O O1 0.189691 0.133968 0.779550
O O2 0.327556 0.126515 0.776309
O O3 0.039488 0.090655 0.407750
O O4 0.237664 0.000000 0.753181
O O5 0.078994 0.223848 0.791977
O O6 0.232517 0.103802 0.039806
O O7 0.500000 0.113311 0.500000
O O8 0.504520 0.133626 0.703646
O O9 0.554963 0.000000 0.699369
O O10 0.704234 0.759140 0.614810
O O11 0.875962 0.715599 0.671715
O O12 0.000000 0.751418 0.000000
#
# Coordination Sequence:
#
# PCOD8100722 Si02
#       5
#     8   8   8   8   8
#     4  10  20  35  62  92 117 146 185 250 312 348
#     4  10  20  37  62  88 117 150 196 243 292 351
#     4  11  24  37  57  87 120 155 192 241 291 343
#     4  10  22  37  56  85 114 152 193 238 291 346
#     4  10  23  38  58  85 113 158 198 236 284 345
#
# _framework density 20.259432
#
# number of rings (size 3 to 8) (size 9 to 14) (size 15 to 20)
#    0.000    1.800    0.000    4.200    8.400    1.200 
#    0.000    0.000    0.000    0.600    0.000    0.000 
#    0.000    0.000    0.000    0.000    0.000    0.000 
#
# Total GULP energy -247772.731338 kJ/mol
# GULP energy per Si atom -12388.636567 kJ/mol
# Density = 2.021332 g / cm^3
# Si number density = 20.259432 Si / 1000 Ang^3
#
#
#
# Elastic Constant Matrix: (Units=GPa)
#
#
# Indices 1 2 3 4 5 6 
#
# 1 78.9812 58.4883 25.8686 0.0000 4.2667 0.0000
# 2 58.4883 96.2313 12.9326 0.0000 6.0263 0.0000
# 3 25.8686 12.9326 128.8580 0.0000 3.3247 0.0000
# 4 0.0000 0.0000 0.0000 12.7733 0.0000 -1.3833
# 5 4.2667 6.0263 3.3247 0.0000 24.3712 0.0000
# 6 0.0000 0.0000 0.0000 -1.3833 0.0000 8.7210
#
#
#
# Elastic Compliance Matrix: (Units=1/GPa)
#
#
# Indices 1 2 3 4 5 6 
#
# 1 0.024462 -0.014387 -0.003460 0.000000 -0.000253 0.000000
# 2 -0.014387 0.019145 0.001028 0.000000 -0.002355 0.000000
# 3 -0.003460 0.001028 0.008372 0.000000 -0.000790 0.000000
# 4 0.000000 0.000000 0.000000 0.079657 0.000000 0.012635
# 5 -0.000253 -0.002355 -0.000790 0.000000 0.041767 0.000000
# 6 0.000000 0.000000 0.000000 0.012635 0.000000 0.116670
#
#
# Mechanical properties :
#
#
# Convention : Reuss Voigt Hill
#
# Bulk Modulus (GPa) = 54.52490 55.40550 54.96520
# Shear Modulus (GPa) = 15.15943 22.95849 19.05896
#
# Velocity S-wave (km/s) = 2.73841 3.36999 3.07048
# Velocity P-wave (km/s) = 6.08032 6.52302 6.30556
#
# Compressibility (1/GPa) = 0.01834025
#
# Stress axis : x y z
#
# Youngs Moduli (GPa) = 40.87894 52.23190 119.43954
#
# Poissons Ratio (x) = 0.75147 0.41331
# Poissons Ratio (y) = 0.58813 -0.12273
# Poissons Ratio (z) = 0.14146 -0.05367
#
# Static dielectric constant tensor:
#      x y z
#    x 3.823960 0.000000 -1.416110 
#    y 0.000000 3.556800 0.000000 
#    z -1.416110 0.000000 11.167700 
# 
# 
# High freq. dielectric constant tensor:
#      x y z
#    x 1.775040 0.000000 0.006880 
#    y 0.000000 1.778510 0.000000 
#    z 0.006880 0.000000 1.813160 
# 
# From -- ./inp_files/61398.got.cif
#   From: 2010.06.25/outbox.cif.g09.slc.cpg/sg12_31_cif.got.tgz:61398.got - 2010.06.28 00:19:55.
