data_PCOD8100099
_publ_section_title
;
Structure prediction by ZEFSAII (Michael W. Deem and Ramdas Pophale) SiO2 
 PCOD8100099
Probable space group: C 2/M
;
_chemical_formula_sum "Si O2"
_cell_formula_units_Z 52
_cell_length_a 14.621339
_cell_length_b 15.748979
_cell_length_c 17.105494
_cell_angle_alpha 90.000000
_cell_angle_beta 40.073071
_cell_angle_gamma 90.000000
_cell_volume 2535.723462
_symmetry_space_group_name_H-M "C 2/M"
_symmetry_group_IT_number 12
_symmetry_cell_setting 'monoclinic'
loop_
_space_group_symop_operation_xyz
x,y,z
-x,y,-z
-x,-y,-z
x,-y,z
1/2+x,1/2+y,z
1/2-x,1/2+y,-z
1/2-x,1/2-y,-z
1/2+x,1/2-y,z
loop_
_atom_site_type_symbol
_atom_site_label
_atom_site_fract_x
_atom_site_fract_y
_atom_site_fract_z
Si Si1 0.740974 0.907377 0.234549
Si Si2 0.144901 0.766530 0.950489
Si Si3 0.249987 0.742905 0.591413
Si Si4 0.197777 0.903953 0.167975
Si Si5 0.984340 0.853969 0.186067
Si Si6 0.338615 0.592982 0.629496
Si Si7 0.500000 0.848461 0.500000
O O1 0.750908 0.828565 0.167801
O O2 0.877232 0.908999 0.203268
O O3 0.592106 0.903949 0.379082
O O4 0.743359 0.000000 0.190452
O O5 0.205947 0.672647 0.928176
O O6 0.000000 0.751761 0.000000
O O7 0.113452 0.813720 0.052119
O O8 0.250000 0.750000 0.500000
O O9 0.103573 0.778709 0.718392
O O10 0.249643 0.648737 0.626985
O O11 0.390944 0.789528 0.526354
O O12 0.167877 0.875896 0.276634
O O13 0.053536 0.908655 0.210884
O O14 0.265182 0.000000 0.120089
O O15 0.500000 0.592422 0.500000
O O16 0.270602 0.500000 0.667053
#
# Coordination Sequence:
#
# PCOD8100099 Si02
#       7
#     8   8   8   8   8   8   4
#     4  10  21  38  62  87 123 162 199 252 308 365
#     4  10  22  39  59  88 120 159 205 252 309 367
#     4  11  22  38  65  86 121 166 199 248 310 365
#     4  11  22  38  62  87 121 162 204 254 308 362
#     4  10  22  37  59  90 121 156 210 253 295 371
#     4  10  20  35  57  87 120 156 204 253 300 359
#     4  10  21  38  59  92 122 152 209 246 302 366
#
# _framework density 20.506968000000001
#
# number of rings (size 3 to 8) (size 9 to 14) (size 15 to 20)
#    0.000    1.692    0.769    4.846    2.154    3.692 
#    0.000    4.615    0.000    0.000    0.000    0.000 
#    0.000    0.000    0.000    0.000    0.000    0.000 
#
# Total GULP energy -322226.210458 kJ/mol
# GULP energy per Si atom -12393.315787 kJ/mol
# Density = 2.046029 g / cm^3
# Si number density = 20.506968 Si / 1000 Ang^3
#
#
#
# Elastic Constant Matrix: (Units=GPa)
#
#
# Indices 1 2 3 4 5 6 
#
# 1 80.2569 32.1023 28.4525 -0.0002 21.9185 0.0000
# 2 32.1023 140.1612 44.8035 -0.0001 3.4813 0.0000
# 3 28.4525 44.8035 116.5885 -0.0003 5.7390 0.0001
# 4 -0.0002 -0.0001 -0.0003 0.2004 0.0002 0.7462
# 5 21.9185 3.4813 5.7390 0.0002 29.1206 -0.0001
# 6 0.0000 0.0000 0.0001 0.7462 -0.0001 24.3294
#
#
#
# Elastic Compliance Matrix: (Units=1/GPa)
#
#
# Indices 1 2 3 4 5 6 
#
# 1 0.018059 -0.002977 -0.002637 0.000022 -0.012717 -0.000001
# 2 -0.002977 0.008628 -0.002675 -0.000004 0.001737 0.000000
# 3 -0.002637 -0.002675 0.010234 0.000015 0.000288 0.000000
# 4 0.000022 -0.000004 0.000015 5.632438 -0.000055 -0.172742
# 5 -0.012717 0.001737 0.000288 -0.000055 0.043647 0.000002
# 6 -0.000001 0.000000 0.000000 -0.172742 0.000002 0.046400
#
#
# Mechanical properties :
#
#
# Convention : Reuss Voigt Hill
#
# Bulk Modulus (GPa) = 49.15553 60.85813 55.00683
# Shear Modulus (GPa) = 0.86464 26.17329 13.51896
#
# Velocity S-wave (km/s) = 0.65004 3.57643 2.57035
# Velocity P-wave (km/s) = 4.95839 6.84074 5.97416
#
# Compressibility (1/GPa) = 0.02034359
#
# Stress axis : x y z
#
# Youngs Moduli (GPa) = 55.37462 115.89604 97.70981
#
# Poissons Ratio (x) = 0.34507 0.25766
# Poissons Ratio (y) = 0.16487 0.26134
# Poissons Ratio (z) = 0.14602 0.30998
#
# Static dielectric constant tensor:
#      x y z
#    x 3.485080 0.000000 0.093120 
#    y 0.000000 3.910100 0.000000 
#    z 0.093120 0.000000 3.794610 
# 
# 
# High freq. dielectric constant tensor:
#      x y z
#    x 1.792740 0.000000 0.008590 
#    y 0.000000 1.808810 0.000000 
#    z 0.008590 0.000000 1.801580 
# 
# From -- ./inp_files/270574.got.cif
#   From: 2010.06.25/outbox.cif.g09.slc.cpg/sg12_136_cif.got.tgz:270574.got - 2010.06.28 00:19:55.
