data_PCOD8100204
_publ_section_title
;
Structure prediction by ZEFSAII (Michael W. Deem and Ramdas Pophale) SiO2 
 PCOD8100204
Probable space group: C 2/M
;
_chemical_formula_sum "Si O2"
_cell_formula_units_Z 64
_cell_length_a 23.900527
_cell_length_b 8.950111
_cell_length_c 30.966116
_cell_angle_alpha 90.000000
_cell_angle_beta 30.406486
_cell_angle_gamma 90.000000
_cell_volume 3352.632230
_symmetry_space_group_name_H-M "C 2/M"
_symmetry_group_IT_number 12
_symmetry_cell_setting 'monoclinic'
loop_
_space_group_symop_operation_xyz
x,y,z
-x,y,-z
-x,-y,-z
x,-y,z
1/2+x,1/2+y,z
1/2-x,1/2+y,-z
1/2-x,1/2-y,-z
1/2+x,1/2-y,z
loop_
_atom_site_type_symbol
_atom_site_label
_atom_site_fract_x
_atom_site_fract_y
_atom_site_fract_z
Si Si1 0.338372 0.672324 0.706056
Si Si2 0.257142 0.177394 0.382297
Si Si3 0.098051 0.323846 0.072077
Si Si4 0.146901 0.324558 0.771641
Si Si5 0.805259 0.325477 0.900907
Si Si6 0.410660 0.669070 0.751423
Si Si7 0.161434 0.826333 0.589871
Si Si8 0.970699 0.674116 0.470827
O O1 0.367369 0.500000 0.675043
O O2 0.218888 0.716551 0.765876
O O3 0.334913 0.696188 0.759724
O O4 0.427679 0.782860 0.626836
O O5 0.293617 0.237931 0.310994
O O6 0.337817 0.250906 0.363587
O O7 0.133430 0.229533 0.474902
O O8 0.264293 0.000000 0.381547
O O9 0.104068 0.500000 0.061661
O O10 0.125154 0.277302 0.103263
O O11 0.976649 0.258508 0.141400
O O12 0.185466 0.252084 0.981019
O O13 0.135340 0.500000 0.773181
O O14 0.784988 0.500000 0.913505
O O15 0.872792 0.280169 0.813784
O O16 0.396523 0.500000 0.777843
O O17 0.538168 0.698095 0.653349
O O18 0.250000 0.750000 0.500000
O O19 0.191774 0.000000 0.573320
O O20 0.943524 0.500000 0.483595
O O21 0.000000 0.717099 0.500000
#
# Coordination Sequence:
#
# PCOD8100204 Si02
#       8
#     8   8   8   8   8   8   8   8
#     4  10  20  37  58  80 107 146 194 234 274 330
#     4  11  21  35  57  82 109 145 188 233 282 332
#     4   9  18  35  58  84 112 138 174 225 278 332
#     4   9  18  33  56  83 107 137 181 231 278 329
#     4  10  20  35  58  85 111 142 180 222 274 334
#     4  10  22  38  57  80 110 148 187 226 272 331
#     4  11  23  38  55  81 114 148 187 231 280 332
#     4  11  22  35  52  79 114 149 187 231 281 330
#
# _framework density 19.089476999999999
#
# number of rings (size 3 to 8) (size 9 to 14) (size 15 to 20)
#    0.000    1.875    1.250    3.000    0.000    4.500 
#    0.000    2.500    0.000    3.750    0.000    0.000 
#    0.000    0.000    0.000    0.000    0.000    0.000 
#
# Total GULP energy -396900.602799 kJ/mol
# GULP energy per Si atom -12403.143837 kJ/mol
# Density = 1.904603 g / cm^3
# Si number density = 19.089477 Si / 1000 Ang^3
#
#
#
# Elastic Constant Matrix: (Units=GPa)
#
#
# Indices 1 2 3 4 5 6 
#
# 1 114.7474 34.3466 45.5682 0.0161 -11.4554 -0.1127
# 2 34.3466 59.9746 31.1223 0.0155 -2.0699 -0.1260
# 3 45.5682 31.1223 109.4773 -0.0045 -12.8632 -0.0314
# 4 0.0161 0.0155 -0.0045 30.4364 0.0101 4.6760
# 5 -11.4554 -2.0699 -12.8632 0.0101 33.6623 0.0387
# 6 -0.1127 -0.1260 -0.0314 4.6760 0.0387 23.1500
#
#
#
# Elastic Compliance Matrix: (Units=1/GPa)
#
#
# Indices 1 2 3 4 5 6 
#
# 1 0.011709 -0.004976 -0.003169 -0.000009 0.002468 0.000023
# 2 -0.004976 0.021704 -0.004336 -0.000023 -0.002016 0.000096
# 3 -0.003169 -0.004336 0.012070 0.000009 0.003267 -0.000030
# 4 -0.000009 -0.000023 0.000009 0.033908 -0.000003 -0.006849
# 5 0.002468 -0.002016 0.003267 -0.000003 0.031671 -0.000047
# 6 0.000023 0.000096 -0.000030 -0.006849 -0.000047 0.044581
#
#
# Mechanical properties :
#
#
# Convention : Reuss Voigt Hill
#
# Bulk Modulus (GPa) = 48.72979 56.25260 52.49120
# Shear Modulus (GPa) = 26.67463 28.99391 27.83427
#
# Velocity S-wave (km/s) = 3.74217 3.90146 3.82264
# Velocity P-wave (km/s) = 6.65238 7.05883 6.85862
#
# Compressibility (1/GPa) = 0.02052133
#
# Stress axis : x y z
#
# Youngs Moduli (GPa) = 85.40358 46.07486 82.85090
#
# Poissons Ratio (x) = 0.22926 0.26258
# Poissons Ratio (y) = 0.42495 0.35921
# Poissons Ratio (z) = 0.27067 0.19977
#
# Static dielectric constant tensor:
#      x y z
#    x 3.684550 -0.000040 -0.152420 
#    y -0.000040 3.365590 0.000030 
#    z -0.152420 0.000030 3.425190 
# 
# 
# High freq. dielectric constant tensor:
#      x y z
#    x 1.746590 0.000000 -0.007600 
#    y 0.000000 1.732170 0.000000 
#    z -0.007600 0.000000 1.735340 
# 
# From -- ./inp_files/382312.got.cif
#   From: 2010.06.25/outbox.cif.g09.slc.cpg/sg12_192_cif.got.tgz:382312.got - 2010.06.28 00:19:55.
