data_PCOD8100965
_publ_section_title
;
Structure prediction by ZEFSAII (Michael W. Deem and Ramdas Pophale) SiO2 
 PCOD8100965
Probable space group: C 2/M
;
_chemical_formula_sum "Si O2"
_cell_formula_units_Z 64
_cell_length_a 20.082903
_cell_length_b 9.429540
_cell_length_c 31.349059
_cell_angle_alpha 90.000000
_cell_angle_beta 143.124654
_cell_angle_gamma 90.000000
_cell_volume 3562.442109
_symmetry_space_group_name_H-M "C 2/M"
_symmetry_group_IT_number 12
_symmetry_cell_setting 'monoclinic'
loop_
_space_group_symop_operation_xyz
x,y,z
-x,y,-z
-x,-y,-z
x,-y,z
1/2+x,1/2+y,z
1/2-x,1/2+y,-z
1/2-x,1/2-y,-z
1/2+x,1/2-y,z
loop_
_atom_site_type_symbol
_atom_site_label
_atom_site_fract_x
_atom_site_fract_y
_atom_site_fract_z
Si Si1 0.324237 0.661603 0.569689
Si Si2 0.264808 0.165483 0.050615
Si Si3 0.582338 0.835788 0.580413
Si Si4 0.319163 0.334727 0.663045
Si Si5 0.028540 0.662529 0.786473
Si Si6 0.680114 0.834346 0.784264
Si Si7 0.877362 0.831574 0.943753
Si Si8 0.065454 0.836829 0.656180
O O1 0.283565 0.500000 0.545742
O O2 0.250000 0.750000 0.500000
O O3 0.305834 0.721127 0.607874
O O4 0.452297 0.677101 0.624033
O O5 0.387244 0.193828 0.131828
O O6 0.174156 0.222979 0.038138
O O7 0.246688 0.000000 0.032256
O O8 0.250000 0.250000 0.000000
O O9 0.500000 0.796825 0.500000
O O10 0.707662 0.801184 0.631377
O O11 0.549218 0.737249 0.602573
O O12 0.568274 0.000000 0.586261
O O13 0.347823 0.500000 0.677174
O O14 0.419989 0.256743 0.738238
O O15 0.991079 0.500000 0.767657
O O16 0.086319 0.699310 0.771202
O O17 0.799355 0.787225 0.864190
O O18 0.660550 0.742525 0.731878
O O19 0.679213 0.000000 0.771540
O O20 0.880994 0.000000 0.947691
O O21 0.000000 0.766354 0.000000
O O22 0.100016 0.000000 0.667211
#
# Coordination Sequence:
#
# PCOD8100965 Si02
#       8
#     8   8   8   8   8   8   8   8
#     4  10  21  35  54  81 106 133 173 219 263 310
#     4   9  18  33  53  79 109 141 176 214 263 313
#     4  10  22  40  59  76 103 143 180 219 268 321
#     4  10  20  36  56  79 105 135 178 223 263 313
#     4   9  18  33  54  79 108 143 178 217 265 315
#     4   9  17  32  56  81 106 141 181 218 262 314
#     4   8  15  31  55  80 105 136 179 224 256 298
#     4  11  22  36  55  80 111 141 173 219 270 319
#
# _framework density 17.965204
#
# number of rings (size 3 to 8) (size 9 to 14) (size 15 to 20)
#    0.000    2.500    1.250    2.625    0.000    3.750 
#    2.250    1.875    0.000    0.750    0.000    0.000 
#    0.000    0.000    0.000    0.000    0.000    0.000 
#
# Total GULP energy -396830.629173 kJ/mol
# GULP energy per Si atom -12400.957162 kJ/mol
# Density = 1.792431 g / cm^3
# Si number density = 17.965204 Si / 1000 Ang^3
#
#
#
# Elastic Constant Matrix: (Units=GPa)
#
#
# Indices 1 2 3 4 5 6 
#
# 1 48.8970 29.4669 27.7563 0.0000 -9.0609 -0.0001
# 2 29.4669 65.1471 48.8032 -0.0001 -8.6312 -0.0002
# 3 27.7563 48.8032 108.3589 0.0000 -3.5760 0.0000
# 4 0.0000 -0.0001 0.0000 32.0150 0.0000 -5.4460
# 5 -9.0609 -8.6312 -3.5760 0.0000 35.0888 0.0000
# 6 -0.0001 -0.0002 0.0000 -5.4460 0.0000 28.4548
#
#
#
# Elastic Compliance Matrix: (Units=1/GPa)
#
#
# Indices 1 2 3 4 5 6 
#
# 1 0.029187 -0.010716 -0.002497 0.000000 0.004647 0.000000
# 2 -0.010716 0.027882 -0.009710 0.000000 0.003102 0.000000
# 3 -0.002497 -0.009710 0.014189 0.000000 -0.001587 0.000000
# 4 0.000000 0.000000 0.000000 0.032287 0.000000 0.006179
# 5 0.004647 0.003102 -0.001587 0.000000 0.030300 0.000000
# 6 0.000000 0.000000 0.000000 0.006179 0.000000 0.036326
#
#
# Mechanical properties :
#
#
# Convention : Reuss Voigt Hill
#
# Bulk Modulus (GPa) = 39.35074 48.27285 43.81180
# Shear Modulus (GPa) = 22.27293 26.87015 24.57154
#
# Velocity S-wave (km/s) = 3.52487 3.87159 3.70229
# Velocity P-wave (km/s) = 6.20626 6.84939 6.53574
#
# Compressibility (1/GPa) = 0.02541248
#
# Stress axis : x y z
#
# Youngs Moduli (GPa) = 34.26167 35.86553 70.47626
#
# Poissons Ratio (x) = 0.38432 0.17597
# Poissons Ratio (y) = 0.36714 0.68435
# Poissons Ratio (z) = 0.08554 0.34827
#
# Static dielectric constant tensor:
#      x y z
#    x 3.326080 0.000000 0.102290 
#    y 0.000000 3.172010 0.000000 
#    z 0.102290 0.000000 3.387630 
# 
# 
# High freq. dielectric constant tensor:
#      x y z
#    x 1.688990 0.000000 -0.000150 
#    y 0.000000 1.678760 0.000000 
#    z -0.000150 0.000000 1.703780 
# 
# From -- ./inp_files/346309.got.cif
#   From: 2010.06.25/outbox.cif.g09.slc.cpg/sg12_174_cif.got.tgz:346309.got - 2010.06.28 00:19:55.
