data_PCOD8100925
_publ_section_title
;
Structure prediction by ZEFSAII (Michael W. Deem and Ramdas Pophale) SiO2 
 PCOD8100925
Probable space group: C 2/M
;
_chemical_formula_sum "Si O2"
_cell_formula_units_Z 64
_cell_length_a 28.081873
_cell_length_b 8.836939
_cell_length_c 14.047130
_cell_angle_alpha 90.000000
_cell_angle_beta 88.266858
_cell_angle_gamma 90.000000
_cell_volume 3484.310172
_symmetry_space_group_name_H-M "C 2/M"
_symmetry_group_IT_number 12
_symmetry_cell_setting 'monoclinic'
loop_
_space_group_symop_operation_xyz
x,y,z
-x,y,-z
-x,-y,-z
x,-y,z
1/2+x,1/2+y,z
1/2-x,1/2+y,-z
1/2-x,1/2-y,-z
1/2+x,1/2-y,z
loop_
_atom_site_type_symbol
_atom_site_label
_atom_site_fract_x
_atom_site_fract_y
_atom_site_fract_z
Si Si1 0.697947 0.678207 0.258687
Si Si2 0.298502 0.325629 0.269438
Si Si3 0.373254 0.175099 0.390331
Si Si4 0.136855 0.321811 0.102126
Si Si5 0.946543 0.677194 0.223952
Si Si6 0.127753 0.825218 0.901836
Si Si7 0.552057 0.177716 0.239355
Si Si8 0.622867 0.178091 0.392861
O O1 0.692386 0.500000 0.253667
O O2 0.752741 0.720953 0.266238
O O3 0.678318 0.748646 0.162433
O O4 0.670051 0.739617 0.352423
O O5 0.283622 0.500000 0.281801
O O6 0.329116 0.276401 0.359161
O O7 0.329181 0.297964 0.173137
O O8 0.419828 0.209429 0.324755
O O9 0.386049 0.220207 0.497219
O O10 0.358275 0.000000 0.382975
O O11 0.144758 0.500000 0.104040
O O12 0.085123 0.277522 0.147801
O O13 0.141318 0.263531 0.995525
O O14 0.947113 0.500000 0.199286
O O15 0.921106 0.761326 0.138484
O O16 0.999524 0.748300 0.230203
O O17 0.120322 0.000000 0.926442
O O18 0.577171 0.235390 0.335042
O O19 0.545153 0.000000 0.247001
O O20 0.630554 0.000000 0.376680
#
# Coordination Sequence:
#
# PCOD8100925 Si02
#       8
#     8   8   8   8   8   8   8   8
#     4  11  22  36  55  78 103 132 170 213 256 305
#     4  10  21  37  55  74 102 137 171 211 258 307
#     4   9  18  32  53  79 105 135 173 216 256 298
#     4  10  20  36  56  77 104 137 171 209 255 304
#     4   9  17  32  53  77 105 137 174 214 255 298
#     4  10  21  36  53  76 104 135 172 212 256 305
#     4   8  16  31  52  77 104 136 173 211 252 301
#     4   9  18  34  53  76 107 139 172 210 255 305
#
# _framework density 18.368055999999999
#
# number of rings (size 3 to 8) (size 9 to 14) (size 15 to 20)
#    0.000    2.500    0.000    3.000    0.000    4.000 
#    0.000    8.125    0.000    0.000    0.000    7.000 
#    0.000    0.000    0.000    0.000    0.000    0.000 
#
# Total GULP energy -396847.222243 kJ/mol
# GULP energy per Si atom -12401.475695 kJ/mol
# Density = 1.832625 g / cm^3
# Si number density = 18.368056 Si / 1000 Ang^3
#
#
#
# Elastic Constant Matrix: (Units=GPa)
#
#
# Indices 1 2 3 4 5 6 
#
# 1 74.3063 17.6360 -11.4926 0.0000 8.9575 0.0000
# 2 17.6360 65.3656 18.6248 0.0000 1.7549 0.0000
# 3 -11.4926 18.6248 60.0627 0.0000 -1.1536 0.0000
# 4 0.0000 0.0000 0.0000 26.5610 0.0000 2.1712
# 5 8.9575 1.7549 -1.1536 0.0000 13.5325 0.0000
# 6 0.0000 0.0000 0.0000 2.1712 0.0000 23.7680
#
#
#
# Elastic Compliance Matrix: (Units=1/GPa)
#
#
# Indices 1 2 3 4 5 6 
#
# 1 0.016717 -0.005595 0.004743 0.000000 -0.009935 0.000000
# 2 -0.005595 0.018747 -0.006871 0.000000 0.000687 0.000000
# 3 0.004743 -0.006871 0.019676 0.000000 -0.000571 0.000000
# 4 0.000000 0.000000 0.000000 0.037932 0.000000 -0.003465
# 5 -0.009935 0.000687 -0.000571 0.000000 0.080335 0.000000
# 6 0.000000 0.000000 0.000000 -0.003465 0.000000 0.042390
#
#
# Mechanical properties :
#
#
# Convention : Reuss Voigt Hill
#
# Bulk Modulus (GPa) = 25.19217 27.69678 26.44448
# Shear Modulus (GPa) = 20.45198 24.43675 22.44437
#
# Velocity S-wave (km/s) = 3.34047 3.65141 3.49939
# Velocity P-wave (km/s) = 5.35007 5.73486 5.54580
#
# Compressibility (1/GPa) = 0.03969487
#
# Stress axis : x y z
#
# Youngs Moduli (GPa) = 59.81945 53.34084 50.82248
#
# Poissons Ratio (x) = 0.29844 -0.24104
# Poissons Ratio (y) = 0.33469 0.34919
# Poissons Ratio (z) = -0.28371 0.36649
#
# Static dielectric constant tensor:
#      x y z
#    x 3.485780 0.000000 0.052250 
#    y 0.000000 3.299400 0.000000 
#    z 0.052250 0.000000 3.450740 
# 
# 
# High freq. dielectric constant tensor:
#      x y z
#    x 1.713290 0.000000 0.004150 
#    y 0.000000 1.703050 0.000000 
#    z 0.004150 0.000000 1.715530 
# 
# From -- ./inp_files/244063.got.cif
#   From: 2010.06.25/outbox.cif.g09.slc.cpg/sg12_123_cif.got.tgz:244063.got - 2010.06.28 00:19:55.
