data_PCOD8100090
_publ_section_title
;
Structure prediction by ZEFSAII (Michael W. Deem and Ramdas Pophale) SiO2 
 PCOD8100090
Probable space group: C 2/M
;
_chemical_formula_sum "Si O2"
_cell_formula_units_Z 64
_cell_length_a 17.306300
_cell_length_b 13.676724
_cell_length_c 22.828507
_cell_angle_alpha 90.000000
_cell_angle_beta 31.477349
_cell_angle_gamma 90.000000
_cell_volume 2821.425727
_symmetry_space_group_name_H-M "C 2/M"
_symmetry_group_IT_number 12
_symmetry_cell_setting 'monoclinic'
loop_
_space_group_symop_operation_xyz
x,y,z
-x,y,-z
-x,-y,-z
x,-y,z
1/2+x,1/2+y,z
1/2-x,1/2+y,-z
1/2-x,1/2-y,-z
1/2+x,1/2-y,z
loop_
_atom_site_type_symbol
_atom_site_label
_atom_site_fract_x
_atom_site_fract_y
_atom_site_fract_z
Si Si1 0.169313 0.701063 0.804569
Si Si2 0.343739 0.611850 0.792005
Si Si3 0.153237 0.845517 0.552433
Si Si4 0.240258 0.301828 0.631571
Si Si5 0.853410 0.603701 0.516198
Si Si6 0.671381 0.113229 0.257804
Si Si7 0.634530 0.112815 0.027677
Si Si8 0.434261 0.112298 0.800345
O O1 0.218124 0.631126 0.825367
O O2 0.252919 0.665403 0.690832
O O3 0.204555 0.815088 0.795305
O O4 0.994585 0.686219 0.909436
O O5 0.393573 0.500000 0.757224
O O6 0.487911 0.673999 0.682234
O O7 0.282835 0.640561 0.895732
O O8 0.250000 0.750000 0.500000
O O9 0.153484 0.864308 0.481484
O O10 0.243381 0.923065 0.532823
O O11 0.284437 0.186748 0.602076
O O12 0.073780 0.315861 0.715730
O O13 0.866517 0.500000 0.542507
O O14 0.014030 0.636687 0.389406
O O15 0.661597 0.138581 0.194821
O O16 0.718145 0.000000 0.237067
O O17 0.667159 0.125279 0.075808
O O18 0.589917 0.000000 0.042237
O O19 0.491402 0.000000 0.758730
#
# Coordination Sequence:
#
# PCOD8100090 Si02
#       8
#     8   8   8   8   8   8   8   8
#     4  11  22  37  60  89 126 164 204 252 311 365
#     4  11  23  38  62  94 124 159 203 249 308 374
#     4  10  20  36  59  86 123 157 194 246 302 359
#     4  10  21  35  58  88 124 163 202 248 302 373
#     4  10  20  35  57  86 125 164 198 251 311 365
#     4  10  21  37  61  91 122 164 213 255 306 364
#     4   9  20  41  66  90 122 161 204 255 311 372
#     4   9  18  36  63  90 120 160 206 256 310 365
#
# _framework density 22.683567
#
# number of rings (size 3 to 8) (size 9 to 14) (size 15 to 20)
#    0.000    2.000    1.250    2.625    1.750    4.500 
#    0.000    2.500    5.500    1.500    0.000    0.000 
#    0.000    0.000    0.000    0.000    0.000    0.000 
#
# Total GULP energy -396520.486818 kJ/mol
# GULP energy per Si atom -12391.265213 kJ/mol
# Density = 2.263194 g / cm^3
# Si number density = 22.683567 Si / 1000 Ang^3
#
#
#
# Elastic Constant Matrix: (Units=GPa)
#
#
# Indices 1 2 3 4 5 6 
#
# 1 67.0352 13.5583 33.4547 0.0038 13.5537 -0.0004
# 2 13.5583 59.4253 36.3333 0.0105 1.4023 -0.0028
# 3 33.4547 36.3333 140.9016 0.0187 22.6729 -0.0061
# 4 0.0038 0.0105 0.0187 18.0435 -0.0060 4.3383
# 5 13.5537 1.4023 22.6729 -0.0060 30.9158 0.0009
# 6 -0.0004 -0.0028 -0.0061 4.3383 0.0009 23.0320
#
#
#
# Elastic Compliance Matrix: (Units=1/GPa)
#
#
# Indices 1 2 3 4 5 6 
#
# 1 0.017906 -0.002273 -0.002742 -0.000001 -0.005736 0.000000
# 2 -0.002273 0.020559 -0.005411 -0.000005 0.004032 0.000002
# 3 -0.002742 -0.005411 0.010103 -0.000010 -0.005961 0.000004
# 4 -0.000001 -0.000005 -0.000010 0.058051 0.000019 -0.010934
# 5 -0.005736 0.004032 -0.005961 0.000019 0.039050 -0.000006
# 6 0.000000 0.000002 0.000004 -0.010934 -0.000006 0.045477
#
#
# Mechanical properties :
#
#
# Convention : Reuss Voigt Hill
#
# Bulk Modulus (GPa) = 36.08085 48.22831 42.15458
# Shear Modulus (GPa) = 22.60029 26.66599 24.63314
#
# Velocity S-wave (km/s) = 3.15989 3.43237 3.29895
# Velocity P-wave (km/s) = 5.40869 6.08405 5.75629
#
# Compressibility (1/GPa) = 0.02771554
#
# Stress axis : x y z
#
# Youngs Moduli (GPa) = 55.84860 48.63944 98.98338
#
# Poissons Ratio (x) = 0.11057 0.27143
# Poissons Ratio (y) = 0.12696 0.53556
# Poissons Ratio (z) = 0.15315 0.26317
#
# Static dielectric constant tensor:
#      x y z
#    x 4.476870 0.000000 0.574590 
#    y 0.000000 4.346320 0.000010 
#    z 0.574590 0.000010 4.101210 
# 
# 
# High freq. dielectric constant tensor:
#      x y z
#    x 1.881680 0.000000 0.025430 
#    y 0.000000 1.898690 0.000000 
#    z 0.025430 0.000000 1.883580 
# 
# From -- ./inp_files/344050.got.cif
#   From: 2010.06.25/outbox.cif.g09.slc.cpg/sg12_173_cif.got.tgz:344050.got - 2010.06.28 00:19:55.
