data_PCOD8100754
_publ_section_title
;
Structure prediction by ZEFSAII (Michael W. Deem and Ramdas Pophale) SiO2 
 PCOD8100754
Probable space group: C 2/M
;
_chemical_formula_sum "Si O2"
_cell_formula_units_Z 60
_cell_length_a 21.618010
_cell_length_b 22.034028
_cell_length_c 12.010641
_cell_angle_alpha 90.000000
_cell_angle_beta 30.850769
_cell_angle_gamma 90.000000
_cell_volume 2933.776403
_symmetry_space_group_name_H-M "C 2/M"
_symmetry_group_IT_number 12
_symmetry_cell_setting 'monoclinic'
loop_
_space_group_symop_operation_xyz
x,y,z
-x,y,-z
-x,-y,-z
x,-y,z
1/2+x,1/2+y,z
1/2-x,1/2+y,-z
1/2-x,1/2-y,-z
1/2+x,1/2-y,z
loop_
_atom_site_type_symbol
_atom_site_label
_atom_site_fract_x
_atom_site_fract_y
_atom_site_fract_z
Si Si1 0.886469 0.430894 0.255266
Si Si2 0.806296 0.719239 0.018232
Si Si3 0.051435 0.679175 0.704212
Si Si4 0.206711 0.821323 0.788595
Si Si5 0.650660 0.432353 0.496641
Si Si6 0.120081 0.927980 0.064089
Si Si7 0.000000 0.760866 0.000000
Si Si8 0.637722 0.611823 0.283162
O O1 0.864528 0.500000 0.328381
O O2 0.918255 0.390671 0.313022
O O3 0.766596 0.402296 0.379274
O O4 0.000000 0.427600 0.000000
O O5 0.832270 0.774201 0.058503
O O6 0.711596 0.670402 0.207174
O O7 0.750000 0.750000 0.000000
O O8 0.934282 0.684548 0.805480
O O9 0.162762 0.698926 0.455964
O O10 0.032626 0.717710 0.845567
O O11 0.197048 0.889750 0.854379
O O12 0.110752 0.807954 0.840225
O O13 0.648784 0.500000 0.544567
O O14 0.519288 0.404201 0.730155
O O15 0.665775 0.435384 0.339045
O O16 0.171090 0.915273 0.110301
O O17 0.132341 0.000000 0.020734
O O18 0.500000 0.631906 0.500000
#
# Coordination Sequence:
#
# PCOD8100754 Si02
#       8
#     8   8   8   8   8   8   4   8
#     4  10  20  37  61  92 126 164 211 255 304 370
#     4  11  24  42  61  89 123 160 209 253 310 370
#     4  11  24  41  64  90 126 165 202 258 311 371
#     4  11  25  40  64  92 123 163 203 254 313 376
#     4   9  19  34  61  92 123 164 208 256 308 362
#     4  10  21  40  60  91 128 160 208 261 310 370
#     4  10  24  44  62  90 124 160 208 252 308 368
#     4  10  20  35  64  90 121 162 205 258 311 364
#
# _framework density 20.451457000000001
#
# number of rings (size 3 to 8) (size 9 to 14) (size 15 to 20)
#    0.000    1.733    2.000    1.600    5.600    3.200 
#    0.000    1.000    0.000    0.800    0.000    0.000 
#    0.000    0.000    0.000    0.000    0.000    0.000 
#
# Total GULP energy -371702.207669 kJ/mol
# GULP energy per Si atom -12390.073589 kJ/mol
# Density = 2.040491 g / cm^3
# Si number density = 20.451457 Si / 1000 Ang^3
#
#
#
# Elastic Constant Matrix: (Units=GPa)
#
#
# Indices 1 2 3 4 5 6 
#
# 1 107.5565 35.7375 47.2313 0.0000 -27.7218 0.0000
# 2 35.7375 85.4929 30.1188 -0.0002 -10.1532 0.0000
# 3 47.2313 30.1188 99.9090 -0.0007 -14.0837 0.0003
# 4 0.0000 -0.0002 -0.0007 20.1911 0.0002 -7.9210
# 5 -27.7218 -10.1532 -14.0837 0.0002 32.5528 -0.0001
# 6 0.0000 0.0000 0.0003 -7.9210 -0.0001 25.0210
#
#
#
# Elastic Compliance Matrix: (Units=1/GPa)
#
#
# Indices 1 2 3 4 5 6 
#
# 1 0.014997 -0.003472 -0.004681 0.000000 0.009664 0.000000
# 2 -0.003472 0.014089 -0.002559 0.000000 0.000330 0.000000
# 3 -0.004681 -0.002559 0.013119 0.000000 0.000891 0.000000
# 4 0.000000 0.000000 0.000000 0.056550 0.000000 0.017902
# 5 0.009664 0.000330 0.000891 0.000000 0.039437 0.000000
# 6 0.000000 0.000000 0.000000 0.017902 0.000000 0.045634
#
#
# Mechanical properties :
#
#
# Convention : Reuss Voigt Hill
#
# Bulk Modulus (GPa) = 48.12189 57.68152 52.90170
# Shear Modulus (GPa) = 23.56501 27.54436 25.55469
#
# Velocity S-wave (km/s) = 3.39815 3.67388 3.53870
# Velocity P-wave (km/s) = 6.24319 6.80161 6.52837
#
# Compressibility (1/GPa) = 0.02078057
#
# Stress axis : x y z
#
# Youngs Moduli (GPa) = 66.67796 70.97615 76.22446
#
# Poissons Ratio (x) = 0.24646 0.35680
# Poissons Ratio (y) = 0.23154 0.19508
# Poissons Ratio (z) = 0.31211 0.18165
#
# Static dielectric constant tensor:
#      x y z
#    x 6.099770 0.000020 0.629270 
#    y 0.000020 4.353650 0.000010 
#    z 0.629270 0.000010 3.998840 
# 
# 
# High freq. dielectric constant tensor:
#      x y z
#    x 1.801700 0.000000 -0.018790 
#    y 0.000000 1.796430 0.000000 
#    z -0.018790 0.000000 1.789650 
# 
# From -- ./inp_files/170383.got.cif
#   From: 2010.06.25/outbox.cif.g09.slc.cpg/sg12_86_cif.got.tgz:170383.got - 2010.06.28 00:19:55.
