data_PCOD8100244
_publ_section_title
;
Structure prediction by ZEFSAII (Michael W. Deem and Ramdas Pophale) SiO2 
 PCOD8100244
Probable space group: C 2/M
;
_chemical_formula_sum "Si O2"
_cell_formula_units_Z 64
_cell_length_a 20.159009
_cell_length_b 8.979263
_cell_length_c 25.292413
_cell_angle_alpha 90.000000
_cell_angle_beta 133.818972
_cell_angle_gamma 90.000000
_cell_volume 3303.354120
_symmetry_space_group_name_H-M "C 2/M"
_symmetry_group_IT_number 12
_symmetry_cell_setting 'monoclinic'
loop_
_space_group_symop_operation_xyz
x,y,z
-x,y,-z
-x,-y,-z
x,-y,z
1/2+x,1/2+y,z
1/2-x,1/2+y,-z
1/2-x,1/2-y,-z
1/2+x,1/2-y,z
loop_
_atom_site_type_symbol
_atom_site_label
_atom_site_fract_x
_atom_site_fract_y
_atom_site_fract_z
Si Si1 0.727152 0.827155 0.844767
Si Si2 0.582859 0.826645 0.296062
Si Si3 0.678487 0.328836 0.923200
Si Si4 0.267994 0.328012 0.455669
Si Si5 0.915777 0.676181 0.915851
Si Si6 0.027456 0.829458 0.159484
Si Si7 0.450015 0.171325 0.316549
Si Si8 0.531870 0.676372 0.461314
O O1 0.675517 0.755539 0.866063
O O2 0.822917 0.746895 0.886954
O O3 0.657285 0.807624 0.757217
O O4 0.746479 0.000000 0.867312
O O5 0.687813 0.796231 0.369799
O O6 0.568758 0.729792 0.236530
O O7 0.515386 0.769584 0.305325
O O8 0.563390 0.000000 0.273051
O O9 0.706437 0.500000 0.929172
O O10 0.581903 0.315153 0.899422
O O11 0.750000 0.250000 0.000000
O O12 0.275465 0.500000 0.473011
O O13 0.250000 0.250000 0.500000
O O14 0.363703 0.267378 0.485861
O O15 0.903601 0.500000 0.907944
O O16 0.933531 0.733015 0.866833
O O17 0.000000 0.724348 0.000000
O O18 0.058263 0.000000 0.168545
O O19 0.467874 0.261470 0.379591
O O20 0.474464 0.000000 0.340571
O O21 0.500000 0.739851 0.500000
O O22 0.523038 0.500000 0.454334
#
# Coordination Sequence:
#
# PCOD8100244 Si02
#       8
#     8   8   8   8   8   8   8   8
#     4  11  23  40  63  90 122 159 203 250 304 365
#     4  10  20  37  60  87 121 159 203 251 303 359
#     4  11  23  38  60  90 122 157 201 249 300 357
#     4  10  20  35  58  85 115 156 203 247 297 353
#     4  11  25  44  65  89 121 162 203 247 305 368
#     4  11  24  40  61  91 123 157 201 251 301 356
#     4  10  21  38  61  89 121 158 197 246 303 356
#     4  10  22  38  57  86 123 159 199 248 300 355
#
# _framework density 19.374245999999999
#
# number of rings (size 3 to 8) (size 9 to 14) (size 15 to 20)
#    0.000    1.500    2.500    2.250    0.000    7.750 
#    0.000    1.250    0.000    0.000    0.000    0.000 
#    0.000    0.000    0.000    0.000    0.000    0.000 
#
# Total GULP energy -396929.484048 kJ/mol
# GULP energy per Si atom -12404.046376 kJ/mol
# Density = 1.933015 g / cm^3
# Si number density = 19.374246 Si / 1000 Ang^3
#
#
#
# Elastic Constant Matrix: (Units=GPa)
#
#
# Indices 1 2 3 4 5 6 
#
# 1 99.6978 32.4246 31.8143 0.0000 -2.0903 0.0000
# 2 32.4246 73.7189 37.5248 0.0000 1.9593 0.0000
# 3 31.8143 37.5248 97.0491 0.0000 -1.2109 0.0000
# 4 0.0000 0.0000 0.0000 36.6962 0.0000 -2.9823
# 5 -2.0903 1.9593 -1.2109 0.0000 37.1775 0.0000
# 6 0.0000 0.0000 0.0000 -2.9823 0.0000 32.7713
#
#
#
# Elastic Compliance Matrix: (Units=1/GPa)
#
#
# Indices 1 2 3 4 5 6 
#
# 1 0.012157 -0.004166 -0.002364 0.000000 0.000826 0.000000
# 2 -0.004166 0.018362 -0.005752 0.000000 -0.001389 0.000000
# 3 -0.002364 -0.005752 0.013311 0.000000 0.000604 0.000000
# 4 0.000000 0.000000 0.000000 0.027454 0.000000 0.002498
# 5 0.000826 -0.001389 0.000604 0.000000 0.027037 0.000000
# 6 0.000000 0.000000 0.000000 0.002498 0.000000 0.030742
#
#
# Mechanical properties :
#
#
# Convention : Reuss Voigt Hill
#
# Bulk Modulus (GPa) = 51.90366 52.66591 52.28478
# Shear Modulus (GPa) = 31.24082 32.57581 31.90831
#
# Velocity S-wave (km/s) = 4.01994 4.10493 4.06266
# Velocity P-wave (km/s) = 6.95663 7.05052 7.00373
#
# Compressibility (1/GPa) = 0.01926646
#
# Stress axis : x y z
#
# Youngs Moduli (GPa) = 82.25822 54.46084 75.12856
#
# Poissons Ratio (x) = 0.22686 0.17762
# Poissons Ratio (y) = 0.34265 0.43210
# Poissons Ratio (z) = 0.19448 0.31323
#
# Static dielectric constant tensor:
#      x y z
#    x 3.802930 0.000000 0.077800 
#    y 0.000000 3.590680 0.000000 
#    z 0.077800 0.000000 3.579630 
# 
# 
# High freq. dielectric constant tensor:
#      x y z
#    x 1.759000 0.000000 0.004850 
#    y 0.000000 1.756570 0.000000 
#    z 0.004850 0.000000 1.766020 
# 
# From -- ./inp_files/346110.got.cif
#   From: 2010.06.25/outbox.cif.g09.slc.cpg/sg12_174_cif.got.tgz:346110.got - 2010.06.28 00:19:55.
