data_PCOD8100768
_publ_section_title
;
Structure prediction by ZEFSAII (Michael W. Deem and Ramdas Pophale) SiO2 
 PCOD8100768
Probable space group: C 2/M
;
_chemical_formula_sum "Si O2"
_cell_formula_units_Z 64
_cell_length_a 23.986023
_cell_length_b 8.963256
_cell_length_c 19.475064
_cell_angle_alpha 90.000000
_cell_angle_beta 68.815941
_cell_angle_gamma 90.000000
_cell_volume 3904.060679
_symmetry_space_group_name_H-M "C 2/M"
_symmetry_group_IT_number 12
_symmetry_cell_setting 'monoclinic'
loop_
_space_group_symop_operation_xyz
x,y,z
-x,y,-z
-x,-y,-z
x,-y,z
1/2+x,1/2+y,z
1/2-x,1/2+y,-z
1/2-x,1/2-y,-z
1/2+x,1/2-y,z
loop_
_atom_site_type_symbol
_atom_site_label
_atom_site_fract_x
_atom_site_fract_y
_atom_site_fract_z
Si Si1 0.276029 0.327414 0.835692
Si Si2 0.487443 0.823465 0.196172
Si Si3 0.723732 0.177137 0.714330
Si Si4 0.877355 0.675938 0.871038
Si Si5 0.447060 0.674323 0.075478
Si Si6 0.345647 0.825664 0.037379
Si Si7 0.230101 0.170235 0.577409
Si Si8 0.882388 0.169772 0.295435
O O1 0.292488 0.500000 0.827593
O O2 0.258369 0.273849 0.767291
O O3 0.334864 0.239799 0.831408
O O4 0.223048 0.294942 0.913007
O O5 0.555452 0.767757 0.174257
O O6 0.459803 0.764480 0.138333
O O7 0.446006 0.754161 0.275404
O O8 0.483989 0.000000 0.199947
O O9 0.757852 0.244589 0.631819
O O10 0.656878 0.248052 0.746758
O O11 0.718317 0.000000 0.710591
O O12 0.873580 0.500000 0.869695
O O13 0.856758 0.732129 0.955183
O O14 0.442710 0.500000 0.094033
O O15 0.385336 0.729939 0.071075
O O16 0.500000 0.711891 0.000000
O O17 0.362120 0.000000 0.038127
O O18 0.250000 0.250000 0.500000
O O19 0.157121 0.176578 0.616657
O O20 0.252949 0.000000 0.566738
O O21 0.894047 0.000000 0.267629
#
# Coordination Sequence:
#
# PCOD8100768 Si02
#       8
#     8   8   8   8   8   8   8   8
#     4  10  21  34  51  71  94 129 172 214 256 298
#     4  11  21  34  50  69  96 132 168 206 252 303
#     4   9  17  31  50  76 105 134 167 201 245 298
#     4  10  22  35  49  68  94 131 174 217 258 298
#     4  11  22  33  49  72  95 124 163 210 262 307
#     4  10  20  36  52  70  94 127 170 214 262 309
#     4   9  18  31  51  80 111 137 162 195 241 296
#     4   9  19  32  50  77 104 131 161 197 242 290
#
# _framework density 16.393189
#
# number of rings (size 3 to 8) (size 9 to 14) (size 15 to 20)
#    0.750    1.375    1.250    2.625    0.000    4.500 
#    0.000    0.000    0.000    0.000    0.000    0.875 
#    0.000    7.000    0.000    0.000    0.000    0.000 
#
# Total GULP energy -396642.004401 kJ/mol
# GULP energy per Si atom -12395.062638 kJ/mol
# Density = 1.635588 g / cm^3
# Si number density = 16.393189 Si / 1000 Ang^3
#
#
#
# Elastic Constant Matrix: (Units=GPa)
#
#
# Indices 1 2 3 4 5 6 
#
# 1 107.4152 40.0156 49.9461 0.0000 0.0315 0.0000
# 2 40.0156 72.0724 38.7142 0.0002 -1.8294 0.0003
# 3 49.9461 38.7142 93.4237 0.0000 -8.2113 0.0000
# 4 0.0000 0.0002 0.0000 26.6254 0.0000 -0.1919
# 5 0.0315 -1.8294 -8.2113 0.0000 14.6310 0.0000
# 6 0.0000 0.0003 0.0000 -0.1919 0.0000 29.1773
#
#
#
# Elastic Compliance Matrix: (Units=1/GPa)
#
#
# Indices 1 2 3 4 5 6 
#
# 1 0.013705 -0.004618 -0.005750 0.000000 -0.003834 0.000000
# 2 -0.004618 0.019460 -0.005660 0.000000 -0.000733 0.000000
# 3 -0.005750 -0.005660 0.016896 0.000000 0.008787 0.000000
# 4 0.000000 0.000000 0.000000 0.037560 0.000000 0.000247
# 5 -0.003834 -0.000733 0.008787 0.000000 0.073196 0.000000
# 6 0.000000 0.000000 0.000000 0.000247 0.000000 0.034275
#
#
# Mechanical properties :
#
#
# Convention : Reuss Voigt Hill
#
# Bulk Modulus (GPa) = 55.53955 58.91814 57.22885
# Shear Modulus (GPa) = 21.44543 23.70243 22.57393
#
# Velocity S-wave (km/s) = 3.62082 3.80659 3.71486
# Velocity P-wave (km/s) = 7.17172 7.43900 7.30659
#
# Compressibility (1/GPa) = 0.01800519
#
# Stress axis : x y z
#
# Youngs Moduli (GPa) = 72.96714 51.38631 59.18549
#
# Poissons Ratio (x) = 0.23728 0.34034
# Poissons Ratio (y) = 0.33693 0.33500
# Poissons Ratio (z) = 0.41959 0.29085
#
# Static dielectric constant tensor:
#      x y z
#    x 3.040720 0.000000 -0.177380 
#    y 0.000000 3.127490 0.000000 
#    z -0.177380 0.000000 3.038610 
# 
# 
# High freq. dielectric constant tensor:
#      x y z
#    x 1.613610 0.000000 -0.013010 
#    y 0.000000 1.642220 0.000000 
#    z -0.013010 0.000000 1.612290 
# 
# From -- ./inp_files/319141.got.cif
#   From: 2010.06.25/outbox.cif.g09.slc.cpg/sg12_160_cif.got.tgz:319141.got - 2010.06.28 00:19:55.
