data_PCOD8100435
_publ_section_title
;
Structure prediction by ZEFSAII (Michael W. Deem and Ramdas Pophale) SiO2 
 PCOD8100435
Probable space group: C 2/M
;
_chemical_formula_sum "Si O2"
_cell_formula_units_Z 56
_cell_length_a 16.256953
_cell_length_b 9.105108
_cell_length_c 27.846998
_cell_angle_alpha 90.000000
_cell_angle_beta 136.269378
_cell_angle_gamma 90.000000
_cell_volume 2849.374489
_symmetry_space_group_name_H-M "C 2/M"
_symmetry_group_IT_number 12
_symmetry_cell_setting 'monoclinic'
loop_
_space_group_symop_operation_xyz
x,y,z
-x,y,-z
-x,-y,-z
x,-y,z
1/2+x,1/2+y,z
1/2-x,1/2+y,-z
1/2-x,1/2-y,-z
1/2+x,1/2-y,z
loop_
_atom_site_type_symbol
_atom_site_label
_atom_site_fract_x
_atom_site_fract_y
_atom_site_fract_z
Si Si1 0.473103 0.672309 0.812965
Si Si2 0.377075 0.339205 0.929410
Si Si3 0.192271 0.670958 0.187277
Si Si4 0.895729 0.828777 0.346873
Si Si5 0.159067 0.174488 0.426173
Si Si6 0.804168 0.660112 0.066039
Si Si7 0.225575 0.172394 0.346387
O O1 0.492747 0.500000 0.824944
O O2 0.414067 0.733478 0.836105
O O3 0.599002 0.750911 0.862200
O O4 0.391574 0.714635 0.733129
O O5 0.399147 0.500000 0.913775
O O6 0.302465 0.226158 0.864969
O O7 0.303518 0.369770 0.945120
O O8 0.500000 0.267512 0.000000
O O9 0.161752 0.500000 0.177216
O O10 0.314978 0.705478 0.266441
O O11 0.842446 0.749079 0.372034
O O12 0.027074 0.773179 0.386891
O O13 0.897610 0.000000 0.360260
O O14 0.250000 0.250000 0.500000
O O15 0.196205 0.225770 0.388079
O O16 0.168139 0.000000 0.433736
O O17 0.854029 0.500000 0.069922
O O18 0.750000 0.750000 0.000000
O O19 0.251525 0.000000 0.355693
#
# Coordination Sequence:
#
# PCOD8100435 Si02
#       7
#     8   8   8   8   8   8   8
#     4  10  20  36  59  82 111 149 187 235 291 345
#     4  10  22  38  54  76 110 148 185 231 287 339
#     4  10  20  35  59  85 110 143 188 238 286 345
#     4   9  20  38  60  86 120 154 192 244 298 348
#     4  10  22  40  60  87 121 158 197 243 296 355
#     4  11  23  37  55  81 112 148 190 237 286 342
#     4   9  20  38  61  86 117 156 199 241 292 355
#
# _framework density 19.653435000000002
#
# number of rings (size 3 to 8) (size 9 to 14) (size 15 to 20)
#    0.000    2.143    0.000    2.143    2.000    5.429 
#    0.000    2.857    0.000    0.000    0.000    0.000 
#    0.000    0.000    0.000    0.000    0.000    0.000 
#
# Total GULP energy -347069.777324 kJ/mol
# GULP energy per Si atom -12395.349190 kJ/mol
# Density = 1.960870 g / cm^3
# Si number density = 19.653435 Si / 1000 Ang^3
#
#
#
# Elastic Constant Matrix: (Units=GPa)
#
#
# Indices 1 2 3 4 5 6 
#
# 1 133.1825 45.3342 68.9581 0.0000 3.5292 0.0000
# 2 45.3342 82.5890 54.1725 0.0000 -0.0170 0.0000
# 3 68.9581 54.1725 118.9446 0.0000 0.5243 0.0000
# 4 0.0000 0.0000 0.0000 27.0986 0.0000 -0.0515
# 5 3.5292 -0.0170 0.5243 0.0000 36.0587 0.0000
# 6 0.0000 0.0000 0.0000 -0.0515 0.0000 30.9630
#
#
#
# Elastic Compliance Matrix: (Units=1/GPa)
#
#
# Indices 1 2 3 4 5 6 
#
# 1 0.011166 -0.002690 -0.005244 0.000000 -0.001018 0.000000
# 2 -0.002690 0.017915 -0.006601 0.000000 0.000368 0.000000
# 3 -0.005244 -0.006601 0.014453 0.000000 0.000300 0.000000
# 4 0.000000 0.000000 0.000000 0.036902 0.000000 0.000061
# 5 -0.001018 0.000368 0.000300 0.000000 0.027828 0.000000
# 6 0.000000 0.000000 0.000000 0.000061 0.000000 0.032297
#
#
# Mechanical properties :
#
#
# Convention : Reuss Voigt Hill
#
# Bulk Modulus (GPa) = 69.14066 74.62728 71.88397
# Shear Modulus (GPa) = 28.66110 29.90748 29.28429
#
# Velocity S-wave (km/s) = 3.82295 3.90518 3.86428
# Velocity P-wave (km/s) = 7.39884 7.64120 7.52100
#
# Compressibility (1/GPa) = 0.01446327
#
# Stress axis : x y z
#
# Youngs Moduli (GPa) = 89.55515 55.82012 69.19087
#
# Poissons Ratio (x) = 0.15014 0.36285
# Poissons Ratio (y) = 0.24088 0.45675
# Poissons Ratio (z) = 0.46964 0.36849
#
# Static dielectric constant tensor:
#      x y z
#    x 3.651950 0.000000 0.058220 
#    y 0.000000 3.447020 0.000000 
#    z 0.058220 0.000000 3.589580 
# 
# 
# High freq. dielectric constant tensor:
#      x y z
#    x 1.767940 0.000000 0.002800 
#    y 0.000000 1.766810 0.000000 
#    z 0.002800 0.000000 1.765130 
# 
# From -- ./inp_files/363147.got.cif
#   From: 2010.06.25/outbox.cif.g09.slc.cpg/sg12_182_cif.got.tgz:363147.got - 2010.06.28 00:19:55.
