data_PCOD8100736
_publ_section_title
;
Structure prediction by ZEFSAII (Michael W. Deem and Ramdas Pophale) SiO2 
 PCOD8100736
Probable space group: C 2/M
;
_chemical_formula_sum "Si O2"
_cell_formula_units_Z 64
_cell_length_a 17.435118
_cell_length_b 30.829093
_cell_length_c 11.593249
_cell_angle_alpha 90.000000
_cell_angle_beta 29.292079
_cell_angle_gamma 90.000000
_cell_volume 3048.822827
_symmetry_space_group_name_H-M "C 2/M"
_symmetry_group_IT_number 12
_symmetry_cell_setting 'monoclinic'
loop_
_space_group_symop_operation_xyz
x,y,z
-x,y,-z
-x,-y,-z
x,-y,z
1/2+x,1/2+y,z
1/2-x,1/2+y,-z
1/2-x,1/2-y,-z
1/2+x,1/2-y,z
loop_
_atom_site_type_symbol
_atom_site_label
_atom_site_fract_x
_atom_site_fract_y
_atom_site_fract_z
Si Si1 0.656979 0.451824 0.860085
Si Si2 0.043668 0.951764 0.264056
Si Si3 0.295636 0.373462 0.821990
Si Si4 0.345428 0.869134 0.626706
Si Si5 0.181935 0.882508 0.465135
Si Si6 0.413194 0.326226 0.878805
Si Si7 0.455818 0.150820 0.244265
Si Si8 0.935582 0.747255 0.213146
O O1 0.707784 0.500000 0.750622
O O2 0.792338 0.417223 0.656942
O O3 0.500000 0.437348 0.000000
O O4 0.636214 0.452577 0.023936
O O5 0.135626 0.919929 0.229705
O O6 0.867854 0.933190 0.471052
O O7 0.031450 0.000000 0.333430
O O8 0.348811 0.362828 0.622391
O O9 0.348135 0.333815 0.835002
O O10 0.108720 0.377769 0.067194
O O11 0.500000 0.873140 0.500000
O O12 0.368829 0.842338 0.479233
O O13 0.216314 0.841863 0.862367
O O14 0.357561 0.876242 0.278353
O O15 0.065868 0.856039 0.701522
O O16 0.463508 0.276512 0.830753
O O17 0.494471 0.198135 0.145009
O O18 0.750000 0.750000 0.500000
O O19 0.000000 0.761830 0.000000
#
# Coordination Sequence:
#
# PCOD8100736 Si02
#       8
#     8   8   8   8   8   8   8   8
#     4  10  20  35  62  97 130 169 222 278 334 407
#     4  10  20  39  65  95 130 171 222 274 333 406
#     4  11  23  43  62  96 133 174 220 270 336 401
#     4  12  23  43  64  96 138 172 220 275 345 409
#     4  11  22  40  68  94 128 174 224 272 332 398
#     4  11  23  42  67  96 125 175 222 275 332 406
#     4  12  25  43  67  95 133 179 219 280 342 407
#     4  12  26  46  70 105 137 180 236 288 348 411
#
# _framework density 20.991709
#
# number of rings (size 3 to 8) (size 9 to 14) (size 15 to 20)
#    0.000    0.875    5.000    4.125    0.000    1.750 
#    0.000    1.250    0.000    1.500    0.000    0.000 
#    0.000    0.000    0.000    0.000    0.000    0.000 
#
# Total GULP energy -396599.891207 kJ/mol
# GULP energy per Si atom -12393.746600 kJ/mol
# Density = 2.094393 g / cm^3
# Si number density = 20.991709 Si / 1000 Ang^3
#
#
#
# Elastic Constant Matrix: (Units=GPa)
#
#
# Indices 1 2 3 4 5 6 
#
# 1 113.6017 64.9124 24.9122 0.0025 -16.4187 0.0010
# 2 64.9124 126.4517 50.7861 -0.0010 -27.3716 -0.0003
# 3 24.9122 50.7861 93.2466 0.0039 -4.6890 0.0014
# 4 0.0025 -0.0010 0.0039 19.7361 -0.0016 -2.9954
# 5 -16.4187 -27.3716 -4.6890 -0.0016 42.4475 -0.0006
# 6 0.0010 -0.0003 0.0014 -2.9954 -0.0006 28.2613
#
#
#
# Elastic Compliance Matrix: (Units=1/GPa)
#
#
# Indices 1 2 3 4 5 6 
#
# 1 0.012482 -0.006289 0.000130 -0.000002 0.000787 -0.000001
# 2 -0.006289 0.015046 -0.006183 0.000004 0.006586 0.000001
# 3 0.000130 -0.006183 0.013936 -0.000003 -0.002397 -0.000001
# 4 -0.000002 0.000004 -0.000003 0.051497 0.000003 0.005458
# 5 0.000787 0.006586 -0.002397 0.000003 0.027845 0.000001
# 6 -0.000001 0.000001 -0.000001 0.005458 0.000001 0.035963
#
#
# Mechanical properties :
#
#
# Convention : Reuss Voigt Hill
#
# Bulk Modulus (GPa) = 59.59605 68.28016 63.93811
# Shear Modulus (GPa) = 26.73152 30.93492 28.83322
#
# Velocity S-wave (km/s) = 3.57239 3.84301 3.71017
# Velocity P-wave (km/s) = 6.74299 7.23114 6.99133
#
# Compressibility (1/GPa) = 0.01677964
#
# Stress axis : x y z
#
# Youngs Moduli (GPa) = 80.11836 66.46477 71.75442
#
# Poissons Ratio (x) = 0.41802 -0.00935
# Poissons Ratio (y) = 0.50389 0.44366
# Poissons Ratio (z) = -0.01044 0.41095
#
# Static dielectric constant tensor:
#      x y z
#    x 3.970640 0.000000 0.068820 
#    y 0.000000 3.876650 0.000000 
#    z 0.068820 0.000000 4.087130 
# 
# 
# High freq. dielectric constant tensor:
#      x y z
#    x 1.832230 0.000000 0.008270 
#    y 0.000000 1.809080 0.000000 
#    z 0.008270 0.000000 1.829350 
# 
# From -- ./inp_files/161196.got.cif
#   From: 2010.06.25/outbox.cif.g09.slc.cpg/sg12_81_cif.got.tgz:161196.got - 2010.06.28 00:19:55.
