data_PCOD8100802
_publ_section_title
;
Structure prediction by ZEFSAII (Michael W. Deem and Ramdas Pophale) SiO2 
 PCOD8100802
Probable space group: C 2/M
;
_chemical_formula_sum "Si O2"
_cell_formula_units_Z 64
_cell_length_a 14.305336
_cell_length_b 13.026250
_cell_length_c 19.063777
_cell_angle_alpha 90.000000
_cell_angle_beta 73.702333
_cell_angle_gamma 90.000000
_cell_volume 3409.688712
_symmetry_space_group_name_H-M "C 2/M"
_symmetry_group_IT_number 12
_symmetry_cell_setting 'monoclinic'
loop_
_space_group_symop_operation_xyz
x,y,z
-x,y,-z
-x,-y,-z
x,-y,z
1/2+x,1/2+y,z
1/2-x,1/2+y,-z
1/2-x,1/2-y,-z
1/2+x,1/2-y,z
loop_
_atom_site_type_symbol
_atom_site_label
_atom_site_fract_x
_atom_site_fract_y
_atom_site_fract_z
Si Si1 0.066132 0.119273 0.330627
Si Si2 0.897089 0.207095 0.824571
Si Si3 0.112802 0.390270 0.475580
Si Si4 0.956681 0.379118 0.236438
Si Si5 0.476884 0.620454 0.083404
Si Si6 0.785449 0.275257 0.658722
Si Si7 0.305473 0.252230 0.184241
Si Si8 0.898727 0.270522 0.385715
O O1 0.063704 0.137123 0.247493
O O2 0.167910 0.161572 0.340881
O O3 0.977209 0.181462 0.384245
O O4 0.056028 0.000000 0.351098
O O5 0.779020 0.211431 0.850417
O O6 0.945256 0.320441 0.808573
O O7 0.931501 0.153442 0.888660
O O8 0.166406 0.500000 0.474345
O O9 0.134314 0.347868 0.393108
O O10 0.140342 0.316105 0.533374
O O11 0.000000 0.408892 0.500000
O O12 0.970816 0.500000 0.221648
O O13 0.865143 0.340528 0.208697
O O14 0.938464 0.355978 0.322646
O O15 0.460013 0.500000 0.091766
O O16 0.377035 0.673479 0.128008
O O17 0.500000 0.656427 0.000000
O O18 0.751239 0.315370 0.742429
O O19 0.695669 0.282142 0.625806
#
# Coordination Sequence:
#
# PCOD8100802 Si02
#       8
#     8   8   8   8   8   8   8   8
#     4  10  20  36  57  81 109 142 182 227 272 318
#     4   9  19  34  55  82 112 143 178 221 265 316
#     4  11  22  36  53  73 106 146 181 222 276 328
#     4   9  18  33  55  81 108 141 181 225 270 315
#     4  10  21  37  57  83 114 145 177 216 266 324
#     4  10  21  37  55  79 107 137 183 230 270 321
#     4   9  20  36  56  82 109 140 180 226 268 317
#     4  10  20  36  54  76 108 141 181 228 274 323
#
# _framework density 18.770042
#
# number of rings (size 3 to 8) (size 9 to 14) (size 15 to 20)
#    0.000    2.250    1.250    1.875    0.000    7.500 
#    0.000    1.250    0.000    6.000    0.000    0.000 
#    0.000    0.000    0.000    0.000    0.000    0.000 
#
# Total GULP energy -396667.328922 kJ/mol
# GULP energy per Si atom -12395.854029 kJ/mol
# Density = 1.872732 g / cm^3
# Si number density = 18.770042 Si / 1000 Ang^3
#
#
#
# Elastic Constant Matrix: (Units=GPa)
#
#
# Indices 1 2 3 4 5 6 
#
# 1 94.4029 20.9932 26.1745 0.0000 -7.5528 0.0000
# 2 20.9932 100.8098 48.3687 0.0000 -20.5189 0.0000
# 3 26.1745 48.3687 108.6810 0.0000 -5.9625 0.0000
# 4 0.0000 0.0000 0.0000-4880.9708 0.0000 8753.9442
# 5 -7.5528 -20.5189 -5.9625 0.0000 16.7846 0.0000
# 6 0.0000 0.0000 0.0000 8753.9442 0.0000**********
#
#
#
# Elastic Compliance Matrix: (Units=1/GPa)
#
#
# Indices 1 2 3 4 5 6 
#
# 1 0.011668 -0.000527 -0.002369 0.000000 0.003765 0.000000
# 2 -0.000527 0.016721 -0.006330 0.000000 0.017956 0.000000
# 3 -0.002369 -0.006330 0.012347 0.000000 -0.004418 0.000000
# 4 0.000000 0.000000 0.000000 0.034269 0.000000 0.019222
# 5 0.003765 0.017956 -0.004418 0.000000 0.081653 0.000000
# 6 0.000000 0.000000 0.000000 0.019222 0.000000 0.010718
#
#
# Mechanical properties :
#
#
# Convention : Reuss Voigt Hill
#
# Bulk Modulus (GPa) = 44.87473 54.99629 49.93551
# Shear Modulus (GPa) = 25.87249 -4080.29801 -2027.21276
#
# Velocity S-wave (km/s) = 3.71670 -46.67499 -32.89940
# Velocity P-wave (km/s) = 6.50984 53.62253 37.63640
#
# Compressibility (1/GPa) = 0.02228426
#
# Stress axis : x y z
#
# Youngs Moduli (GPa) = 85.70353 59.80446 80.99445
#
# Poissons Ratio (x) = 0.03151 0.19189
# Poissons Ratio (y) = 0.04515 0.51268
# Poissons Ratio (z) = 0.20304 0.37855
#
# Static dielectric constant tensor:
#      x y z
#    x 3.649610 0.000000 0.214070 
#    y 0.000000 3.269820 0.000000 
#    z 0.214070 0.000000 3.903880 
# 
# 
# High freq. dielectric constant tensor:
#      x y z
#    x 1.741990 0.000000 0.002120 
#    y 0.000000 1.709800 0.000000 
#    z 0.002120 0.000000 1.715260 
# 
# From -- ./inp_files/309859.got.cif
#   From: 2010.06.25/outbox.cif.g09.slc.cpg/sg12_155_cif.got.tgz:309859.got - 2010.06.28 00:19:55.
