data_PCOD8100223
_publ_section_title
;
Structure prediction by ZEFSAII (Michael W. Deem and Ramdas Pophale) SiO2 
 PCOD8100223
Probable space group: C 2/M
;
_chemical_formula_sum "Si O2"
_cell_formula_units_Z 48
_cell_length_a 18.015960
_cell_length_b 8.938669
_cell_length_c 15.309457
_cell_angle_alpha 90.000000
_cell_angle_beta 91.716184
_cell_angle_gamma 90.000000
_cell_volume 2464.309216
_symmetry_space_group_name_H-M "C 2/M"
_symmetry_group_IT_number 12
_symmetry_cell_setting 'monoclinic'
loop_
_space_group_symop_operation_xyz
x,y,z
-x,y,-z
-x,-y,-z
x,-y,z
1/2+x,1/2+y,z
1/2-x,1/2+y,-z
1/2-x,1/2-y,-z
1/2+x,1/2-y,z
loop_
_atom_site_type_symbol
_atom_site_label
_atom_site_fract_x
_atom_site_fract_y
_atom_site_fract_z
Si Si1 0.586890 0.827437 0.502529
Si Si2 0.843089 0.173451 0.657524
Si Si3 0.172555 0.328152 0.679065
Si Si4 0.587308 0.664763 0.017099
Si Si5 0.067663 0.675988 0.187429
Si Si6 0.090665 0.176451 0.826687
O O1 0.500000 0.795015 0.500000
O O2 0.625316 0.719950 0.434660
O O3 0.618091 0.785006 0.598368
O O4 0.604309 0.000000 0.479816
O O5 0.755819 0.205809 0.652562
O O6 0.879238 0.272760 0.733648
O O7 0.860856 0.000000 0.675496
O O8 0.161829 0.500000 0.706066
O O9 0.153387 0.226409 0.761382
O O10 0.618619 0.500000 0.042546
O O11 0.605548 0.776921 0.096702
O O12 0.500000 0.654330 0.000000
O O13 0.620062 0.721057 0.925156
O O14 0.058938 0.500000 0.189460
O O15 0.986897 0.745683 0.199044
O O16 0.077247 0.000000 0.821337
#
# Coordination Sequence:
#
# PCOD8100223 Si02
#       6
#     8   8   8   8   8   8
#     4  10  21  38  60  85 111 141 181 230 279 328
#     4  11  23  38  56  80 113 151 188 227 273 327
#     4  10  22  38  56  82 116 150 183 224 275 330
#     4   8  16  32  53  80 112 143 180 229 279 325
#     4  11  21  34  56  83 111 146 189 234 278 326
#     4  10  20  35  58  85 113 146 184 228 277 331
#
# _framework density 19.478076000000001
#
# number of rings (size 3 to 8) (size 9 to 14) (size 15 to 20)
#    0.000    2.000    0.000    5.000    0.000    7.333 
#    0.000    0.833    0.000    0.000    0.000    0.000 
#    0.000    0.000    0.000    0.000    0.000    0.000 
#
# Total GULP energy -297645.936959 kJ/mol
# GULP energy per Si atom -12401.914040 kJ/mol
# Density = 1.943374 g / cm^3
# Si number density = 19.478076 Si / 1000 Ang^3
#
#
#
# Elastic Constant Matrix: (Units=GPa)
#
#
# Indices 1 2 3 4 5 6 
#
# 1 64.3304 32.8626 30.8326 0.0000 -19.8688 0.0000
# 2 32.8626 97.1167 48.6663 0.0000 -13.0011 0.0000
# 3 30.8326 48.6663 107.9989 0.0000 -34.9762 0.0000
# 4 0.0000 0.0000 0.0000 34.9572 0.0000 -6.0846
# 5 -19.8688 -13.0011 -34.9762 0.0000 11.9702 0.0000
# 6 0.0000 0.0000 0.0000 -6.0846 0.0000 21.1689
#
#
#
# Elastic Compliance Matrix: (Units=1/GPa)
#
#
# Indices 1 2 3 4 5 6 
#
# 1 -0.006414 0.006217 -0.041544 0.000000 -0.125281 0.000000
# 2 0.006217 0.009762 0.011206 0.000000 0.053663 0.000000
# 3 -0.041544 0.011206 -0.043200 0.000000 -0.183012 0.000000
# 4 0.000000 0.000000 0.000000 0.030113 0.000000 0.008655
# 5 -0.125281 0.053663 -0.183012 0.000000 -0.600872 0.000000
# 6 0.000000 0.000000 0.000000 0.008655 0.000000 0.049727
#
#
# Mechanical properties :
#
#
# Convention : Reuss Voigt Hill
#
# Bulk Modulus (GPa) = -11.35152 54.90766 21.77807
# Shear Modulus (GPa) = -9.22500 24.09157 7.43328
#
# Velocity S-wave (km/s) = -2.17862 3.52071 1.95564
# Velocity P-wave (km/s) = 3.48841 6.69163 4.03788
#
# Compressibility (1/GPa) = -0.08809390
#
# Stress axis : x y z
#
# Youngs Moduli (GPa) = -155.91791 102.43813 -23.14839
#
# Poissons Ratio (x) = -0.63683 -0.96167
# Poissons Ratio (y) = 0.96930 0.25939
# Poissons Ratio (z) = -6.47739 -1.14787
#
# Static dielectric constant tensor:
#      x y z
#    x 3.365760 0.000000 -0.085900 
#    y 0.000000 3.669630 0.000000 
#    z -0.085900 0.000000 4.001730 
# 
# 
# High freq. dielectric constant tensor:
#      x y z
#    x 1.738470 0.000000 -0.003650 
#    y 0.000000 1.759460 0.000000 
#    z -0.003650 0.000000 1.775910 
# 
# From -- ./inp_files/221584.got.cif
#   From: 2010.06.25/outbox.cif.g09.slc.cpg/sg12_111_cif.got.tgz:221584.got - 2010.06.28 00:19:55.
