data_PCOD8100410
_publ_section_title
;
Structure prediction by ZEFSAII (Michael W. Deem and Ramdas Pophale) SiO2 
 PCOD8100410
Probable space group: C 2/M
;
_chemical_formula_sum "Si O2"
_cell_formula_units_Z 64
_cell_length_a 18.244468
_cell_length_b 14.147287
_cell_length_c 15.905762
_cell_angle_alpha 90.000000
_cell_angle_beta 44.970954
_cell_angle_gamma 90.000000
_cell_volume 2901.506671
_symmetry_space_group_name_H-M "C 2/M"
_symmetry_group_IT_number 12
_symmetry_cell_setting 'monoclinic'
loop_
_space_group_symop_operation_xyz
x,y,z
-x,y,-z
-x,-y,-z
x,-y,z
1/2+x,1/2+y,z
1/2-x,1/2+y,-z
1/2-x,1/2-y,-z
1/2+x,1/2-y,z
loop_
_atom_site_type_symbol
_atom_site_label
_atom_site_fract_x
_atom_site_fract_y
_atom_site_fract_z
Si Si1 0.776480 0.743487 0.828243
Si Si2 0.949052 0.394213 0.749048
Si Si3 0.419815 0.391788 0.387596
Si Si4 0.299995 0.292374 0.626327
Si Si5 0.138126 0.899492 0.141130
Si Si6 0.594248 0.895603 0.481039
Si Si7 0.083032 0.736323 0.746356
Si Si8 0.940472 0.845519 0.972544
O O1 0.851613 0.653508 0.780843
O O2 0.809244 0.804328 0.719355
O O3 0.782927 0.814072 0.904089
O O4 0.660316 0.707911 0.910600
O O5 0.914984 0.500000 0.805269
O O6 0.051147 0.401501 0.609508
O O7 0.988305 0.329680 0.792850
O O8 0.380604 0.500000 0.403176
O O9 0.383641 0.356473 0.509305
O O10 0.544332 0.387968 0.283516
O O11 0.380860 0.318535 0.348330
O O12 0.313833 0.180005 0.597204
O O13 0.186237 0.322143 0.685406
O O14 0.093783 0.903589 0.081980
O O15 0.194530 0.000000 0.110002
O O16 0.500000 0.859830 0.500000
O O17 0.633832 0.000000 0.419456
O O18 0.033673 0.776029 0.871285
O O19 0.000000 0.903373 0.000000
#
# Coordination Sequence:
#
# PCOD8100410 Si02
#       8
#     8   8   8   8   8   8   8   8
#     4  12  23  41  68  95 131 168 216 269 322 389
#     4  11  23  40  65  95 125 163 214 265 322 386
#     4  10  22  40  63  93 130 172 216 260 319 389
#     4  12  23  37  65  96 132 173 214 261 326 390
#     4  10  23  43  67  95 130 171 216 267 322 384
#     4  10  20  35  58  93 132 163 203 261 320 382
#     4  11  23  44  63  91 133 173 217 269 323 382
#     4  11  23  44  68  93 128 170 215 274 328 376
#
# _framework density 22.057506
#
# number of rings (size 3 to 8) (size 9 to 14) (size 15 to 20)
#    0.000    1.125    6.250    0.750    0.000    2.250 
#    0.000    1.250    0.000    0.750    0.000    0.000 
#    0.000    0.000    0.000    0.000    0.000    0.000 
#
# Total GULP energy -396504.109228 kJ/mol
# GULP energy per Si atom -12390.753413 kJ/mol
# Density = 2.200730 g / cm^3
# Si number density = 22.057506 Si / 1000 Ang^3
#
#
#
# Elastic Constant Matrix: (Units=GPa)
#
#
# Indices 1 2 3 4 5 6 
#
# 1 104.7783 42.0142 23.2603 0.0000 3.7286 0.0000
# 2 42.0142 108.2867 22.1294 0.0000 8.9622 0.0000
# 3 23.2603 22.1294 85.6407 0.0000 3.2788 0.0000
# 4 0.0000 0.0000 0.0000 -3.4505 0.0000 -0.9704
# 5 3.7286 8.9622 3.2788 0.0000 23.4534 0.0000
# 6 0.0000 0.0000 0.0000 -0.9704 0.0000 12.8900
#
#
#
# Elastic Compliance Matrix: (Units=1/GPa)
#
#
# Indices 1 2 3 4 5 6 
#
# 1 0.011652 -0.004090 -0.002108 0.000000 0.000005 0.000000
# 2 -0.004090 0.011462 -0.001717 0.000000 -0.003489 0.000000
# 3 -0.002108 -0.001717 0.012723 0.000000 -0.000787 0.000000
# 4 0.000000 0.000000 0.000000 -0.283802 0.000000 -0.021365
# 5 0.000005 -0.003489 -0.000787 0.000000 0.044080 0.000000
# 6 0.000000 0.000000 0.000000 -0.021365 0.000000 0.075971
#
#
# Mechanical properties :
#
#
# Convention : Reuss Voigt Hill
#
# Bulk Modulus (GPa) = 49.98619 52.61262 51.29940
# Shear Modulus (GPa) = -47.43199 20.66535 -13.38332
#
# Velocity S-wave (km/s) = -4.64225 3.06418 -2.46590
# Velocity P-wave (km/s) = 2.45418 6.03516 3.89873
#
# Compressibility (1/GPa) = 0.02000553
#
# Stress axis : x y z
#
# Youngs Moduli (GPa) = 85.82267 87.24858 78.59750
#
# Poissons Ratio (x) = 0.35689 0.16568
# Poissons Ratio (y) = 0.35106 0.13496
# Poissons Ratio (z) = 0.18091 0.14981
#
# Static dielectric constant tensor:
#      x y z
#    x 3.739930 0.000000 0.097200 
#    y 0.000000 3.979510 0.000000 
#    z 0.097200 0.000000 4.008750 
# 
# 
# High freq. dielectric constant tensor:
#      x y z
#    x 1.858990 0.000000 0.004970 
#    y 0.000000 1.850240 0.000000 
#    z 0.004970 0.000000 1.869380 
# 
# From -- ./inp_files/225655.got.cif
#   From: 2010.06.25/outbox.cif.g09.slc.cpg/sg12_113_cif.got.tgz:225655.got - 2010.06.28 00:19:55.
