data_PCOD8100948
_publ_section_title
;
Structure prediction by ZEFSAII (Michael W. Deem and Ramdas Pophale) SiO2 
 PCOD8100948
Probable space group: C 2/M
;
_chemical_formula_sum "Si O2"
_cell_formula_units_Z 64
_cell_length_a 28.080703
_cell_length_b 8.688630
_cell_length_c 15.479434
_cell_angle_alpha 90.000000
_cell_angle_beta 65.280170
_cell_angle_gamma 90.000000
_cell_volume 3430.631187
_symmetry_space_group_name_H-M "C 2/M"
_symmetry_group_IT_number 12
_symmetry_cell_setting 'monoclinic'
loop_
_space_group_symop_operation_xyz
x,y,z
-x,y,-z
-x,-y,-z
x,-y,z
1/2+x,1/2+y,z
1/2-x,1/2+y,-z
1/2-x,1/2-y,-z
1/2+x,1/2-y,z
loop_
_atom_site_type_symbol
_atom_site_label
_atom_site_fract_x
_atom_site_fract_y
_atom_site_fract_z
Si Si1 0.057340 0.679201 0.483639
Si Si2 0.221022 0.321154 0.143225
Si Si3 0.675481 0.821462 0.993125
Si Si4 0.405363 0.821511 0.355985
Si Si5 0.839906 0.180332 0.653363
Si Si6 0.196881 0.819976 0.506729
Si Si7 0.531731 0.817875 0.858428
Si Si8 0.928087 0.180842 0.001099
O O1 0.066039 0.500000 0.455969
O O2 0.063026 0.713926 0.580715
O O3 0.098792 0.776690 0.396590
O O4 0.000000 0.735367 0.500000
O O5 0.235839 0.500000 0.135282
O O6 0.274644 0.224215 0.102936
O O7 0.187130 0.276091 0.251115
O O8 0.187219 0.283059 0.083904
O O9 0.662698 0.000000 0.987980
O O10 0.626165 0.720119 0.003562
O O11 0.350322 0.733261 0.395999
O O12 0.440415 0.762853 0.250222
O O13 0.392146 0.000000 0.356081
O O14 0.813270 0.233170 0.583874
O O15 0.833431 0.000000 0.675938
O O16 0.250000 0.750000 0.500000
O O17 0.201408 0.000000 0.509053
O O18 0.475668 0.734372 0.903914
O O19 0.522603 0.000000 0.867594
O O20 0.568280 0.768690 0.910496
O O21 0.932096 0.000000 0.014664
#
# Coordination Sequence:
#
# PCOD8100948 Si02
#       8
#     8   8   8   8   8   8   8   8
#     4   9  18  34  55  79 107 139 177 220 263 310
#     4  10  21  37  58  82 107 139 178 219 264 316
#     4  10  21  38  58  80 108 140 176 219 267 318
#     4   9  19  35  55  78 105 138 176 218 264 313
#     4  10  21  36  54  79 110 142 176 216 264 316
#     4  10  21  36  55  78 106 140 177 218 263 312
#     4  10  20  36  56  78 108 144 181 223 270 317
#     4  11  22  36  55  80 109 141 180 222 266 318
#
# _framework density 18.655460000000001
#
# number of rings (size 3 to 8) (size 9 to 14) (size 15 to 20)
#    0.000    2.125    0.000    3.750    0.000    6.250 
#    0.000    3.750    0.000    0.000    0.000    0.000 
#    0.000    0.000    0.000    0.000    0.000    0.000 
#
# Total GULP energy -396938.151666 kJ/mol
# GULP energy per Si atom -12404.317240 kJ/mol
# Density = 1.861300 g / cm^3
# Si number density = 18.655460 Si / 1000 Ang^3
#
#
#
# Elastic Constant Matrix: (Units=GPa)
#
#
# Indices 1 2 3 4 5 6 
#
# 1 134.2381 28.2060 49.9514 0.0000 -10.1708 0.0000
# 2 28.2060 46.0382 26.9258 0.0000 -3.3175 0.0000
# 3 49.9514 26.9258 133.5830 0.0000 -15.4038 0.0000
# 4 0.0000 0.0000 0.0000 27.8517 0.0000 -6.1301
# 5 -10.1708 -3.3175 -15.4038 0.0000 14.5200 0.0000
# 6 0.0000 0.0000 0.0000 -6.1301 0.0000 34.2348
#
#
#
# Elastic Compliance Matrix: (Units=1/GPa)
#
#
# Indices 1 2 3 4 5 6 
#
# 1 0.009434 -0.004197 -0.002313 0.000000 0.003195 0.000000
# 2 -0.004197 0.026493 -0.003887 0.000000 -0.001010 0.000000
# 3 -0.002313 -0.003887 0.010078 0.000000 0.008183 0.000000
# 4 0.000000 0.000000 0.000000 0.037378 0.000000 0.006693
# 5 0.003195 -0.001010 0.008183 0.000000 0.079559 0.000000
# 6 0.000000 0.000000 0.000000 0.006693 0.000000 0.030408
#
#
# Mechanical properties :
#
#
# Convention : Reuss Voigt Hill
#
# Bulk Modulus (GPa) = 39.66598 58.22507 48.94553
# Shear Modulus (GPa) = 22.46700 29.23972 25.85336
#
# Velocity S-wave (km/s) = 3.47409 3.96328 3.72672
# Velocity P-wave (km/s) = 6.11563 7.22647 6.69413
#
# Compressibility (1/GPa) = 0.02521052
#
# Stress axis : x y z
#
# Youngs Moduli (GPa) = 105.99726 37.74581 99.22415
#
# Poissons Ratio (x) = 0.15841 0.22955
# Poissons Ratio (y) = 0.44484 0.38571
# Poissons Ratio (z) = 0.24522 0.14673
#
# Static dielectric constant tensor:
#      x y z
#    x 3.482570 0.000000 -0.033530 
#    y 0.000000 3.461400 0.000000 
#    z -0.033530 0.000000 3.490510 
# 
# 
# High freq. dielectric constant tensor:
#      x y z
#    x 1.726530 0.000000 -0.005190 
#    y 0.000000 1.732370 0.000000 
#    z -0.005190 0.000000 1.725550 
# 
# From -- ./inp_files/243734.got.cif
#   From: 2010.06.25/outbox.cif.g09.slc.cpg/sg12_122_cif.got.tgz:243734.got - 2010.06.28 00:19:55.
