data_PCOD8100363
_publ_section_title
;
Structure prediction by ZEFSAII (Michael W. Deem and Ramdas Pophale) SiO2 
 PCOD8100363
Probable space group: C 2/M
;
_chemical_formula_sum "Si O2"
_cell_formula_units_Z 52
_cell_length_a 17.279361
_cell_length_b 14.348104
_cell_length_c 21.486312
_cell_angle_alpha 90.000000
_cell_angle_beta 149.576534
_cell_angle_gamma 90.000000
_cell_volume 2697.531939
_symmetry_space_group_name_H-M "C 2/M"
_symmetry_group_IT_number 12
_symmetry_cell_setting 'monoclinic'
loop_
_space_group_symop_operation_xyz
x,y,z
-x,y,-z
-x,-y,-z
x,-y,z
1/2+x,1/2+y,z
1/2-x,1/2+y,-z
1/2-x,1/2-y,-z
1/2+x,1/2-y,z
loop_
_atom_site_type_symbol
_atom_site_label
_atom_site_fract_x
_atom_site_fract_y
_atom_site_fract_z
Si Si1 0.760727 0.391272 0.395031
Si Si2 0.500000 0.671031 0.000000
Si Si3 0.155481 0.245260 0.227319
Si Si4 0.828684 0.106141 0.526731
Si Si5 0.034029 0.735526 0.613925
Si Si6 0.686731 0.896390 0.818213
Si Si7 0.546113 0.894787 0.244267
O O1 0.789158 0.500000 0.401252
O O2 0.647979 0.349295 0.263927
O O3 0.685468 0.373905 0.409923
O O4 0.919272 0.335276 0.500502
O O5 0.571894 0.734682 0.103628
O O6 0.629539 0.608114 0.056913
O O7 0.334896 0.270564 0.342686
O O8 0.069798 0.328795 0.202190
O O9 0.666015 0.128048 0.382491
O O10 0.954828 0.172683 0.585366
O O11 0.879830 0.000000 0.550025
O O12 0.116678 0.680702 0.725819
O O13 0.623113 0.879353 0.844060
O O14 0.634200 0.000000 0.760175
O O15 0.566798 0.000000 0.234394
#
# Coordination Sequence:
#
# PCOD8100363 Si02
#       7
#     8   4   8   8   8   8   8
#     4  11  21  34  55  86 117 147 185 230 285 343
#     4  10  25  42  57  78 114 152 197 240 281 328
#     4  11  24  38  56  83 114 153 193 234 282 330
#     4  10  20  35  58  88 121 152 182 225 284 347
#     4  11  20  34  56  86 121 150 182 231 282 341
#     4  10  20  37  62  85 111 150 190 232 284 339
#     4  10  20  37  61  86 113 149 190 230 283 345
#
# _framework density 19.276880999999999
#
# number of rings (size 3 to 8) (size 9 to 14) (size 15 to 20)
#    0.000    1.538    3.077    2.538    0.000    5.538 
#    0.000    1.923    0.000    4.615    0.000    0.000 
#    0.000    0.000    0.000    0.000    0.000    0.000 
#
# Total GULP energy -322375.393402 kJ/mol
# GULP energy per Si atom -12399.053592 kJ/mol
# Density = 1.923301 g / cm^3
# Si number density = 19.276881 Si / 1000 Ang^3
#
#
#
# Elastic Constant Matrix: (Units=GPa)
#
#
# Indices 1 2 3 4 5 6 
#
# 1 139.5901 76.2400 48.2094 0.0000 10.4997 0.0004
# 2 76.2400 110.4910 48.4569 0.0034 9.3683 -0.0024
# 3 48.2094 48.4569 78.3940 0.0236 -6.2456 -0.0111
# 4 0.0000 0.0034 0.0236 17.7434 0.0058 5.4042
# 5 10.4997 9.3683 -6.2456 0.0058 33.3505 -0.0040
# 6 0.0004 -0.0024 -0.0111 5.4042 -0.0040 18.1430
#
#
#
# Elastic Compliance Matrix: (Units=1/GPa)
#
#
# Indices 1 2 3 4 5 6 
#
# 1 0.012241 -0.006618 -0.003650 0.000009 -0.002678 -0.000007
# 2 -0.006618 0.016874 -0.006671 0.000009 -0.003906 -0.000005
# 3 -0.003650 -0.006671 0.019659 -0.000034 0.006705 0.000023
# 4 0.000009 0.000009 -0.000034 0.061982 -0.000025 -0.018463
# 5 -0.002678 -0.003906 0.006705 -0.000025 0.033180 0.000018
# 6 -0.000007 -0.000005 0.000023 -0.018463 0.000018 0.060617
#
#
# Mechanical properties :
#
#
# Convention : Reuss Voigt Hill
#
# Bulk Modulus (GPa) = 67.14139 74.92085 71.03112
# Shear Modulus (GPa) = 20.54254 24.21863 22.38059
#
# Velocity S-wave (km/s) = 3.26798 3.54836 3.41105
# Velocity P-wave (km/s) = 7.01037 7.46578 7.24165
#
# Compressibility (1/GPa) = 0.01489394
#
# Stress axis : x y z
#
# Youngs Moduli (GPa) = 81.69551 59.26195 50.86846
#
# Poissons Ratio (x) = 0.39222 0.18567
# Poissons Ratio (y) = 0.54069 0.33937
# Poissons Ratio (z) = 0.29818 0.39536
#
# Static dielectric constant tensor:
#      x y z
#    x 3.773360 0.000000 0.199340 
#    y 0.000000 3.529060 -0.000010 
#    z 0.199340 -0.000010 3.445830 
# 
# 
# High freq. dielectric constant tensor:
#      x y z
#    x 1.765580 0.000000 0.003600 
#    y 0.000000 1.749670 0.000000 
#    z 0.003600 0.000000 1.724330 
# 
# From -- ./inp_files/316539.got.cif
#   From: 2010.06.25/outbox.cif.g09.slc.cpg/sg12_159_cif.got.tgz:316539.got - 2010.06.28 00:19:55.
