data_PCOD8100756
_publ_section_title
;
Structure prediction by ZEFSAII (Michael W. Deem and Ramdas Pophale) SiO2 
 PCOD8100756
Probable space group: C 2/M
;
_chemical_formula_sum "Si O2"
_cell_formula_units_Z 40
_cell_length_a 14.455689
_cell_length_b 27.258910
_cell_length_c 8.773457
_cell_angle_alpha 90.000000
_cell_angle_beta 34.529919
_cell_angle_gamma 90.000000
_cell_volume 1959.637972
_symmetry_space_group_name_H-M "C 2/M"
_symmetry_group_IT_number 12
_symmetry_cell_setting 'monoclinic'
loop_
_space_group_symop_operation_xyz
x,y,z
-x,y,-z
-x,-y,-z
x,-y,z
1/2+x,1/2+y,z
1/2-x,1/2+y,-z
1/2-x,1/2-y,-z
1/2+x,1/2-y,z
loop_
_atom_site_type_symbol
_atom_site_label
_atom_site_fract_x
_atom_site_fract_y
_atom_site_fract_z
Si Si1 0.353069 0.793904 0.293862
Si Si2 0.578815 0.869540 0.545462
Si Si3 0.600667 0.416316 1.000000
Si Si4 0.694317 0.055191 0.999999
Si Si5 0.124276 0.869540 0.454540
O O1 0.250000 0.750000 0.500000
O O2 0.432909 0.827316 0.315091
O O3 0.252000 0.827316 0.315091
O O4 0.500000 0.769626 0.000000
O O5 0.500000 0.847362 0.500000
O O6 0.475826 0.917640 0.735142
O O7 0.766754 0.882643 0.264288
O O8 0.468959 0.382643 0.264286
O O9 0.500000 0.444446 0.000000
O O10 0.693105 0.449426 1.000000
O O11 0.654686 0.000000 0.999999
O O12 0.789033 0.082360 0.735140
O O13 0.000000 0.847362 0.500000
#
# Coordination Sequence:
#
# PCOD8100756 Si02
#       5
#     8   8   8   8   8
#     4  12  26  44  68  98 125 164 218 269 327 393
#     4  10  22  42  66  93 134 171 207 266 321 382
#     4  10  20  35  65  92 130 171 209 267 311 363
#     4  10  22  42  64  91 132 182 219 252 311 388
#     4  10  22  42  66  93 134 171 207 266 321 382
#
# _framework density 20.411933999999999
#
# number of rings (size 3 to 8) (size 9 to 14) (size 15 to 20)
#    0.000    1.600    4.000    0.000    2.800    8.400 
#    0.000    4.000    0.000    0.000    0.000    0.000 
#    0.000    0.000    0.000    0.000    0.000    0.000 
#
# Total GULP energy -247921.643868 kJ/mol
# GULP energy per Si atom -12396.082193 kJ/mol
# Density = 2.036548 g / cm^3
# Si number density = 20.411934 Si / 1000 Ang^3
#
#
#
# Elastic Constant Matrix: (Units=GPa)
#
#
# Indices 1 2 3 4 5 6 
#
# 1 132.2897 60.9668 46.2139 0.0000 -2.9798 0.0000
# 2 60.9668 127.2806 58.8587 0.0000 -0.0644 0.0000
# 3 46.2139 58.8587 174.3848 0.0000 4.2609 0.0000
# 4 0.0000 0.0000 0.0000 28.8780 0.0000 0.3464
# 5 -2.9798 -0.0644 4.2609 0.0000 -5.5936 0.0000
# 6 0.0000 0.0000 0.0000 0.3464 0.0000 17.5155
#
#
#
# Elastic Compliance Matrix: (Units=1/GPa)
#
#
# Indices 1 2 3 4 5 6 
#
# 1 0.009710 -0.004184 -0.001017 0.000000 -0.005899 0.000000
# 2 -0.004184 0.011078 -0.002633 0.000000 0.000096 0.000000
# 3 -0.001017 -0.002633 0.006753 0.000000 0.005716 0.000000
# 4 0.000000 0.000000 0.000000 0.034637 0.000000 -0.000685
# 5 -0.005899 0.000096 0.005716 0.000000 -0.171280 0.000000
# 6 0.000000 0.000000 0.000000 -0.000685 0.000000 0.057106
#
#
# Mechanical properties :
#
#
# Convention : Reuss Voigt Hill
#
# Bulk Modulus (GPa) = 84.21743 85.11487 84.66615
# Shear Modulus (GPa) = -154.45130 26.02102 -64.21514
#
# Velocity S-wave (km/s) = -8.70812 3.57430 -5.61497
# Velocity P-wave (km/s) = 7.73046 7.66963 0.68440
#
# Compressibility (1/GPa) = 0.01187403
#
# Stress axis : x y z
#
# Youngs Moduli (GPa) = 102.99101 90.26846 148.08459
#
# Poissons Ratio (x) = 0.37764 0.15060
# Poissons Ratio (y) = 0.43087 0.38987
# Poissons Ratio (z) = 0.10474 0.23765
#
# Static dielectric constant tensor:
#      x y z
#    x 3.962080 0.000000 -0.000580 
#    y 0.000000 3.239040 0.000000 
#    z -0.000580 0.000000 3.942980 
# 
# 
# High freq. dielectric constant tensor:
#      x y z
#    x 1.813420 0.000000 0.000310 
#    y 0.000000 1.757440 0.000000 
#    z 0.000310 0.000000 1.823630 
# 
# From -- ./inp_files/41879.got.cif
#   From: 2010.06.25/outbox.cif.g09.slc.cpg/sg12_21_cif.got.tgz:41879.got - 2010.06.28 00:19:55.
