data_PCOD8100125
_publ_section_title
;
Structure prediction by ZEFSAII (Michael W. Deem and Ramdas Pophale) SiO2 
 PCOD8100125
Probable space group: C 2/M
;
_chemical_formula_sum "Si O2"
_cell_formula_units_Z 56
_cell_length_a 16.439178
_cell_length_b 17.176104
_cell_length_c 13.271806
_cell_angle_alpha 90.000000
_cell_angle_beta 135.429887
_cell_angle_gamma 90.000000
_cell_volume 2629.884815
_symmetry_space_group_name_H-M "C 2/M"
_symmetry_group_IT_number 12
_symmetry_cell_setting 'monoclinic'
loop_
_space_group_symop_operation_xyz
x,y,z
-x,y,-z
-x,-y,-z
x,-y,z
1/2+x,1/2+y,z
1/2-x,1/2+y,-z
1/2-x,1/2-y,-z
1/2+x,1/2-y,z
loop_
_atom_site_type_symbol
_atom_site_label
_atom_site_fract_x
_atom_site_fract_y
_atom_site_fract_z
Si Si1 0.026324 0.186029 0.638124
Si Si2 0.634348 0.842147 0.807974
Si Si3 0.171432 0.090804 0.891989
Si Si4 0.268505 0.828114 0.320252
Si Si5 0.102713 0.411478 0.399191
Si Si6 0.961719 0.089887 0.856570
Si Si7 0.273102 0.685398 0.438013
O O1 0.072510 0.258239 0.746449
O O2 0.123826 0.118313 0.739748
O O3 0.000000 0.210711 0.500000
O O4 0.903196 0.152765 0.569607
O O5 0.709948 0.857534 0.773953
O O6 0.534702 0.905818 0.740026
O O7 0.721468 0.854706 0.978866
O O8 0.064419 0.108449 0.871055
O O9 0.207041 0.000000 0.921682
O O10 0.374023 0.859382 0.481520
O O11 0.153375 0.862120 0.270658
O O12 0.264181 0.732833 0.322852
O O13 0.137879 0.500000 0.450314
O O14 0.177125 0.382121 0.367151
O O15 0.927023 0.000000 0.825081
O O16 0.000000 0.117875 0.000000
O O17 0.250000 0.750000 0.500000
#
# Coordination Sequence:
#
# PCOD8100125 Si02
#       7
#     8   8   8   8   8   8   8
#     4  12  23  43  67  92 125 166 222 270 309 373
#     4  12  22  40  63  93 128 163 205 270 325 384
#     4  11  25  41  62  94 131 170 211 261 326 387
#     4  11  20  36  61  88 125 165 210 263 317 381
#     4  11  23  36  59  93 129 171 208 255 327 387
#     4  10  20  35  57  89 128 165 202 254 318 386
#     4  10  20  38  62  85 125 161 213 268 305 376
#
# _framework density 21.293707999999999
#
# number of rings (size 3 to 8) (size 9 to 14) (size 15 to 20)
#    0.000    1.000    5.714    3.429    0.000    4.286 
#    0.000    0.000    0.000    0.000    0.000    2.000 
#    0.000    0.000    0.000    0.000    0.000    0.000 
#
# Total GULP energy -347026.323186 kJ/mol
# GULP energy per Si atom -12393.797257 kJ/mol
# Density = 2.124524 g / cm^3
# Si number density = 21.293708 Si / 1000 Ang^3
#
#
#
# Elastic Constant Matrix: (Units=GPa)
#
#
# Indices 1 2 3 4 5 6 
#
# 1 59.1227 26.1688 23.6562 0.0000 16.3132 0.0000
# 2 26.1688 77.6664 29.5568 0.0000 -0.5250 0.0000
# 3 23.6562 29.5568 115.2471 0.0000 9.6773 0.0000
# 4 0.0000 0.0000 0.0000 31.6893 0.0000 3.6263
# 5 16.3132 -0.5250 9.6773 0.0000 25.1055 0.0000
# 6 0.0000 0.0000 0.0000 3.6263 0.0000 24.0521
#
#
#
# Elastic Compliance Matrix: (Units=1/GPa)
#
#
# Indices 1 2 3 4 5 6 
#
# 1 0.025672 -0.008055 -0.001849 0.000000 -0.016137 0.000000
# 2 -0.008055 0.016872 -0.003248 0.000000 0.006839 0.000000
# 3 -0.001849 -0.003248 0.010122 0.000000 -0.002768 0.000000
# 4 0.000000 0.000000 0.000000 0.032110 0.000000 -0.004841
# 5 -0.016137 0.006839 -0.002768 0.000000 0.051528 0.000000
# 6 0.000000 0.000000 0.000000 -0.004841 0.000000 0.042306
#
#
# Mechanical properties :
#
#
# Convention : Reuss Voigt Hill
#
# Bulk Modulus (GPa) = 37.93347 45.64443 41.78895
# Shear Modulus (GPa) = 23.39725 27.67968 25.53847
#
# Velocity S-wave (km/s) = 3.31839 3.60932 3.46691
# Velocity P-wave (km/s) = 5.70398 6.23312 5.97441
#
# Compressibility (1/GPa) = 0.02636194
#
# Stress axis : x y z
#
# Youngs Moduli (GPa) = 38.95360 59.26989 98.79600
#
# Poissons Ratio (x) = 0.47744 0.18263
# Poissons Ratio (y) = 0.31378 0.32088
# Poissons Ratio (z) = 0.07201 0.19250
#
# Static dielectric constant tensor:
#      x y z
#    x 4.180180 0.000000 0.135680 
#    y 0.000000 3.915530 0.000000 
#    z 0.135680 0.000000 4.001720 
# 
# 
# High freq. dielectric constant tensor:
#      x y z
#    x 1.830070 0.000000 0.023460 
#    y 0.000000 1.819590 0.000000 
#    z 0.023460 0.000000 1.832440 
# 
# From -- ./inp_files/226598.got.cif
#   From: 2010.06.25/outbox.cif.g09.slc.cpg/sg12_114_cif.got.tgz:226598.got - 2010.06.28 00:19:55.
