data_PCOD8100637
_publ_section_title
;
Structure prediction by ZEFSAII (Michael W. Deem and Ramdas Pophale) SiO2 
 PCOD8100637
Probable space group: C 2/M
;
_chemical_formula_sum "Si O2"
_cell_formula_units_Z 48
_cell_length_a 14.809347
_cell_length_b 21.564444
_cell_length_c 11.449694
_cell_angle_alpha 90.000000
_cell_angle_beta 139.010892
_cell_angle_gamma 90.000000
_cell_volume 2398.368871
_symmetry_space_group_name_H-M "C 2/M"
_symmetry_group_IT_number 12
_symmetry_cell_setting 'monoclinic'
loop_
_space_group_symop_operation_xyz
x,y,z
-x,y,-z
-x,-y,-z
x,-y,z
1/2+x,1/2+y,z
1/2-x,1/2+y,-z
1/2-x,1/2-y,-z
1/2+x,1/2-y,z
loop_
_atom_site_type_symbol
_atom_site_label
_atom_site_fract_x
_atom_site_fract_y
_atom_site_fract_z
Si Si1 0.679628 0.393730 0.293658
Si Si2 0.107208 0.067538 0.975370
Si Si3 0.838515 0.289591 0.328560
Si Si4 0.626469 0.071176 0.318901
Si Si5 0.153410 0.673940 0.147729
Si Si6 0.345633 0.869754 0.107231
O O1 0.516665 0.382190 0.163276
O O2 0.769124 0.332165 0.360091
O O3 0.747434 0.429949 0.467675
O O4 0.676639 0.432848 0.171515
O O5 0.042342 0.000000 0.888854
O O6 0.230141 0.077769 0.005714
O O7 0.768055 0.224263 0.289623
O O8 0.816093 0.317518 0.177279
O O9 0.000000 0.281639 0.500000
O O10 0.661065 0.113909 0.240203
O O11 0.495506 0.098898 0.260800
O O12 0.599294 0.000000 0.251286
O O13 0.185613 0.657527 0.047779
O O14 0.000000 0.703178 0.000000
#
# Coordination Sequence:
#
# PCOD8100637 Si02
#       6
#     8   8   8   8   8   8
#     4  10  21  37  59  92 122 161 200 251 313 358
#     4  10  20  35  60  90 124 159 200 252 310 366
#     4  11  22  41  62  89 123 153 210 257 307 360
#     4  11  22  41  64  91 127 161 205 251 300 365
#     4  10  25  41  61  90 121 169 202 246 303 361
#     4  10  22  40  60  92 119 163 206 249 305 353
#
# _framework density 20.013603
#
# number of rings (size 3 to 8) (size 9 to 14) (size 15 to 20)
#    0.000    1.667    1.667    3.000    4.667    5.667 
#    0.000    2.500    0.000    2.500    0.000    0.000 
#    0.000    0.000    0.000    0.000    0.000    0.000 
#
# Total GULP energy -297381.051048 kJ/mol
# GULP energy per Si atom -12390.877127 kJ/mol
# Density = 1.996805 g / cm^3
# Si number density = 20.013603 Si / 1000 Ang^3
#
#
#
# Elastic Constant Matrix: (Units=GPa)
#
#
# Indices 1 2 3 4 5 6 
#
# 1 107.5079 47.3179 38.4861 0.0000 7.1788 0.0000
# 2 47.3179 121.6107 40.7836 0.0000 11.2529 0.0000
# 3 38.4861 40.7836 92.6378 0.0000 20.5015 0.0000
# 4 0.0000 0.0000 0.0000 27.2124 0.0000 3.6528
# 5 7.1788 11.2529 20.5015 0.0000 26.8883 0.0000
# 6 0.0000 0.0000 0.0000 3.6528 0.0000 32.1968
#
#
#
# Elastic Compliance Matrix: (Units=1/GPa)
#
#
# Indices 1 2 3 4 5 6 
#
# 1 0.012130 -0.003578 -0.003704 0.000000 0.001083 0.000000
# 2 -0.003578 0.010723 -0.002951 0.000000 -0.001283 0.000000
# 3 -0.003704 -0.002951 0.015808 0.000000 -0.009829 0.000000
# 4 0.000000 0.000000 0.000000 0.037316 0.000000 -0.004234
# 5 0.001083 -0.001283 -0.009829 0.000000 0.044933 0.000000
# 6 0.000000 0.000000 0.000000 -0.004234 0.000000 0.031539
#
#
# Mechanical properties :
#
#
# Convention : Reuss Voigt Hill
#
# Bulk Modulus (GPa) = 54.95585 63.88130 59.41858
# Shear Modulus (GPa) = 27.93613 30.27077 29.10345
#
# Velocity S-wave (km/s) = 3.74017 3.89332 3.81751
# Velocity P-wave (km/s) = 6.79490 7.22487 7.01318
#
# Compressibility (1/GPa) = 0.01819642
#
# Stress axis : x y z
#
# Youngs Moduli (GPa) = 82.44058 93.25522 63.25985
#
# Poissons Ratio (x) = 0.33364 0.23431
# Poissons Ratio (y) = 0.29495 0.18666
# Poissons Ratio (z) = 0.30535 0.27516
#
# Static dielectric constant tensor:
#      x y z
#    x 3.912350 0.000000 0.241130 
#    y 0.000000 3.609590 0.000000 
#    z 0.241130 0.000000 3.596850 
# 
# 
# High freq. dielectric constant tensor:
#      x y z
#    x 1.789270 0.000000 0.012000 
#    y 0.000000 1.769330 0.000000 
#    z 0.012000 0.000000 1.780450 
# 
# From -- ./inp_files/148024.got.cif
#   From: 2010.06.25/outbox.cif.g09.slc.cpg/sg12_75_cif.got.tgz:148024.got - 2010.06.28 00:19:55.
