data_PCOD8100353
_publ_section_title
;
Structure prediction by ZEFSAII (Michael W. Deem and Ramdas Pophale) SiO2 
 PCOD8100353
Probable space group: C 2/M
;
_chemical_formula_sum "Si O2"
_cell_formula_units_Z 48
_cell_length_a 15.063293
_cell_length_b 8.540140
_cell_length_c 19.066089
_cell_angle_alpha 90.000000
_cell_angle_beta 90.107580
_cell_angle_gamma 90.000000
_cell_volume 2452.707530
_symmetry_space_group_name_H-M "C 2/M"
_symmetry_group_IT_number 12
_symmetry_cell_setting 'monoclinic'
loop_
_space_group_symop_operation_xyz
x,y,z
-x,y,-z
-x,-y,-z
x,-y,z
1/2+x,1/2+y,z
1/2-x,1/2+y,-z
1/2-x,1/2-y,-z
1/2+x,1/2-y,z
loop_
_atom_site_type_symbol
_atom_site_label
_atom_site_fract_x
_atom_site_fract_y
_atom_site_fract_z
Si Si1 0.525246 0.682991 0.579394
Si Si2 0.376981 0.815166 0.825618
Si Si3 0.025158 0.184490 0.922776
Si Si4 0.283523 0.815817 0.426755
Si Si5 0.631207 0.184038 0.333333
Si Si6 0.275192 0.684555 0.074751
O O1 0.500000 0.725066 0.500000
O O2 0.512451 0.500000 0.594635
O O3 0.625746 0.732005 0.595483
O O4 0.461957 0.781570 0.629712
O O5 0.466425 0.761477 0.862935
O O6 0.375338 0.754081 0.746193
O O7 0.291553 0.746763 0.866812
O O8 0.374134 0.000000 0.825983
O O9 0.125412 0.234814 0.905043
O O10 0.010467 0.000000 0.920354
O O11 0.000000 0.248710 0.000000
O O12 0.250000 0.750000 0.500000
O O13 0.210306 0.781116 0.368296
O O14 0.299339 0.000000 0.433834
O O15 0.652206 0.000000 0.338178
O O16 0.267227 0.500000 0.070038
O O17 0.250000 0.750000 0.000000
#
# Coordination Sequence:
#
# PCOD8100353 Si02
#       6
#     8   8   8   8   8   8
#     4  11  23  40  65  94 122 159 208 255 309 368
#     4  10  23  40  59  87 122 158 197 246 304 358
#     4  10  20  35  58  88 118 154 202 248 295 355
#     4  12  24  40  65  95 125 162 206 253 305 365
#     4  11  24  42  62  90 128 164 205 256 309 368
#     4  10  20  36  58  85 117 154 198 245 295 351
#
# _framework density 19.570209999999999
#
# number of rings (size 3 to 8) (size 9 to 14) (size 15 to 20)
#    0.000    1.333    3.333    2.500    0.000    4.333 
#    0.000    1.667    0.000    0.000    0.000    0.000 
#    0.000    0.000    0.000    0.000    0.000    0.000 
#
# Total GULP energy -297707.761734 kJ/mol
# GULP energy per Si atom -12404.490072 kJ/mol
# Density = 1.952567 g / cm^3
# Si number density = 19.570210 Si / 1000 Ang^3
#
#
#
# Elastic Constant Matrix: (Units=GPa)
#
#
# Indices 1 2 3 4 5 6 
#
# 1 146.5731 9.1953 69.5861 0.0000 -3.5008 0.0000
# 2 9.1953 34.8474 26.1082 0.0000 -2.1219 0.0000
# 3 69.5861 26.1082 157.2082 0.0000 3.5067 0.0000
# 4 0.0000 0.0000 0.0000 28.9164 0.0000 4.6830
# 5 -3.5008 -2.1219 3.5067 0.0000 35.0126 0.0000
# 6 0.0000 0.0000 0.0000 4.6830 0.0000 33.0782
#
#
#
# Elastic Compliance Matrix: (Units=1/GPa)
#
#
# Indices 1 2 3 4 5 6 
#
# 1 0.008711 0.000791 -0.004017 0.000000 0.001321 0.000000
# 2 0.000791 0.033073 -0.005902 0.000000 0.002675 0.000000
# 3 -0.004017 -0.005902 0.009157 0.000000 -0.001676 0.000000
# 4 0.000000 0.000000 0.000000 0.035394 0.000000 -0.005011
# 5 0.001321 0.002675 -0.001676 0.000000 0.029023 0.000000
# 6 0.000000 0.000000 0.000000 -0.005011 0.000000 0.030941
#
#
# Mechanical properties :
#
#
# Convention : Reuss Voigt Hill
#
# Bulk Modulus (GPa) = 30.59530 60.93421 45.76476
# Shear Modulus (GPa) = 28.49814 34.98404 31.74109
#
# Velocity S-wave (km/s) = 3.82016 4.23261 4.03166
# Velocity P-wave (km/s) = 5.92669 7.42229 6.71625
#
# Compressibility (1/GPa) = 0.03268476
#
# Stress axis : x y z
#
# Youngs Moduli (GPa) = 114.79084 30.23635 109.21021
#
# Poissons Ratio (x) = -0.02392 0.43869
# Poissons Ratio (y) = -0.09083 0.64460
# Poissons Ratio (z) = 0.46110 0.17847
#
# Static dielectric constant tensor:
#      x y z
#    x 3.899530 0.000000 -0.177600 
#    y 0.000000 3.554950 0.000000 
#    z -0.177600 0.000000 4.029200 
# 
# 
# High freq. dielectric constant tensor:
#      x y z
#    x 1.780770 0.000000 -0.001900 
#    y 0.000000 1.759520 0.000000 
#    z -0.001900 0.000000 1.762620 
# 
# From -- ./inp_files/267601.got.cif
#   From: 2010.06.25/outbox.cif.g09.slc.cpg/sg12_134_cif.got.tgz:267601.got - 2010.06.28 00:19:55.
