data_PCOD8100074
_publ_section_title
;
Structure prediction by ZEFSAII (Michael W. Deem and Ramdas Pophale) SiO2 
 PCOD8100074
Probable space group: C 2/M
;
_chemical_formula_sum "Si O2"
_cell_formula_units_Z 64
_cell_length_a 15.402056
_cell_length_b 8.976214
_cell_length_c 33.062006
_cell_angle_alpha 90.000000
_cell_angle_beta 46.212283
_cell_angle_gamma 90.000000
_cell_volume 3299.767246
_symmetry_space_group_name_H-M "C 2/M"
_symmetry_group_IT_number 12
_symmetry_cell_setting 'monoclinic'
loop_
_space_group_symop_operation_xyz
x,y,z
-x,y,-z
-x,-y,-z
x,-y,z
1/2+x,1/2+y,z
1/2-x,1/2+y,-z
1/2-x,1/2-y,-z
1/2+x,1/2-y,z
loop_
_atom_site_type_symbol
_atom_site_label
_atom_site_fract_x
_atom_site_fract_y
_atom_site_fract_z
Si Si1 0.284262 0.330490 0.823068
Si Si2 0.539001 0.831475 0.942791
Si Si3 0.581660 0.675940 0.363967
Si Si4 0.636019 0.325576 0.056413
Si Si5 0.263165 0.323703 0.244228
Si Si6 0.470166 0.675804 0.827321
Si Si7 0.380664 0.825998 0.563223
Si Si8 0.807647 0.825555 0.442932
O O1 0.293498 0.500000 0.803488
O O2 0.182050 0.321002 0.890586
O O3 0.260238 0.218066 0.794608
O O4 0.408449 0.281327 0.804729
O O5 0.481572 0.713194 0.931198
O O6 0.493456 0.000000 0.948555
O O7 0.500000 0.783687 0.000000
O O8 0.596615 0.500000 0.358929
O O9 0.665573 0.746137 0.303341
O O10 0.620187 0.734223 0.395349
O O11 0.446342 0.723496 0.395455
O O12 0.659244 0.500000 0.049178
O O13 0.610482 0.262097 0.109633
O O14 0.750000 0.250000 0.000000
O O15 0.253177 0.500000 0.252599
O O16 0.394153 0.261338 0.215154
O O17 0.477151 0.500000 0.830669
O O18 0.500000 0.784522 0.500000
O O19 0.263695 0.778587 0.574751
O O20 0.377876 0.000000 0.575042
O O21 0.750000 0.750000 0.500000
O O22 0.794074 0.000000 0.454129
#
# Coordination Sequence:
#
# PCOD8100074 Si02
#       8
#     8   8   8   8   8   8   8   8
#     4  10  20  38  63  86 114 154 199 245 298 357
#     4  10  20  35  57  86 120 155 194 242 303 367
#     4  11  24  40  60  90 124 159 200 246 296 352
#     4  11  21  36  57  85 120 154 198 247 302 364
#     4  11  23  42  63  85 118 159 204 250 296 348
#     4   9  20  39  62  84 114 157 197 242 299 359
#     4  10  20  37  62  90 121 159 200 243 293 350
#     4  10  21  37  60  89 123 159 197 241 295 354
#
# _framework density 19.395306999999999
#
# number of rings (size 3 to 8) (size 9 to 14) (size 15 to 20)
#    0.000    1.750    2.500    1.875    0.000    4.500 
#    0.000    8.750    0.000    0.000    0.000    0.000 
#    0.000    0.000    0.000    0.000    0.000    0.000 
#
# Total GULP energy -396829.097517 kJ/mol
# GULP energy per Si atom -12400.909297 kJ/mol
# Density = 1.935116 g / cm^3
# Si number density = 19.395307 Si / 1000 Ang^3
#
#
#
# Elastic Constant Matrix: (Units=GPa)
#
#
# Indices 1 2 3 4 5 6 
#
# 1 152.9621 33.2653 63.1608 0.0000 -8.5867 -0.0003
# 2 33.2653 46.8138 38.2432 0.0007 -3.5078 -0.0002
# 3 63.1608 38.2432 128.6357 0.0002 -8.2124 0.0002
# 4 0.0000 0.0007 0.0002 32.5666 0.0000 5.2577
# 5 -8.5867 -3.5078 -8.2124 0.0000 30.4400 0.0002
# 6 -0.0003 -0.0002 0.0002 5.2577 0.0002 29.0259
#
#
#
# Elastic Compliance Matrix: (Units=1/GPa)
#
#
# Indices 1 2 3 4 5 6 
#
# 1 0.008661 -0.003504 -0.003135 0.000000 0.001194 0.000000
# 2 -0.003504 0.029661 -0.007064 -0.000001 0.000524 0.000000
# 3 -0.003135 -0.007064 0.011503 0.000000 0.001405 0.000000
# 4 0.000000 -0.000001 0.000000 0.031631 0.000000 -0.005730
# 5 0.001194 0.000524 0.001405 0.000000 0.033628 0.000000
# 6 0.000000 0.000000 0.000000 -0.005730 0.000000 0.035490
#
#
# Mechanical properties :
#
#
# Convention : Reuss Voigt Hill
#
# Bulk Modulus (GPa) = 44.60471 66.41669 55.51070
# Shear Modulus (GPa) = 26.96096 31.32266 29.14181
#
# Velocity S-wave (km/s) = 3.73242 4.02302 3.88044
# Velocity P-wave (km/s) = 6.45153 7.47647 6.98283
#
# Compressibility (1/GPa) = 0.02241916
#
# Stress axis : x y z
#
# Youngs Moduli (GPa) = 115.46044 33.71382 86.93475
#
# Poissons Ratio (x) = 0.11814 0.27250
# Poissons Ratio (y) = 0.40460 0.61413
# Poissons Ratio (z) = 0.36192 0.23816
#
# Static dielectric constant tensor:
#      x y z
#    x 3.905840 0.000000 -0.266590 
#    y 0.000000 3.513310 0.000000 
#    z -0.266590 0.000000 3.684530 
# 
# 
# High freq. dielectric constant tensor:
#      x y z
#    x 1.768270 0.000000 -0.003900 
#    y 0.000000 1.740110 0.000000 
#    z -0.003900 0.000000 1.758440 
# 
# From -- ./inp_files/375431.got.cif
#   From: 2010.06.25/outbox.cif.g09.slc.cpg/sg12_188_cif.got.tgz:375431.got - 2010.06.28 00:19:55.
