data_PCOD8100862
_publ_section_title
;
Structure prediction by ZEFSAII (Michael W. Deem and Ramdas Pophale) SiO2 
 PCOD8100862
Probable space group: C 2/M
;
_chemical_formula_sum "Si O2"
_cell_formula_units_Z 64
_cell_length_a 32.557206
_cell_length_b 17.637018
_cell_length_c 5.255498
_cell_angle_alpha 90.000000
_cell_angle_beta 99.041963
_cell_angle_gamma 90.000000
_cell_volume 2980.269858
_symmetry_space_group_name_H-M "C 2/M"
_symmetry_group_IT_number 12
_symmetry_cell_setting 'monoclinic'
loop_
_space_group_symop_operation_xyz
x,y,z
-x,y,-z
-x,-y,-z
x,-y,z
1/2+x,1/2+y,z
1/2-x,1/2+y,-z
1/2-x,1/2-y,-z
1/2+x,1/2-y,z
loop_
_atom_site_type_symbol
_atom_site_label
_atom_site_fract_x
_atom_site_fract_y
_atom_site_fract_z
Si Si1 0.355347 0.915653 0.524100
Si Si2 0.049094 0.229543 0.047995
Si Si3 0.218859 0.157671 0.403492
Si Si4 0.727529 0.919968 0.877393
Si Si5 0.699991 0.811345 0.253255
Si Si6 0.091696 0.285490 0.597420
Si Si7 0.354575 0.641006 0.340135
Si Si8 0.896840 0.913947 0.889905
O O1 0.313666 0.926553 0.329017
O O2 0.342478 0.859810 0.747181
O O3 0.391380 0.871900 0.404005
O O4 0.371095 0.000000 0.626499
O O5 0.064296 0.280167 0.825331
O O6 0.064866 0.143230 0.029906
O O7 0.064138 0.266262 0.325202
O O8 0.000000 0.227206 0.000000
O O9 0.228683 0.084932 0.237134
O O10 0.266779 0.186079 0.483833
O O11 0.190881 0.220923 0.220784
O O12 0.194682 0.136879 0.640429
O O13 0.730267 0.000000 0.035625
O O14 0.724645 0.845040 0.041498
O O15 0.131053 0.228821 0.655303
O O16 0.362798 0.600264 0.079465
O O17 0.377574 0.597855 0.593102
O O18 0.913440 0.000000 0.926486
#
# Coordination Sequence:
#
# PCOD8100862 Si02
#       8
#     8   8   8   8   8   8   8   8
#     4  10  21  37  58  84 115 150 197 253 300 347
#     4  10  22  41  67  93 121 155 190 233 290 358
#     4  10  21  35  52  77 109 158 207 249 302 349
#     4  10  22  35  51  79 114 154 202 253 303 352
#     4  10  20  36  55  77 108 152 206 256 298 350
#     4  10  21  39  63  92 120 152 196 238 290 361
#     4  10  21  37  57  84 119 161 204 247 294 343
#     4  10  22  38  59  89 123 156 198 244 288 346
#
# _framework density 21.474567
#
# number of rings (size 3 to 8) (size 9 to 14) (size 15 to 20)
#    0.000    2.000    1.250    1.500    3.500    2.750 
#    0.000    0.000    0.000    6.750    0.000    0.000 
#    0.000    0.000    0.000    0.000    0.000    0.000 
#
# Total GULP energy -396479.986633 kJ/mol
# GULP energy per Si atom -12389.999582 kJ/mol
# Density = 2.142569 g / cm^3
# Si number density = 21.474567 Si / 1000 Ang^3
#
#
#
# Elastic Constant Matrix: (Units=GPa)
#
#
# Indices 1 2 3 4 5 6 
#
# 1 87.2920 29.3945 2.3652 0.0000 -19.5344 0.0000
# 2 29.3945 116.2973 8.8447 0.0000 -6.7645 0.0000
# 3 2.3652 8.8447 62.3808 0.0000 -16.2471 0.0000
# 4 0.0000 0.0000 0.0000 18.8679 0.0000 -5.2954
# 5 -19.5344 -6.7645 -16.2471 0.0000 25.7503 0.0000
# 6 0.0000 0.0000 0.0000 -5.2954 0.0000 -16.9106
#
#
#
# Elastic Compliance Matrix: (Units=1/GPa)
#
#
# Indices 1 2 3 4 5 6 
#
# 1 0.015377 -0.003387 0.003235 0.000000 0.012817 0.000000
# 2 -0.003387 0.009509 -0.001482 0.000000 -0.001007 0.000000
# 3 0.003235 -0.001482 0.019931 0.000000 0.014640 0.000000
# 4 0.000000 0.000000 0.000000 0.048719 0.000000 -0.015256
# 5 0.012817 -0.001007 0.014640 0.000000 0.057530 0.000000
# 6 0.000000 0.000000 0.000000 -0.015256 0.000000 -0.054357
#
#
# Mechanical properties :
#
#
# Convention : Reuss Voigt Hill
#
# Bulk Modulus (GPa) = 24.06782 38.57542 31.32162
# Shear Modulus (GPa) = 43.92689 20.56590 32.24640
#
# Velocity S-wave (km/s) = 4.52766 3.09801 3.87926
# Velocity P-wave (km/s) = 6.21006 5.54970 5.88914
#
# Compressibility (1/GPa) = 0.04154925
#
# Stress axis : x y z
#
# Youngs Moduli (GPa) = 65.03292 105.16448 50.17279
#
# Poissons Ratio (x) = 0.35620 -0.16232
# Poissons Ratio (y) = 0.22027 0.07435
# Poissons Ratio (z) = -0.21040 0.15585
#
# Static dielectric constant tensor:
#      x y z
#    x 3.565930 0.000000 -0.184580 
#    y 0.000000 4.420380 0.000000 
#    z -0.184580 0.000000 3.900450 
# 
# 
# High freq. dielectric constant tensor:
#      x y z
#    x 1.809270 0.000000 -0.016760 
#    y 0.000000 1.843850 0.000000 
#    z -0.016760 0.000000 1.842180 
# 
# From -- ./inp_files/32039.got.cif
#   From: 2010.06.25/outbox.cif.g09.slc.cpg/sg12_17_cif.got.tgz:32039.got - 2010.06.28 00:19:55.
