data_PCOD8100084
_publ_section_title
;
Structure prediction by ZEFSAII (Michael W. Deem and Ramdas Pophale) SiO2 
 PCOD8100084
Probable space group: C 2/M
;
_chemical_formula_sum "Si O2"
_cell_formula_units_Z 56
_cell_length_a 8.650810
_cell_length_b 25.633118
_cell_length_c 17.869205
_cell_angle_alpha 90.000000
_cell_angle_beta 45.092533
_cell_angle_gamma 90.000000
_cell_volume 2806.394368
_symmetry_space_group_name_H-M "C 2/M"
_symmetry_group_IT_number 12
_symmetry_cell_setting 'monoclinic'
loop_
_space_group_symop_operation_xyz
x,y,z
-x,y,-z
-x,-y,-z
x,-y,z
1/2+x,1/2+y,z
1/2-x,1/2+y,-z
1/2-x,1/2-y,-z
1/2+x,1/2-y,z
loop_
_atom_site_type_symbol
_atom_site_label
_atom_site_fract_x
_atom_site_fract_y
_atom_site_fract_z
Si Si1 0.752021 0.942290 0.928128
Si Si2 0.876201 0.893392 0.620821
Si Si3 0.610382 0.000000 0.383427
Si Si4 0.412720 0.401949 0.296683
Si Si5 0.358874 0.696197 0.220305
Si Si6 0.982232 0.692801 0.226256
Si Si7 0.257583 0.500000 0.615463
Si Si8 0.181621 0.153622 0.999644
O O1 0.791271 0.906646 0.987089
O O2 0.855672 0.915829 0.819402
O O3 0.851239 0.000000 0.909392
O O4 0.500000 0.946912 0.000000
O O5 0.709196 0.846754 0.688950
O O6 0.000000 0.886000 0.500000
O O7 0.057335 0.895491 0.624541
O O8 0.737238 0.947400 0.671416
O O9 0.500000 0.000000 0.500000
O O10 0.749898 0.947713 0.328756
O O11 0.426574 0.000000 0.383734
O O12 0.318028 0.348033 0.296480
O O13 0.367010 0.751458 0.258350
O O14 0.593875 0.687484 0.099697
O O15 0.159302 0.693843 0.231101
O O16 0.092501 0.677074 0.109163
O O17 0.500000 0.500000 0.500000
O O18 0.000000 0.155491 0.000000
#
# Coordination Sequence:
#
# PCOD8100084 Si02
#       8
#     8   8   4   8   8   8   4   8
#     4  10  20  35  57  86 122 159 199 242 301 364
#     4  11  23  41  62  88 121 158 205 253 300 357
#     4  12  22  38  63  88 118 157 201 250 302 358
#     4  11  22  40  62  89 121 162 204 255 304 359
#     4  10  22  38  63  89 121 157 203 248 307 367
#     4  11  21  40  60  90 122 161 202 251 303 357
#     4  10  22  40  60  86 115 153 199 250 299 356
#     4   9  20  37  58  87 120 155 198 245 297 364
#
# _framework density 19.954431
#
# number of rings (size 3 to 8) (size 9 to 14) (size 15 to 20)
#    0.000    1.571    0.714    5.143    0.000    1.429 
#    1.286    4.286    0.000    0.000    0.000    0.000 
#    0.000    0.000    0.000    0.000    0.000    0.000 
#
# Total GULP energy -347203.628777 kJ/mol
# GULP energy per Si atom -12400.129599 kJ/mol
# Density = 1.990901 g / cm^3
# Si number density = 19.954431 Si / 1000 Ang^3
#
#
#
# Elastic Constant Matrix: (Units=GPa)
#
#
# Indices 1 2 3 4 5 6 
#
# 1 112.0365 55.0485 38.7849 0.0001 7.1194 0.0001
# 2 55.0485 188.5559 51.7058 0.0000 2.8959 0.0000
# 3 38.7849 51.7058 74.9440 0.0001 1.4115 0.0001
# 4 0.0001 0.0000 0.0001 14.4278 -0.0001 -4.8449
# 5 7.1194 2.8959 1.4115 -0.0001 29.3144 -0.0001
# 6 0.0001 0.0000 0.0001 -4.8449 -0.0001 30.6400
#
#
#
# Elastic Compliance Matrix: (Units=1/GPa)
#
#
# Indices 1 2 3 4 5 6 
#
# 1 0.011698 -0.002134 -0.004536 0.000000 -0.002412 0.000000
# 2 -0.002134 0.006936 -0.003681 0.000000 0.000010 0.000000
# 3 -0.004536 -0.003681 0.018219 0.000000 0.000588 0.000000
# 4 0.000000 0.000000 0.000000 0.073197 0.000000 0.011574
# 5 -0.002412 0.000010 0.000588 0.000000 0.034669 0.000000
# 6 0.000000 0.000000 0.000000 0.011574 0.000000 0.034467
#
#
# Mechanical properties :
#
#
# Convention : Reuss Voigt Hill
#
# Bulk Modulus (GPa) = 61.91691 74.06831 67.99261
# Shear Modulus (GPa) = 24.35789 30.20958 27.28373
#
# Velocity S-wave (km/s) = 3.49761 3.89514 3.70172
# Velocity P-wave (km/s) = 6.88531 7.57818 7.24004
#
# Compressibility (1/GPa) = 0.01615068
#
# Stress axis : x y z
#
# Youngs Moduli (GPa) = 85.48589 144.18024 54.88723
#
# Poissons Ratio (x) = 0.30772 0.24897
# Poissons Ratio (y) = 0.18245 0.20203
# Poissons Ratio (z) = 0.38776 0.53070
#
# Static dielectric constant tensor:
#      x y z
#    x 3.595980 0.000000 0.101520 
#    y 0.000000 4.099290 0.000000 
#    z 0.101520 0.000000 3.769090 
# 
# 
# High freq. dielectric constant tensor:
#      x y z
#    x 1.780150 0.000000 0.001080 
#    y 0.000000 1.796240 0.000000 
#    z 0.001080 0.000000 1.769360 
# 
# From -- ./inp_files/259822.got.cif
#   From: 2010.06.25/outbox.cif.g09.slc.cpg/sg12_130_cif.got.tgz:259822.got - 2010.06.28 00:19:55.
