data_PCOD8100005
_publ_section_title
;
Structure prediction by ZEFSAII (Michael W. Deem and Ramdas Pophale) SiO2 
 PCOD8100005
Probable space group: C 2/M
;
_chemical_formula_sum "Si O2"
_cell_formula_units_Z 48
_cell_length_a 11.745386
_cell_length_b 18.610255
_cell_length_c 11.731764
_cell_angle_alpha 90.000000
_cell_angle_beta 103.441149
_cell_angle_gamma 90.000000
_cell_volume 2494.142739
_symmetry_space_group_name_H-M "C 2/M"
_symmetry_group_IT_number 12
_symmetry_cell_setting 'monoclinic'
loop_
_space_group_symop_operation_xyz
x,y,z
-x,y,-z
-x,-y,-z
x,-y,z
1/2+x,1/2+y,z
1/2-x,1/2+y,-z
1/2-x,1/2-y,-z
1/2+x,1/2-y,z
loop_
_atom_site_type_symbol
_atom_site_label
_atom_site_fract_x
_atom_site_fract_y
_atom_site_fract_z
Si Si1 0.246170 0.583787 0.549807
Si Si2 0.852720 0.332778 0.682535
Si Si3 0.318651 0.314666 0.158349
Si Si4 0.420231 0.325389 0.722228
Si Si5 0.269597 0.659207 0.899047
Si Si6 0.913586 0.418729 0.276777
O O1 0.258822 0.500000 0.522509
O O2 0.223204 0.629491 0.432042
O O3 0.367075 0.610208 0.634692
O O4 0.137484 0.597587 0.609554
O O5 0.785521 0.342452 0.786080
O O6 0.870201 0.248807 0.658285
O O7 0.978923 0.367771 0.725002
O O8 0.440112 0.329836 0.251069
O O9 0.310193 0.230327 0.128968
O O10 0.310988 0.357082 0.036953
O O11 0.383338 0.332925 0.845819
O O12 0.188811 0.593422 0.839223
O O13 0.958089 0.500000 0.278974
#
# Coordination Sequence:
#
# PCOD8100005 Si02
#       6
#     8   8   8   8   8   8
#     4  10  22  40  59  80 112 154 191 228 278 337
#     4  11  21  35  56  87 114 145 189 235 282 331
#     4  10  20  35  57  85 114 146 184 235 283 326
#     4  10  20  37  59  84 111 148 190 233 274 335
#     4   9  19  36  58  83 112 147 189 229 277 334
#     4  10  20  38  60  83 114 150 190 232 278 334
#
# _framework density 19.245090000000001
#
# number of rings (size 3 to 8) (size 9 to 14) (size 15 to 20)
#    0.000    2.000    1.667    2.000    0.000    2.667 
#    3.000    5.833    0.000    4.000    0.000    0.000 
#    0.000    0.000    0.000    0.000    0.000    0.000 
#
# Total GULP energy -297670.760447 kJ/mol
# GULP energy per Si atom -12402.948352 kJ/mol
# Density = 1.920129 g / cm^3
# Si number density = 19.245090 Si / 1000 Ang^3
#
#
#
# Elastic Constant Matrix: (Units=GPa)
#
#
# Indices 1 2 3 4 5 6 
#
# 1 83.2804 29.9258 23.8448 0.0000 7.6879 0.0000
# 2 29.9258 70.9025 43.8691 0.0000 -5.8008 0.0000
# 3 23.8448 43.8691 105.6494 0.0000 -2.3731 0.0000
# 4 0.0000 0.0000 0.0000 21.2860 0.0000 -0.2596
# 5 7.6879 -5.8008 -2.3731 0.0000 24.7866 0.0000
# 6 0.0000 0.0000 0.0000 -0.2596 0.0000 24.3225
#
#
#
# Elastic Compliance Matrix: (Units=1/GPa)
#
#
# Indices 1 2 3 4 5 6 
#
# 1 0.015122 -0.006320 -0.000930 0.000000 -0.006258 0.000000
# 2 -0.006320 0.021965 -0.007551 0.000000 0.006378 0.000000
# 3 -0.000930 -0.007551 0.012805 0.000000 -0.000253 0.000000
# 4 0.000000 0.000000 0.000000 0.046985 0.000000 0.000502
# 5 -0.006258 0.006378 -0.000253 0.000000 0.043754 0.000000
# 6 0.000000 0.000000 0.000000 0.000502 0.000000 0.041120
#
#
# Mechanical properties :
#
#
# Convention : Reuss Voigt Hill
#
# Bulk Modulus (GPa) = 49.28085 50.56795 49.92440
# Shear Modulus (GPa) = 22.92366 24.89185 23.90776
#
# Velocity S-wave (km/s) = 3.45504 3.60031 3.52842
# Velocity P-wave (km/s) = 6.44817 6.60422 6.52666
#
# Compressibility (1/GPa) = 0.02029186
#
# Stress axis : x y z
#
# Youngs Moduli (GPa) = 66.12713 45.52703 78.09565
#
# Poissons Ratio (x) = 0.28771 0.07259
# Poissons Ratio (y) = 0.41790 0.58970
# Poissons Ratio (z) = 0.06147 0.34377
#
# Static dielectric constant tensor:
#      x y z
#    x 3.409240 0.000000 -0.061250 
#    y 0.000000 3.441660 0.000000 
#    z -0.061250 0.000000 3.490070 
# 
# 
# High freq. dielectric constant tensor:
#      x y z
#    x 1.749020 0.000000 0.002830 
#    y 0.000000 1.736030 0.000000 
#    z 0.002830 0.000000 1.748720 
# 
# From -- ./inp_files/131160.got.cif
#   From: 2010.06.25/outbox.cif.g09.slc.cpg/sg12_66_cif.got.tgz:131160.got - 2010.06.28 00:19:55.
