data_PCOD8100122
_publ_section_title
;
Structure prediction by ZEFSAII (Michael W. Deem and Ramdas Pophale) SiO2 
 PCOD8100122
Probable space group: C 2/M
;
_chemical_formula_sum "Si O2"
_cell_formula_units_Z 48
_cell_length_a 25.630203
_cell_length_b 13.815254
_cell_length_c 10.949872
_cell_angle_alpha 90.000000
_cell_angle_beta 151.059848
_cell_angle_gamma 90.000000
_cell_volume 1876.168301
_symmetry_space_group_name_H-M "C 2/M"
_symmetry_group_IT_number 12
_symmetry_cell_setting 'monoclinic'
loop_
_space_group_symop_operation_xyz
x,y,z
-x,y,-z
-x,-y,-z
x,-y,z
1/2+x,1/2+y,z
1/2-x,1/2+y,-z
1/2-x,1/2-y,-z
1/2+x,1/2-y,z
loop_
_atom_site_type_symbol
_atom_site_label
_atom_site_fract_x
_atom_site_fract_y
_atom_site_fract_z
Si Si1 0.120776 0.807388 0.252011
Si Si2 0.241889 0.888452 0.003351
Si Si3 0.362461 0.387736 0.461144
Si Si4 0.945198 0.204514 0.259456
Si Si5 0.053912 0.392728 0.436645
Si Si6 0.818538 0.609821 0.550838
O O1 0.175678 0.832081 0.495408
O O2 0.122840 0.689714 0.241978
O O3 0.191109 0.860558 0.291000
O O4 0.000000 0.847735 0.000000
O O5 0.211335 0.852822 0.804494
O O6 0.179029 0.826134 0.978219
O O7 0.208552 0.000000 0.953094
O O8 0.370217 0.873323 0.288309
O O9 0.347615 0.500000 0.454909
O O10 0.488947 0.363018 0.699735
O O11 0.000000 0.185715 0.500000
O O12 0.957492 0.315462 0.236838
O O13 0.002120 0.500000 0.336400
O O14 0.134421 0.382942 0.488096
O O15 0.835092 0.500000 0.635500
#
# Coordination Sequence:
#
# PCOD8100122 Si02
#       6
#     8   8   8   8   8   8
#     4  11  24  42  65  92 120 160 208 254 303 356
#     4   9  20  38  63  91 123 161 196 245 309 365
#     4  10  20  36  58  90 125 153 197 252 300 353
#     4  10  20  35  57  89 124 158 200 246 294 355
#     4  10  21  39  63  90 123 162 201 243 304 368
#     4  10  23  43  64  92 125 158 201 254 305 363
#
# _framework density 25.584059
#
# number of rings (size 3 to 8) (size 9 to 14) (size 15 to 20)
#    0.000    2.000    1.667    1.000    2.333    6.667 
#    0.000    1.667    0.000    2.000    0.000    0.000 
#    0.000    0.000    0.000    0.000    0.000    0.000 
#
# Total GULP energy -297482.126786 kJ/mol
# GULP energy per Si atom -12395.088616 kJ/mol
# Density = 2.552583 g / cm^3
# Si number density = 25.584059 Si / 1000 Ang^3
#
#
#
# Elastic Constant Matrix: (Units=GPa)
#
#
# Indices 1 2 3 4 5 6 
#
# 1 87.3103 36.9918 5.9238 0.0000 -3.2548 0.0000
# 2 36.9918 154.6738 13.5116 0.0000 4.1583 0.0000
# 3 5.9238 13.5116 36.4689 0.0000 7.6683 0.0000
# 4 0.0000 0.0000 0.0000 12.5156 0.0000 5.8580
# 5 -3.2548 4.1583 7.6683 0.0000 26.4062 0.0000
# 6 0.0000 0.0000 0.0000 5.8580 0.0000 41.1041
#
#
#
# Elastic Compliance Matrix: (Units=1/GPa)
#
#
# Indices 1 2 3 4 5 6 
#
# 1 0.012932 -0.003029 -0.001506 0.000000 0.002508 0.000000
# 2 -0.003029 0.007394 -0.002049 0.000000 -0.000943 0.000000
# 3 -0.001506 -0.002049 0.030242 0.000000 -0.008645 0.000000
# 4 0.000000 0.000000 0.000000 0.085611 0.000000 -0.012201
# 5 0.002508 -0.000943 -0.008645 0.000000 0.040838 0.000000
# 6 0.000000 0.000000 0.000000 -0.012201 0.000000 0.026067
#
#
# Mechanical properties :
#
#
# Convention : Reuss Voigt Hill
#
# Bulk Modulus (GPa) = 26.73751 43.47862 35.10806
# Shear Modulus (GPa) = 21.86081 30.80690 26.33385
#
# Velocity S-wave (km/s) = 2.92630 3.47384 3.21176
# Velocity P-wave (km/s) = 4.67880 5.75512 5.24465
#
# Compressibility (1/GPa) = 0.03740065
#
# Stress axis : x y z
#
# Youngs Moduli (GPa) = 77.32568 135.24589 33.06628
#
# Poissons Ratio (x) = 0.40963 0.04979
# Poissons Ratio (y) = 0.23420 0.06776
# Poissons Ratio (z) = 0.11644 0.27715
#
# Static dielectric constant tensor:
#      x y z
#    x 4.814910 0.000000 0.143470 
#    y 0.000000 4.877530 0.000000 
#    z 0.143470 0.000000 4.150990 
# 
# 
# High freq. dielectric constant tensor:
#      x y z
#    x 2.033370 0.000000 0.012590 
#    y 0.000000 2.034750 0.000000 
#    z 0.012590 0.000000 1.980010 
# 
# From -- ./inp_files/183903.got.cif
#   From: 2010.06.25/outbox.cif.g09.slc.cpg/sg12_92_cif.got.tgz:183903.got - 2010.06.28 00:19:55.
