data_PCOD8100600
_publ_section_title
;
Structure prediction by ZEFSAII (Michael W. Deem and Ramdas Pophale) SiO2 
 PCOD8100600
Probable space group: C 2/M
;
_chemical_formula_sum "Si O2"
_cell_formula_units_Z 56
_cell_length_a 28.441923
_cell_length_b 9.011145
_cell_length_c 11.859154
_cell_angle_alpha 90.000000
_cell_angle_beta 72.121913
_cell_angle_gamma 90.000000
_cell_volume 2892.664965
_symmetry_space_group_name_H-M "C 2/M"
_symmetry_group_IT_number 12
_symmetry_cell_setting 'monoclinic'
loop_
_space_group_symop_operation_xyz
x,y,z
-x,y,-z
-x,-y,-z
x,-y,z
1/2+x,1/2+y,z
1/2-x,1/2+y,-z
1/2-x,1/2-y,-z
1/2+x,1/2-y,z
loop_
_atom_site_type_symbol
_atom_site_label
_atom_site_fract_x
_atom_site_fract_y
_atom_site_fract_z
Si Si1 0.747380 0.674602 0.331151
Si Si2 0.899430 0.823305 0.833674
Si Si3 0.569803 0.328273 0.708438
Si Si4 0.213245 0.175636 0.113686
Si Si5 0.322242 0.327115 0.418445
Si Si6 0.445661 0.326854 0.030121
Si Si7 0.015564 0.675559 0.362527
O O1 0.753468 0.500000 0.328573
O O2 0.730862 0.732195 0.222223
O O3 0.705262 0.728065 0.449214
O O4 0.799848 0.745087 0.325928
O O5 0.842991 0.770890 0.861745
O O6 0.932710 0.751222 0.710468
O O7 0.903955 0.000000 0.818711
O O8 0.916535 0.761429 0.943897
O O9 0.554029 0.500000 0.703978
O O10 0.620229 0.288877 0.606597
O O11 0.581447 0.295224 0.831633
O O12 0.526394 0.226437 0.693903
O O13 0.216954 0.000000 0.097838
O O14 0.250000 0.250000 0.000000
O O15 0.314978 0.500000 0.401605
O O16 0.451114 0.500000 0.001863
O O17 0.500000 0.254427 0.000000
O O18 0.021750 0.500000 0.350710
O O19 0.000000 0.725905 0.500000
#
# Coordination Sequence:
#
# PCOD8100600 Si02
#       7
#     8   8   8   8   8   8   8
#     4   9  19  37  54  79 116 147 187 239 287 338
#     4  10  21  39  63  85 111 153 197 239 283 334
#     4  10  20  35  60  87 111 145 191 236 277 336
#     4  10  23  39  59  85 116 154 196 240 287 341
#     4   9  19  34  58  86 109 144 191 236 284 337
#     4   9  16  31  55  85 112 134 177 234 278 320
#     4  11  25  41  56  83 122 155 188 233 289 348
#
# _framework density 19.359310000000001
#
# number of rings (size 3 to 8) (size 9 to 14) (size 15 to 20)
#    0.000    2.286    1.429    0.429    4.000    2.857 
#    0.000    1.429    0.000    0.000    0.000    0.000 
#    0.000    0.000    0.000    0.000    0.000    0.000 
#
# Total GULP energy -347177.257940 kJ/mol
# GULP energy per Si atom -12399.187784 kJ/mol
# Density = 1.931525 g / cm^3
# Si number density = 19.359310 Si / 1000 Ang^3
#
#
#
# Elastic Constant Matrix: (Units=GPa)
#
#
# Indices 1 2 3 4 5 6 
#
# 1 134.2406 34.6935 72.1046 0.0000 -2.9093 0.0000
# 2 34.6935 33.2169 35.6089 0.0000 -2.2164 0.0000
# 3 72.1046 35.6089 127.1142 0.0000 1.9939 0.0000
# 4 0.0000 0.0000 0.0000 27.9089 0.0000 -0.7398
# 5 -2.9093 -2.2164 1.9939 0.0000 36.4825 0.0000
# 6 0.0000 0.0000 0.0000 -0.7398 0.0000 27.3124
#
#
#
# Elastic Compliance Matrix: (Units=1/GPa)
#
#
# Indices 1 2 3 4 5 6 
#
# 1 0.011883 -0.007320 -0.004702 0.000000 0.000760 0.000000
# 2 -0.007320 0.047930 -0.009319 0.000000 0.002837 0.000000
# 3 -0.004702 -0.009319 0.013171 0.000000 -0.001661 0.000000
# 4 0.000000 0.000000 0.000000 0.035857 0.000000 0.000971
# 5 0.000760 0.002837 -0.001661 0.000000 0.027734 0.000000
# 6 0.000000 0.000000 0.000000 0.000971 0.000000 0.036640
#
#
# Mechanical properties :
#
#
# Convention : Reuss Voigt Hill
#
# Bulk Modulus (GPa) = 33.00137 64.37616 48.68876
# Shear Modulus (GPa) = 22.12416 28.48508 25.30462
#
# Velocity S-wave (km/s) = 3.38423 3.84003 3.61931
# Velocity P-wave (km/s) = 5.68810 7.27919 6.53227
#
# Compressibility (1/GPa) = 0.03030177
#
# Stress axis : x y z
#
# Youngs Moduli (GPa) = 84.15256 20.86371 75.92613
#
# Poissons Ratio (x) = 0.15273 0.35700
# Poissons Ratio (y) = 0.61601 0.70755
# Poissons Ratio (z) = 0.39568 0.19443
#
# Static dielectric constant tensor:
#      x y z
#    x 3.677480 0.000000 0.034670 
#    y 0.000000 3.241130 0.000000 
#    z 0.034670 0.000000 3.761460 
# 
# 
# High freq. dielectric constant tensor:
#      x y z
#    x 1.760370 0.000000 -0.001300 
#    y 0.000000 1.722660 0.000000 
#    z -0.001300 0.000000 1.764230 
# 
# From -- ./inp_files/186437.got.cif
#   From: 2010.06.25/outbox.cif.g09.slc.cpg/sg12_94_cif.got.tgz:186437.got - 2010.06.28 00:19:55.
