data_PCOD8100580
_publ_section_title
;
Structure prediction by ZEFSAII (Michael W. Deem and Ramdas Pophale) SiO2 
 PCOD8100580
Probable space group: C 2/M
;
_chemical_formula_sum "Si O2"
_cell_formula_units_Z 56
_cell_length_a 21.480788
_cell_length_b 29.590518
_cell_length_c 9.496748
_cell_angle_alpha 90.000000
_cell_angle_beta 28.230640
_cell_angle_gamma 90.000000
_cell_volume 2855.347844
_symmetry_space_group_name_H-M "C 2/M"
_symmetry_group_IT_number 12
_symmetry_cell_setting 'monoclinic'
loop_
_space_group_symop_operation_xyz
x,y,z
-x,y,-z
-x,-y,-z
x,-y,z
1/2+x,1/2+y,z
1/2-x,1/2+y,-z
1/2-x,1/2-y,-z
1/2+x,1/2-y,z
loop_
_atom_site_type_symbol
_atom_site_label
_atom_site_fract_x
_atom_site_fract_y
_atom_site_fract_z
Si Si1 0.395862 0.048924 0.082445
Si Si2 0.286408 0.207616 0.122930
Si Si3 0.365604 0.699879 0.845563
Si Si4 0.506229 0.858403 0.156977
Si Si5 0.644779 0.550591 0.765653
Si Si6 0.791054 0.138866 0.224438
Si Si7 0.354517 0.288667 0.324724
O O1 0.248186 0.056163 0.432984
O O2 0.403042 0.000000 0.987465
O O3 0.500000 0.047196 0.000000
O O4 0.433024 0.092841 0.916020
O O5 0.246682 0.190672 0.047270
O O6 0.161565 0.201458 0.476589
O O7 0.326755 0.260108 0.030346
O O8 0.409578 0.180746 0.939741
O O9 0.500000 0.711891 0.500000
O O10 0.376804 0.655758 0.921062
O O11 0.361280 0.853412 0.508514
O O12 0.500000 0.853627 0.000000
O O13 0.652469 0.500000 0.814053
O O14 0.679901 0.585845 0.817923
O O15 0.500000 0.561682 0.000000
O O16 0.828448 0.164962 0.293338
O O17 0.250000 0.250000 0.500000
O O18 0.500000 0.270288 0.000000
#
# Coordination Sequence:
#
# PCOD8100580 Si02
#       7
#     8   8   8   8   8   8   8
#     4   9  16  32  56  90 130 157 186 241 313 373
#     4  11  25  42  61  83 127 162 213 251 310 374
#     4  11  27  44  58  81 119 176 211 255 303 373
#     4  11  21  36  62  98 123 158 200 259 312 363
#     4  10  20  35  59  94 131 164 203 256 317 375
#     4  12  23  39  64  91 123 161 209 255 314 362
#     4  12  25  38  61  92 121 157 201 262 311 364
#
# _framework density 19.612321999999999
#
# number of rings (size 3 to 8) (size 9 to 14) (size 15 to 20)
#    0.000    1.143    5.714    1.286    6.000    1.143 
#    0.000    0.000    0.000    1.286    0.000    2.000 
#    0.000    0.000    0.000    0.000    0.000    0.000 
#
# Total GULP energy -347153.009011 kJ/mol
# GULP energy per Si atom -12398.321750 kJ/mol
# Density = 1.956768 g / cm^3
# Si number density = 19.612322 Si / 1000 Ang^3
#
#
#
# Elastic Constant Matrix: (Units=GPa)
#
#
# Indices 1 2 3 4 5 6 
#
# 1 74.6819 56.2565 38.6692 0.0000 -3.4682 0.0001
# 2 56.2565 113.0651 32.7386 0.0000 5.4313 0.0000
# 3 38.6692 32.7386 123.6068 -0.0001 -13.6546 0.0003
# 4 0.0000 0.0000 -0.0001 27.2215 0.0000 -8.0213
# 5 -3.4682 5.4313 -13.6546 0.0000 35.6469 -0.0002
# 6 0.0001 0.0000 0.0003 -8.0213 -0.0002 15.5283
#
#
#
# Elastic Compliance Matrix: (Units=1/GPa)
#
#
# Indices 1 2 3 4 5 6 
#
# 1 0.023810 -0.010692 -0.004366 0.000000 0.002273 0.000000
# 2 -0.010692 0.014606 -0.000923 0.000000 -0.003619 0.000000
# 3 -0.004366 -0.000923 0.010096 0.000000 0.003583 0.000000
# 4 0.000000 0.000000 0.000000 0.043331 0.000000 0.022383
# 5 0.002273 -0.003619 0.003583 0.000000 0.030198 0.000000
# 6 0.000000 0.000000 0.000000 0.022383 0.000000 0.075961
#
#
# Mechanical properties :
#
#
# Convention : Reuss Voigt Hill
#
# Bulk Modulus (GPa) = 60.42345 62.96471 61.69408
# Shear Modulus (GPa) = 21.23303 27.92530 24.57917
#
# Velocity S-wave (km/s) = 3.29391 3.77751 3.54397
# Velocity P-wave (km/s) = 6.73367 7.15545 6.94776
#
# Compressibility (1/GPa) = 0.01654986
#
# Stress axis : x y z
#
# Youngs Moduli (GPa) = 41.99834 68.46658 99.04543
#
# Poissons Ratio (x) = 0.73206 0.43241
# Poissons Ratio (y) = 0.44905 0.09145
# Poissons Ratio (z) = 0.18336 0.06322
#
# Static dielectric constant tensor:
#      x y z
#    x 3.420480 0.000000 -0.106730 
#    y 0.000000 3.981900 0.000000 
#    z -0.106730 0.000000 3.792750 
# 
# 
# High freq. dielectric constant tensor:
#      x y z
#    x 1.733960 0.000000 -0.026390 
#    y 0.000000 1.771330 0.000000 
#    z -0.026390 0.000000 1.769470 
# 
# From -- ./inp_files/91546.got.cif
#   From: 2010.06.25/outbox.cif.g09.slc.cpg/sg12_46_cif.got.tgz:91546.got - 2010.06.28 00:19:55.
