data_PCOD8100821
_publ_section_title
;
Structure prediction by ZEFSAII (Michael W. Deem and Ramdas Pophale) SiO2 
 PCOD8100821
Probable space group: C 2/M
;
_chemical_formula_sum "Si O2"
_cell_formula_units_Z 44
_cell_length_a 15.642478
_cell_length_b 30.762311
_cell_length_c 7.960508
_cell_angle_alpha 90.000000
_cell_angle_beta 146.660283
_cell_angle_gamma 90.000000
_cell_volume 2105.298337
_symmetry_space_group_name_H-M "C 2/M"
_symmetry_group_IT_number 12
_symmetry_cell_setting 'monoclinic'
loop_
_space_group_symop_operation_xyz
x,y,z
-x,y,-z
-x,-y,-z
x,-y,z
1/2+x,1/2+y,z
1/2-x,1/2+y,-z
1/2-x,1/2-y,-z
1/2+x,1/2-y,z
loop_
_atom_site_type_symbol
_atom_site_label
_atom_site_fract_x
_atom_site_fract_y
_atom_site_fract_z
Si Si1 0.832164 0.186371 0.715000
Si Si2 0.189305 0.646162 0.973479
Si Si3 0.362913 0.117150 0.472514
Si Si4 0.000000 0.902527 0.500000
Si Si5 0.894233 0.050885 0.987828
Si Si6 0.154609 0.724718 0.145396
O O1 0.706275 0.147917 0.497324
O O2 0.827269 0.223210 0.857012
O O3 0.809350 0.211803 0.503258
O O4 0.000000 0.163244 0.000000
O O5 0.186378 0.646362 0.768629
O O6 0.048801 0.613053 0.800464
O O7 0.352723 0.627435 0.307496
O O8 0.154435 0.695318 0.977426
O O9 0.278649 0.070520 0.327114
O O10 0.032981 0.931363 0.719220
O O11 0.871010 0.000000 0.970874
O O12 0.000000 0.062012 0.000000
O O13 0.000000 0.715304 0.000000
#
# Coordination Sequence:
#
# PCOD8100821 Si02
#       6
#     8   8   8   4   8   8
#     4  10  21  34  56  82 113 153 193 237 289 341
#     4  10  22  37  56  83 114 152 196 235 291 340
#     4  10  21  39  57  83 115 151 193 239 290 347
#     4  10  23  40  62  90 118 156 196 240 295 346
#     4  10  22  41  65  92 120 151 190 238 294 354
#     4  10  20  36  54  82 114 152 196 237 284 341
#
# _framework density 20.899650000000001
#
# number of rings (size 3 to 8) (size 9 to 14) (size 15 to 20)
#    0.000    2.000    1.818    0.818    7.636    0.727 
#    0.000   10.000    0.000    2.182    0.000    0.000 
#    0.000    0.000    0.000    0.000    0.000    0.000 
#
# Total GULP energy -272549.160704 kJ/mol
# GULP energy per Si atom -12388.598214 kJ/mol
# Density = 2.085208 g / cm^3
# Si number density = 20.899650 Si / 1000 Ang^3
#
#
#
# Elastic Constant Matrix: (Units=GPa)
#
#
# Indices 1 2 3 4 5 6 
#
# 1 61.8210 32.1640 19.9000 0.0000 9.2200 0.0000
# 2 32.1640 97.5959 25.4986 0.0000 7.7246 0.0000
# 3 19.9000 25.4986 102.3443 0.0000 31.7692 0.0000
# 4 0.0000 0.0000 0.0000 24.9263 0.0000 -5.2891
# 5 9.2200 7.7246 31.7692 0.0000 36.0902 0.0000
# 6 0.0000 0.0000 0.0000 -5.2891 0.0000 21.5135
#
#
#
# Elastic Compliance Matrix: (Units=1/GPa)
#
#
# Indices 1 2 3 4 5 6 
#
# 1 0.020213 -0.006032 -0.001686 0.000000 -0.002389 0.000000
# 2 -0.006032 0.012760 -0.002252 0.000000 0.000792 0.000000
# 3 -0.001686 -0.002252 0.014278 0.000000 -0.011656 0.000000
# 4 0.000000 0.000000 0.000000 0.042326 0.000000 0.010406
# 5 -0.002389 0.000792 -0.011656 0.000000 0.038409 0.000000
# 6 0.000000 0.000000 0.000000 0.010406 0.000000 0.049041
#
#
# Mechanical properties :
#
#
# Convention : Reuss Voigt Hill
#
# Bulk Modulus (GPa) = 36.61553 46.32071 41.46812
# Shear Modulus (GPa) = 24.26349 28.78590 26.52469
#
# Velocity S-wave (km/s) = 3.41097 3.71528 3.56637
# Velocity P-wave (km/s) = 5.75071 6.37306 6.06987
#
# Compressibility (1/GPa) = 0.02731082
#
# Stress axis : x y z
#
# Youngs Moduli (GPa) = 49.47325 78.37032 70.03776
#
# Poissons Ratio (x) = 0.47272 0.11808
# Poissons Ratio (y) = 0.29842 0.15774
# Poissons Ratio (z) = 0.08341 0.17651
#
# Static dielectric constant tensor:
#      x y z
#    x 3.717100 0.000000 0.147630 
#    y 0.000000 3.663880 0.000000 
#    z 0.147630 0.000000 3.898360 
# 
# 
# High freq. dielectric constant tensor:
#      x y z
#    x 1.804420 0.000000 0.012180 
#    y 0.000000 1.804040 0.000000 
#    z 0.012180 0.000000 1.826050 
# 
# From -- ./inp_files/41601.got.cif
#   From: 2010.06.25/outbox.cif.g09.slc.cpg/sg12_21_cif.got.tgz:41601.got - 2010.06.28 00:19:55.
