data_PCOD8100145
_publ_section_title
;
Structure prediction by ZEFSAII (Michael W. Deem and Ramdas Pophale) SiO2 
 PCOD8100145
Probable space group: C 2/M
;
_chemical_formula_sum "Si O2"
_cell_formula_units_Z 64
_cell_length_a 19.018615
_cell_length_b 9.007051
_cell_length_c 30.981978
_cell_angle_alpha 90.000000
_cell_angle_beta 40.129709
_cell_angle_gamma 90.000000
_cell_volume 3420.638370
_symmetry_space_group_name_H-M "C 2/M"
_symmetry_group_IT_number 12
_symmetry_cell_setting 'monoclinic'
loop_
_space_group_symop_operation_xyz
x,y,z
-x,y,-z
-x,-y,-z
x,-y,z
1/2+x,1/2+y,z
1/2-x,1/2+y,-z
1/2-x,1/2-y,-z
1/2+x,1/2-y,z
loop_
_atom_site_type_symbol
_atom_site_label
_atom_site_fract_x
_atom_site_fract_y
_atom_site_fract_z
Si Si1 0.046657 0.175316 0.704264
Si Si2 0.182079 0.325637 0.187369
Si Si3 0.910996 0.829041 0.933964
Si Si4 0.875243 0.168884 0.552209
Si Si5 0.161340 0.827477 0.807111
Si Si6 0.744041 0.671880 0.071104
Si Si7 0.308202 0.171458 0.294854
Si Si8 0.764402 0.827753 0.448295
O O1 0.096404 0.241895 0.724790
O O2 0.122464 0.217302 0.627953
O O3 0.929785 0.243459 0.748915
O O4 0.036207 0.000000 0.715928
O O5 0.159982 0.500000 0.194455
O O6 0.268223 0.286731 0.184151
O O7 0.231003 0.268915 0.119721
O O8 0.861072 0.801925 0.909919
O O9 0.036758 0.782831 0.874648
O O10 0.894465 0.000000 0.955675
O O11 0.853016 0.724026 0.995809
O O12 0.808656 0.194263 0.627536
O O13 0.835487 0.280921 0.534627
O O14 0.000000 0.209251 0.500000
O O15 0.860073 0.000000 0.543070
O O16 0.206633 0.733494 0.746042
O O17 0.170709 0.000000 0.790769
O O18 0.755941 0.500000 0.078189
O O19 0.342417 0.000000 0.277183
O O20 0.750000 0.750000 0.500000
O O21 0.758793 0.000000 0.459490
#
# Coordination Sequence:
#
# PCOD8100145 Si02
#       8
#     8   8   8   8   8   8   8   8
#     4  10  21  38  58  79 107 144 184 226 273 324
#     4  11  23  37  55  81 112 146 184 226 272 322
#     4   9  19  37  58  78 104 141 181 220 268 325
#     4   9  19  36  56  80 111 144 179 222 273 325
#     4  10  22  38  55  78 111 148 182 222 273 324
#     4  10  20  35  58  84 108 139 180 226 272 321
#     4  10  20  35  58  83 107 141 184 227 269 321
#     4  10  21  36  56  81 109 143 182 225 272 324
#
# _framework density 18.709958
#
# number of rings (size 3 to 8) (size 9 to 14) (size 15 to 20)
#    0.000    2.125    0.000    2.625    0.000    6.750 
#    0.000    6.250    0.000    0.000    0.000    0.000 
#    0.000    0.000    0.000    0.000    0.000    0.000 
#
# Total GULP energy -396934.528337 kJ/mol
# GULP energy per Si atom -12404.204011 kJ/mol
# Density = 1.866737 g / cm^3
# Si number density = 18.709958 Si / 1000 Ang^3
#
#
#
# Elastic Constant Matrix: (Units=GPa)
#
#
# Indices 1 2 3 4 5 6 
#
# 1 122.6700 56.4066 81.7423 0.0044 -0.2339 -0.0012
# 2 56.4066 75.8104 53.5088 0.0073 6.9568 0.0123
# 3 81.7423 53.5088 111.3415 0.0035 -1.2836 0.0074
# 4 0.0044 0.0073 0.0035 36.0574 -0.0005 3.8518
# 5 -0.2339 6.9568 -1.2836 -0.0005 35.8609 -0.0030
# 6 -0.0012 0.0123 0.0074 3.8518 -0.0030 33.4588
#
#
#
# Elastic Compliance Matrix: (Units=1/GPa)
#
#
# Indices 1 2 3 4 5 6 
#
# 1 0.017636 -0.006172 -0.009970 0.000000 0.000956 0.000005
# 2 -0.006172 0.022781 -0.006471 -0.000003 -0.004691 -0.000007
# 3 -0.009970 -0.006471 0.019432 0.000001 0.001886 -0.000002
# 4 0.000000 -0.000003 0.000001 0.028079 0.000001 -0.003232
# 5 0.000956 -0.004691 0.001886 0.000001 0.028869 0.000004
# 6 0.000005 -0.000007 -0.000002 -0.003232 0.000004 0.030260
#
#
# Mechanical properties :
#
#
# Convention : Reuss Voigt Hill
#
# Bulk Modulus (GPa) = 68.38620 77.01527 72.70074
# Shear Modulus (GPa) = 25.36047 28.95303 27.15675
#
# Velocity S-wave (km/s) = 3.68564 3.93805 3.81394
# Velocity P-wave (km/s) = 7.39878 7.86955 7.63779
#
# Compressibility (1/GPa) = 0.01462283
#
# Stress axis : x y z
#
# Youngs Moduli (GPa) = 56.70369 43.89610 51.46056
#
# Poissons Ratio (x) = 0.27094 0.51306
# Poissons Ratio (y) = 0.35000 0.33299
# Poissons Ratio (z) = 0.56533 0.28404
#
# Static dielectric constant tensor:
#      x y z
#    x 3.384670 -0.000060 -0.043950 
#    y -0.000060 3.526270 -0.000030 
#    z -0.043950 -0.000030 3.491380 
# 
# 
# High freq. dielectric constant tensor:
#      x y z
#    x 1.721920 0.000000 -0.000320 
#    y 0.000000 1.736060 0.000000 
#    z -0.000320 0.000000 1.735560 
# 
# From -- ./inp_files/378218.got.cif
#   From: 2010.06.25/outbox.cif.g09.slc.cpg/sg12_190_cif.got.tgz:378218.got - 2010.06.28 00:19:55.
