data_PCOD8100979
_publ_section_title
;
Structure prediction by ZEFSAII (Michael W. Deem and Ramdas Pophale) SiO2 
 PCOD8100979
Probable space group: C 2/M
;
_chemical_formula_sum "Si O2"
_cell_formula_units_Z 48
_cell_length_a 18.998348
_cell_length_b 8.818737
_cell_length_c 15.727959
_cell_angle_alpha 90.000000
_cell_angle_beta 76.882823
_cell_angle_gamma 90.000000
_cell_volume 2566.330112
_symmetry_space_group_name_H-M "C 2/M"
_symmetry_group_IT_number 12
_symmetry_cell_setting 'monoclinic'
loop_
_space_group_symop_operation_xyz
x,y,z
-x,y,-z
-x,-y,-z
x,-y,z
1/2+x,1/2+y,z
1/2-x,1/2+y,-z
1/2-x,1/2-y,-z
1/2+x,1/2-y,z
loop_
_atom_site_type_symbol
_atom_site_label
_atom_site_fract_x
_atom_site_fract_y
_atom_site_fract_z
Si Si1 0.681089 0.178408 0.474061
Si Si2 0.305693 0.823064 0.724474
Si Si3 0.911856 0.822636 0.368226
Si Si4 0.030990 0.176382 0.901261
Si Si5 0.341891 0.178375 0.225560
Si Si6 0.941805 0.825942 0.760632
O O1 0.750000 0.250000 0.500000
O O2 0.678492 0.225870 0.376589
O O3 0.608286 0.242675 0.537636
O O4 0.684330 0.000000 0.485256
O O5 0.238103 0.729537 0.779889
O O6 0.374891 0.783367 0.762296
O O7 0.288752 0.000000 0.736954
O O8 0.860132 0.760159 0.308771
O O9 0.995191 0.788589 0.324457
O O10 0.896277 0.000000 0.379312
O O11 0.102711 0.272860 0.863367
O O12 0.970342 0.209002 0.847217
O O13 0.052816 0.000000 0.894511
O O14 0.000000 0.228641 0.000000
O O15 0.345474 0.000000 0.238094
O O16 0.917227 0.000000 0.758658
#
# Coordination Sequence:
#
# PCOD8100979 Si02
#       6
#     8   8   8   8   8   8
#     4  11  22  34  53  79 109 148 194 240 277 321
#     4  11  23  37  54  79 114 151 187 231 280 327
#     4  10  20  36  56  79 110 148 191 234 277 329
#     4   9  19  39  65  88 112 143 179 223 276 336
#     4  11  21  34  57  84 112 146 186 229 274 330
#     4   9  20  37  57  82 112 145 182 226 279 333
#
# _framework density 18.703752000000001
#
# number of rings (size 3 to 8) (size 9 to 14) (size 15 to 20)
#    0.000    1.833    1.667    4.000    0.000    6.333 
#    0.000    4.167    0.000    0.000    0.000    0.000 
#    0.000    0.000    0.000    0.000    0.000    0.000 
#
# Total GULP energy -297711.709692 kJ/mol
# GULP energy per Si atom -12404.654570 kJ/mol
# Density = 1.866118 g / cm^3
# Si number density = 18.703752 Si / 1000 Ang^3
#
#
#
# Elastic Constant Matrix: (Units=GPa)
#
#
# Indices 1 2 3 4 5 6 
#
# 1 108.8800 41.5447 45.2349 0.0000 -4.0574 0.0000
# 2 41.5447 80.1529 34.7998 0.0000 -5.6834 0.0000
# 3 45.2349 34.7998 103.2649 0.0000 -14.4714 0.0000
# 4 0.0000 0.0000 0.0000 27.2657 0.0000 -3.1338
# 5 -4.0574 -5.6834 -14.4714 0.0000 21.1176 0.0000
# 6 0.0000 0.0000 0.0000 -3.1338 0.0000 36.1237
#
#
#
# Elastic Compliance Matrix: (Units=1/GPa)
#
#
# Indices 1 2 3 4 5 6 
#
# 1 0.012722 -0.004910 -0.004160 0.000000 -0.001728 0.000000
# 2 -0.004910 0.016517 -0.003235 0.000000 0.001285 0.000000
# 3 -0.004160 -0.003235 0.013676 0.000000 0.007702 0.000000
# 4 0.000000 0.000000 0.000000 0.037045 0.000000 0.003214
# 5 -0.001728 0.001285 0.007702 0.000000 0.052645 0.000000
# 6 0.000000 0.000000 0.000000 0.003214 0.000000 0.027961
#
#
# Mechanical properties :
#
#
# Convention : Reuss Voigt Hill
#
# Bulk Modulus (GPa) = 54.63501 59.49517 57.06509
# Shear Modulus (GPa) = 26.13973 28.28262 27.21118
#
# Velocity S-wave (km/s) = 3.74246 3.89284 3.81839
# Velocity P-wave (km/s) = 6.92451 7.21691 7.07222
#
# Compressibility (1/GPa) = 0.01830328
#
# Stress axis : x y z
#
# Youngs Moduli (GPa) = 78.60370 60.54378 73.12208
#
# Poissons Ratio (x) = 0.29729 0.30421
# Poissons Ratio (y) = 0.38597 0.23656
# Poissons Ratio (z) = 0.32701 0.19587
#
# Static dielectric constant tensor:
#      x y z
#    x 3.515870 0.000000 -0.277020 
#    y 0.000000 3.421370 0.000000 
#    z -0.277020 0.000000 3.520850 
# 
# 
# High freq. dielectric constant tensor:
#      x y z
#    x 1.725330 0.000000 -0.012730 
#    y 0.000000 1.732670 0.000000 
#    z -0.012730 0.000000 1.712420 
# 
# From -- ./inp_files/221596.got.cif
#   From: 2010.06.25/outbox.cif.g09.slc.cpg/sg12_111_cif.got.tgz:221596.got - 2010.06.28 00:19:55.
