data_PCOD8100063
_publ_section_title
;
Structure prediction by ZEFSAII (Michael W. Deem and Ramdas Pophale) SiO2 
 PCOD8100063
Probable space group: C 2/M
;
_chemical_formula_sum "Si O2"
_cell_formula_units_Z 56
_cell_length_a 29.067279
_cell_length_b 8.993447
_cell_length_c 11.191243
_cell_angle_alpha 90.000000
_cell_angle_beta 78.281940
_cell_angle_gamma 90.000000
_cell_volume 2864.587119
_symmetry_space_group_name_H-M "C 2/M"
_symmetry_group_IT_number 12
_symmetry_cell_setting 'monoclinic'
loop_
_space_group_symop_operation_xyz
x,y,z
-x,y,-z
-x,-y,-z
x,-y,z
1/2+x,1/2+y,z
1/2-x,1/2+y,-z
1/2-x,1/2-y,-z
1/2+x,1/2-y,z
loop_
_atom_site_type_symbol
_atom_site_label
_atom_site_fract_x
_atom_site_fract_y
_atom_site_fract_z
Si Si1 0.737630 0.672715 0.129195
Si Si2 0.058841 0.675373 0.203511
Si Si3 0.413644 0.671660 0.053559
Si Si4 0.633179 0.672066 0.575378
Si Si5 0.170731 0.673450 0.777724
Si Si6 0.465094 0.669369 0.270733
Si Si7 0.641255 0.673789 0.297343
O O1 0.735166 0.500000 0.102828
O O2 0.776418 0.707456 0.209068
O O3 0.687679 0.729596 0.204483
O O4 0.750000 0.750000 0.000000
O O5 0.061785 0.500000 0.191004
O O6 0.097815 0.731148 0.274714
O O7 0.008025 0.723017 0.280607
O O8 0.065405 0.746342 0.070822
O O9 0.405183 0.500000 0.025702
O O10 0.363809 0.741514 0.114301
O O11 0.450652 0.690195 0.140567
O O12 0.640037 0.500000 0.607542
O O13 0.665783 0.769171 0.644986
O O14 0.578453 0.714523 0.621789
O O15 0.648768 0.705870 0.433080
O O16 0.158475 0.500000 0.789324
O O17 0.480819 0.500000 0.286413
O O18 0.631296 0.500000 0.280327
#
# Coordination Sequence:
#
# PCOD8100063 Si02
#       7
#     8   8   8   8   8   8   8
#     4  10  22  38  58  85 114 146 183 224 274 330
#     4  12  24  35  52  82 115 146 183 231 288 334
#     4  10  20  36  58  83 111 147 190 228 269 330
#     4   9  20  39  61  83 107 144 193 231 266 324
#     4  10  20  35  57  86 118 146 177 227 285 330
#     4   9  19  36  57  80 107 143 186 229 273 329
#     4  10  22  41  60  78 108 150 193 231 267 323
#
# _framework density 19.549064999999999
#
# number of rings (size 3 to 8) (size 9 to 14) (size 15 to 20)
#    0.000    2.000    0.000    4.286    0.000   10.286 
#    0.000    2.857    0.000    0.000    0.000    0.000 
#    0.000    0.000    0.000    0.000    0.000    0.000 
#
# Total GULP energy -347320.202688 kJ/mol
# GULP energy per Si atom -12404.292953 kJ/mol
# Density = 1.950457 g / cm^3
# Si number density = 19.549065 Si / 1000 Ang^3
#
#
#
# Elastic Constant Matrix: (Units=GPa)
#
#
# Indices 1 2 3 4 5 6 
#
# 1 116.1306 61.4737 42.9284 0.0000 3.8767 0.0000
# 2 61.4737 107.7723 43.3340 0.0000 3.5614 0.0000
# 3 42.9284 43.3340 111.1822 0.0000 -2.8907 0.0000
# 4 0.0000 0.0000 0.0000 29.3806 0.0000 2.8218
# 5 3.8767 3.5614 -2.8907 0.0000 12.6246 0.0000
# 6 0.0000 0.0000 0.0000 2.8218 0.0000 31.2979
#
#
#
# Elastic Compliance Matrix: (Units=1/GPa)
#
#
# Indices 1 2 3 4 5 6 
#
# 1 0.012997 -0.006252 -0.002655 0.000000 -0.002835 0.000000
# 2 -0.006252 0.014227 -0.003205 0.000000 -0.002827 0.000000
# 3 -0.002655 -0.003205 0.011381 0.000000 0.004325 0.000000
# 4 0.000000 0.000000 0.000000 0.034333 0.000000 -0.003095
# 5 -0.002835 -0.002827 0.004325 0.000000 0.081869 0.000000
# 6 0.000000 0.000000 0.000000 -0.003095 0.000000 0.032230
#
#
# Mechanical properties :
#
#
# Convention : Reuss Voigt Hill
#
# Bulk Modulus (GPa) = 69.53594 70.06192 69.79893
# Shear Modulus (GPa) = 23.14234 27.15054 25.14644
#
# Velocity S-wave (km/s) = 3.44438 3.73076 3.59043
# Velocity P-wave (km/s) = 7.17395 7.38071 7.27806
#
# Compressibility (1/GPa) = 0.01438105
#
# Stress axis : x y z
#
# Youngs Moduli (GPa) = 76.94304 70.28891 87.86693
#
# Poissons Ratio (x) = 0.43945 0.23329
# Poissons Ratio (y) = 0.48105 0.28158
# Poissons Ratio (z) = 0.20429 0.22525
#
# Static dielectric constant tensor:
#      x y z
#    x 3.621400 0.000000 -0.063380 
#    y 0.000000 3.587660 0.000000 
#    z -0.063380 0.000000 3.614670 
# 
# 
# High freq. dielectric constant tensor:
#      x y z
#    x 1.767170 0.000000 -0.002290 
#    y 0.000000 1.757780 0.000000 
#    z -0.002290 0.000000 1.762610 
# 
# From -- ./inp_files/180852.got.cif
#   From: 2010.06.25/outbox.cif.g09.slc.cpg/sg12_91_cif.got.tgz:180852.got - 2010.06.28 00:19:55.
