data_PCOD8100723
_publ_section_title
;
Structure prediction by ZEFSAII (Michael W. Deem and Ramdas Pophale) SiO2 
 PCOD8100723
Probable space group: C 2/M
;
_chemical_formula_sum "Si O2"
_cell_formula_units_Z 56
_cell_length_a 14.259122
_cell_length_b 13.067605
_cell_length_c 16.959355
_cell_angle_alpha 90.000000
_cell_angle_beta 58.287230
_cell_angle_gamma 90.000000
_cell_volume 2688.261236
_symmetry_space_group_name_H-M "C 2/M"
_symmetry_group_IT_number 12
_symmetry_cell_setting 'monoclinic'
loop_
_space_group_symop_operation_xyz
x,y,z
-x,y,-z
-x,-y,-z
x,-y,z
1/2+x,1/2+y,z
1/2-x,1/2+y,-z
1/2-x,1/2-y,-z
1/2+x,1/2-y,z
loop_
_atom_site_type_symbol
_atom_site_label
_atom_site_fract_x
_atom_site_fract_y
_atom_site_fract_z
Si Si1 0.203417 0.382006 0.771744
Si Si2 0.729147 0.207579 0.150760
Si Si3 0.791071 0.200246 0.583145
Si Si4 0.568990 0.763150 0.606644
Si Si5 0.085915 0.890134 0.028956
Si Si6 0.999575 0.249516 0.803394
Si Si7 0.649680 0.881634 0.339509
O O1 0.183847 0.500000 0.802371
O O2 0.252727 0.324155 0.826283
O O3 0.290704 0.373324 0.660156
O O4 0.088613 0.329731 0.796854
O O5 0.820732 0.184228 0.045396
O O6 0.615887 0.192150 0.153923
O O7 0.726981 0.132784 0.227805
O O8 0.682487 0.177355 0.578634
O O9 0.899365 0.185514 0.479254
O O10 0.795035 0.317826 0.613901
O O11 0.531802 0.704744 0.702749
O O12 0.474778 0.842138 0.621468
O O13 0.137041 0.000000 0.032015
O O14 0.000000 0.910858 0.000000
O O15 0.016480 0.844538 0.131547
O O16 0.645379 0.000000 0.365381
#
# Coordination Sequence:
#
# PCOD8100723 Si02
#       7
#     8   8   8   8   8   8   8
#     4  10  21  39  61  85 115 155 198 239 285 341
#     4  10  21  39  60  86 122 153 189 240 295 346
#     4   9  19  35  55  83 121 154 186 237 294 339
#     4   9  19  35  54  81 120 154 185 235 290 337
#     4  11  22  38  61  85 116 153 188 233 299 362
#     4  10  21  39  61  85 116 151 195 245 288 341
#     4  10  20  35  62  92 117 152 200 245 286 340
#
# _framework density 20.831309999999998
#
# number of rings (size 3 to 8) (size 9 to 14) (size 15 to 20)
#    0.000    2.143    1.429    1.286    0.000    7.429 
#    0.000    5.714    0.000   14.571    0.000    0.000 
#    0.000    0.000    0.000    0.000    0.000    0.000 
#
# Total GULP energy -346922.549943 kJ/mol
# GULP energy per Si atom -12390.091069 kJ/mol
# Density = 2.078390 g / cm^3
# Si number density = 20.831310 Si / 1000 Ang^3
#
#
#
# Elastic Constant Matrix: (Units=GPa)
#
#
# Indices 1 2 3 4 5 6 
#
# 1 64.6362 27.0179 5.4772 0.0000 -6.6985 0.0000
# 2 27.0179 99.6105 50.4358 0.0000 -2.8982 0.0000
# 3 5.4772 50.4358 126.2557 0.0000 -11.7207 0.0000
# 4 0.0000 0.0000 0.0000 23.6849 0.0000 4.0889
# 5 -6.6985 -2.8982 -11.7207 0.0000 27.2612 0.0000
# 6 0.0000 0.0000 0.0000 4.0889 0.0000 21.1618
#
#
#
# Elastic Compliance Matrix: (Units=1/GPa)
#
#
# Indices 1 2 3 4 5 6 
#
# 1 0.018216 -0.005797 0.001962 0.000000 0.004703 0.000000
# 2 -0.005797 0.014449 -0.005739 0.000000 -0.002356 0.000000
# 3 0.001962 -0.005739 0.010537 0.000000 0.004402 0.000000
# 4 0.000000 0.000000 0.000000 0.043678 0.000000 -0.008439
# 5 0.004703 -0.002356 0.004402 0.000000 0.039480 0.000000
# 6 0.000000 0.000000 0.000000 -0.008439 0.000000 0.048886
#
#
# Mechanical properties :
#
#
# Convention : Reuss Voigt Hill
#
# Bulk Modulus (GPa) = 41.57558 50.70714 46.14136
# Shear Modulus (GPa) = 24.70223 28.25969 26.48096
#
# Velocity S-wave (km/s) = 3.44731 3.68720 3.56927
# Velocity P-wave (km/s) = 5.98722 6.52088 6.25974
#
# Compressibility (1/GPa) = 0.02405258
#
# Stress axis : x y z
#
# Youngs Moduli (GPa) = 54.89775 69.20918 94.90718
#
# Poissons Ratio (x) = 0.40124 -0.18624
# Poissons Ratio (y) = 0.31827 0.54469
# Poissons Ratio (z) = -0.10773 0.39720
#
# Static dielectric constant tensor:
#      x y z
#    x 3.950250 0.000000 -0.071640 
#    y 0.000000 3.387580 0.000000 
#    z -0.071640 0.000000 4.378600 
# 
# 
# High freq. dielectric constant tensor:
#      x y z
#    x 1.823570 0.000000 -0.001600 
#    y 0.000000 1.763060 0.000000 
#    z -0.001600 0.000000 1.835240 
# 
# From -- ./inp_files/269206.got.cif
#   From: 2010.06.25/outbox.cif.g09.slc.cpg/sg12_135_cif.got.tgz:269206.got - 2010.06.28 00:19:55.
