data_PCOD8100881
_publ_section_title
;
Structure prediction by ZEFSAII (Michael W. Deem and Ramdas Pophale) SiO2 
 PCOD8100881
Probable space group: C 2/M
;
_chemical_formula_sum "Si O2"
_cell_formula_units_Z 56
_cell_length_a 20.256973
_cell_length_b 8.578803
_cell_length_c 16.258000
_cell_angle_alpha 90.000000
_cell_angle_beta 78.760141
_cell_angle_gamma 90.000000
_cell_volume 2771.134375
_symmetry_space_group_name_H-M "C 2/M"
_symmetry_group_IT_number 12
_symmetry_cell_setting 'monoclinic'
loop_
_space_group_symop_operation_xyz
x,y,z
-x,y,-z
-x,-y,-z
x,-y,z
1/2+x,1/2+y,z
1/2-x,1/2+y,-z
1/2-x,1/2-y,-z
1/2+x,1/2-y,z
loop_
_atom_site_type_symbol
_atom_site_label
_atom_site_fract_x
_atom_site_fract_y
_atom_site_fract_z
Si Si1 0.360853 0.183175 0.599906
Si Si2 0.473535 0.316180 0.254585
Si Si3 0.219787 0.317359 0.620420
Si Si4 0.093433 0.817835 0.566318
Si Si5 0.838281 0.817485 0.209602
Si Si6 0.242511 0.680566 0.091095
Si Si7 0.378692 0.683902 0.775435
O O1 0.293398 0.257978 0.578561
O O2 0.417739 0.227535 0.517871
O O3 0.376236 0.258548 0.683173
O O4 0.353795 0.000000 0.612741
O O5 0.470997 0.500000 0.262499
O O6 0.457313 0.252296 0.350796
O O7 0.416333 0.263310 0.202413
O O8 0.547707 0.262725 0.207736
O O9 0.211322 0.500000 0.603078
O O10 0.167969 0.214580 0.581800
O O11 0.209251 0.284236 0.719929
O O12 0.083199 0.000000 0.552148
O O13 0.811686 0.784257 0.124018
O O14 0.829757 0.000000 0.233996
O O15 0.230032 0.500000 0.084558
O O16 0.177768 0.746080 0.153058
O O17 0.250000 0.750000 0.000000
O O18 0.370260 0.500000 0.778045
#
# Coordination Sequence:
#
# PCOD8100881 Si02
#       7
#     8   8   8   8   8   8   8
#     4  12  23  35  51  78 117 157 199 244 293 345
#     4   8  18  37  61  85 114 155 199 240 284 344
#     4  11  20  32  53  82 114 151 196 245 296 343
#     4  10  20  36  55  79 113 156 203 246 288 338
#     4   9  18  37  62  86 115 154 195 235 285 344
#     4  11  23  40  65  93 121 150 188 237 292 350
#     4  11  22  39  62  88 117 151 194 241 295 351
#
# _framework density 20.208331000000001
#
# number of rings (size 3 to 8) (size 9 to 14) (size 15 to 20)
#    0.000    1.714    1.429    5.143    0.000    1.143 
#    0.000   10.714    0.000    4.286    0.000    0.000 
#    0.000    0.000    0.000    0.000    0.000    0.000 
#
# Total GULP energy -347084.551052 kJ/mol
# GULP energy per Si atom -12395.876823 kJ/mol
# Density = 2.016234 g / cm^3
# Si number density = 20.208331 Si / 1000 Ang^3
#
#
#
# Elastic Constant Matrix: (Units=GPa)
#
#
# Indices 1 2 3 4 5 6 
#
# 1 106.1299 29.0579 67.0610 0.0000 -11.4584 0.0000
# 2 29.0579 89.3419 39.2966 0.0000 3.3079 0.0000
# 3 67.0610 39.2966 144.9016 0.0000 7.9716 0.0000
# 4 0.0000 0.0000 0.0000 34.0336 0.0000 0.3867
# 5 -11.4584 3.3079 7.9716 0.0000 12.5239 0.0000
# 6 0.0000 0.0000 0.0000 0.3867 0.0000 21.5481
#
#
#
# Elastic Compliance Matrix: (Units=1/GPa)
#
#
# Indices 1 2 3 4 5 6 
#
# 1 0.018457 -0.002891 -0.009046 0.000000 0.023408 0.000000
# 2 -0.002891 0.013179 -0.001968 0.000000 -0.004873 0.000000
# 3 -0.009046 -0.001968 0.012485 0.000000 -0.015703 0.000000
# 4 0.000000 0.000000 0.000000 0.029389 0.000000 -0.000527
# 5 0.023408 -0.004873 -0.015703 0.000000 0.112545 0.000000
# 6 0.000000 0.000000 0.000000 -0.000527 0.000000 0.046417
#
#
# Mechanical properties :
#
#
# Convention : Reuss Voigt Hill
#
# Bulk Modulus (GPa) = 61.30467 67.91162 64.60814
# Shear Modulus (GPa) = 18.81682 27.28499 23.05091
#
# Velocity S-wave (km/s) = 3.05477 3.67847 3.38104
# Velocity P-wave (km/s) = 6.54556 7.19168 6.87621
#
# Compressibility (1/GPa) = 0.01631197
#
# Stress axis : x y z
#
# Youngs Moduli (GPa) = 54.18021 75.87636 80.09463
#
# Poissons Ratio (x) = 0.21936 0.72451
# Poissons Ratio (y) = 0.15663 0.15764
# Poissons Ratio (z) = 0.49010 0.14933
#
# Static dielectric constant tensor:
#      x y z
#    x 4.162450 0.000000 0.007210 
#    y 0.000000 3.579110 0.000000 
#    z 0.007210 0.000000 3.650360 
# 
# 
# High freq. dielectric constant tensor:
#      x y z
#    x 1.792430 0.000000 0.004620 
#    y 0.000000 1.780730 0.000000 
#    z 0.004620 0.000000 1.774530 
# 
# From -- ./inp_files/280172.got.cif
#   From: 2010.06.25/outbox.cif.g09.slc.cpg/sg12_141_cif.got.tgz:280172.got - 2010.06.28 00:19:55.
