data_PCOD8100748
_publ_section_title
;
Structure prediction by ZEFSAII (Michael W. Deem and Ramdas Pophale) SiO2 
 PCOD8100748
Probable space group: C 2/M
;
_chemical_formula_sum "Si O2"
_cell_formula_units_Z 56
_cell_length_a 9.076718
_cell_length_b 27.515727
_cell_length_c 11.054012
_cell_angle_alpha 90.000000
_cell_angle_beta 71.173728
_cell_angle_gamma 90.000000
_cell_volume 2613.069874
_symmetry_space_group_name_H-M "C 2/M"
_symmetry_group_IT_number 12
_symmetry_cell_setting 'monoclinic'
loop_
_space_group_symop_operation_xyz
x,y,z
-x,y,-z
-x,-y,-z
x,-y,z
1/2+x,1/2+y,z
1/2-x,1/2+y,-z
1/2-x,1/2-y,-z
1/2+x,1/2-y,z
loop_
_atom_site_type_symbol
_atom_site_label
_atom_site_fract_x
_atom_site_fract_y
_atom_site_fract_z
Si Si1 0.704316 0.392229 0.157136
Si Si2 0.682688 0.445855 0.927992
Si Si3 0.170361 0.055749 0.408688
Si Si4 0.293920 0.773635 0.861542
Si Si5 0.853305 0.306802 0.245581
Si Si6 0.671702 0.140158 0.505391
Si Si7 0.860706 0.860391 0.220139
O O1 0.675756 0.433422 0.265022
O O2 0.834951 0.354115 0.164844
O O3 0.546642 0.361866 0.175549
O O4 0.763570 0.420085 0.021778
O O5 0.752423 0.500000 0.888447
O O6 0.710464 0.412758 0.801963
O O7 0.500000 0.449416 0.000000
O O8 0.295003 0.087038 0.449586
O O9 0.000000 0.069905 0.500000
O O10 0.210804 0.000000 0.422064
O O11 0.265675 0.735185 0.761960
O O12 0.472536 0.788365 0.814575
O O13 0.186972 0.820799 0.867604
O O14 0.250000 0.750000 0.000000
O O15 0.810896 0.319621 0.394729
O O16 0.500000 0.140328 0.500000
O O17 0.792543 0.153980 0.368267
#
# Coordination Sequence:
#
# PCOD8100748 Si02
#       7
#     8   8   8   8   8   8   8
#     4  10  20  39  65  94 131 172 212 273 323 384
#     4   9  19  35  61  96 129 167 214 264 319 379
#     4  10  20  35  63  97 128 172 222 267 314 375
#     4  12  25  44  67  96 126 165 217 270 329 394
#     4  11  25  42  67  94 128 169 212 268 328 389
#     4  11  23  44  63  92 133 173 214 265 329 389
#     4  11  22  40  66  94 130 170 213 267 325 386
#
# _framework density 21.430733
#
# number of rings (size 3 to 8) (size 9 to 14) (size 15 to 20)
#    0.000    1.429    2.857    2.571    0.000    4.286 
#    0.000    0.000    0.000    0.857    0.000    0.000 
#    0.000    0.000    0.000    0.000    0.000    0.000 
#
# Total GULP energy -347301.865450 kJ/mol
# GULP energy per Si atom -12403.638052 kJ/mol
# Density = 2.138196 g / cm^3
# Si number density = 21.430733 Si / 1000 Ang^3
#
#
#
# Elastic Constant Matrix: (Units=GPa)
#
#
# Indices 1 2 3 4 5 6 
#
# 1 97.3893 57.9784 44.1823 0.0000 20.5814 0.0000
# 2 57.9784 141.7738 60.7828 0.0000 13.1536 0.0000
# 3 44.1823 60.7828 120.0360 0.0000 15.9503 0.0000
# 4 0.0000 0.0000 0.0000 32.5313 0.0000 0.5263
# 5 20.5814 13.1536 15.9503 0.0000 28.7100 0.0000
# 6 0.0000 0.0000 0.0000 0.5263 0.0000 26.3936
#
#
#
# Elastic Compliance Matrix: (Units=1/GPa)
#
#
# Indices 1 2 3 4 5 6 
#
# 1 0.015820 -0.004716 -0.002392 0.000000 -0.007852 0.000000
# 2 -0.004716 0.010494 -0.003659 0.000000 0.000605 0.000000
# 3 -0.002392 -0.003659 0.011459 0.000000 -0.002976 0.000000
# 4 0.000000 0.000000 0.000000 0.030750 0.000000 -0.000613
# 5 -0.007852 0.000605 -0.002976 0.000000 0.041835 0.000000
# 6 0.000000 0.000000 0.000000 -0.000613 0.000000 0.037900
#
#
# Mechanical properties :
#
#
# Convention : Reuss Voigt Hill
#
# Bulk Modulus (GPa) = 61.57182 76.12069 68.84626
# Shear Modulus (GPa) = 28.53806 30.61068 29.57437
#
# Velocity S-wave (km/s) = 3.65313 3.78346 3.71886
# Velocity P-wave (km/s) = 6.82545 7.39477 7.11580
#
# Compressibility (1/GPa) = 0.01624120
#
# Stress axis : x y z
#
# Youngs Moduli (GPa) = 63.21227 95.28858 87.26575
#
# Poissons Ratio (x) = 0.44935 0.20871
# Poissons Ratio (y) = 0.29809 0.31929
# Poissons Ratio (z) = 0.15118 0.34864
#
# Static dielectric constant tensor:
#      x y z
#    x 3.843020 0.000000 0.329760 
#    y 0.000000 4.119990 0.000000 
#    z 0.329760 0.000000 4.026600 
# 
# 
# High freq. dielectric constant tensor:
#      x y z
#    x 1.834610 0.000000 0.023940 
#    y 0.000000 1.851460 0.000000 
#    z 0.023940 0.000000 1.839730 
# 
# From -- ./inp_files/124266.got.cif
#   From: 2010.06.25/outbox.cif.g09.slc.cpg/sg12_63_cif.got.tgz:124266.got - 2010.06.28 00:19:55.
