data_PCOD8100237
_publ_section_title
;
Structure prediction by ZEFSAII (Michael W. Deem and Ramdas Pophale) SiO2 
 PCOD8100237
Probable space group: C 2/M
;
_chemical_formula_sum "Si O2"
_cell_formula_units_Z 64
_cell_length_a 32.714243
_cell_length_b 8.669857
_cell_length_c 19.351725
_cell_angle_alpha 90.000000
_cell_angle_beta 33.958606
_cell_angle_gamma 90.000000
_cell_volume 3065.946781
_symmetry_space_group_name_H-M "C 2/M"
_symmetry_group_IT_number 12
_symmetry_cell_setting 'monoclinic'
loop_
_space_group_symop_operation_xyz
x,y,z
-x,y,-z
-x,-y,-z
x,-y,z
1/2+x,1/2+y,z
1/2-x,1/2+y,-z
1/2-x,1/2-y,-z
1/2+x,1/2-y,z
loop_
_atom_site_type_symbol
_atom_site_label
_atom_site_fract_x
_atom_site_fract_y
_atom_site_fract_z
Si Si1 0.549012 0.320564 0.867616
Si Si2 0.803960 0.820019 0.773497
Si Si3 0.549593 0.174961 0.600623
Si Si4 0.790732 0.683510 0.375497
Si Si5 0.596609 0.821459 0.264035
Si Si6 0.326818 0.674565 0.971495
Si Si7 0.475724 0.326146 0.827545
Si Si8 0.799012 0.179071 0.628424
O O1 0.568049 0.500000 0.851359
O O2 0.624761 0.230947 0.749748
O O3 0.497785 0.289509 0.874224
O O4 0.500000 0.257596 0.000000
O O5 0.877470 0.731957 0.696171
O O6 0.780214 0.755105 0.731184
O O7 0.821811 0.000000 0.744613
O O8 0.739077 0.787867 0.917904
O O9 0.490125 0.208334 0.623733
O O10 0.512883 0.200757 0.726349
O O11 0.615557 0.292834 0.502606
O O12 0.578521 0.000000 0.556030
O O13 0.785077 0.500000 0.388075
O O14 0.750000 0.750000 0.500000
O O15 0.749460 0.752129 0.365273
O O16 0.641377 0.719135 0.147114
O O17 0.614443 0.000000 0.226264
O O18 0.297043 0.500000 0.009423
O O19 0.388403 0.690681 0.944230
O O20 0.499786 0.500000 0.772262
O O21 0.782544 0.000000 0.650077
#
# Coordination Sequence:
#
# PCOD8100237 Si02
#       8
#     8   8   8   8   8   8   8   8
#     4  10  22  39  61  91 126 160 198 250 308 365
#     4  11  23  38  56  81 114 153 193 236 287 344
#     4  10  21  37  60  87 112 145 193 242 286 339
#     4  11  24  43  65  91 122 162 208 253 305 366
#     4  10  21  38  58  84 116 150 189 237 289 343
#     4  10  20  35  58  85 114 152 194 236 283 341
#     4   9  19  36  58  84 115 152 190 232 288 350
#     4  10  24  42  59  82 117 155 191 237 294 350
#
# _framework density 20.874465000000001
#
# number of rings (size 3 to 8) (size 9 to 14) (size 15 to 20)
#    0.000    1.875    0.000    3.000    1.750    8.250 
#    0.000    2.500    0.000    0.000    0.000    0.000 
#    0.000    0.000    0.000    0.000    0.000    0.000 
#
# Total GULP energy -396776.106990 kJ/mol
# GULP energy per Si atom -12399.253343 kJ/mol
# Density = 2.082695 g / cm^3
# Si number density = 20.874465 Si / 1000 Ang^3
#
#
#
# Elastic Constant Matrix: (Units=GPa)
#
#
# Indices 1 2 3 4 5 6 
#
# 1 155.4238 37.6625 32.4256 -0.0162 1.5374 0.0080
# 2 37.6625 50.6997 18.9801 -0.0242 0.2635 0.0159
# 3 32.4256 18.9801 73.4432 -0.0348 -6.0307 0.0169
# 4 -0.0162 -0.0242 -0.0348 29.4952 0.0171 -2.2086
# 5 1.5374 0.2635 -6.0307 0.0171 26.4645 -0.0072
# 6 0.0080 0.0159 0.0169 -2.2086 -0.0072 27.1351
#
#
#
# Elastic Compliance Matrix: (Units=1/GPa)
#
#
# Indices 1 2 3 4 5 6 
#
# 1 0.008195 -0.005202 -0.002353 -0.000002 -0.000960 0.000002
# 2 -0.005202 0.025200 -0.004292 0.000013 -0.000927 -0.000010
# 3 -0.002353 -0.004292 0.016079 0.000012 0.003844 -0.000005
# 4 -0.000002 0.000013 0.000012 0.034112 -0.000019 0.002776
# 5 -0.000960 -0.000927 0.003844 -0.000019 0.038727 0.000007
# 6 0.000002 -0.000010 -0.000005 0.002776 0.000007 0.037079
#
#
# Mechanical properties :
#
#
# Convention : Reuss Voigt Hill
#
# Bulk Modulus (GPa) = 38.78770 50.85591 44.82180
# Shear Modulus (GPa) = 26.08535 29.31883 27.70209
#
# Velocity S-wave (km/s) = 3.53885 3.75177 3.64686
# Velocity P-wave (km/s) = 5.94303 6.57140 6.26510
#
# Compressibility (1/GPa) = 0.02578137
#
# Stress axis : x y z
#
# Youngs Moduli (GPa) = 122.02751 39.68286 62.19122
#
# Poissons Ratio (x) = 0.20643 0.14631
# Poissons Ratio (y) = 0.63477 0.26692
# Poissons Ratio (z) = 0.28708 0.17031
#
# Static dielectric constant tensor:
#      x y z
#    x 4.250640 -0.000020 0.026740 
#    y -0.000020 3.643360 0.000020 
#    z 0.026740 0.000020 3.571150 
# 
# 
# High freq. dielectric constant tensor:
#      x y z
#    x 1.838210 0.000000 -0.003160 
#    y 0.000000 1.810410 0.000000 
#    z -0.003160 0.000000 1.804920 
# 
# From -- ./inp_files/295626.got.cif
#   From: 2010.06.25/outbox.cif.g09.slc.cpg/sg12_148_cif.got.tgz:295626.got - 2010.06.28 00:19:55.
