data_PCOD8100208
_publ_section_title
;
Structure prediction by ZEFSAII (Michael W. Deem and Ramdas Pophale) SiO2 
 PCOD8100208
Probable space group: C 2/M
;
_chemical_formula_sum "Si O2"
_cell_formula_units_Z 64
_cell_length_a 20.387023
_cell_length_b 9.046684
_cell_length_c 31.072964
_cell_angle_alpha 90.000000
_cell_angle_beta 34.701389
_cell_angle_gamma 90.000000
_cell_volume 3262.621418
_symmetry_space_group_name_H-M "C 2/M"
_symmetry_group_IT_number 12
_symmetry_cell_setting 'monoclinic'
loop_
_space_group_symop_operation_xyz
x,y,z
-x,y,-z
-x,-y,-z
x,-y,z
1/2+x,1/2+y,z
1/2-x,1/2+y,-z
1/2-x,1/2-y,-z
1/2+x,1/2-y,z
loop_
_atom_site_type_symbol
_atom_site_label
_atom_site_fract_x
_atom_site_fract_y
_atom_site_fract_z
Si Si1 0.716658 0.326340 0.337107
Si Si2 0.341196 0.827856 0.920500
Si Si3 0.920224 0.670037 0.163911
Si Si4 0.902310 0.824693 0.084729
Si Si5 0.833167 0.675843 0.828085
Si Si6 0.747932 0.172561 0.409090
Si Si7 0.953476 0.674361 0.343388
Si Si8 0.998485 0.329314 0.417072
O O1 0.711597 0.500000 0.348728
O O2 0.805921 0.286444 0.251399
O O3 0.762105 0.248767 0.355475
O O4 0.591826 0.269759 0.390752
O O5 0.470414 0.795668 0.865564
O O6 0.331221 0.762970 0.877706
O O7 0.311578 0.000000 0.937020
O O8 0.250000 0.750000 0.000000
O O9 0.917281 0.500000 0.151125
O O10 0.930227 0.770774 0.117019
O O11 0.779105 0.762323 0.135790
O O12 0.902085 0.000000 0.085191
O O13 0.000000 0.763707 0.000000
O O14 0.833068 0.500000 0.828330
O O15 0.946480 0.732205 0.742314
O O16 0.836778 0.241272 0.395046
O O17 0.621471 0.203126 0.495272
O O18 0.773250 0.000000 0.390624
O O19 0.931510 0.500000 0.350780
O O20 0.990660 0.716229 0.371531
O O21 0.034906 0.500000 0.402287
#
# Coordination Sequence:
#
# PCOD8100208 Si02
#       8
#     8   8   8   8   8   8   8   8
#     4  11  23  39  60  84 111 149 194 233 277 338
#     4  10  20  36  56  78 107 141 179 222 268 318
#     4  10  22  38  56  81 113 146 180 227 282 328
#     4  10  20  35  58  85 111 145 188 227 268 328
#     4   9  18  34  56  80 107 141 181 225 269 317
#     4  11  23  38  57  84 117 148 184 233 284 334
#     4  10  20  37  60  82 110 150 189 226 277 337
#     4  10  22  39  59  85 116 148 182 229 288 339
#
# _framework density 19.616129000000001
#
# number of rings (size 3 to 8) (size 9 to 14) (size 15 to 20)
#    0.000    1.875    0.000    3.750    0.000    8.750 
#    0.000    3.125    0.000    0.000    0.000    0.000 
#    0.000    0.000    0.000    0.000    0.000    0.000 
#
# Total GULP energy -396960.470407 kJ/mol
# GULP energy per Si atom -12405.014700 kJ/mol
# Density = 1.957148 g / cm^3
# Si number density = 19.616129 Si / 1000 Ang^3
#
#
#
# Elastic Constant Matrix: (Units=GPa)
#
#
# Indices 1 2 3 4 5 6 
#
# 1 76.8355 26.9116 16.5482 -0.0004 5.3804 -0.0148
# 2 26.9116 47.3772 30.9110 0.0021 -2.6295 -0.0102
# 3 16.5482 30.9110 77.6544 0.0035 3.2724 0.0012
# 4 -0.0004 0.0021 0.0035 27.7927 0.0011 3.2315
# 5 5.3804 -2.6295 3.2724 0.0011 39.5076 -0.0008
# 6 -0.0148 -0.0102 0.0012 3.2315 -0.0008 29.6193
#
#
#
# Elastic Compliance Matrix: (Units=1/GPa)
#
#
# Indices 1 2 3 4 5 6 
#
# 1 0.016588 -0.009945 0.000549 0.000001 -0.002966 0.000005
# 2 -0.009945 0.034797 -0.011928 -0.000002 0.004658 0.000008
# 3 0.000549 -0.011928 0.017607 -0.000001 -0.002327 -0.000005
# 4 0.000001 -0.000002 -0.000001 0.036443 -0.000001 -0.003976
# 5 -0.002966 0.004658 -0.002327 -0.000001 0.026218 0.000001
# 6 0.000005 0.000008 -0.000005 -0.003976 0.000001 0.034196
#
#
# Mechanical properties :
#
#
# Convention : Reuss Voigt Hill
#
# Bulk Modulus (GPa) = 37.96102 38.95651 38.45877
# Shear Modulus (GPa) = 23.01193 27.88367 25.44780
#
# Velocity S-wave (km/s) = 3.42879 3.77432 3.60570
# Velocity P-wave (km/s) = 5.92194 6.23671 6.08136
#
# Compressibility (1/GPa) = 0.02634281
#
# Stress axis : x y z
#
# Youngs Moduli (GPa) = 60.28626 28.73783 56.79603
#
# Poissons Ratio (x) = 0.28579 -0.03117
# Poissons Ratio (y) = 0.59954 0.67749
# Poissons Ratio (z) = -0.03309 0.34280
#
# Static dielectric constant tensor:
#      x y z
#    x 3.715640 -0.000010 -0.032590 
#    y -0.000010 3.397390 0.000000 
#    z -0.032590 0.000000 3.813820 
# 
# 
# High freq. dielectric constant tensor:
#      x y z
#    x 1.780870 0.000000 0.000350 
#    y 0.000000 1.743640 0.000000 
#    z 0.000350 0.000000 1.781870 
# 
# From -- ./inp_files/378134.got.cif
#   From: 2010.06.25/outbox.cif.g09.slc.cpg/sg12_190_cif.got.tgz:378134.got - 2010.06.28 00:19:55.
