data_PCOD8100176
_publ_section_title
;
Structure prediction by ZEFSAII (Michael W. Deem and Ramdas Pophale) SiO2 
 PCOD8100176
Probable space group: C 2/M
;
_chemical_formula_sum "Si O2"
_cell_formula_units_Z 48
_cell_length_a 10.159001
_cell_length_b 29.074741
_cell_length_c 10.173667
_cell_angle_alpha 90.000000
_cell_angle_beta 119.990391
_cell_angle_gamma 90.000000
_cell_volume 2602.657684
_symmetry_space_group_name_H-M "C 2/M"
_symmetry_group_IT_number 12
_symmetry_cell_setting 'monoclinic'
loop_
_space_group_symop_operation_xyz
x,y,z
-x,y,-z
-x,-y,-z
x,-y,z
1/2+x,1/2+y,z
1/2-x,1/2+y,-z
1/2-x,1/2-y,-z
1/2+x,1/2-y,z
loop_
_atom_site_type_symbol
_atom_site_label
_atom_site_fract_x
_atom_site_fract_y
_atom_site_fract_z
Si Si1 0.533525 0.948000 0.666626
Si Si2 0.592591 0.276081 0.913235
Si Si3 0.333683 0.447908 0.964491
Si Si4 0.262246 0.137012 0.934694
Si Si5 0.067440 0.638680 0.239658
Si Si6 0.086451 0.271905 0.406199
O O1 0.500000 0.935983 0.500000
O O2 0.713914 0.942185 0.784775
O O3 0.436419 0.913057 0.706393
O O4 0.481068 0.000000 0.674583
O O5 0.623250 0.330017 0.904856
O O6 0.499444 0.257233 0.745386
O O7 0.500000 0.268253 0.000000
O O8 0.750000 0.250000 0.000000
O O9 0.333895 0.500000 0.018434
O O10 0.500000 0.433240 0.000000
O O11 0.284861 0.415422 0.060159
O O12 0.296791 0.141260 0.797665
O O13 0.408513 0.151862 0.092418
O O14 0.100065 0.674749 0.371678
O O15 0.250000 0.250000 0.500000
O O16 0.000000 0.268794 0.500000
#
# Coordination Sequence:
#
# PCOD8100176 Si02
#       6
#     8   8   8   8   8   8
#     4   9  18  34  57  82 110 148 188 228 284 346
#     4  12  23  40  63  84 112 154 197 235 285 352
#     4   9  18  34  56  83 113 143 184 238 287 333
#     4  10  20  35  58  84 110 148 193 235 281 342
#     4  10  20  36  57  82 115 147 188 239 285 334
#     4  12  25  40  59  86 118 151 190 244 295 338
#
# _framework density 18.442685999999998
#
# number of rings (size 3 to 8) (size 9 to 14) (size 15 to 20)
#    0.000    1.667    1.667    4.000    0.000    0.667 
#    3.000    3.333    0.000    0.000    0.000    4.667 
#    0.000    0.000    0.000    0.000    0.000    0.000 
#
# Total GULP energy -297651.028667 kJ/mol
# GULP energy per Si atom -12402.126194 kJ/mol
# Density = 1.840071 g / cm^3
# Si number density = 18.442686 Si / 1000 Ang^3
#
#
#
# Elastic Constant Matrix: (Units=GPa)
#
#
# Indices 1 2 3 4 5 6 
#
# 1 135.1590 60.5887 65.2784 0.0000 -16.8986 0.0000
# 2 60.5887 116.1675 56.9174 0.0000 -7.4417 0.0000
# 3 65.2784 56.9174 117.6849 0.0000 -14.4191 0.0000
# 4 0.0000 0.0000 0.0000 -1.1684 0.0000 -12.7041
# 5 -16.8986 -7.4417 -14.4191 0.0000 34.8969 0.0000
# 6 0.0000 0.0000 0.0000 -12.7041 0.0000 29.5156
#
#
#
# Elastic Compliance Matrix: (Units=1/GPa)
#
#
# Indices 1 2 3 4 5 6 
#
# 1 0.011476 -0.003741 -0.004185 0.000000 0.003030 0.000000
# 2 -0.003741 0.012502 -0.004073 0.000000 -0.000828 0.000000
# 3 -0.004185 -0.004073 0.013097 0.000000 0.002516 0.000000
# 4 0.000000 0.000000 0.000000 -0.150681 0.000000 -0.064856
# 5 0.003030 -0.000828 0.002516 0.000000 0.030986 0.000000
# 6 0.000000 0.000000 0.000000 -0.064856 0.000000 0.005965
#
#
# Mechanical properties :
#
#
# Convention : Reuss Voigt Hill
#
# Bulk Modulus (GPa) = 76.47043 81.62004 79.04524
# Shear Modulus (GPa) = -103.52114 25.06395 -39.22859
#
# Velocity S-wave (km/s) = -7.50021 3.69049 -4.61700
# Velocity P-wave (km/s) = 5.78363 7.90643 3.81191
#
# Compressibility (1/GPa) = 0.01307695
#
# Stress axis : x y z
#
# Youngs Moduli (GPa) = 87.14106 79.98854 76.35448
#
# Poissons Ratio (x) = 0.29921 0.31954
# Poissons Ratio (y) = 0.32597 0.31099
# Poissons Ratio (z) = 0.36468 0.32579
#
# Static dielectric constant tensor:
#      x y z
#    x 3.061420 0.000000 -0.493040 
#    y 0.000000 3.599380 0.000000 
#    z -0.493040 0.000000 2.644930 
# 
# 
# High freq. dielectric constant tensor:
#      x y z
#    x 1.709800 0.000000 -0.001650 
#    y 0.000000 1.734250 0.000000 
#    z -0.001650 0.000000 1.708430 
# 
# From -- ./inp_files/52768.got.cif
#   From: 2010.06.25/outbox.cif.g09.slc.cpg/sg12_27_cif.got.tgz:52768.got - 2010.06.28 00:19:55.
