data_PCOD8100609
_publ_section_title
;
Structure prediction by ZEFSAII (Michael W. Deem and Ramdas Pophale) SiO2 
 PCOD8100609
Probable space group: C 2/M
;
_chemical_formula_sum "Si O2"
_cell_formula_units_Z 40
_cell_length_a 33.802155
_cell_length_b 9.731173
_cell_length_c 8.992815
_cell_angle_alpha 90.000000
_cell_angle_beta 43.360057
_cell_angle_gamma 90.000000
_cell_volume 2030.939142
_symmetry_space_group_name_H-M "C 2/M"
_symmetry_group_IT_number 12
_symmetry_cell_setting 'monoclinic'
loop_
_space_group_symop_operation_xyz
x,y,z
-x,y,-z
-x,-y,-z
x,-y,z
1/2+x,1/2+y,z
1/2-x,1/2+y,-z
1/2-x,1/2-y,-z
1/2+x,1/2-y,z
loop_
_atom_site_type_symbol
_atom_site_label
_atom_site_fract_x
_atom_site_fract_y
_atom_site_fract_z
Si Si1 0.803761 0.340005 0.898911
Si Si2 0.519380 0.752830 0.290709
Si Si3 0.402816 0.346665 0.154685
Si Si4 0.586836 0.844773 0.597572
Si Si5 0.640995 0.847653 0.945204
O O1 0.787514 0.500000 0.934645
O O2 0.855517 0.304371 0.646790
O O3 0.821244 0.298555 0.018445
O O4 0.750000 0.250000 0.000000
O O5 0.500000 0.683171 0.500000
O O6 0.466803 0.838441 0.366957
O O7 0.573289 0.854604 0.176573
O O8 0.542137 0.640958 0.107866
O O9 0.381877 0.500000 0.254074
O O10 0.422121 0.263335 0.246333
O O11 0.351344 0.262064 0.211277
O O12 0.590458 0.000000 0.651799
O O13 0.660156 0.000000 0.841142
#
# Coordination Sequence:
#
# PCOD8100609 Si02
#       5
#     8   8   8   8   8
#     4  10  22  40  62  88 113 146 193 242 287 338
#     4  10  20  35  60  88 116 147 190 236 282 333
#     4  10  23  37  53  85 125 156 185 227 288 348
#     4  11  21  36  60  87 116 152 192 233 281 339
#     4   9  19  37  60  84 111 145 192 236 278 336
#
# _framework density 19.695321
#
# number of rings (size 3 to 8) (size 9 to 14) (size 15 to 20)
#    1.200    0.800    2.000    1.800    0.000    5.200 
#    0.000    3.000    0.000    0.000    0.000    0.000 
#    0.000    0.000    0.000    0.000    0.000    0.000 
#
# Total GULP energy -247792.360602 kJ/mol
# GULP energy per Si atom -12389.618030 kJ/mol
# Density = 1.965049 g / cm^3
# Si number density = 19.695321 Si / 1000 Ang^3
#
#
#
# Elastic Constant Matrix: (Units=GPa)
#
#
# Indices 1 2 3 4 5 6 
#
# 1 143.8957 55.3888 25.2797 0.0000 0.3039 0.0000
# 2 55.3888 107.8820 20.6668 0.0000 10.3176 0.0000
# 3 25.2797 20.6668 26.1948 0.0000 7.2484 0.0000
# 4 0.0000 0.0000 0.0000 17.3694 0.0000 -2.1567
# 5 0.3039 10.3176 7.2484 0.0000 35.4957 0.0000
# 6 0.0000 0.0000 0.0000 -2.1567 0.0000 19.3372
#
#
#
# Elastic Compliance Matrix: (Units=1/GPa)
#
#
# Indices 1 2 3 4 5 6 
#
# 1 0.009650 -0.003859 -0.006949 0.000000 0.002458 0.000000
# 2 -0.003859 0.012538 -0.005479 0.000000 -0.002493 0.000000
# 3 -0.006949 -0.005479 0.051667 0.000000 -0.008899 0.000000
# 4 0.000000 0.000000 0.000000 0.058381 0.000000 0.006511
# 5 0.002458 -0.002493 -0.008899 0.000000 0.030693 0.000000
# 6 0.000000 0.000000 0.000000 0.006511 0.000000 0.052440
#
#
# Mechanical properties :
#
#
# Convention : Reuss Voigt Hill
#
# Bulk Modulus (GPa) = 24.22333 53.40478 38.81406
# Shear Modulus (GPa) = 19.10560 26.21629 22.66095
#
# Velocity S-wave (km/s) = 3.11795 3.65237 3.39569
# Velocity P-wave (km/s) = 5.02871 6.70528 5.92658
#
# Compressibility (1/GPa) = 0.04128251
#
# Stress axis : x y z
#
# Youngs Moduli (GPa) = 103.62321 79.75492 19.35479
#
# Poissons Ratio (x) = 0.30774 0.13450
# Poissons Ratio (y) = 0.39983 0.10604
# Poissons Ratio (z) = 0.72009 0.43697
#
# Static dielectric constant tensor:
#      x y z
#    x 3.506480 0.000000 0.163210 
#    y 0.000000 3.265830 0.000000 
#    z 0.163210 0.000000 3.354710 
# 
# 
# High freq. dielectric constant tensor:
#      x y z
#    x 1.772640 0.000000 0.018600 
#    y 0.000000 1.750510 0.000000 
#    z 0.018600 0.000000 1.744850 
# 
# From -- ./inp_files/101846.got.cif
#   From: 2010.06.25/outbox.cif.g09.slc.cpg/sg12_51_cif.got.tgz:101846.got - 2010.06.28 00:19:55.
