data_PCOD8100022
_publ_section_title
;
Structure prediction by ZEFSAII (Michael W. Deem and Ramdas Pophale) SiO2 
 PCOD8100022
Probable space group: C 2/M
;
_chemical_formula_sum "Si O2"
_cell_formula_units_Z 64
_cell_length_a 15.510130
_cell_length_b 8.837560
_cell_length_c 24.059265
_cell_angle_alpha 90.000000
_cell_angle_beta 99.200222
_cell_angle_gamma 90.000000
_cell_volume 3255.419822
_symmetry_space_group_name_H-M "C 2/M"
_symmetry_group_IT_number 12
_symmetry_cell_setting 'monoclinic'
loop_
_space_group_symop_operation_xyz
x,y,z
-x,y,-z
-x,-y,-z
x,-y,z
1/2+x,1/2+y,z
1/2-x,1/2+y,-z
1/2-x,1/2-y,-z
1/2+x,1/2-y,z
loop_
_atom_site_type_symbol
_atom_site_label
_atom_site_fract_x
_atom_site_fract_y
_atom_site_fract_z
Si Si1 0.169835 0.178926 0.826174
Si Si2 0.393924 0.679256 0.430389
Si Si3 0.410505 0.679157 0.557089
Si Si4 0.687579 0.821549 0.245443
Si Si5 0.940471 0.828367 0.942681
Si Si6 0.775368 0.820501 0.634399
Si Si7 0.022213 0.827458 0.177556
Si Si8 0.234593 0.323523 0.057326
O O1 0.232004 0.241018 0.783532
O O2 0.199699 0.243479 0.889268
O O3 0.069429 0.223831 0.803974
O O4 0.181124 0.000000 0.829653
O O5 0.381982 0.500000 0.423860
O O6 0.382638 0.734818 0.492891
O O7 0.490078 0.730247 0.418845
O O8 0.321933 0.759726 0.385335
O O9 0.408679 0.500000 0.557261
O O10 0.342162 0.745083 0.594718
O O11 0.689172 0.735363 0.303469
O O12 0.596891 0.784717 0.205744
O O13 0.694333 0.000000 0.256243
O O14 0.992629 0.816918 0.890287
O O15 0.861528 0.712077 0.930674
O O16 0.906784 0.000000 0.949186
O O17 0.000000 0.776640 0.000000
O O18 0.773853 0.000000 0.632995
O O19 0.045837 0.000000 0.196952
O O20 0.248122 0.500000 0.051359
O O21 0.250000 0.250000 0.000000
#
# Coordination Sequence:
#
# PCOD8100022 Si02
#       8
#     8   8   8   8   8   8   8   8
#     4   9  20  39  61  80 108 148 186 227 283 343
#     4   9  17  35  60  85 112 152 196 234 277 336
#     4   8  17  34  58  84 116 153 191 231 282 345
#     4  11  23  41  59  80 111 151 196 241 282 334
#     4  10  20  35  57  85 117 147 181 226 285 350
#     4  11  22  36  55  84 117 150 189 237 290 339
#     4  10  20  38  62  83 107 144 187 231 284 340
#     4  11  21  36  57  84 116 148 186 231 281 342
#
# _framework density 19.659523
#
# number of rings (size 3 to 8) (size 9 to 14) (size 15 to 20)
#    0.000    2.125    1.250    3.000    0.000    3.250 
#    0.000   11.875    0.000    0.000    0.000    0.000 
#    0.000    0.000    0.000    0.000    0.000    0.000 
#
# Total GULP energy -396780.678748 kJ/mol
# GULP energy per Si atom -12399.396211 kJ/mol
# Density = 1.961478 g / cm^3
# Si number density = 19.659523 Si / 1000 Ang^3
#
#
#
# Elastic Constant Matrix: (Units=GPa)
#
#
# Indices 1 2 3 4 5 6 
#
# 1 118.4491 20.6836 38.3030 0.0000 -0.5097 0.0000
# 2 20.6836 43.1987 19.1747 0.0000 0.0027 0.0000
# 3 38.3030 19.1747 89.7650 0.0000 3.7776 0.0000
# 4 0.0000 0.0000 0.0000 29.2618 0.0000 3.8921
# 5 -0.5097 0.0027 3.7776 0.0000 29.6744 0.0000
# 6 0.0000 0.0000 0.0000 3.8921 0.0000 29.7856
#
#
#
# Elastic Compliance Matrix: (Units=1/GPa)
#
#
# Indices 1 2 3 4 5 6 
#
# 1 0.010205 -0.003249 -0.003688 0.000000 0.000645 0.000000
# 2 -0.003249 0.026623 -0.004321 0.000000 0.000492 0.000000
# 3 -0.003688 -0.004321 0.013713 0.000000 -0.001809 0.000000
# 4 0.000000 0.000000 0.000000 0.034779 0.000000 -0.004545
# 5 0.000645 0.000492 -0.001809 0.000000 0.033940 0.000000
# 6 0.000000 0.000000 0.000000 -0.004545 0.000000 0.034167
#
#
# Mechanical properties :
#
#
# Convention : Reuss Voigt Hill
#
# Bulk Modulus (GPa) = 35.68307 45.30392 40.49349
# Shear Modulus (GPa) = 26.98557 29.29447 28.14002
#
# Velocity S-wave (km/s) = 3.70894 3.86436 3.78745
# Velocity P-wave (km/s) = 6.04414 6.55784 6.30622
#
# Compressibility (1/GPa) = 0.02802450
#
# Stress axis : x y z
#
# Youngs Moduli (GPa) = 97.99039 37.56204 72.92447
#
# Poissons Ratio (x) = 0.12206 0.26891
# Poissons Ratio (y) = 0.31841 0.31511
# Poissons Ratio (z) = 0.36135 0.16231
#
# Static dielectric constant tensor:
#      x y z
#    x 3.864220 0.000000 -0.233980 
#    y 0.000000 3.372820 0.000000 
#    z -0.233980 0.000000 3.739970 
# 
# 
# High freq. dielectric constant tensor:
#      x y z
#    x 1.776620 0.000000 -0.002610 
#    y 0.000000 1.736770 0.000000 
#    z -0.002610 0.000000 1.768860 
# 
# From -- ./inp_files/338828.got.cif
#   From: 2010.06.25/outbox.cif.g09.slc.cpg/sg12_170_cif.got.tgz:338828.got - 2010.06.28 00:19:55.
