data_PCOD8100845
_publ_section_title
;
Structure prediction by ZEFSAII (Michael W. Deem and Ramdas Pophale) SiO2 
 PCOD8100845
Probable space group: C 2/M
;
_chemical_formula_sum "Si O2"
_cell_formula_units_Z 56
_cell_length_a 19.273135
_cell_length_b 8.937154
_cell_length_c 20.097484
_cell_angle_alpha 90.000000
_cell_angle_beta 122.622048
_cell_angle_gamma 90.000000
_cell_volume 2915.625523
_symmetry_space_group_name_H-M "C 2/M"
_symmetry_group_IT_number 12
_symmetry_cell_setting 'monoclinic'
loop_
_space_group_symop_operation_xyz
x,y,z
-x,y,-z
-x,-y,-z
x,-y,z
1/2+x,1/2+y,z
1/2-x,1/2+y,-z
1/2-x,1/2-y,-z
1/2+x,1/2-y,z
loop_
_atom_site_type_symbol
_atom_site_label
_atom_site_fract_x
_atom_site_fract_y
_atom_site_fract_z
Si Si1 0.431477 0.324024 0.511242
Si Si2 0.315369 0.823307 0.081901
Si Si3 0.300013 0.176381 0.225573
Si Si4 0.035351 0.172185 0.683615
Si Si5 0.518267 0.672604 0.826636
Si Si6 0.248862 0.821578 0.572217
Si Si7 0.665274 0.323286 0.261205
O O1 0.500000 0.246506 0.500000
O O2 0.434441 0.500000 0.502913
O O3 0.455693 0.280962 0.599386
O O4 0.340278 0.270643 0.445395
O O5 0.293282 0.768131 0.145385
O O6 0.406840 0.771272 0.105926
O O7 0.310466 0.000000 0.072978
O O8 0.250000 0.750000 0.000000
O O9 0.384580 0.238022 0.299868
O O10 0.223685 0.233749 0.231203
O O11 0.303032 0.000000 0.228717
O O12 0.010284 0.209271 0.745016
O O13 0.058436 0.000000 0.685055
O O14 0.539860 0.500000 0.851797
O O15 0.428640 0.715095 0.810252
O O16 0.250000 0.750000 0.500000
O O17 0.314917 0.757411 0.658564
O O18 0.259316 0.000000 0.571401
O O19 0.673973 0.500000 0.278337
#
# Coordination Sequence:
#
# PCOD8100845 Si02
#       7
#     8   8   8   8   8   8   8
#     4   9  17  29  46  69  96 129 172 218 260 302
#     4  10  20  36  58  83 109 136 169 208 253 308
#     4   9  19  34  53  78 106 135 168 211 262 311
#     4   9  16  29  49  70  94 129 174 215 251 301
#     4   9  18  33  54  76 100 135 173 208 251 305
#     4  11  22  35  52  74 103 140 180 223 268 312
#     4  10  20  36  55  76 105 138 174 216 261 311
#
# _framework density 19.206856999999999
#
# number of rings (size 3 to 8) (size 9 to 14) (size 15 to 20)
#    0.000    2.429    0.000    2.571    0.000    5.143 
#    0.000    5.000    0.000    8.143    0.000    0.000 
#    0.000    0.000    0.000    0.000    0.000    0.000 
#
# Total GULP energy -347035.950340 kJ/mol
# GULP energy per Si atom -12394.141084 kJ/mol
# Density = 1.916314 g / cm^3
# Si number density = 19.206857 Si / 1000 Ang^3
#
#
#
# Elastic Constant Matrix: (Units=GPa)
#
#
# Indices 1 2 3 4 5 6 
#
# 1 104.0514 25.8361 26.8576 0.0000 14.3084 0.0000
# 2 25.8361 41.5593 25.2636 0.0000 5.3827 0.0000
# 3 26.8576 25.2636 80.0717 0.0000 19.8687 0.0000
# 4 0.0000 0.0000 0.0000 28.2998 0.0000 4.8699
# 5 14.3084 5.3827 19.8687 0.0000 27.6849 0.0000
# 6 0.0000 0.0000 0.0000 4.8699 0.0000 26.5036
#
#
#
# Elastic Compliance Matrix: (Units=1/GPa)
#
#
# Indices 1 2 3 4 5 6 
#
# 1 0.012022 -0.006327 -0.000973 0.000000 -0.004285 0.000000
# 2 -0.006327 0.033133 -0.009179 0.000000 0.003416 0.000000
# 3 -0.000973 -0.009179 0.018425 0.000000 -0.010935 0.000000
# 4 0.000000 0.000000 0.000000 0.036490 0.000000 -0.006705
# 5 -0.004285 0.003416 -0.010935 0.000000 0.045519 0.000000
# 6 0.000000 0.000000 0.000000 -0.006705 0.000000 0.038963
#
#
# Mechanical properties :
#
#
# Convention : Reuss Voigt Hill
#
# Bulk Modulus (GPa) = 32.65713 42.39966 37.52840
# Shear Modulus (GPa) = 21.95706 26.34600 24.15153
#
# Velocity S-wave (km/s) = 3.38478 3.70766 3.54989
# Velocity P-wave (km/s) = 5.68466 6.36020 6.03190
#
# Compressibility (1/GPa) = 0.03062118
#
# Stress axis : x y z
#
# Youngs Moduli (GPa) = 83.18041 30.18141 54.27486
#
# Poissons Ratio (x) = 0.19097 0.05280
# Poissons Ratio (y) = 0.52631 0.49820
# Poissons Ratio (z) = 0.08092 0.27704
#
# Static dielectric constant tensor:
#      x y z
#    x 4.192590 0.000000 0.219840 
#    y 0.000000 3.318410 0.000000 
#    z 0.219840 0.000000 3.546220 
# 
# 
# High freq. dielectric constant tensor:
#      x y z
#    x 1.755990 0.000000 0.010470 
#    y 0.000000 1.726240 0.000000 
#    z 0.010470 0.000000 1.736770 
# 
# From -- ./inp_files/314396.got.cif
#   From: 2010.06.25/outbox.cif.g09.slc.cpg/sg12_158_cif.got.tgz:314396.got - 2010.06.28 00:19:55.
