data_PCOD8100794
_publ_section_title
;
Structure prediction by ZEFSAII (Michael W. Deem and Ramdas Pophale) SiO2 
 PCOD8100794
Probable space group: C 2/M
;
_chemical_formula_sum "Si O2"
_cell_formula_units_Z 40
_cell_length_a 14.652527
_cell_length_b 8.980766
_cell_length_c 20.186184
_cell_angle_alpha 90.000000
_cell_angle_beta 55.843668
_cell_angle_gamma 90.000000
_cell_volume 2198.126696
_symmetry_space_group_name_H-M "C 2/M"
_symmetry_group_IT_number 12
_symmetry_cell_setting 'monoclinic'
loop_
_space_group_symop_operation_xyz
x,y,z
-x,y,-z
-x,-y,-z
x,-y,z
1/2+x,1/2+y,z
1/2-x,1/2+y,-z
1/2-x,1/2-y,-z
1/2+x,1/2-y,z
loop_
_atom_site_type_symbol
_atom_site_label
_atom_site_fract_x
_atom_site_fract_y
_atom_site_fract_z
Si Si1 0.089664 0.327293 0.914343
Si Si2 0.204025 0.826468 0.084279
Si Si3 0.846738 0.325096 0.381725
Si Si4 0.902074 0.175465 0.491796
Si Si5 0.476713 0.176756 0.199889
O O1 0.059536 0.500000 0.922543
O O2 0.211386 0.299151 0.890716
O O3 0.080631 0.262848 0.843900
O O4 0.000000 0.250551 0.000000
O O5 0.094906 0.752122 0.156459
O O6 0.186526 0.000000 0.076208
O O7 0.250000 0.750000 0.000000
O O8 0.859233 0.500000 0.386927
O O9 0.911973 0.247815 0.415305
O O10 0.717678 0.280015 0.430048
O O11 0.902010 0.269689 0.291343
O O12 0.000000 0.235203 0.500000
O O13 0.914149 0.000000 0.478058
O O14 0.491688 0.000000 0.194494
#
# Coordination Sequence:
#
# PCOD8100794 Si02
#       5
#     8   8   8   8   8
#     4   9  17  32  53  73  97 136 176 210 258 313
#     4  11  21  34  54  77 101 135 179 222 265 308
#     4   9  19  34  53  79 108 139 170 213 268 311
#     4   9  18  34  57  81 106 137 175 215 255 310
#     4  10  20  36  54  74 106 141 177 216 259 316
#
# _framework density 18.197313000000001
#
# number of rings (size 3 to 8) (size 9 to 14) (size 15 to 20)
#    0.000    2.400    2.000    0.600    0.000    2.800 
#    0.000    7.000    0.000    0.000    0.000    0.000 
#    0.000    0.000    0.000    0.000    0.000    0.000 
#
# Total GULP energy -247963.523451 kJ/mol
# GULP energy per Si atom -12398.176173 kJ/mol
# Density = 1.815589 g / cm^3
# Si number density = 18.197313 Si / 1000 Ang^3
#
#
#
# Elastic Constant Matrix: (Units=GPa)
#
#
# Indices 1 2 3 4 5 6 
#
# 1 136.2154 27.8955 88.4252 0.0000 14.8524 0.0000
# 2 27.8955 31.6272 39.2066 0.0000 2.2010 0.0001
# 3 88.4252 39.2066 173.6010 0.0000 15.2446 0.0000
# 4 0.0000 0.0000 0.0000 26.2811 0.0000 -2.0523
# 5 14.8524 2.2010 15.2446 0.0000 27.9175 0.0000
# 6 0.0000 0.0001 0.0000 -2.0523 0.0000 27.7605
#
#
#
# Elastic Compliance Matrix: (Units=1/GPa)
#
#
# Indices 1 2 3 4 5 6 
#
# 1 0.011590 -0.004213 -0.004663 0.000000 -0.003287 0.000000
# 2 -0.004213 0.045556 -0.008428 0.000000 0.003252 0.000000
# 3 -0.004663 -0.008428 0.010255 0.000000 -0.002454 0.000000
# 4 0.000000 0.000000 0.000000 0.038271 0.000000 0.002829
# 5 -0.003287 0.003252 -0.002454 0.000000 0.038652 0.000000
# 6 0.000000 0.000000 0.000000 0.002829 0.000000 0.036232
#
#
# Mechanical properties :
#
#
# Convention : Reuss Voigt Hill
#
# Bulk Modulus (GPa) = 30.49557 72.49979 51.49768
# Shear Modulus (GPa) = 22.11473 28.78625 25.45049
#
# Velocity S-wave (km/s) = 3.48986 3.98162 3.74382
# Velocity P-wave (km/s) = 5.74748 7.81442 6.85925
#
# Compressibility (1/GPa) = 0.03279165
#
# Stress axis : x y z
#
# Youngs Moduli (GPa) = 86.28429 21.95117 97.51776
#
# Poissons Ratio (x) = 0.09247 0.45474
# Poissons Ratio (y) = 0.36349 0.82190
# Poissons Ratio (z) = 0.40236 0.18501
#
# Static dielectric constant tensor:
#      x y z
#    x 3.202640 0.000000 0.156260 
#    y 0.000000 3.153100 0.000000 
#    z 0.156260 0.000000 3.511980 
# 
# 
# High freq. dielectric constant tensor:
#      x y z
#    x 1.715560 0.000000 0.002700 
#    y 0.000000 1.681260 0.000000 
#    z 0.002700 0.000000 1.708340 
# 
# From -- ./inp_files/203281.got.cif
#   From: 2010.06.25/outbox.cif.g09.slc.cpg/sg12_102_cif.got.tgz:203281.got - 2010.06.28 00:19:55.
