data_PCOD8100280
_publ_section_title
;
Structure prediction by ZEFSAII (Michael W. Deem and Ramdas Pophale) SiO2 
 PCOD8100280
Probable space group: C 2/M
;
_chemical_formula_sum "Si O2"
_cell_formula_units_Z 56
_cell_length_a 20.456986
_cell_length_b 8.833952
_cell_length_c 17.690325
_cell_angle_alpha 90.000000
_cell_angle_beta 63.291573
_cell_angle_gamma 90.000000
_cell_volume 2855.830334
_symmetry_space_group_name_H-M "C 2/M"
_symmetry_group_IT_number 12
_symmetry_cell_setting 'monoclinic'
loop_
_space_group_symop_operation_xyz
x,y,z
-x,y,-z
-x,-y,-z
x,-y,z
1/2+x,1/2+y,z
1/2-x,1/2+y,-z
1/2-x,1/2-y,-z
1/2+x,1/2-y,z
loop_
_atom_site_type_symbol
_atom_site_label
_atom_site_fract_x
_atom_site_fract_y
_atom_site_fract_z
Si Si1 0.567626 0.678668 0.684001
Si Si2 0.174395 0.679106 0.511888
Si Si3 0.083109 0.821194 0.970121
Si Si4 0.841278 0.180069 0.220116
Si Si5 0.913312 0.324331 0.751558
Si Si6 0.318436 0.178771 0.662647
Si Si7 0.172209 0.674789 0.053382
O O1 0.576268 0.500000 0.669361
O O2 0.605709 0.760026 0.593815
O O3 0.605475 0.736870 0.741089
O O4 0.483200 0.722589 0.732417
O O5 0.180926 0.500000 0.516846
O O6 0.250000 0.750000 0.500000
O O7 0.159053 0.727291 0.433307
O O8 0.130087 0.759728 0.875070
O O9 0.090817 0.000000 0.975607
O O10 0.110648 0.745228 0.032061
O O11 0.000000 0.772325 0.000000
O O12 0.760872 0.248836 0.276145
O O13 0.840618 0.000000 0.220204
O O14 0.936835 0.500000 0.734233
O O15 0.878876 0.264306 0.690776
O O16 0.852529 0.300035 0.847583
O O17 0.311457 0.000000 0.673469
O O18 0.180406 0.500000 0.029578
O O19 0.250000 0.750000 0.000000
#
# Coordination Sequence:
#
# PCOD8100280 Si02
#       7
#     8   8   8   8   8   8   8
#     4  11  22  38  61  87 119 154 191 239 294 349
#     4  11  21  37  61  88 117 150 194 242 290 345
#     4  10  20  35  58  86 116 153 198 243 291 351
#     4   9  17  33  57  82 109 150 198 236 278 345
#     4  10  22  40  60  84 115 154 197 238 285 346
#     4   9  18  35  59  81 107 150 198 235 275 342
#     4  11  23  39  61  86 119 157 198 247 297 351
#
# _framework density 19.609006999999998
#
# number of rings (size 3 to 8) (size 9 to 14) (size 15 to 20)
#    0.000    1.857    1.429    3.000    0.000    5.429 
#    0.000    5.714    0.000    0.000    0.000    0.000 
#    0.000    0.000    0.000    0.000    0.000    0.000 
#
# Total GULP energy -347281.399194 kJ/mol
# GULP energy per Si atom -12402.907114 kJ/mol
# Density = 1.956438 g / cm^3
# Si number density = 19.609007 Si / 1000 Ang^3
#
#
#
# Elastic Constant Matrix: (Units=GPa)
#
#
# Indices 1 2 3 4 5 6 
#
# 1 115.1726 27.3083 24.2980 0.0001 12.2353 0.0002
# 2 27.3083 51.3718 24.3843 0.0004 2.0995 0.0010
# 3 24.2980 24.3843 88.5419 0.0000 10.5765 -0.0002
# 4 0.0001 0.0004 0.0000 27.3496 0.0000 -1.9211
# 5 12.2353 2.0995 10.5765 0.0000 41.8146 0.0001
# 6 0.0002 0.0010 -0.0002 -1.9211 0.0001 31.8559
#
#
#
# Elastic Compliance Matrix: (Units=1/GPa)
#
#
# Indices 1 2 3 4 5 6 
#
# 1 0.010345 -0.004821 -0.001215 0.000000 -0.002478 0.000000
# 2 -0.004821 0.024648 -0.005657 0.000000 0.001604 -0.000001
# 3 -0.001215 -0.005657 0.013517 0.000000 -0.002779 0.000000
# 4 0.000000 0.000000 0.000000 0.036719 0.000000 0.002214
# 5 -0.002478 0.001604 -0.002779 0.000000 0.025263 0.000000
# 6 0.000000 -0.000001 0.000000 0.002214 0.000000 0.031525
#
#
# Mechanical properties :
#
#
# Convention : Reuss Voigt Hill
#
# Bulk Modulus (GPa) = 39.80146 45.22971 42.51559
# Shear Modulus (GPa) = 28.77220 32.14375 30.45798
#
# Velocity S-wave (km/s) = 3.83468 4.05314 3.94542
# Velocity P-wave (km/s) = 6.32044 6.70968 6.51797
#
# Compressibility (1/GPa) = 0.02512471
#
# Stress axis : x y z
#
# Youngs Moduli (GPa) = 96.66146 40.57084 73.97866
#
# Poissons Ratio (x) = 0.19560 0.08990
# Poissons Ratio (y) = 0.46603 0.41847
# Poissons Ratio (z) = 0.11747 0.22949
#
# Static dielectric constant tensor:
#      x y z
#    x 3.739970 0.000000 0.132840 
#    y 0.000000 3.317250 0.000000 
#    z 0.132840 0.000000 3.849460 
# 
# 
# High freq. dielectric constant tensor:
#      x y z
#    x 1.774980 0.000000 0.003100 
#    y 0.000000 1.735830 0.000000 
#    z 0.003100 0.000000 1.780350 
# 
# From -- ./inp_files/275254.got.cif
#   From: 2010.06.25/outbox.cif.g09.slc.cpg/sg12_138_cif.got.tgz:275254.got - 2010.06.28 00:19:55.
