data_PCOD8100787
_publ_section_title
;
Structure prediction by ZEFSAII (Michael W. Deem and Ramdas Pophale) SiO2 
 PCOD8100787
Probable space group: C 2/M
;
_chemical_formula_sum "Si O2"
_cell_formula_units_Z 56
_cell_length_a 14.430926
_cell_length_b 9.113482
_cell_length_c 29.553839
_cell_angle_alpha 90.000000
_cell_angle_beta 126.517520
_cell_angle_gamma 90.000000
_cell_volume 3123.725536
_symmetry_space_group_name_H-M "C 2/M"
_symmetry_group_IT_number 12
_symmetry_cell_setting 'monoclinic'
loop_
_space_group_symop_operation_xyz
x,y,z
-x,y,-z
-x,-y,-z
x,-y,z
1/2+x,1/2+y,z
1/2-x,1/2+y,-z
1/2-x,1/2-y,-z
1/2+x,1/2-y,z
loop_
_atom_site_type_symbol
_atom_site_label
_atom_site_fract_x
_atom_site_fract_y
_atom_site_fract_z
Si Si1 0.786370 0.828130 0.231403
Si Si2 0.093272 0.828206 0.063152
Si Si3 0.946434 0.172074 0.845690
Si Si4 0.826078 0.827829 0.140337
Si Si5 0.460990 0.325729 0.358729
Si Si6 0.304823 0.169420 0.558715
Si Si7 0.594826 0.667712 0.559972
O O1 0.665859 0.749726 0.207486
O O2 0.835409 0.787613 0.196112
O O3 0.879813 0.771480 0.294558
O O4 0.763966 0.000000 0.229741
O O5 0.044320 0.788464 0.098539
O O6 0.213509 0.749080 0.087001
O O7 0.115892 0.000000 0.064714
O O8 0.000000 0.771617 0.000000
O O9 0.060280 0.230165 0.852765
O O10 0.931614 0.000000 0.833488
O O11 0.811402 0.000000 0.128442
O O12 0.478552 0.500000 0.361676
O O13 0.582954 0.247814 0.389868
O O14 0.405490 0.267661 0.389570
O O15 0.250000 0.250000 0.500000
O O16 0.220688 0.184200 0.576633
O O17 0.327339 0.000000 0.552398
O O18 0.500000 0.747179 0.500000
O O19 0.555105 0.500000 0.553157
#
# Coordination Sequence:
#
# PCOD8100787 Si02
#       7
#     8   8   8   8   8   8   8
#     4   9  19  34  52  73  98 128 165 206 245 292
#     4   9  18  32  49  73 103 134 170 208 244 288
#     4   9  18  33  52  71  99 135 165 203 251 293
#     4   9  18  33  51  73 101 134 167 203 252 296
#     4  10  20  36  54  73  99 130 162 201 247 293
#     4  11  21  34  53  75  98 127 161 197 241 294
#     4   9  17  32  52  70  94 128 157 186 236 296
#
# _framework density 17.927313000000002
#
# number of rings (size 3 to 8) (size 9 to 14) (size 15 to 20)
#    0.000    2.571    1.429    0.429    0.000    3.143 
#    0.000    2.143    0.000    0.000    0.000    0.000 
#    0.000    0.000    0.000    0.000    0.000    0.000 
#
# Total GULP energy -347169.178765 kJ/mol
# GULP energy per Si atom -12398.899242 kJ/mol
# Density = 1.788651 g / cm^3
# Si number density = 17.927313 Si / 1000 Ang^3
#
#
#
# Elastic Constant Matrix: (Units=GPa)
#
#
# Indices 1 2 3 4 5 6 
#
# 1 135.1015 35.8682 74.5083 0.0000 16.3752 0.0000
# 2 35.8682 39.6615 43.9232 0.0000 9.7670 0.0000
# 3 74.5083 43.9232 170.4616 0.0000 19.3112 0.0000
# 4 0.0000 0.0000 0.0000 25.5540 0.0000 9.7772
# 5 16.3752 9.7670 19.3112 0.0000 24.7380 0.0000
# 6 0.0000 0.0000 0.0000 9.7772 0.0000 27.9176
#
#
#
# Elastic Compliance Matrix: (Units=1/GPa)
#
#
# Indices 1 2 3 4 5 6 
#
# 1 0.010926 -0.005991 -0.002941 0.000000 -0.002571 0.000000
# 2 -0.005991 0.039881 -0.006936 0.000000 -0.006365 0.000000
# 3 -0.002941 -0.006936 0.009224 0.000000 -0.002515 0.000000
# 4 0.000000 0.000000 0.000000 0.045188 0.000000 -0.015825
# 5 -0.002571 -0.006365 -0.002515 0.000000 0.046602 0.000000
# 6 0.000000 0.000000 0.000000 -0.015825 0.000000 0.041362
#
#
# Mechanical properties :
#
#
# Convention : Reuss Voigt Hill
#
# Bulk Modulus (GPa) = 35.34270 72.64711 53.99491
# Shear Modulus (GPa) = 21.33560 28.37025 24.85293
#
# Velocity S-wave (km/s) = 3.45355 3.98240 3.72737
# Velocity P-wave (km/s) = 5.97159 7.85857 6.97915
#
# Compressibility (1/GPa) = 0.02829439
#
# Stress axis : x y z
#
# Youngs Moduli (GPa) = 91.52635 25.07489 108.41254
#
# Poissons Ratio (x) = 0.15022 0.31880
# Poissons Ratio (y) = 0.54834 0.75199
# Poissons Ratio (z) = 0.26914 0.17393
#
# Static dielectric constant tensor:
#      x y z
#    x 3.484610 0.000000 -0.035530 
#    y 0.000000 3.155320 0.000000 
#    z -0.035530 0.000000 3.457050 
# 
# 
# High freq. dielectric constant tensor:
#      x y z
#    x 1.700450 0.000000 -0.000140 
#    y 0.000000 1.674830 0.000000 
#    z -0.000140 0.000000 1.696810 
# 
# From -- ./inp_files/337876.got.cif
#   From: 2010.06.25/outbox.cif.g09.slc.cpg/sg12_169_cif.got.tgz:337876.got - 2010.06.28 00:19:55.
