data_PCOD8100356
_publ_section_title
;
Structure prediction by ZEFSAII (Michael W. Deem and Ramdas Pophale) SiO2 
 PCOD8100356
Probable space group: C 2/M
;
_chemical_formula_sum "Si O2"
_cell_formula_units_Z 64
_cell_length_a 13.682968
_cell_length_b 16.876675
_cell_length_c 15.402621
_cell_angle_alpha 90.000000
_cell_angle_beta 118.360772
_cell_angle_gamma 90.000000
_cell_volume 3129.908715
_symmetry_space_group_name_H-M "C 2/M"
_symmetry_group_IT_number 12
_symmetry_cell_setting 'monoclinic'
loop_
_space_group_symop_operation_xyz
x,y,z
-x,y,-z
-x,-y,-z
x,-y,z
1/2+x,1/2+y,z
1/2-x,1/2+y,-z
1/2-x,1/2-y,-z
1/2+x,1/2-y,z
loop_
_atom_site_type_symbol
_atom_site_label
_atom_site_fract_x
_atom_site_fract_y
_atom_site_fract_z
Si Si1 0.292709 0.671260 0.203392
Si Si2 0.354883 0.264778 0.732608
Si Si3 0.592701 0.207843 0.856632
Si Si4 0.600413 0.590213 0.600243
Si Si5 0.313453 0.864915 0.583314
Si Si6 0.941310 0.413468 0.307061
Si Si7 0.237154 0.408085 0.626546
Si Si8 0.375440 0.911267 0.979954
O O1 0.238279 0.736338 0.241168
O O2 0.336027 0.714235 0.134690
O O3 0.392304 0.632754 0.302511
O O4 0.205833 0.604337 0.135756
O O5 0.470656 0.241165 0.825828
O O6 0.341019 0.222075 0.632845
O O7 0.336895 0.359748 0.716190
O O8 0.596980 0.152841 0.774713
O O9 0.642750 0.157193 0.956508
O O10 0.500000 0.628353 0.500000
O O11 0.568693 0.500000 0.605592
O O12 0.719599 0.594459 0.603267
O O13 0.425838 0.916246 0.628086
O O14 0.271772 0.862003 0.467786
O O15 0.904669 0.500000 0.256496
O O16 0.880143 0.398760 0.373223
O O17 0.272147 0.500000 0.630523
O O18 0.351135 0.000000 0.006161
O O19 0.500000 0.906872 0.000000
#
# Coordination Sequence:
#
# PCOD8100356 Si02
#       8
#     8   8   8   8   8   8   8   8
#     4  11  22  42  62  92 126 161 204 250 306 369
#     4  10  22  39  57  88 122 161 206 248 308 367
#     4  11  22  40  63  89 124 160 198 248 312 370
#     4  10  22  39  59  87 125 168 210 253 300 355
#     4  10  21  36  58  83 118 162 212 263 309 352
#     4  10  20  35  58  88 119 155 200 259 314 363
#     4  11  21  36  56  84 121 164 212 253 301 366
#     4  11  23  41  69  99 121 151 199 261 321 370
#
# _framework density 20.447880999999999
#
# number of rings (size 3 to 8) (size 9 to 14) (size 15 to 20)
#    0.000    1.500    2.500    3.000    1.750    1.000 
#    2.250    0.625    0.000    0.000    0.000    1.750 
#    0.000    0.000    0.000    0.000    0.000    0.000 
#
# Total GULP energy -396656.939406 kJ/mol
# GULP energy per Si atom -12395.529356 kJ/mol
# Density = 2.040134 g / cm^3
# Si number density = 20.447881 Si / 1000 Ang^3
#
#
#
# Elastic Constant Matrix: (Units=GPa)
#
#
# Indices 1 2 3 4 5 6 
#
# 1 55.8448 40.9061 24.3971 0.0000 -0.8892 0.0000
# 2 40.9061 97.7529 45.4331 0.0000 10.5159 0.0000
# 3 24.3971 45.4331 108.1010 0.0000 10.7322 0.0000
# 4 0.0000 0.0000 0.0000 4.8873 0.0000 -5.9223
# 5 -0.8892 10.5159 10.7322 0.0000 28.6051 0.0000
# 6 0.0000 0.0000 0.0000 -5.9223 0.0000 27.7025
#
#
#
# Elastic Compliance Matrix: (Units=1/GPa)
#
#
# Indices 1 2 3 4 5 6 
#
# 1 0.026871 -0.010900 -0.002040 0.000000 0.005608 0.000000
# 2 -0.010900 0.017350 -0.004326 0.000000 -0.005094 0.000000
# 3 -0.002040 -0.004326 0.011818 0.000000 -0.002907 0.000000
# 4 0.000000 0.000000 0.000000 0.276147 0.000000 0.059035
# 5 0.005608 -0.005094 -0.002907 0.000000 0.038096 0.000000
# 6 0.000000 0.000000 0.000000 0.059035 0.000000 0.048718
#
#
# Mechanical properties :
#
#
# Convention : Reuss Voigt Hill
#
# Bulk Modulus (GPa) = 46.49726 53.68571 50.09149
# Shear Modulus (GPa) = 10.85300 22.30316 16.57808
#
# Velocity S-wave (km/s) = 2.30633 3.30621 2.85045
# Velocity P-wave (km/s) = 5.46635 6.39426 5.94843
#
# Compressibility (1/GPa) = 0.02150664
#
# Stress axis : x y z
#
# Youngs Moduli (GPa) = 37.21424 57.63798 84.61754
#
# Poissons Ratio (x) = 0.62824 0.17265
# Poissons Ratio (y) = 0.40562 0.36607
# Poissons Ratio (z) = 0.07593 0.24935
#
# Static dielectric constant tensor:
#      x y z
#    x 3.649970 0.000000 0.016540 
#    y 0.000000 3.733310 0.000000 
#    z 0.016540 0.000000 3.633380 
# 
# 
# High freq. dielectric constant tensor:
#      x y z
#    x 1.794900 0.000000 -0.002000 
#    y 0.000000 1.802650 0.000000 
#    z -0.002000 0.000000 1.785690 
# 
# From -- ./inp_files/216409.got.cif
#   From: 2010.06.25/outbox.cif.g09.slc.cpg/sg12_109_cif.got.tgz:216409.got - 2010.06.28 00:19:55.
