data_PCOD8100967
_publ_section_title
;
Structure prediction by ZEFSAII (Michael W. Deem and Ramdas Pophale) SiO2 
 PCOD8100967
Probable space group: C 2/M
;
_chemical_formula_sum "Si O2"
_cell_formula_units_Z 56
_cell_length_a 22.177424
_cell_length_b 23.253927
_cell_length_c 18.358627
_cell_angle_alpha 90.000000
_cell_angle_beta 161.475950
_cell_angle_gamma 90.000000
_cell_volume 3007.935318
_symmetry_space_group_name_H-M "C 2/M"
_symmetry_group_IT_number 12
_symmetry_cell_setting 'monoclinic'
loop_
_space_group_symop_operation_xyz
x,y,z
-x,y,-z
-x,-y,-z
x,-y,z
1/2+x,1/2+y,z
1/2-x,1/2+y,-z
1/2-x,1/2-y,-z
1/2+x,1/2-y,z
loop_
_atom_site_type_symbol
_atom_site_label
_atom_site_fract_x
_atom_site_fract_y
_atom_site_fract_z
Si Si1 0.923823 0.500000 0.527905
Si Si2 0.996916 0.878760 0.859260
Si Si3 0.899398 0.805916 0.313921
Si Si4 0.125582 0.325049 0.704755
Si Si5 0.813148 0.000000 0.886276
Si Si6 0.925525 0.189222 0.639320
Si Si7 0.414218 0.881891 0.585905
Si Si8 0.989075 0.303499 0.798002
O O1 0.745161 0.500000 0.266513
O O2 0.915134 0.449382 0.576174
O O3 0.120615 0.500000 0.710886
O O4 0.960431 0.866000 0.731476
O O5 0.803954 0.862660 0.681695
O O6 0.155611 0.833182 0.066998
O O7 0.063364 0.943993 0.951023
O O8 0.946843 0.739070 0.371283
O O9 0.000000 0.835535 0.500000
O O10 0.984289 0.828519 0.334834
O O11 0.672246 0.813822 0.058469
O O12 0.000000 0.357538 0.500000
O O13 0.080283 0.355361 0.728063
O O14 0.021472 0.246915 0.783991
O O15 0.701405 0.203635 0.371983
O O16 0.466420 0.862199 0.726505
#
# Coordination Sequence:
#
# PCOD8100967 Si02
#       8
#     4   8   8   8   4   8   8   8
#     4  11  23  37  53  80 115 148 182 222 266 317
#     4  11  22  36  55  75 104 149 189 223 266 314
#     4  11  22  34  54  81 112 144 175 226 286 329
#     4  11  21  32  48  76 109 143 184 223 265 318
#     4  11  23  37  53  80 115 148 182 222 266 317
#     4  10  20  36  56  79 106 142 188 229 270 326
#     4  11  22  36  55  75 104 149 189 223 266 314
#     4  10  20  36  56  79 106 142 188 229 270 326
#
# _framework density 18.617422000000001
#
# number of rings (size 3 to 8) (size 9 to 14) (size 15 to 20)
#    0.000    1.286    4.286    2.571    0.000    3.429 
#    0.000    2.857    0.000    0.000    0.000    2.000 
#    0.000    4.571    0.000    0.000    0.000    0.000 
#
# Total GULP energy -346958.680283 kJ/mol
# GULP energy per Si atom -12391.381439 kJ/mol
# Density = 1.857505 g / cm^3
# Si number density = 18.617422 Si / 1000 Ang^3
#
#
#
# Elastic Constant Matrix: (Units=GPa)
#
#
# Indices 1 2 3 4 5 6 
#
# 1 40.4158 18.1488 20.8628 0.0009 -8.6932 0.0004
# 2 18.1488 71.4097 8.2046 0.0000 -11.6589 0.0000
# 3 20.8628 8.2046 122.8714 0.0019 -6.9718 0.0012
# 4 0.0009 0.0000 0.0019 26.4276 0.0008 -1.2736
# 5 -8.6932 -11.6589 -6.9718 0.0008 26.9861 0.0006
# 6 0.0004 0.0000 0.0012 -1.2736 0.0006 14.2244
#
#
#
# Elastic Compliance Matrix: (Units=1/GPa)
#
#
# Indices 1 2 3 4 5 6 
#
# 1 0.031290 -0.006431 -0.004536 -0.000001 0.006130 -0.000001
# 2 -0.006431 0.016439 0.000284 0.000000 0.005104 0.000000
# 3 -0.004536 0.000284 0.008945 -0.000001 0.000972 -0.000001
# 4 -0.000001 0.000000 -0.000001 0.038003 -0.000002 0.003403
# 5 0.006130 0.005104 0.000972 -0.000002 0.041487 -0.000002
# 6 -0.000001 0.000000 -0.000001 0.003403 -0.000002 0.070606
#
#
# Mechanical properties :
#
#
# Convention : Reuss Voigt Hill
#
# Bulk Modulus (GPa) = 28.32135 36.56992 32.44563
# Shear Modulus (GPa) = 20.84158 26.02635 23.43396
#
# Velocity S-wave (km/s) = 3.34947 3.74298 3.55168
# Velocity P-wave (km/s) = 5.49581 6.19398 5.85531
#
# Compressibility (1/GPa) = 0.03530905
#
# Stress axis : x y z
#
# Youngs Moduli (GPa) = 31.95883 60.83199 111.79499
#
# Poissons Ratio (x) = 0.39118 0.50707
# Poissons Ratio (y) = 0.20551 -0.03173
# Poissons Ratio (z) = 0.14496 -0.01726
#
# Static dielectric constant tensor:
#      x y z
#    x 3.473320 0.000000 0.062260 
#    y 0.000000 3.325510 0.000000 
#    z 0.062260 0.000000 3.753260 
# 
# 
# High freq. dielectric constant tensor:
#      x y z
#    x 1.704670 0.000000 0.019760 
#    y 0.000000 1.689770 0.000000 
#    z 0.019760 0.000000 1.741410 
# 
# From -- ./inp_files/286378.got.cif
#   From: 2010.06.25/outbox.cif.g09.slc.cpg/sg12_144_cif.got.tgz:286378.got - 2010.06.28 00:19:55.
