data_PCOD8100556
_publ_section_title
;
Structure prediction by ZEFSAII (Michael W. Deem and Ramdas Pophale) SiO2 
 PCOD8100556
Probable space group: C 2/M
;
_chemical_formula_sum "Si O2"
_cell_formula_units_Z 48
_cell_length_a 19.469830
_cell_length_b 13.921825
_cell_length_c 19.600696
_cell_angle_alpha 90.000000
_cell_angle_beta 153.531251
_cell_angle_gamma 90.000000
_cell_volume 2368.000724
_symmetry_space_group_name_H-M "C 2/M"
_symmetry_group_IT_number 12
_symmetry_cell_setting 'monoclinic'
loop_
_space_group_symop_operation_xyz
x,y,z
-x,y,-z
-x,-y,-z
x,-y,z
1/2+x,1/2+y,z
1/2-x,1/2+y,-z
1/2-x,1/2-y,-z
1/2+x,1/2-y,z
loop_
_atom_site_type_symbol
_atom_site_label
_atom_site_fract_x
_atom_site_fract_y
_atom_site_fract_z
Si Si1 0.861566 0.611354 0.577766
Si Si2 0.441471 0.279884 0.024864
Si Si3 0.449990 0.393395 0.523443
Si Si4 0.514975 0.386390 0.222971
Si Si5 0.401668 0.263886 0.238433
Si Si6 0.596783 0.894156 0.230270
O O1 0.893039 0.500000 0.591074
O O2 0.686978 0.637437 0.402436
O O3 0.898559 0.640864 0.687977
O O4 0.985299 0.673944 0.647335
O O5 0.505016 0.360959 0.133574
O O6 0.502196 0.175158 0.097787
O O7 0.500000 0.306050 0.000000
O O8 0.257945 0.272055 0.871417
O O9 0.500000 0.335707 0.500000
O O10 0.519789 0.500000 0.584305
O O11 0.521955 0.350624 0.654207
O O12 0.268946 0.396108 0.358550
O O13 0.475134 0.500000 0.197636
O O14 0.396757 0.313349 0.157905
O O15 0.521384 0.000000 0.157715
#
# Coordination Sequence:
#
# PCOD8100556 Si02
#       6
#     8   8   8   8   8   8
#     4  10  21  39  67  95 117 148 204 267 313 353
#     4  12  27  42  58  90 132 173 205 246 311 372
#     4  10  20  35  59  90 122 159 202 252 310 367
#     4  11  23  42  67  93 122 162 211 260 304 363
#     4  12  22  39  64  94 123 161 209 254 307 367
#     4  10  20  38  61  88 123 158 197 254 311 363
#
# _framework density 20.270264999999998
#
# number of rings (size 3 to 8) (size 9 to 14) (size 15 to 20)
#    0.000    1.167    3.333    3.500    0.000    2.667 
#    0.000    0.000    0.000    2.500    0.000    0.000 
#    0.000    0.000    0.000    0.000    0.000    0.000 
#
# Total GULP energy -297421.546626 kJ/mol
# GULP energy per Si atom -12392.564443 kJ/mol
# Density = 2.022413 g / cm^3
# Si number density = 20.270265 Si / 1000 Ang^3
#
#
#
# Elastic Constant Matrix: (Units=GPa)
#
#
# Indices 1 2 3 4 5 6 
#
# 1 127.7433 46.3625 45.4720 0.0051 11.1045 -0.0002
# 2 46.3625 82.3283 31.3365 0.0095 4.9916 -0.0013
# 3 45.4720 31.3365 66.4758 0.0121 8.5364 -0.0020
# 4 0.0051 0.0095 0.0121 35.7352 0.0027 -3.0136
# 5 11.1045 4.9916 8.5364 0.0027 32.5782 -0.0010
# 6 -0.0002 -0.0013 -0.0020 -3.0136 -0.0010 15.4947
#
#
#
# Elastic Compliance Matrix: (Units=1/GPa)
#
#
# Indices 1 2 3 4 5 6 
#
# 1 0.011537 -0.004231 -0.005666 0.000001 -0.001800 -0.000001
# 2 -0.004231 0.016361 -0.004844 -0.000002 0.000205 0.000000
# 3 -0.005666 -0.004844 0.021586 -0.000005 -0.002982 0.000001
# 4 0.000001 -0.000002 -0.000005 0.028450 -0.000001 0.005533
# 5 -0.001800 0.000205 -0.002982 -0.000001 0.032059 0.000001
# 6 -0.000001 0.000000 0.000001 0.005533 0.000001 0.065614
#
#
# Mechanical properties :
#
#
# Convention : Reuss Voigt Hill
#
# Bulk Modulus (GPa) = 50.00034 58.09884 54.04959
# Shear Modulus (GPa) = 23.61190 26.98671 25.29930
#
# Velocity S-wave (km/s) = 3.41670 3.65272 3.53668
# Velocity P-wave (km/s) = 6.34709 6.82013 6.58785
#
# Compressibility (1/GPa) = 0.01999986
#
# Stress axis : x y z
#
# Youngs Moduli (GPa) = 86.67540 61.12174 46.32722
#
# Poissons Ratio (x) = 0.25862 0.26250
# Poissons Ratio (y) = 0.36675 0.22443
# Poissons Ratio (z) = 0.49112 0.29610
#
# Static dielectric constant tensor:
#      x y z
#    x 3.993240 0.000000 -0.018370 
#    y 0.000000 3.813390 -0.000010 
#    z -0.018370 -0.000010 3.558030 
# 
# 
# High freq. dielectric constant tensor:
#      x y z
#    x 1.790400 0.000000 0.000450 
#    y 0.000000 1.796760 0.000000 
#    z 0.000450 0.000000 1.786420 
# 
# From -- ./inp_files/104929.got.cif
#   From: 2010.06.25/outbox.cif.g09.slc.cpg/sg12_53_cif.got.tgz:104929.got - 2010.06.28 00:19:55.
