data_PCOD8100473
_publ_section_title
;
Structure prediction by ZEFSAII (Michael W. Deem and Ramdas Pophale) SiO2 
 PCOD8100473
Probable space group: C 2/M
;
_chemical_formula_sum "Si O2"
_cell_formula_units_Z 64
_cell_length_a 22.786698
_cell_length_b 8.677933
_cell_length_c 20.995329
_cell_angle_alpha 90.000000
_cell_angle_beta 128.341177
_cell_angle_gamma 90.000000
_cell_volume 3256.264054
_symmetry_space_group_name_H-M "C 2/M"
_symmetry_group_IT_number 12
_symmetry_cell_setting 'monoclinic'
loop_
_space_group_symop_operation_xyz
x,y,z
-x,y,-z
-x,-y,-z
x,-y,z
1/2+x,1/2+y,z
1/2-x,1/2+y,-z
1/2-x,1/2-y,-z
1/2+x,1/2-y,z
loop_
_atom_site_type_symbol
_atom_site_label
_atom_site_fract_x
_atom_site_fract_y
_atom_site_fract_z
Si Si1 0.344419 0.177300 0.274001
Si Si2 0.178319 0.174626 0.868659
Si Si3 0.364189 0.819838 0.546618
Si Si4 0.008620 0.173798 0.580652
Si Si5 0.669018 0.675249 0.001729
Si Si6 0.199974 0.320198 0.239362
Si Si7 0.293268 0.680169 0.619007
Si Si8 0.087723 0.673446 0.053559
O O1 0.354877 0.210835 0.206058
O O2 0.422673 0.214481 0.359000
O O3 0.277731 0.278824 0.257605
O O4 0.324383 0.000000 0.272087
O O5 0.137375 0.202392 0.908912
O O6 0.167911 0.000000 0.837619
O O7 0.265748 0.205376 0.938237
O O8 0.434373 0.729195 0.566135
O O9 0.348941 0.770006 0.609124
O O10 0.292580 0.777235 0.454992
O O11 0.382068 0.000000 0.556777
O O12 0.000000 0.179646 0.500000
O O13 0.025913 0.000000 0.615372
O O14 0.698230 0.500000 0.028338
O O15 0.603841 0.708450 0.007510
O O16 0.200653 0.500000 0.256344
O O17 0.189161 0.226929 0.297092
O O18 0.130838 0.275232 0.146842
O O19 0.307565 0.500000 0.619257
O O20 0.113366 0.500000 0.053535
O O21 0.000000 0.682573 0.000000
#
# Coordination Sequence:
#
# PCOD8100473 Si02
#       8
#     8   8   8   8   8   8   8   8
#     4  12  24  38  60  89 120 156 199 247 299 357
#     4  10  20  36  58  85 117 152 191 239 294 351
#     4  10  21  39  62  89 122 158 201 246 292 349
#     4  11  24  41  62  89 123 161 199 243 299 356
#     4  10  20  35  59  87 114 148 192 241 293 350
#     4  11  22  38  61  87 118 154 198 250 298 353
#     4  10  21  38  63  91 120 159 201 245 293 350
#     4  10  22  40  60  83 115 157 198 243 297 354
#
# _framework density 19.654426999999998
#
# number of rings (size 3 to 8) (size 9 to 14) (size 15 to 20)
#    0.000    1.500    1.250    4.125    0.000    6.750 
#    2.250    0.000    0.000    0.000    0.000    0.000 
#    0.000    0.000    0.000    0.000    0.000    0.000 
#
# Total GULP energy -396880.471635 kJ/mol
# GULP energy per Si atom -12402.514739 kJ/mol
# Density = 1.960969 g / cm^3
# Si number density = 19.654427 Si / 1000 Ang^3
#
#
#
# Elastic Constant Matrix: (Units=GPa)
#
#
# Indices 1 2 3 4 5 6 
#
# 1 88.2183 23.3836 53.8986 0.0000 -7.2074 0.0000
# 2 23.3836 60.4130 26.5976 0.0000 -7.5813 0.0000
# 3 53.8986 26.5976 95.0495 0.0000 -10.3862 0.0000
# 4 0.0000 0.0000 0.0000 31.0684 0.0000 -5.7679
# 5 -7.2074 -7.5813 -10.3862 0.0000 31.6897 0.0000
# 6 0.0000 0.0000 0.0000 -5.7679 0.0000 41.7191
#
#
#
# Elastic Compliance Matrix: (Units=1/GPa)
#
#
# Indices 1 2 3 4 5 6 
#
# 1 0.017749 -0.002751 -0.009257 0.000000 0.000345 0.000000
# 2 -0.002751 0.019563 -0.003600 0.000000 0.002875 0.000000
# 3 -0.009257 -0.003600 0.017065 0.000000 0.002626 0.000000
# 4 0.000000 0.000000 0.000000 0.033035 0.000000 0.004567
# 5 0.000345 0.002875 0.002626 0.000000 0.033183 0.000000
# 6 0.000000 0.000000 0.000000 0.004567 0.000000 0.024601
#
#
# Mechanical properties :
#
#
# Convention : Reuss Voigt Hill
#
# Bulk Modulus (GPa) = 43.17829 50.16006 46.66918
# Shear Modulus (GPa) = 27.15440 30.21551 28.68495
#
# Velocity S-wave (km/s) = 3.72101 3.92514 3.82444
# Velocity P-wave (km/s) = 6.36220 6.79108 6.58014
#
# Compressibility (1/GPa) = 0.02315979
#
# Stress axis : x y z
#
# Youngs Moduli (GPa) = 56.34233 51.11596 58.60108
#
# Poissons Ratio (x) = 0.14062 0.54247
# Poissons Ratio (y) = 0.15500 0.21098
# Poissons Ratio (z) = 0.52156 0.18403
#
# Static dielectric constant tensor:
#      x y z
#    x 3.513870 0.000000 -0.199900 
#    y 0.000000 3.696830 0.000000 
#    z -0.199900 0.000000 3.616260 
# 
# 
# High freq. dielectric constant tensor:
#      x y z
#    x 1.761960 0.000000 -0.016570 
#    y 0.000000 1.777630 0.000000 
#    z -0.016570 0.000000 1.764440 
# 
# From -- ./inp_files/324303.got.cif
#   From: 2010.06.25/outbox.cif.g09.slc.cpg/sg12_163_cif.got.tgz:324303.got - 2010.06.28 00:19:55.
