data_PCOD8100092
_publ_section_title
;
Structure prediction by ZEFSAII (Michael W. Deem and Ramdas Pophale) SiO2 
 PCOD8100092
Probable space group: C 2/M
;
_chemical_formula_sum "Si O2"
_cell_formula_units_Z 56
_cell_length_a 21.027722
_cell_length_b 13.916374
_cell_length_c 12.384840
_cell_angle_alpha 90.000000
_cell_angle_beta 124.576899
_cell_angle_gamma 90.000000
_cell_volume 2984.016721
_symmetry_space_group_name_H-M "C 2/M"
_symmetry_group_IT_number 12
_symmetry_cell_setting 'monoclinic'
loop_
_space_group_symop_operation_xyz
x,y,z
-x,y,-z
-x,-y,-z
x,-y,z
1/2+x,1/2+y,z
1/2-x,1/2+y,-z
1/2-x,1/2-y,-z
1/2+x,1/2-y,z
loop_
_atom_site_type_symbol
_atom_site_label
_atom_site_fract_x
_atom_site_fract_y
_atom_site_fract_z
Si Si1 0.086453 0.707559 0.621148
Si Si2 0.573606 0.888872 0.832812
Si Si3 0.663115 0.109664 0.130903
Si Si4 0.148282 0.892585 0.373252
Si Si5 0.585199 0.797981 0.248237
Si Si6 0.680379 0.890153 0.525741
Si Si7 0.335089 0.390206 0.357895
O O1 0.102456 0.661532 0.752214
O O2 0.147491 0.663101 0.597739
O O3 0.101402 0.822319 0.638446
O O4 0.000000 0.684831 0.500000
O O5 0.498562 0.836118 0.804655
O O6 0.553864 0.000000 0.790887
O O7 0.642054 0.877974 0.985169
O O8 0.606173 0.176535 0.145626
O O9 0.751663 0.139281 0.231467
O O10 0.650224 0.000000 0.157061
O O11 0.086170 0.817336 0.266600
O O12 0.227513 0.880441 0.383532
O O13 0.164798 0.872252 0.514393
O O14 0.114805 0.000000 0.325012
O O15 0.649882 0.844311 0.386399
O O16 0.653285 0.000000 0.503263
O O17 0.355908 0.500000 0.348853
#
# Coordination Sequence:
#
# PCOD8100092 Si02
#       7
#     8   8   8   8   8   8   8
#     4  12  23  36  54  81 117 149 180 223 279 337
#     4  11  24  38  54  81 116 149 182 223 277 338
#     4  10  21  37  59  84 109 143 187 232 275 323
#     4  10  20  35  57  87 114 141 183 233 278 319
#     4  12  19  34  59  84 113 142 180 228 278 327
#     4  11  20  31  54  85 113 142 174 223 280 330
#     4  10  20  37  58  80 109 146 190 233 270 319
#
# _framework density 18.766649999999998
#
# number of rings (size 3 to 8) (size 9 to 14) (size 15 to 20)
#    0.000    1.143    4.286    3.429    0.000    2.571 
#    0.000    0.714    0.000    2.571    0.000    0.000 
#    0.000    0.000    0.000    0.000    0.000    0.000 
#
# Total GULP energy -347327.341823 kJ/mol
# GULP energy per Si atom -12404.547922 kJ/mol
# Density = 1.872394 g / cm^3
# Si number density = 18.766650 Si / 1000 Ang^3
#
#
#
# Elastic Constant Matrix: (Units=GPa)
#
#
# Indices 1 2 3 4 5 6 
#
# 1 63.9049 42.5632 33.4586 0.0000 -12.8499 0.0000
# 2 42.5632 127.9418 43.1213 0.0000 -5.7900 0.0000
# 3 33.4586 43.1213 71.9142 0.0000 -19.2457 0.0000
# 4 0.0000 0.0000 0.0000 26.5611 0.0000 0.9654
# 5 -12.8499 -5.7900 -19.2457 0.0000 19.3995 0.0000
# 6 0.0000 0.0000 0.0000 0.9654 0.0000 29.4993
#
#
#
# Elastic Compliance Matrix: (Units=1/GPa)
#
#
# Indices 1 2 3 4 5 6 
#
# 1 0.024117 -0.005819 -0.005338 0.000000 0.008942 0.000000
# 2 -0.005819 0.011428 -0.005805 0.000000 -0.006203 0.000000
# 3 -0.005338 -0.005805 0.025133 0.000000 0.019665 0.000000
# 4 0.000000 0.000000 0.000000 0.037694 0.000000 -0.001234
# 5 0.008942 -0.006203 0.019665 0.000000 0.075129 0.000000
# 6 0.000000 0.000000 0.000000 -0.001234 0.000000 0.033940
#
#
# Mechanical properties :
#
#
# Convention : Reuss Voigt Hill
#
# Bulk Modulus (GPa) = 37.37936 55.78302 46.58119
# Shear Modulus (GPa) = 19.97749 24.73316 22.35533
#
# Velocity S-wave (km/s) = 3.26624 3.63427 3.45516
# Velocity P-wave (km/s) = 5.84685 6.88474 6.38691
#
# Compressibility (1/GPa) = 0.02675273
#
# Stress axis : x y z
#
# Youngs Moduli (GPa) = 41.46435 87.50630 39.78909
#
# Poissons Ratio (x) = 0.50923 0.21240
# Poissons Ratio (y) = 0.24130 0.23097
# Poissons Ratio (z) = 0.22134 0.50796
#
# Static dielectric constant tensor:
#      x y z
#    x 3.329000 0.000000 -0.098150 
#    y 0.000000 3.780240 0.000000 
#    z -0.098150 0.000000 3.380060 
# 
# 
# High freq. dielectric constant tensor:
#      x y z
#    x 1.720600 0.000000 -0.004720 
#    y 0.000000 1.740860 0.000000 
#    z -0.004720 0.000000 1.712080 
# 
# From -- ./inp_files/156727.got.cif
#   From: 2010.06.25/outbox.cif.g09.slc.cpg/sg12_79_cif.got.tgz:156727.got - 2010.06.28 00:19:55.
