data_PCOD8100490
_publ_section_title
;
Structure prediction by ZEFSAII (Michael W. Deem and Ramdas Pophale) SiO2 
 PCOD8100490
Probable space group: C 2/M
;
_chemical_formula_sum "Si O2"
_cell_formula_units_Z 64
_cell_length_a 18.671328
_cell_length_b 9.287718
_cell_length_c 31.543389
_cell_angle_alpha 90.000000
_cell_angle_beta 37.193145
_cell_angle_gamma 90.000000
_cell_volume 3306.675857
_symmetry_space_group_name_H-M "C 2/M"
_symmetry_group_IT_number 12
_symmetry_cell_setting 'monoclinic'
loop_
_space_group_symop_operation_xyz
x,y,z
-x,y,-z
-x,-y,-z
x,-y,z
1/2+x,1/2+y,z
1/2-x,1/2+y,-z
1/2-x,1/2-y,-z
1/2+x,1/2-y,z
loop_
_atom_site_type_symbol
_atom_site_label
_atom_site_fract_x
_atom_site_fract_y
_atom_site_fract_z
Si Si1 0.180580 0.333954 0.312294
Si Si2 0.790893 0.668178 0.416102
Si Si3 0.910095 0.335796 0.447351
Si Si4 0.637189 0.332872 0.700999
Si Si5 0.632666 0.663959 0.164418
Si Si6 0.467300 0.338239 0.061314
Si Si7 0.249410 0.166900 0.197219
Si Si8 0.274890 0.661329 0.029592
O O1 0.203311 0.500000 0.289268
O O2 0.271823 0.283627 0.305466
O O3 0.194901 0.238480 0.264200
O O4 0.047997 0.310850 0.391999
O O5 0.775726 0.500000 0.414918
O O6 0.880931 0.701294 0.412173
O O7 0.662058 0.733192 0.487168
O O8 0.843458 0.739563 0.349676
O O9 0.872961 0.500000 0.474480
O O10 0.655426 0.500000 0.680702
O O11 0.504699 0.304154 0.780443
O O12 0.664582 0.500000 0.137051
O O13 0.657917 0.691976 0.202015
O O14 0.715308 0.768789 0.098728
O O15 0.414036 0.500000 0.081448
O O16 0.375647 0.235592 0.127540
O O17 0.500000 0.273934 0.000000
O O18 0.584261 0.342092 0.034090
O O19 0.270069 0.000000 0.196770
O O20 0.224320 0.500000 0.049035
O O21 0.250000 0.750000 0.000000
#
# Coordination Sequence:
#
# PCOD8100490 Si02
#       8
#     8   8   8   8   8   8   8   8
#     4  10  22  39  59  83 113 152 195 234 278 341
#     4  10  20  35  59  88 115 147 186 234 283 331
#     4   9  19  37  60  85 113 149 192 232 275 332
#     4  10  22  39  58  81 114 154 190 228 280 342
#     4  10  22  40  59  83 115 152 192 234 287 343
#     4  10  21  40  62  84 111 149 195 235 281 344
#     4  11  23  37  59  87 116 148 187 243 293 333
#     4  11  24  40  61  86 115 151 189 236 288 343
#
# _framework density 19.354783999999999
#
# number of rings (size 3 to 8) (size 9 to 14) (size 15 to 20)
#    0.000    1.875    1.250    1.875    1.750    4.250 
#    0.000    2.500    0.000    0.000    0.000    0.000 
#    0.000    0.000    0.000    0.000    0.000    0.000 
#
# Total GULP energy -396937.339456 kJ/mol
# GULP energy per Si atom -12404.291858 kJ/mol
# Density = 1.931073 g / cm^3
# Si number density = 19.354784 Si / 1000 Ang^3
#
#
#
# Elastic Constant Matrix: (Units=GPa)
#
#
# Indices 1 2 3 4 5 6 
#
# 1 83.1793 33.6711 21.7123 0.0068 -14.1122 0.0327
# 2 33.6711 97.7362 41.0471 0.0025 1.6457 0.0149
# 3 21.7123 41.0471 65.1824 0.0045 -8.7370 0.0052
# 4 0.0068 0.0025 0.0045 37.1351 -0.0027 6.9974
# 5 -14.1122 1.6457 -8.7370 -0.0027 32.0285 -0.0018
# 6 0.0327 0.0149 0.0052 6.9974 -0.0018 28.1882
#
#
#
# Elastic Compliance Matrix: (Units=1/GPa)
#
#
# Indices 1 2 3 4 5 6 
#
# 1 0.015477 -0.004979 -0.001112 0.000001 0.006772 -0.000015
# 2 -0.004979 0.015840 -0.009051 0.000001 -0.005477 -0.000001
# 3 -0.001112 -0.009051 0.022221 -0.000002 0.006036 0.000003
# 4 0.000001 0.000001 -0.000002 0.028250 0.000002 -0.007013
# 5 0.006772 -0.005477 0.006036 0.000002 0.036134 -0.000004
# 6 -0.000015 -0.000001 0.000003 -0.007013 -0.000004 0.037217
#
#
# Mechanical properties :
#
#
# Convention : Reuss Voigt Hill
#
# Bulk Modulus (GPa) = 43.00317 48.77320 45.88819
# Shear Modulus (GPa) = 25.88348 29.44819 27.66583
#
# Velocity S-wave (km/s) = 3.66090 3.90487 3.78485
# Velocity P-wave (km/s) = 6.33531 6.75166 6.54680
#
# Compressibility (1/GPa) = 0.02325410
#
# Stress axis : x y z
#
# Youngs Moduli (GPa) = 64.61240 63.13082 45.00318
#
# Poissons Ratio (x) = 0.31431 0.05006
# Poissons Ratio (y) = 0.32169 0.40731
# Poissons Ratio (z) = 0.07188 0.57137
#
# Static dielectric constant tensor:
#      x y z
#    x 3.599630 -0.000280 -0.085410 
#    y -0.000280 -2.062040 0.001900 
#    z -0.085410 0.001900 3.367080 
# 
# 
# High freq. dielectric constant tensor:
#      x y z
#    x 1.758190 0.000000 -0.004670 
#    y 0.000000 1.756270 0.000000 
#    z -0.004670 0.000000 1.753760 
# 
# From -- ./inp_files/378079.got.cif
#   From: 2010.06.25/outbox.cif.g09.slc.cpg/sg12_190_cif.got.tgz:378079.got - 2010.06.28 00:19:55.
