data_PCOD8100864
_publ_section_title
;
Structure prediction by ZEFSAII (Michael W. Deem and Ramdas Pophale) SiO2 
 PCOD8100864
Probable space group: C 2/M
;
_chemical_formula_sum "Si O2"
_cell_formula_units_Z 64
_cell_length_a 29.519822
_cell_length_b 9.373501
_cell_length_c 25.154597
_cell_angle_alpha 90.000000
_cell_angle_beta 149.688893
_cell_angle_gamma 90.000000
_cell_volume 3512.868714
_symmetry_space_group_name_H-M "C 2/M"
_symmetry_group_IT_number 12
_symmetry_cell_setting 'monoclinic'
loop_
_space_group_symop_operation_xyz
x,y,z
-x,y,-z
-x,-y,-z
x,-y,z
1/2+x,1/2+y,z
1/2-x,1/2+y,-z
1/2-x,1/2-y,-z
1/2+x,1/2-y,z
loop_
_atom_site_type_symbol
_atom_site_label
_atom_site_fract_x
_atom_site_fract_y
_atom_site_fract_z
Si Si1 0.623340 0.338450 0.477289
Si Si2 0.508746 0.833231 0.727630
Si Si3 0.909354 0.163568 0.435814
Si Si4 0.708329 0.833428 0.908853
Si Si5 0.340554 0.335104 0.950021
Si Si6 0.182944 0.666224 0.289526
Si Si7 0.733821 0.667289 0.240784
Si Si8 0.500843 0.833552 0.840356
O O1 0.615000 0.500000 0.448499
O O2 0.573839 0.239770 0.385248
O O3 0.577056 0.319583 0.487544
O O4 0.727678 0.292604 0.587089
O O5 0.603388 0.793353 0.795943
O O6 0.511281 0.778729 0.790821
O O7 0.489202 0.000000 0.705849
O O8 0.832291 0.266172 0.336309
O O9 0.000000 0.214615 0.500000
O O10 0.885174 0.000000 0.396826
O O11 0.758664 0.789504 0.905694
O O12 0.718329 0.000000 0.931942
O O13 0.750000 0.750000 0.000000
O O14 0.363319 0.500000 0.981800
O O15 0.315231 0.302028 0.864086
O O16 0.429207 0.246544 0.051665
O O17 0.187157 0.500000 0.277337
O O18 0.176509 0.758165 0.229221
O O19 0.098949 0.702667 0.241225
O O20 0.742098 0.500000 0.261169
O O21 0.522146 0.000000 0.866227
#
# Coordination Sequence:
#
# PCOD8100864 Si02
#       8
#     8   8   8   8   8   8   8   8
#     4   9  19  35  54  78 108 142 179 220 269 321
#     4  10  21  35  54  82 112 141 179 223 267 321
#     4   9  19  36  55  78 109 145 185 226 267 317
#     4  10  20  36  55  77 110 146 178 219 269 318
#     4  10  22  37  54  81 115 146 177 221 274 326
#     4   9  20  40  60  78 108 143 181 231 276 317
#     4  10  21  36  55  81 111 143 181 223 273 326
#     4  10  21  38  59  81 105 142 188 229 269 319
#
# _framework density 18.218727999999999
#
# number of rings (size 3 to 8) (size 9 to 14) (size 15 to 20)
#    0.000    2.375    1.250    1.125    1.750    5.750 
#    0.000    2.500    0.000    0.000    0.000    0.000 
#    0.000    0.000    0.000    0.000    0.000    0.000 
#
# Total GULP energy -396879.782101 kJ/mol
# GULP energy per Si atom -12402.493191 kJ/mol
# Density = 1.817726 g / cm^3
# Si number density = 18.218728 Si / 1000 Ang^3
#
#
#
# Elastic Constant Matrix: (Units=GPa)
#
#
# Indices 1 2 3 4 5 6 
#
# 1 76.8655 33.4957 49.5868 0.0000 14.9921 0.0000
# 2 33.4957 62.5545 57.2747 0.0000 -4.5855 0.0000
# 3 49.5868 57.2747 118.8704 0.0000 -2.6844 0.0000
# 4 0.0000 0.0000 0.0000 37.5692 0.0000 -2.5078
# 5 14.9921 -4.5855 -2.6844 0.0000 27.0302 0.0000
# 6 0.0000 0.0000 0.0000 -2.5078 0.0000 26.0521
#
#
#
# Elastic Compliance Matrix: (Units=1/GPa)
#
#
# Indices 1 2 3 4 5 6 
#
# 1 0.023430 -0.007845 -0.006332 0.000000 -0.014955 0.000000
# 2 -0.007845 0.031565 -0.011743 0.000000 0.008540 0.000000
# 3 -0.006332 -0.011743 0.016784 0.000000 0.003186 0.000000
# 4 0.000000 0.000000 0.000000 0.026790 0.000000 0.002579
# 5 -0.014955 0.008540 0.003186 0.000000 0.047055 0.000000
# 6 0.000000 0.000000 0.000000 0.002579 0.000000 0.038633
#
#
# Mechanical properties :
#
#
# Convention : Reuss Voigt Hill
#
# Bulk Modulus (GPa) = 50.15326 59.88942 55.02134
# Shear Modulus (GPa) = 20.59799 25.99253 23.29526
#
# Velocity S-wave (km/s) = 3.36608 3.78126 3.57969
# Velocity P-wave (km/s) = 6.53418 7.21164 6.88125
#
# Compressibility (1/GPa) = 0.01993889
#
# Stress axis : x y z
#
# Youngs Moduli (GPa) = 42.68097 31.68081 59.58063
#
# Poissons Ratio (x) = 0.24853 0.37724
# Poissons Ratio (y) = 0.33482 0.69968
# Poissons Ratio (z) = 0.27024 0.37204
#
# Static dielectric constant tensor:
#      x y z
#    x 3.537260 0.000000 0.086260 
#    y 0.000000 3.316370 0.000000 
#    z 0.086260 0.000000 3.266960 
# 
# 
# High freq. dielectric constant tensor:
#      x y z
#    x 1.713650 0.000000 0.005170 
#    y 0.000000 1.702700 0.000000 
#    z 0.005170 0.000000 1.704620 
# 
# From -- ./inp_files/353554.got.cif
#   From: 2010.06.25/outbox.cif.g09.slc.cpg/sg12_177_cif.got.tgz:353554.got - 2010.06.28 00:19:55.
