data_PCOD8100431
_publ_section_title
;
Structure prediction by ZEFSAII (Michael W. Deem and Ramdas Pophale) SiO2 
 PCOD8100431
Probable space group: C 2/M
;
_chemical_formula_sum "Si O2"
_cell_formula_units_Z 56
_cell_length_a 30.123278
_cell_length_b 9.187926
_cell_length_c 10.981749
_cell_angle_alpha 90.000000
_cell_angle_beta 113.417089
_cell_angle_gamma 90.000000
_cell_volume 2789.084918
_symmetry_space_group_name_H-M "C 2/M"
_symmetry_group_IT_number 12
_symmetry_cell_setting 'monoclinic'
loop_
_space_group_symop_operation_xyz
x,y,z
-x,y,-z
-x,-y,-z
x,-y,z
1/2+x,1/2+y,z
1/2-x,1/2+y,-z
1/2-x,1/2-y,-z
1/2+x,1/2-y,z
loop_
_atom_site_type_symbol
_atom_site_label
_atom_site_fract_x
_atom_site_fract_y
_atom_site_fract_z
Si Si1 0.173332 0.834003 0.082483
Si Si2 0.128265 0.834051 0.288908
Si Si3 0.779635 0.336677 0.195935
Si Si4 0.977104 0.672444 0.349036
Si Si5 0.205141 0.335803 0.504350
Si Si6 0.872528 0.673145 0.165555
Si Si7 0.029466 0.329096 0.155545
O O1 0.165424 0.828376 0.217494
O O2 0.226905 0.765514 0.112308
O O3 0.169640 0.000000 0.032436
O O4 0.131501 0.737098 0.974835
O O5 0.154171 0.743237 0.423109
O O6 0.078149 0.761493 0.197865
O O7 0.119349 0.000000 0.321214
O O8 0.777195 0.500000 0.142598
O O9 0.790492 0.339018 0.348366
O O10 0.825334 0.258692 0.181652
O O11 0.979377 0.500000 0.357837
O O12 0.921620 0.727904 0.283118
O O13 0.002984 0.722991 0.251700
O O14 0.000000 0.736942 0.500000
O O15 0.204531 0.500000 0.450294
O O16 0.250000 0.250000 0.500000
O O17 0.873134 0.500000 0.161083
O O18 0.041038 0.500000 0.175049
O O19 0.000000 0.293413 0.000000
#
# Coordination Sequence:
#
# PCOD8100431 Si02
#       7
#     8   8   8   8   8   8   8
#     4  10  20  37  55  79 118 152 181 228 288 343
#     4  11  23  38  58  85 118 156 196 237 290 351
#     4   9  19  35  56  82 114 149 186 229 281 342
#     4   9  19  35  57  84 114 147 189 241 295 348
#     4  11  21  37  59  85 118 155 193 237 288 342
#     4  10  20  35  59  85 108 143 193 236 279 342
#     4  10  21  38  61  89 116 147 198 256 298 347
#
# _framework density 20.078271000000001
#
# number of rings (size 3 to 8) (size 9 to 14) (size 15 to 20)
#    0.000    2.000    1.429    2.143    2.000    2.571 
#    0.000    2.143    0.000    0.857    0.000    0.000 
#    0.000    0.000    0.000    0.000    0.000    0.000 
#
# Total GULP energy -347049.200568 kJ/mol
# GULP energy per Si atom -12394.614306 kJ/mol
# Density = 2.003257 g / cm^3
# Si number density = 20.078271 Si / 1000 Ang^3
#
#
#
# Elastic Constant Matrix: (Units=GPa)
#
#
# Indices 1 2 3 4 5 6 
#
# 1 101.0778 32.2714 46.5595 0.0000 17.5594 0.0000
# 2 32.2714 66.0431 32.0470 0.0000 17.2551 0.0000
# 3 46.5595 32.0470 120.6958 0.0000 23.3940 0.0000
# 4 0.0000 0.0000 0.0000 26.2110 0.0000 5.1307
# 5 17.5594 17.2551 23.3940 0.0000 41.1218 0.0000
# 6 0.0000 0.0000 0.0000 5.1307 0.0000 23.6290
#
#
#
# Elastic Compliance Matrix: (Units=1/GPa)
#
#
# Indices 1 2 3 4 5 6 
#
# 1 0.013230 -0.004231 -0.003630 0.000000 -0.001809 0.000000
# 2 -0.004231 0.019803 -0.002659 0.000000 -0.004990 0.000000
# 3 -0.003630 -0.002659 0.011099 0.000000 -0.003648 0.000000
# 4 0.000000 0.000000 0.000000 0.039845 0.000000 -0.008652
# 5 -0.001809 -0.004990 -0.003648 0.000000 0.029260 0.000000
# 6 0.000000 0.000000 0.000000 -0.008652 0.000000 0.044200
#
#
# Mechanical properties :
#
#
# Convention : Reuss Voigt Hill
#
# Bulk Modulus (GPa) = 43.30251 56.61920 49.96085
# Shear Modulus (GPa) = 26.85666 29.98827 28.42246
#
# Velocity S-wave (km/s) = 3.66129 3.86886 3.76651
# Velocity P-wave (km/s) = 6.28387 6.94391 6.62212
#
# Compressibility (1/GPa) = 0.02309335
#
# Stress axis : x y z
#
# Youngs Moduli (GPa) = 75.58319 50.49743 90.10176
#
# Poissons Ratio (x) = 0.21365 0.32704
# Poissons Ratio (y) = 0.31979 0.23955
# Poissons Ratio (z) = 0.27434 0.13426
#
# Static dielectric constant tensor:
#      x y z
#    x 4.310770 0.000000 -0.258230 
#    y 0.000000 3.518580 0.000000 
#    z -0.258230 0.000000 4.032360 
# 
# 
# High freq. dielectric constant tensor:
#      x y z
#    x 1.791210 0.000000 0.007980 
#    y 0.000000 1.749950 0.000000 
#    z 0.007980 0.000000 1.795350 
# 
# From -- ./inp_files/180731.got.cif
#   From: 2010.06.25/outbox.cif.g09.slc.cpg/sg12_91_cif.got.tgz:180731.got - 2010.06.28 00:19:55.
