data_PCOD8100071
_publ_section_title
;
Structure prediction by ZEFSAII (Michael W. Deem and Ramdas Pophale) SiO2 
 PCOD8100071
Probable space group: C 2/M
;
_chemical_formula_sum "Si O2"
_cell_formula_units_Z 56
_cell_length_a 16.053876
_cell_length_b 8.982044
_cell_length_c 22.765401
_cell_angle_alpha 90.000000
_cell_angle_beta 121.403841
_cell_angle_gamma 90.000000
_cell_volume 2801.831325
_symmetry_space_group_name_H-M "C 2/M"
_symmetry_group_IT_number 12
_symmetry_cell_setting 'monoclinic'
loop_
_space_group_symop_operation_xyz
x,y,z
-x,y,-z
-x,-y,-z
x,-y,z
1/2+x,1/2+y,z
1/2-x,1/2+y,-z
1/2-x,1/2-y,-z
1/2+x,1/2-y,z
loop_
_atom_site_type_symbol
_atom_site_label
_atom_site_fract_x
_atom_site_fract_y
_atom_site_fract_z
Si Si1 0.437313 0.175987 0.420942
Si Si2 0.007198 0.670212 0.071249
Si Si3 0.229424 0.328694 0.349533
Si Si4 0.794092 0.668173 0.791332
Si Si5 0.361842 0.172656 0.198761
Si Si6 0.460698 0.175355 0.658770
Si Si7 0.165616 0.825555 0.932252
O O1 0.500000 0.223952 0.500000
O O2 0.329146 0.238579 0.389735
O O3 0.493198 0.243726 0.384164
O O4 0.427236 0.000000 0.411353
O O5 0.976646 0.500000 0.074203
O O6 0.114667 0.704329 0.133760
O O7 0.937967 0.783762 0.079044
O O8 0.000000 0.703226 0.000000
O O9 0.253690 0.500000 0.372391
O O10 0.179308 0.313176 0.267196
O O11 0.148659 0.265309 0.366413
O O12 0.756984 0.500000 0.789919
O O13 0.710321 0.787432 0.774460
O O14 0.470446 0.212558 0.260348
O O15 0.329926 0.273065 0.132866
O O16 0.352473 0.000000 0.178412
O O17 0.454505 0.000000 0.647927
O O18 0.182601 0.000000 0.940537
O O19 0.250000 0.750000 0.000000
#
# Coordination Sequence:
#
# PCOD8100071 Si02
#       7
#     8   8   8   8   8   8   8
#     4  10  21  39  61  87 122 160 202 254 308 362
#     4  10  21  38  59  83 115 155 197 243 300 363
#     4  10  20  36  59  85 119 160 205 248 297 365
#     4  10  20  35  57  86 119 154 196 249 303 356
#     4  11  21  37  62  86 116 157 200 243 300 365
#     4   9  19  37  60  87 120 161 200 242 304 369
#     4  12  25  40  58  83 116 152 198 250 302 359
#
# _framework density 19.986927000000001
#
# number of rings (size 3 to 8) (size 9 to 14) (size 15 to 20)
#    0.000    1.714    1.429    3.429    0.000    5.143 
#    0.000    3.571    0.000    0.000    0.000    0.000 
#    0.000    0.000    0.000    0.000    0.000    0.000 
#
# Total GULP energy -347208.676835 kJ/mol
# GULP energy per Si atom -12400.309887 kJ/mol
# Density = 1.994144 g / cm^3
# Si number density = 19.986927 Si / 1000 Ang^3
#
#
#
# Elastic Constant Matrix: (Units=GPa)
#
#
# Indices 1 2 3 4 5 6 
#
# 1 146.6919 34.6481 59.5943 0.0000 5.4123 0.0000
# 2 34.6481 68.4333 39.8086 0.0000 -0.2740 0.0000
# 3 59.5943 39.8086 112.9219 0.0000 7.4393 0.0000
# 4 0.0000 0.0000 0.0000 62.3272 0.0000 25.4536
# 5 5.4123 -0.2740 7.4393 0.0000 27.1706 0.0000
# 6 0.0000 0.0000 0.0000 25.4536 0.0000 50.0689
#
#
#
# Elastic Compliance Matrix: (Units=1/GPa)
#
#
# Indices 1 2 3 4 5 6 
#
# 1 0.008958 -0.002286 -0.003872 0.000000 -0.000747 0.000000
# 2 -0.002286 0.019073 -0.005662 0.000000 0.002198 0.000000
# 3 -0.003872 -0.005662 0.013084 0.000000 -0.002868 0.000000
# 4 0.000000 0.000000 0.000000 0.020248 0.000000 -0.010294
# 5 -0.000747 0.002198 -0.002868 0.000000 0.037761 0.000000
# 6 0.000000 0.000000 0.000000 -0.010294 0.000000 0.025205
#
#
# Mechanical properties :
#
#
# Convention : Reuss Voigt Hill
#
# Bulk Modulus (GPa) = 57.22774 66.23879 61.73326
# Shear Modulus (GPa) = 32.51096 40.84642 36.67869
#
# Velocity S-wave (km/s) = 4.03750 4.52559 4.28849
# Velocity P-wave (km/s) = 7.10141 7.77952 7.44818
#
# Compressibility (1/GPa) = 0.01747404
#
# Stress axis : x y z
#
# Youngs Moduli (GPa) = 111.63701 52.43119 76.42687
#
# Poissons Ratio (x) = 0.11984 0.29595
# Poissons Ratio (y) = 0.25516 0.43275
# Poissons Ratio (z) = 0.43230 0.29688
#
# Static dielectric constant tensor:
#      x y z
#    x 3.840230 0.000000 -0.100980 
#    y 0.000000 3.194600 0.000000 
#    z -0.100980 0.000000 3.686280 
# 
# 
# High freq. dielectric constant tensor:
#      x y z
#    x 1.790910 0.000000 -0.001740 
#    y 0.000000 1.756730 0.000000 
#    z -0.001740 0.000000 1.787230 
# 
# From -- ./inp_files/339072.got.cif
#   From: 2010.06.25/outbox.cif.g09.slc.cpg/sg12_170_cif.got.tgz:339072.got - 2010.06.28 00:19:55.
