data_PCOD8100951
_publ_section_title
;
Structure prediction by ZEFSAII (Michael W. Deem and Ramdas Pophale) SiO2 
 PCOD8100951
Probable space group: C 2/M
;
_chemical_formula_sum "Si O2"
_cell_formula_units_Z 64
_cell_length_a 25.877763
_cell_length_b 8.907052
_cell_length_c 14.560360
_cell_angle_alpha 90.000000
_cell_angle_beta 75.367784
_cell_angle_gamma 90.000000
_cell_volume 3247.237155
_symmetry_space_group_name_H-M "C 2/M"
_symmetry_group_IT_number 12
_symmetry_cell_setting 'monoclinic'
loop_
_space_group_symop_operation_xyz
x,y,z
-x,y,-z
-x,-y,-z
x,-y,z
1/2+x,1/2+y,z
1/2-x,1/2+y,-z
1/2-x,1/2-y,-z
1/2+x,1/2-y,z
loop_
_atom_site_type_symbol
_atom_site_label
_atom_site_fract_x
_atom_site_fract_y
_atom_site_fract_z
Si Si1 0.801414 0.819697 0.528474
Si Si2 0.901151 0.165342 0.369083
Si Si3 0.162199 0.836255 0.788944
Si Si4 0.988483 0.677028 0.230605
Si Si5 0.075304 0.669570 0.910882
Si Si6 0.405437 0.827340 0.897630
Si Si7 0.219296 0.678696 0.274637
Si Si8 0.703660 0.321136 0.084549
O O1 0.750000 0.750000 0.500000
O O2 0.856671 0.763925 0.456289
O O3 0.809988 0.759754 0.627829
O O4 0.796056 0.000000 0.526545
O O5 0.874496 0.157744 0.282526
O O6 0.956666 0.257912 0.333465
O O7 0.917011 0.000000 0.397078
O O8 0.135514 0.733304 0.877756
O O9 0.219641 0.775293 0.735390
O O10 0.169339 0.000000 0.830769
O O11 0.982760 0.500000 0.238118
O O12 0.964164 0.745487 0.145895
O O13 0.052034 0.718482 0.201591
O O14 0.078990 0.500000 0.878091
O O15 0.058885 0.686254 0.024585
O O16 0.355152 0.717064 0.927207
O O17 0.385829 0.000000 0.894187
O O18 0.208375 0.500000 0.280901
O O19 0.202252 0.748450 0.185825
O O20 0.711976 0.500000 0.084726
O O21 0.750000 0.250000 0.000000
#
# Coordination Sequence:
#
# PCOD8100951 Si02
#       8
#     8   8   8   8   8   8   8   8
#     4  11  21  35  56  85 120 157 194 236 290 349
#     4   9  18  33  50  76 114 150 181 222 278 337
#     4   9  17  30  47  72 108 145 179 220 271 331
#     4   9  18  32  53  81 110 145 187 232 284 343
#     4   9  17  29  49  78 109 142 182 227 276 332
#     4  10  20  36  56  78 109 146 188 238 288 337
#     4  11  22  38  58  83 115 151 193 241 292 345
#     4  12  26  43  61  84 113 152 198 240 287 339
#
# _framework density 19.709061999999999
#
# number of rings (size 3 to 8) (size 9 to 14) (size 15 to 20)
#    0.000    2.000    1.250    3.000    0.000    6.500 
#    0.000    0.000    0.000    4.500    0.000    5.250 
#    0.000    0.000    0.000    0.000    0.000    0.000 
#
# Total GULP energy -396429.356574 kJ/mol
# GULP energy per Si atom -12388.417393 kJ/mol
# Density = 1.966420 g / cm^3
# Si number density = 19.709062 Si / 1000 Ang^3
#
#
#
# Elastic Constant Matrix: (Units=GPa)
#
#
# Indices 1 2 3 4 5 6 
#
# 1 68.7433 31.0525 43.0175 0.0000 -28.9322 0.0000
# 2 31.0525 71.8150 43.4793 0.0000 -13.3767 0.0000
# 3 43.0175 43.4793 118.2526 0.0000 -26.4550 0.0000
# 4 0.0000 0.0000 0.0000 30.8719 0.0000 -4.2587
# 5 -28.9322 -13.3767 -26.4550 0.0000 40.2671 0.0000
# 6 0.0000 0.0000 0.0000 -4.2587 0.0000 26.0278
#
#
#
# Elastic Compliance Matrix: (Units=1/GPa)
#
#
# Indices 1 2 3 4 5 6 
#
# 1 0.025572 -0.006081 -0.003995 0.000000 0.013729 0.000000
# 2 -0.006081 0.019483 -0.005253 0.000000 -0.001348 0.000000
# 3 -0.003995 -0.005253 0.012671 0.000000 0.003709 0.000000
# 4 0.000000 0.000000 0.000000 0.033140 0.000000 0.005422
# 5 0.013729 -0.001348 0.003709 0.000000 0.036687 0.000000
# 6 0.000000 0.000000 0.000000 0.005422 0.000000 0.039308
#
#
# Mechanical properties :
#
#
# Convention : Reuss Voigt Hill
#
# Bulk Modulus (GPa) = 36.94472 54.87882 45.91177
# Shear Modulus (GPa) = 24.20804 28.85080 26.52942
#
# Velocity S-wave (km/s) = 3.50847 3.83016 3.67284
# Velocity P-wave (km/s) = 5.93281 6.88949 6.42897
#
# Compressibility (1/GPa) = 0.02706747
#
# Stress axis : x y z
#
# Youngs Moduli (GPa) = 39.10531 51.32563 78.91976
#
# Poissons Ratio (x) = 0.31212 0.31530
# Poissons Ratio (y) = 0.23781 0.41458
# Poissons Ratio (z) = 0.15623 0.26962
#
# Static dielectric constant tensor:
#      x y z
#    x 3.582470 0.000000 -0.261280 
#    y 0.000000 3.721840 0.000000 
#    z -0.261280 0.000000 3.768320 
# 
# 
# High freq. dielectric constant tensor:
#      x y z
#    x 1.750350 0.000000 -0.026580 
#    y 0.000000 1.759040 0.000000 
#    z -0.026580 0.000000 1.765160 
# 
# From -- ./inp_files/243790.got.cif
#   From: 2010.06.25/outbox.cif.g09.slc.cpg/sg12_122_cif.got.tgz:243790.got - 2010.06.28 00:19:55.
