data_PCOD8100073
_publ_section_title
;
Structure prediction by ZEFSAII (Michael W. Deem and Ramdas Pophale) SiO2 
 PCOD8100073
Probable space group: C 2/M
;
_chemical_formula_sum "Si O2"
_cell_formula_units_Z 56
_cell_length_a 23.055090
_cell_length_b 9.065679
_cell_length_c 14.846728
_cell_angle_alpha 90.000000
_cell_angle_beta 65.002151
_cell_angle_gamma 90.000000
_cell_volume 2812.426784
_symmetry_space_group_name_H-M "C 2/M"
_symmetry_group_IT_number 12
_symmetry_cell_setting 'monoclinic'
loop_
_space_group_symop_operation_xyz
x,y,z
-x,y,-z
-x,-y,-z
x,-y,z
1/2+x,1/2+y,z
1/2-x,1/2+y,-z
1/2-x,1/2-y,-z
1/2+x,1/2-y,z
loop_
_atom_site_type_symbol
_atom_site_label
_atom_site_fract_x
_atom_site_fract_y
_atom_site_fract_z
Si Si1 0.243555 0.669908 0.634596
Si Si2 0.182142 0.675891 0.030991
Si Si3 0.431751 0.675037 0.797133
Si Si4 0.990587 0.671459 0.401057
Si Si5 0.847066 0.670127 0.152024
Si Si6 0.529183 0.673425 0.888174
Si Si7 0.847530 0.672888 0.466299
O O1 0.259569 0.500000 0.607051
O O2 0.219751 0.699255 0.752014
O O3 0.187178 0.720741 0.603239
O O4 0.308621 0.759362 0.576023
O O5 0.187022 0.500000 0.038713
O O6 0.134304 0.743766 0.135783
O O7 0.250000 0.750000 0.000000
O O8 0.158527 0.722283 0.947031
O O9 0.420201 0.500000 0.802313
O O10 0.456030 0.732289 0.684953
O O11 0.484350 0.722837 0.835951
O O12 0.999528 0.500000 0.369687
O O13 0.920379 0.730597 0.418258
O O14 0.000000 0.698300 0.500000
O O15 0.865997 0.500000 0.145620
O O16 0.901172 0.758034 0.170318
O O17 0.537033 0.500000 0.887353
O O18 0.500000 0.735990 0.000000
O O19 0.848289 0.500000 0.481480
#
# Coordination Sequence:
#
# PCOD8100073 Si02
#       7
#     8   8   8   8   8   8   8
#     4   9  18  33  54  80 111 142 179 230 282 336
#     4  11  24  41  60  83 115 155 198 242 292 349
#     4  11  23  40  62  88 119 155 195 242 298 354
#     4  10  22  40  61  85 115 151 196 245 293 347
#     4  10  21  36  57  86 115 150 194 238 289 348
#     4  10  20  35  57  86 120 152 188 238 293 347
#     4   9  18  34  55  80 110 144 182 227 283 341
#
# _framework density 19.911628
#
# number of rings (size 3 to 8) (size 9 to 14) (size 15 to 20)
#    0.000    2.000    1.429    1.714    0.000    5.714 
#    0.000    5.714    0.000    0.000    0.000    0.000 
#    0.000    0.000    0.000    0.000    0.000    0.000 
#
# Total GULP energy -347283.026835 kJ/mol
# GULP energy per Si atom -12402.965244 kJ/mol
# Density = 1.986631 g / cm^3
# Si number density = 19.911628 Si / 1000 Ang^3
#
#
#
# Elastic Constant Matrix: (Units=GPa)
#
#
# Indices 1 2 3 4 5 6 
#
# 1 96.7719 44.5163 42.6161 0.0000 -21.6600 0.0000
# 2 44.5163 58.5894 43.9897 0.0000 -9.0698 -0.0001
# 3 42.6161 43.9897 125.4591 0.0000 -18.5503 0.0000
# 4 0.0000 0.0000 0.0000 35.2840 0.0000 -7.2175
# 5 -21.6600 -9.0698 -18.5503 0.0000 30.6864 0.0000
# 6 0.0000 -0.0001 0.0000 -7.2175 0.0000 30.8637
#
#
#
# Elastic Compliance Matrix: (Units=1/GPa)
#
#
# Indices 1 2 3 4 5 6 
#
# 1 0.018058 -0.011847 -0.000673 0.000000 0.008838 0.000000
# 2 -0.011847 0.031066 -0.007410 0.000000 -0.003659 0.000000
# 3 -0.000673 -0.007410 0.011425 0.000000 0.004241 0.000000
# 4 0.000000 0.000000 0.000000 0.029765 0.000000 0.006961
# 5 0.008838 -0.003659 0.004241 0.000000 0.040308 0.000000
# 6 0.000000 0.000000 0.000000 0.006961 0.000000 0.034028
#
#
# Mechanical properties :
#
#
# Convention : Reuss Voigt Hill
#
# Bulk Modulus (GPa) = 48.33508 60.34051 54.33779
# Shear Modulus (GPa) = 23.65128 29.34671 26.49899
#
# Velocity S-wave (km/s) = 3.45020 3.84324 3.65201
# Velocity P-wave (km/s) = 6.34030 7.07559 6.71801
#
# Compressibility (1/GPa) = 0.02068891
#
# Stress axis : x y z
#
# Youngs Moduli (GPa) = 55.37775 32.18978 87.53092
#
# Poissons Ratio (x) = 0.38134 0.05894
# Poissons Ratio (y) = 0.65604 0.64856
# Poissons Ratio (z) = 0.03729 0.23851
#
# Static dielectric constant tensor:
#      x y z
#    x 3.611980 0.000000 -0.035170 
#    y 0.000000 3.517240 0.000000 
#    z -0.035170 0.000000 3.728850 
# 
# 
# High freq. dielectric constant tensor:
#      x y z
#    x 1.770040 0.000000 -0.008250 
#    y 0.000000 1.768830 0.000000 
#    z -0.008250 0.000000 1.786470 
# 
# From -- ./inp_files/238284.got.cif
#   From: 2010.06.25/outbox.cif.g09.slc.cpg/sg12_120_cif.got.tgz:238284.got - 2010.06.28 00:19:55.
