data_PCOD8100479
_publ_section_title
;
Structure prediction by ZEFSAII (Michael W. Deem and Ramdas Pophale) SiO2 
 PCOD8100479
Probable space group: C 2/M
;
_chemical_formula_sum "Si O2"
_cell_formula_units_Z 56
_cell_length_a 22.381543
_cell_length_b 13.803218
_cell_length_c 16.548618
_cell_angle_alpha 90.000000
_cell_angle_beta 148.734833
_cell_angle_gamma 90.000000
_cell_volume 2653.377737
_symmetry_space_group_name_H-M "C 2/M"
_symmetry_group_IT_number 12
_symmetry_cell_setting 'monoclinic'
loop_
_space_group_symop_operation_xyz
x,y,z
-x,y,-z
-x,-y,-z
x,-y,z
1/2+x,1/2+y,z
1/2-x,1/2+y,-z
1/2-x,1/2-y,-z
1/2+x,1/2-y,z
loop_
_atom_site_type_symbol
_atom_site_label
_atom_site_fract_x
_atom_site_fract_y
_atom_site_fract_z
Si Si1 0.949819 0.612384 0.762965
Si Si2 0.484270 0.203089 0.637481
Si Si3 0.372618 0.769160 0.821061
Si Si4 0.221104 0.390217 0.875134
Si Si5 0.104866 0.888293 0.786080
Si Si6 0.297716 0.110022 0.879634
Si Si7 0.286427 0.887417 0.319915
O O1 0.913269 0.500000 0.721239
O O2 0.873382 0.668839 0.740301
O O3 0.922663 0.660013 0.645410
O O4 0.084524 0.624998 0.935646
O O5 0.616870 0.173891 0.785431
O O6 0.490774 0.320869 0.647032
O O7 0.411247 0.162347 0.477704
O O8 0.294735 0.825359 0.796299
O O9 0.309585 0.665765 0.735463
O O10 0.500000 0.750845 0.000000
O O11 0.181379 0.500000 0.844939
O O12 0.250170 0.372336 0.815267
O O13 0.335645 0.367282 0.058561
O O14 0.193623 0.860255 0.817530
O O15 0.065812 0.000000 0.733850
O O16 0.286541 0.000000 0.837666
O O17 0.291703 0.000000 0.350051
#
# Coordination Sequence:
#
# PCOD8100479 Si02
#       7
#     8   8   8   8   8   8   8
#     4  10  20  35  59  87 117 153 198 246 290 345
#     4  12  22  36  61  89 123 158 195 243 301 360
#     4  10  22  38  60  85 113 156 205 249 298 346
#     4  10  20  36  61  91 122 157 198 242 291 355
#     4  10  21  36  60  93 123 157 199 243 293 351
#     4   9  17  34  59  89 119 149 196 248 289 338
#     4  11  25  41  59  87 122 158 198 245 300 361
#
# _framework density 21.105173000000001
#
# number of rings (size 3 to 8) (size 9 to 14) (size 15 to 20)
#    0.000    1.714    1.429    3.429    4.000    3.714 
#    0.000    2.143    0.000    3.429    0.000    0.000 
#    0.000    0.000    0.000    0.000    0.000    0.000 
#
# Total GULP energy -347257.138440 kJ/mol
# GULP energy per Si atom -12402.040659 kJ/mol
# Density = 2.105714 g / cm^3
# Si number density = 21.105173 Si / 1000 Ang^3
#
#
#
# Elastic Constant Matrix: (Units=GPa)
#
#
# Indices 1 2 3 4 5 6 
#
# 1 83.3233 72.6765 29.8418 0.0000 0.1739 0.0000
# 2 72.6765 147.9134 53.8043 0.0000 5.2137 0.0000
# 3 29.8418 53.8043 45.2823 0.0000 -1.9512 0.0000
# 4 0.0000 0.0000 0.0000 35.2181 0.0000 5.4286
# 5 0.1739 5.2137 -1.9512 0.0000 15.1705 0.0000
# 6 0.0000 0.0000 0.0000 5.4286 0.0000 35.0876
#
#
#
# Elastic Compliance Matrix: (Units=1/GPa)
#
#
# Indices 1 2 3 4 5 6 
#
# 1 0.021314 -0.009695 -0.002407 0.000000 0.002778 0.000000
# 2 -0.009695 0.016875 -0.013984 0.000000 -0.007487 0.000000
# 3 -0.002407 -0.013984 0.040720 0.000000 0.010071 0.000000
# 4 0.000000 0.000000 0.000000 0.029088 0.000000 -0.004500
# 5 0.002778 -0.007487 0.010071 0.000000 0.069754 0.000000
# 6 0.000000 0.000000 0.000000 -0.004500 0.000000 0.029196
#
#
# Mechanical properties :
#
#
# Convention : Reuss Voigt Hill
#
# Bulk Modulus (GPa) = 37.40234 65.46269 51.43251
# Shear Modulus (GPa) = 18.65448 25.10833 21.88140
#
# Velocity S-wave (km/s) = 2.97624 3.45291 3.22340
# Velocity P-wave (km/s) = 5.43793 6.85430 6.18678
#
# Compressibility (1/GPa) = 0.02673629
#
# Stress axis : x y z
#
# Youngs Moduli (GPa) = 46.91819 59.25947 24.55778
#
# Poissons Ratio (x) = 0.57450 0.05912
# Poissons Ratio (y) = 0.45485 0.34343
# Poissons Ratio (z) = 0.11294 0.82871
#
# Static dielectric constant tensor:
#      x y z
#    x 3.813970 0.000000 -0.152920 
#    y 0.000000 4.048080 0.000000 
#    z -0.152920 0.000000 3.452030 
# 
# 
# High freq. dielectric constant tensor:
#      x y z
#    x 1.822210 0.000000 -0.013590 
#    y 0.000000 1.845230 0.000000 
#    z -0.013590 0.000000 1.795880 
# 
# From -- ./inp_files/284562.got.cif
#   From: 2010.06.25/outbox.cif.g09.slc.cpg/sg12_143_cif.got.tgz:284562.got - 2010.06.28 00:19:55.
