data_PCOD8100889
_publ_section_title
;
Structure prediction by ZEFSAII (Michael W. Deem and Ramdas Pophale) SiO2 
 PCOD8100889
Probable space group: C 2/M
;
_chemical_formula_sum "Si O2"
_cell_formula_units_Z 56
_cell_length_a 14.050670
_cell_length_b 25.761076
_cell_length_c 9.910690
_cell_angle_alpha 90.000000
_cell_angle_beta 130.263371
_cell_angle_gamma 90.000000
_cell_volume 2737.385377
_symmetry_space_group_name_H-M "C 2/M"
_symmetry_group_IT_number 12
_symmetry_cell_setting 'monoclinic'
loop_
_space_group_symop_operation_xyz
x,y,z
-x,y,-z
-x,-y,-z
x,-y,z
1/2+x,1/2+y,z
1/2-x,1/2+y,-z
1/2-x,1/2-y,-z
1/2+x,1/2-y,z
loop_
_atom_site_type_symbol
_atom_site_label
_atom_site_fract_x
_atom_site_fract_y
_atom_site_fract_z
Si Si1 0.220816 0.295104 0.076747
Si Si2 0.363271 0.438540 0.827498
Si Si3 0.384199 0.605915 0.564274
Si Si4 0.834391 0.904482 0.223478
Si Si5 0.340108 0.058010 0.142685
Si Si6 0.506832 0.861311 0.159136
Si Si7 0.750647 0.798144 0.404116
O O1 0.302588 0.347180 0.136822
O O2 0.243109 0.273923 0.248116
O O3 0.250000 0.250000 0.000000
O O4 0.077752 0.309769 0.919226
O O5 0.368650 0.500000 0.827332
O O6 0.325037 0.416767 0.645956
O O7 0.251145 0.420237 0.823069
O O8 0.500000 0.417094 0.000000
O O9 0.523755 0.584640 0.684486
O O10 0.310362 0.587909 0.361348
O O11 0.376833 0.669094 0.551780
O O12 0.745351 0.945663 0.069527
O O13 0.457405 0.096164 0.222693
O O14 0.389845 0.000000 0.221472
O O15 0.642087 0.841278 0.328403
O O16 0.500000 0.885022 0.000000
O O17 0.750000 0.750000 0.500000
#
# Coordination Sequence:
#
# PCOD8100889 Si02
#       7
#     8   8   8   8   8   8   8
#     4   9  19  36  58  80 110 148 191 240 290 341
#     4  10  20  36  57  86 121 153 191 243 300 355
#     4  10  20  36  55  80 123 152 187 245 298 347
#     4   9  19  34  56  85 113 150 192 243 297 345
#     4  10  20  37  62  88 114 152 202 244 288 353
#     4   9  20  40  59  82 119 155 195 242 286 343
#     4  10  22  38  55  83 115 152 193 239 287 345
#
# _framework density 20.457477000000001
#
# number of rings (size 3 to 8) (size 9 to 14) (size 15 to 20)
#    0.000    2.429    1.429    0.857    2.000    3.143 
#    0.000    4.286    0.000    1.714    0.000    0.000 
#    0.000    0.000    0.000    0.000    0.000    0.000 
#
# Total GULP energy -346979.929823 kJ/mol
# GULP energy per Si atom -12392.140351 kJ/mol
# Density = 2.041092 g / cm^3
# Si number density = 20.457477 Si / 1000 Ang^3
#
#
#
# Elastic Constant Matrix: (Units=GPa)
#
#
# Indices 1 2 3 4 5 6 
#
# 1 110.9610 42.0023 35.3352 0.0000 -28.1427 0.0000
# 2 42.0023 56.0095 23.5920 0.0000 -15.4255 0.0000
# 3 35.3352 23.5920 73.0872 0.0000 -19.1784 0.0000
# 4 0.0000 0.0000 0.0000 25.0985 0.0000 -6.7830
# 5 -28.1427 -15.4255 -19.1784 0.0000 37.9998 0.0000
# 6 0.0000 0.0000 0.0000 -6.7830 0.0000 30.7213
#
#
#
# Elastic Compliance Matrix: (Units=1/GPa)
#
#
# Indices 1 2 3 4 5 6 
#
# 1 0.014474 -0.007997 -0.002830 0.000000 0.006045 0.000000
# 2 -0.007997 0.026249 -0.003878 0.000000 0.002775 0.000000
# 3 -0.002830 -0.003878 0.017681 0.000000 0.005253 0.000000
# 4 0.000000 0.000000 0.000000 0.042371 0.000000 0.009355
# 5 0.006045 0.002775 0.005253 0.000000 0.034570 0.000000
# 6 0.000000 0.000000 0.000000 0.009355 0.000000 0.034616
#
#
# Mechanical properties :
#
#
# Convention : Reuss Voigt Hill
#
# Bulk Modulus (GPa) = 34.49154 49.10185 41.79670
# Shear Modulus (GPa) = 23.91916 28.03913 25.97915
#
# Velocity S-wave (km/s) = 3.42309 3.70619 3.56745
# Velocity P-wave (km/s) = 5.70264 6.50910 6.11917
#
# Compressibility (1/GPa) = 0.02899262
#
# Stress axis : x y z
#
# Youngs Moduli (GPa) = 69.09114 38.09617 56.55825
#
# Poissons Ratio (x) = 0.30466 0.16006
# Poissons Ratio (y) = 0.55254 0.21936
# Poissons Ratio (z) = 0.19553 0.14775
#
# Static dielectric constant tensor:
#      x y z
#    x 3.992720 0.000000 0.000090 
#    y 0.000000 3.440150 0.000000 
#    z 0.000090 0.000000 3.793440 
# 
# 
# High freq. dielectric constant tensor:
#      x y z
#    x 1.805370 0.000000 -0.005930 
#    y 0.000000 1.775230 0.000000 
#    z -0.005930 0.000000 1.794570 
# 
# From -- ./inp_files/68304.got.cif
#   From: 2010.06.25/outbox.cif.g09.slc.cpg/sg12_35_cif.got.tgz:68304.got - 2010.06.28 00:19:55.
