data_PCOD8100610
_publ_section_title
;
Structure prediction by ZEFSAII (Michael W. Deem and Ramdas Pophale) SiO2 
 PCOD8100610
Probable space group: C 2/M
;
_chemical_formula_sum "Si O2"
_cell_formula_units_Z 56
_cell_length_a 14.052281
_cell_length_b 31.416500
_cell_length_c 9.034829
_cell_angle_alpha 90.000000
_cell_angle_beta 45.490070
_cell_angle_gamma 90.000000
_cell_volume 2844.412892
_symmetry_space_group_name_H-M "C 2/M"
_symmetry_group_IT_number 12
_symmetry_cell_setting 'monoclinic'
loop_
_space_group_symop_operation_xyz
x,y,z
-x,y,-z
-x,-y,-z
x,-y,z
1/2+x,1/2+y,z
1/2-x,1/2+y,-z
1/2-x,1/2-y,-z
1/2+x,1/2-y,z
loop_
_atom_site_type_symbol
_atom_site_label
_atom_site_fract_x
_atom_site_fract_y
_atom_site_fract_z
Si Si1 0.488261 0.950902 0.848390
Si Si2 0.128591 0.758076 0.925543
Si Si3 0.133865 0.406707 0.435572
Si Si4 0.876214 0.206994 0.741076
Si Si5 0.373695 0.346868 0.228820
Si Si6 0.777616 0.951780 0.029444
Si Si7 0.040681 0.118607 0.296481
O O1 0.594779 0.924957 0.636773
O O2 0.335053 0.944257 0.970524
O O3 0.529705 0.000000 0.791226
O O4 0.500000 0.933061 0.000000
O O5 0.251624 0.726229 0.788757
O O6 0.147488 0.797524 0.790385
O O7 0.101178 0.772570 0.123138
O O8 0.000000 0.733066 0.000000
O O9 0.233236 0.367457 0.341061
O O10 0.208450 0.443836 0.263170
O O11 0.000000 0.390557 0.500000
O O12 0.852258 0.156504 0.792481
O O13 0.000000 0.216159 0.500000
O O14 0.413102 0.358269 0.355792
O O15 0.500000 0.365593 0.000000
O O16 0.833193 0.000000 0.965755
O O17 0.898757 0.919406 0.867384
O O18 0.000000 0.099277 0.500000
#
# Coordination Sequence:
#
# PCOD8100610 Si02
#       7
#     8   8   8   8   8   8   8
#     4   9  19  35  55  82 119 158 202 256 306 346
#     4  10  20  39  62  88 121 152 197 240 295 359
#     4  10  20  35  60  88 116 157 210 249 296 357
#     4  10  21  38  62  88 118 159 192 242 298 355
#     4  11  20  40  63  85 121 165 191 244 306 357
#     4  10  20  37  59  84 120 162 206 253 297 356
#     4  11  23  40  60  85 124 160 199 248 307 356
#
# _framework density 19.687719000000001
#
# number of rings (size 3 to 8) (size 9 to 14) (size 15 to 20)
#    0.000    1.857    4.286    0.429    2.000    3.143 
#    0.000    4.286    0.000    0.000    0.000    0.000 
#    0.000    0.000    0.000    0.000    0.000    0.000 
#
# Total GULP energy -347044.978999 kJ/mol
# GULP energy per Si atom -12394.463536 kJ/mol
# Density = 1.964291 g / cm^3
# Si number density = 19.687719 Si / 1000 Ang^3
#
#
#
# Elastic Constant Matrix: (Units=GPa)
#
#
# Indices 1 2 3 4 5 6 
#
# 1 119.2493 59.8701 46.1324 0.0000 -2.6351 0.0000
# 2 59.8701 101.6228 43.1025 0.0000 -16.4583 0.0000
# 3 46.1324 43.1025 92.9875 0.0000 0.0893 0.0000
# 4 0.0000 0.0000 0.0000 14.6095 0.0000 -0.6504
# 5 -2.6351 -16.4583 0.0893 0.0000 33.6214 0.0000
# 6 0.0000 0.0000 0.0000 -0.6504 0.0000 29.0616
#
#
#
# Elastic Compliance Matrix: (Units=1/GPa)
#
#
# Indices 1 2 3 4 5 6 
#
# 1 0.012926 -0.006533 -0.003383 0.000000 -0.002176 0.000000
# 2 -0.006533 0.016899 -0.004599 0.000000 0.007772 0.000000
# 3 -0.003383 -0.004599 0.014567 0.000000 -0.002555 0.000000
# 4 0.000000 0.000000 0.000000 0.068517 0.000000 0.001533
# 5 -0.002176 0.007772 -0.002555 0.000000 0.033384 0.000000
# 6 0.000000 0.000000 0.000000 0.001533 0.000000 0.034444
#
#
# Mechanical properties :
#
#
# Convention : Reuss Voigt Hill
#
# Bulk Modulus (GPa) = 65.09710 68.00774 66.55242
# Shear Modulus (GPa) = 23.26802 26.44215 24.85509
#
# Velocity S-wave (km/s) = 3.44154 3.66878 3.55698
# Velocity P-wave (km/s) = 6.99492 7.25016 7.12368
#
# Compressibility (1/GPa) = 0.01536167
#
# Stress axis : x y z
#
# Youngs Moduli (GPa) = 77.36181 59.17573 68.64984
#
# Poissons Ratio (x) = 0.38660 0.23221
# Poissons Ratio (y) = 0.50541 0.31575
# Poissons Ratio (z) = 0.26168 0.27217
#
# Static dielectric constant tensor:
#      x y z
#    x 3.842470 0.000000 0.113830 
#    y 0.000000 3.436300 0.000000 
#    z 0.113830 0.000000 3.586910 
# 
# 
# High freq. dielectric constant tensor:
#      x y z
#    x 1.773680 0.000000 0.012910 
#    y 0.000000 1.749380 0.000000 
#    z 0.012910 0.000000 1.765530 
# 
# From -- ./inp_files/68109.got.cif
#   From: 2010.06.25/outbox.cif.g09.slc.cpg/sg12_35_cif.got.tgz:68109.got - 2010.06.28 00:19:55.
