data_PCOD8100491
_publ_section_title
;
Structure prediction by ZEFSAII (Michael W. Deem and Ramdas Pophale) SiO2 
 PCOD8100491
Probable space group: C 2/M
;
_chemical_formula_sum "Si O2"
_cell_formula_units_Z 64
_cell_length_a 34.113723
_cell_length_b 14.379059
_cell_length_c 9.090440
_cell_angle_alpha 90.000000
_cell_angle_beta 47.972304
_cell_angle_gamma 90.000000
_cell_volume 3312.293647
_symmetry_space_group_name_H-M "C 2/M"
_symmetry_group_IT_number 12
_symmetry_cell_setting 'monoclinic'
loop_
_space_group_symop_operation_xyz
x,y,z
-x,y,-z
-x,-y,-z
x,-y,z
1/2+x,1/2+y,z
1/2-x,1/2+y,-z
1/2-x,1/2-y,-z
1/2+x,1/2-y,z
loop_
_atom_site_type_symbol
_atom_site_label
_atom_site_fract_x
_atom_site_fract_y
_atom_site_fract_z
Si Si1 0.275853 0.898699 0.186806
Si Si2 0.846047 0.600982 0.726924
Si Si3 0.825568 0.776416 0.594378
Si Si4 0.987394 0.891985 0.867805
Si Si5 0.810700 0.729963 0.317437
Si Si6 0.439495 0.894067 0.683661
Si Si7 0.092903 0.109000 0.425514
Si Si8 0.599833 0.290767 0.094186
O O1 0.231305 0.823732 0.261696
O O2 0.308083 0.873717 0.255262
O O3 0.249651 0.000000 0.272449
O O4 0.318405 0.898384 0.953063
O O5 0.837797 0.500000 0.670624
O O6 0.820855 0.680848 0.693767
O O7 0.907949 0.617534 0.607708
O O8 0.843116 0.744337 0.386668
O O9 0.866918 0.848014 0.558175
O O10 0.034847 0.874570 0.634847
O O11 0.936630 0.841267 0.932185
O O12 0.973325 0.000000 0.914396
O O13 0.000000 0.853598 0.000000
O O14 0.750000 0.750000 0.500000
O O15 0.840191 0.794080 0.120262
O O16 0.500000 0.872657 0.500000
O O17 0.418997 0.816623 0.849552
O O18 0.431813 0.000000 0.764220
O O19 0.098552 0.159046 0.254852
O O20 0.105434 0.000000 0.374657
#
# Coordination Sequence:
#
# PCOD8100491 Si02
#       8
#     8   8   8   8   8   8   8   8
#     4  10  20  38  60  82 112 156 199 241 299 362
#     4  10  20  36  60  85 115 152 197 249 301 354
#     4  11  21  37  57  86 121 151 194 247 301 358
#     4  10  22  39  60  90 129 165 198 241 301 363
#     4  10  23  39  57  81 115 158 202 249 299 354
#     4  10  20  35  59  88 115 148 194 242 292 349
#     4  11  22  37  60  92 125 159 200 248 298 360
#     4  12  21  38  62  87 115 162 207 247 296 359
#
# _framework density 19.321959
#
# number of rings (size 3 to 8) (size 9 to 14) (size 15 to 20)
#    0.000    1.500    2.500    3.000    0.000    2.500 
#    0.000    5.625    0.000    1.125    0.000    0.000 
#    0.000    0.000    0.000    0.000    0.000    0.000 
#
# Total GULP energy -396544.202168 kJ/mol
# GULP energy per Si atom -12392.006318 kJ/mol
# Density = 1.927798 g / cm^3
# Si number density = 19.321959 Si / 1000 Ang^3
#
#
#
# Elastic Constant Matrix: (Units=GPa)
#
#
# Indices 1 2 3 4 5 6 
#
# 1 116.7748 64.2314 51.0052 0.0000 5.4833 0.0000
# 2 64.2314 129.5030 59.9531 0.0000 4.2694 0.0000
# 3 51.0052 59.9531 112.3961 0.0000 3.2029 0.0000
# 4 0.0000 0.0000 0.0000 17.0398 0.0000 -3.3452
# 5 5.4833 4.2694 3.2029 0.0000 34.6296 0.0000
# 6 0.0000 0.0000 0.0000 -3.3452 0.0000 36.7698
#
#
#
# Elastic Compliance Matrix: (Units=1/GPa)
#
#
# Indices 1 2 3 4 5 6 
#
# 1 0.012610 -0.004758 -0.003153 0.000000 -0.001119 0.000000
# 2 -0.004758 0.012069 -0.004269 0.000000 -0.000340 0.000000
# 3 -0.003153 -0.004269 0.012609 0.000000 -0.000141 0.000000
# 4 0.000000 0.000000 0.000000 0.059753 0.000000 0.005436
# 5 -0.001119 -0.000340 -0.000141 0.000000 0.029109 0.000000
# 6 0.000000 0.000000 0.000000 0.005436 0.000000 0.027691
#
#
# Mechanical properties :
#
#
# Convention : Reuss Voigt Hill
#
# Bulk Modulus (GPa) = 77.34544 78.78371 78.06458
# Shear Modulus (GPa) = 27.39568 29.92012 28.65790
#
# Velocity S-wave (km/s) = 3.76952 3.93937 3.85538
# Velocity P-wave (km/s) = 7.68521 7.84565 7.76584
#
# Compressibility (1/GPa) = 0.01292901
#
# Stress axis : x y z
#
# Youngs Moduli (GPa) = 79.30099 82.85501 79.30917
#
# Poissons Ratio (x) = 0.39423 0.25003
# Poissons Ratio (y) = 0.37732 0.33857
# Poissons Ratio (z) = 0.25001 0.35371
#
# Static dielectric constant tensor:
#      x y z
#    x 3.723150 0.000000 0.069110 
#    y 0.000000 3.864920 0.000000 
#    z 0.069110 0.000000 3.650340 
# 
# 
# High freq. dielectric constant tensor:
#      x y z
#    x 1.755200 0.000000 -0.007010 
#    y 0.000000 1.759870 0.000000 
#    z -0.007010 0.000000 1.748510 
# 
# From -- ./inp_files/111626.got.cif
#   From: 2010.06.25/outbox.cif.g09.slc.cpg/sg12_56_cif.got.tgz:111626.got - 2010.06.28 00:19:55.
