data_PCOD8100565
_publ_section_title
;
Structure prediction by ZEFSAII (Michael W. Deem and Ramdas Pophale) SiO2 
 PCOD8100565
Probable space group: C 2/M
;
_chemical_formula_sum "Si O2"
_cell_formula_units_Z 56
_cell_length_a 19.402804
_cell_length_b 8.656809
_cell_length_c 18.528847
_cell_angle_alpha 90.000000
_cell_angle_beta 113.507196
_cell_angle_gamma 90.000000
_cell_volume 2853.939700
_symmetry_space_group_name_H-M "C 2/M"
_symmetry_group_IT_number 12
_symmetry_cell_setting 'monoclinic'
loop_
_space_group_symop_operation_xyz
x,y,z
-x,y,-z
-x,-y,-z
x,-y,z
1/2+x,1/2+y,z
1/2-x,1/2+y,-z
1/2-x,1/2-y,-z
1/2+x,1/2-y,z
loop_
_atom_site_type_symbol
_atom_site_label
_atom_site_fract_x
_atom_site_fract_y
_atom_site_fract_z
Si Si1 0.709061 0.820520 0.050504
Si Si2 0.444193 0.673404 0.043115
Si Si3 0.419784 0.318463 0.498208
Si Si4 0.703373 0.321196 0.194255
Si Si5 0.228346 0.678860 0.626249
Si Si6 0.376558 0.180875 0.628919
Si Si7 0.943340 0.679504 0.809158
O O1 0.740906 0.736350 0.135726
O O2 0.726567 0.000000 0.064449
O O3 0.750000 0.750000 0.000000
O O4 0.621076 0.791961 0.003276
O O5 0.412556 0.500000 0.041145
O O6 0.484698 0.725241 0.133966
O O7 0.500000 0.678822 0.000000
O O8 0.500000 0.264408 0.500000
O O9 0.409193 0.500000 0.485120
O O10 0.354781 0.234837 0.426200
O O11 0.414350 0.272453 0.579461
O O12 0.680281 0.500000 0.178849
O O13 0.760444 0.292040 0.283835
O O14 0.628342 0.222114 0.172785
O O15 0.237031 0.500000 0.609810
O O16 0.290136 0.769738 0.605019
O O17 0.426664 0.223027 0.719327
O O18 0.377145 0.000000 0.611933
O O19 0.960354 0.500000 0.825764
#
# Coordination Sequence:
#
# PCOD8100565 Si02
#       7
#     8   8   8   8   8   8   8
#     4  12  25  41  61  85 119 159 201 246 295 351
#     4  11  22  37  61  89 120 157 198 244 294 348
#     4  11  24  41  60  85 119 157 195 240 292 350
#     4  10  20  37  60  88 119 153 195 243 295 349
#     4  10  21  38  64  91 117 153 193 241 291 346
#     4  10  21  38  62  90 120 153 194 242 289 348
#     4  10  20  35  59  91 119 152 196 246 295 343
#
# _framework density 19.621997
#
# number of rings (size 3 to 8) (size 9 to 14) (size 15 to 20)
#    0.000    1.429    1.429    4.286    0.000    5.143 
#    2.571    0.000    0.000    0.000    0.000    0.000 
#    0.000    0.000    0.000    0.000    0.000    0.000 
#
# Total GULP energy -347316.614321 kJ/mol
# GULP energy per Si atom -12404.164797 kJ/mol
# Density = 1.957734 g / cm^3
# Si number density = 19.621997 Si / 1000 Ang^3
#
#
#
# Elastic Constant Matrix: (Units=GPa)
#
#
# Indices 1 2 3 4 5 6 
#
# 1 77.3408 19.6471 45.4706 0.0000 -10.5811 0.0000
# 2 19.6471 62.6133 31.6720 0.0000 -0.2660 0.0000
# 3 45.4706 31.6720 125.3693 0.0000 -7.4872 0.0000
# 4 0.0000 0.0000 0.0000 34.9635 0.0000 0.8504
# 5 -10.5811 -0.2660 -7.4872 0.0000 32.0441 0.0000
# 6 0.0000 0.0000 0.0000 0.8504 0.0000 31.4115
#
#
#
# Elastic Compliance Matrix: (Units=1/GPa)
#
#
# Indices 1 2 3 4 5 6 
#
# 1 0.017377 -0.002729 -0.005346 0.000000 0.004466 0.000000
# 2 -0.002729 0.018768 -0.003850 0.000000 -0.001645 0.000000
# 3 -0.005346 -0.003850 0.010933 0.000000 0.000757 0.000000
# 4 0.000000 0.000000 0.000000 0.028620 0.000000 -0.000775
# 5 0.004466 -0.001645 0.000757 0.000000 0.032845 0.000000
# 6 0.000000 0.000000 0.000000 -0.000775 0.000000 0.031856
#
#
# Mechanical properties :
#
#
# Convention : Reuss Voigt Hill
#
# Bulk Modulus (GPa) = 43.05210 50.98921 47.02065
# Shear Modulus (GPa) = 29.07087 30.91942 29.99515
#
# Velocity S-wave (km/s) = 3.85326 3.97388 3.91404
# Velocity P-wave (km/s) = 6.46415 6.86278 6.66645
#
# Compressibility (1/GPa) = 0.02322767
#
# Stress axis : x y z
#
# Youngs Moduli (GPa) = 57.54576 53.28285 91.46375
#
# Poissons Ratio (x) = 0.14543 0.48900
# Poissons Ratio (y) = 0.15707 0.35210
# Poissons Ratio (z) = 0.30766 0.20512
#
# Static dielectric constant tensor:
#      x y z
#    x 3.407360 0.000000 -0.081120 
#    y 0.000000 3.754430 0.000000 
#    z -0.081120 0.000000 3.834270 
# 
# 
# High freq. dielectric constant tensor:
#      x y z
#    x 1.740900 0.000000 -0.000890 
#    y 0.000000 1.779930 0.000000 
#    z -0.000890 0.000000 1.782790 
# 
# From -- ./inp_files/275319.got.cif
#   From: 2010.06.25/outbox.cif.g09.slc.cpg/sg12_138_cif.got.tgz:275319.got - 2010.06.28 00:19:55.
