data_PCOD8100778
_publ_section_title
;
Structure prediction by ZEFSAII (Michael W. Deem and Ramdas Pophale) SiO2 
 PCOD8100778
Probable space group: C 2/M
;
_chemical_formula_sum "Si O2"
_cell_formula_units_Z 36
_cell_length_a 15.855621
_cell_length_b 22.294937
_cell_length_c 12.549688
_cell_angle_alpha 90.000000
_cell_angle_beta 152.743682
_cell_angle_gamma 90.000000
_cell_volume 2031.708081
_symmetry_space_group_name_H-M "C 2/M"
_symmetry_group_IT_number 12
_symmetry_cell_setting 'monoclinic'
loop_
_space_group_symop_operation_xyz
x,y,z
-x,y,-z
-x,-y,-z
x,-y,z
1/2+x,1/2+y,z
1/2-x,1/2+y,-z
1/2-x,1/2-y,-z
1/2+x,1/2-y,z
loop_
_atom_site_type_symbol
_atom_site_label
_atom_site_fract_x
_atom_site_fract_y
_atom_site_fract_z
Si Si1 0.419250 0.834256 0.687743
Si Si2 0.931139 0.791144 0.806112
Si Si3 0.187171 0.567815 0.273939
Si Si4 0.189334 0.817361 0.916053
Si Si5 0.000000 0.132136 0.500000
O O1 0.283540 0.809933 0.443154
O O2 0.450500 0.780221 0.807718
O O3 0.322739 0.890927 0.633295
O O4 0.618594 0.854932 0.864465
O O5 0.049250 0.831679 0.855133
O O6 0.000000 0.807088 0.000000
O O7 0.225226 0.500000 0.354388
O O8 0.348397 0.588458 0.377695
O O9 0.000000 0.573382 0.000000
O O10 0.086218 0.825581 0.687780
O O11 0.250000 0.750000 0.000000
#
# Coordination Sequence:
#
# PCOD8100778 Si02
#       5
#     8   8   8   8   4
#     4  10  20  36  53  81 114 145 182 232 276 333
#     4  10  21  34  55  82 113 149 182 220 283 339
#     4  11  22  36  58  84 111 149 189 235 284 330
#     4  10  22  32  54  82 111 153 177 225 281 332
#     4  12  21  38  56  82 124 142 187 230 282 344
#
# _framework density 17.719080999999999
#
# number of rings (size 3 to 8) (size 9 to 14) (size 15 to 20)
#    0.000    1.556    4.444    1.000    3.111    0.889 
#    0.000    0.000    0.000    0.667    0.000    1.556 
#    0.000    0.000    0.000    0.000    0.000    0.000 
#
# Total GULP energy -223144.057273 kJ/mol
# GULP energy per Si atom -12396.892071 kJ/mol
# Density = 1.767875 g / cm^3
# Si number density = 17.719081 Si / 1000 Ang^3
#
#
#
# Elastic Constant Matrix: (Units=GPa)
#
#
# Indices 1 2 3 4 5 6 
#
# 1 102.7219 39.6282 66.8196 0.0000 4.3957 0.0000
# 2 39.6282 87.9311 32.8017 0.0000 0.0880 0.0000
# 3 66.8196 32.8017 128.1992 0.0000 1.7274 0.0000
# 4 0.0000 0.0000 0.0000 -12.7349 0.0000 -11.7602
# 5 4.3957 0.0880 1.7274 0.0000 36.5788 0.0000
# 6 0.0000 0.0000 0.0000 -11.7602 0.0000 14.8054
#
#
#
# Elastic Compliance Matrix: (Units=1/GPa)
#
#
# Indices 1 2 3 4 5 6 
#
# 1 0.016351 -0.004639 -0.007314 0.000000 -0.001608 0.000000
# 2 -0.004639 0.013889 -0.001144 0.000000 0.000578 0.000000
# 3 -0.007314 -0.001144 0.011901 0.000000 0.000320 0.000000
# 4 0.000000 0.000000 0.000000 -0.045297 0.000000 -0.035981
# 5 -0.001608 0.000578 0.000320 0.000000 0.027515 0.000000
# 6 0.000000 0.000000 0.000000 -0.035981 0.000000 0.038963
#
#
# Mechanical properties :
#
#
# Convention : Reuss Voigt Hill
#
# Bulk Modulus (GPa) = 62.70327 66.37237 64.53782
# Shear Modulus (GPa) = 52.72556 19.70335 36.21445
#
# Velocity S-wave (km/s) = 5.46086 3.33826 4.52576
# Velocity P-wave (km/s) = 8.67327 7.23865 7.98823
#
# Compressibility (1/GPa) = 0.01594813
#
# Stress axis : x y z
#
# Youngs Moduli (GPa) = 61.15806 71.99795 84.02829
#
# Poissons Ratio (x) = 0.33400 0.61457
# Poissons Ratio (y) = 0.28372 0.09610
# Poissons Ratio (z) = 0.44730 0.08234
#
# Static dielectric constant tensor:
#      x y z
#    x 3.690410 0.000000 0.584250 
#    y 0.000000 3.112010 0.000000 
#    z 0.584250 0.000000 3.544570 
# 
# 
# High freq. dielectric constant tensor:
#      x y z
#    x 1.681470 0.000000 0.026660 
#    y 0.000000 1.648210 0.000000 
#    z 0.026660 0.000000 1.702410 
# 
# From -- ./inp_files/76634.got.cif
#   From: 2010.06.25/outbox.cif.g09.slc.cpg/sg12_39_cif.got.tgz:76634.got - 2010.06.28 00:19:55.
