data_PCOD8100541
_publ_section_title
;
Structure prediction by ZEFSAII (Michael W. Deem and Ramdas Pophale) SiO2 
 PCOD8100541
Probable space group: C 2/M
;
_chemical_formula_sum "Si O2"
_cell_formula_units_Z 48
_cell_length_a 20.120179
_cell_length_b 8.644368
_cell_length_c 20.279268
_cell_angle_alpha 90.000000
_cell_angle_beta 43.082828
_cell_angle_gamma 90.000000
_cell_volume 2409.200684
_symmetry_space_group_name_H-M "C 2/M"
_symmetry_group_IT_number 12
_symmetry_cell_setting 'monoclinic'
loop_
_space_group_symop_operation_xyz
x,y,z
-x,y,-z
-x,-y,-z
x,-y,z
1/2+x,1/2+y,z
1/2-x,1/2+y,-z
1/2-x,1/2-y,-z
1/2+x,1/2-y,z
loop_
_atom_site_type_symbol
_atom_site_label
_atom_site_fract_x
_atom_site_fract_y
_atom_site_fract_z
Si Si1 0.636860 0.820830 0.804226
Si Si2 0.792178 0.179860 0.116713
Si Si3 0.104407 0.320682 0.601007
Si Si4 0.766462 0.821398 0.383137
Si Si5 0.941650 0.179621 0.896040
Si Si6 0.591641 0.679031 0.230207
O O1 0.645653 0.721248 0.863997
O O2 0.723429 0.778179 0.690684
O O3 0.534603 0.783447 0.844314
O O4 0.642898 0.000000 0.818120
O O5 0.693440 0.276987 0.189087
O O6 0.766057 0.000000 0.135268
O O7 0.854650 0.226130 0.007683
O O8 0.116625 0.500000 0.611078
O O9 0.146703 0.218105 0.629476
O O10 0.162376 0.283828 0.491524
O O11 0.992212 0.276464 0.672146
O O12 0.776637 0.000000 0.356519
O O13 0.905419 0.219995 0.849201
O O14 0.970258 0.000000 0.883138
O O15 0.570710 0.500000 0.257759
#
# Coordination Sequence:
#
# PCOD8100541 Si02
#       6
#     8   8   8   8   8   8
#     4  12  24  38  60  89 120 155 199 245 294 350
#     4  11  24  41  60  83 120 161 199 243 295 351
#     4  10  20  35  59  90 118 151 194 239 290 346
#     4  10  20  36  59  87 119 152 193 242 290 344
#     4  10  22  40  62  87 116 157 200 243 293 347
#     4  11  22  38  61  89 122 156 195 242 293 349
#
# _framework density 19.923621000000001
#
# number of rings (size 3 to 8) (size 9 to 14) (size 15 to 20)
#    0.000    1.333    1.667    4.500    0.000    6.000 
#    0.000    0.833    0.000    5.000    0.000    0.000 
#    0.000    0.000    0.000    0.000    0.000    0.000 
#
# Total GULP energy -297772.803682 kJ/mol
# GULP energy per Si atom -12407.200153 kJ/mol
# Density = 1.987827 g / cm^3
# Si number density = 19.923621 Si / 1000 Ang^3
#
#
#
# Elastic Constant Matrix: (Units=GPa)
#
#
# Indices 1 2 3 4 5 6 
#
# 1 51.3293 14.5639 11.8420 0.0000 -4.9945 0.0001
# 2 14.5639 59.1876 39.2126 0.0001 1.5109 -0.0001
# 3 11.8420 39.2126 99.4074 0.0001 -14.4353 0.0000
# 4 0.0000 0.0001 0.0001 30.7465 0.0000 -1.9365
# 5 -4.9945 1.5109 -14.4353 0.0000 19.9345 0.0000
# 6 0.0001 -0.0001 0.0000 -1.9365 0.0000 33.1809
#
#
#
# Elastic Compliance Matrix: (Units=1/GPa)
#
#
# Indices 1 2 3 4 5 6 
#
# 1 0.021629 -0.005944 0.000693 0.000000 0.006372 0.000000
# 2 -0.005944 0.026138 -0.011294 0.000000 -0.011649 0.000000
# 3 0.000693 -0.011294 0.016295 0.000000 0.012830 0.000000
# 4 0.000000 0.000000 0.000000 0.032644 0.000000 0.001905
# 5 0.006372 -0.011649 0.012830 0.000000 0.061934 0.000000
# 6 0.000000 0.000000 0.000000 0.001905 0.000000 0.030249
#
#
# Mechanical properties :
#
#
# Convention : Reuss Voigt Hill
#
# Bulk Modulus (GPa) = 32.28675 37.90681 35.09678
# Shear Modulus (GPa) = 21.52374 26.39275 23.95824
#
# Velocity S-wave (km/s) = 3.29038 3.64359 3.47148
# Velocity P-wave (km/s) = 5.53858 6.06369 5.80707
#
# Compressibility (1/GPa) = 0.03097246
#
# Stress axis : x y z
#
# Youngs Moduli (GPa) = 46.23509 38.25883 61.36826
#
# Poissons Ratio (x) = 0.22741 -0.04255
# Poissons Ratio (y) = 0.27482 0.69308
# Poissons Ratio (z) = -0.03206 0.43209
#
# Static dielectric constant tensor:
#      x y z
#    x 3.312820 0.000000 0.049610 
#    y 0.000000 3.573860 0.000000 
#    z 0.049610 0.000000 3.859730 
# 
# 
# High freq. dielectric constant tensor:
#      x y z
#    x 1.754100 0.000000 -0.000350 
#    y 0.000000 1.784240 0.000000 
#    z -0.000350 0.000000 1.792920 
# 
# From -- ./inp_files/230411.got.cif
#   From: 2010.06.25/outbox.cif.g09.slc.cpg/sg12_116_cif.got.tgz:230411.got - 2010.06.28 00:19:55.
