data_PCOD8100545
_publ_section_title
;
Structure prediction by ZEFSAII (Michael W. Deem and Ramdas Pophale) SiO2 
 PCOD8100545
Probable space group: C 2/M
;
_chemical_formula_sum "Si O2"
_cell_formula_units_Z 56
_cell_length_a 23.951002
_cell_length_b 10.434117
_cell_length_c 28.728779
_cell_angle_alpha 90.000000
_cell_angle_beta 157.091129
_cell_angle_gamma 90.000000
_cell_volume 2794.754519
_symmetry_space_group_name_H-M "C 2/M"
_symmetry_group_IT_number 12
_symmetry_cell_setting 'monoclinic'
loop_
_space_group_symop_operation_xyz
x,y,z
-x,y,-z
-x,-y,-z
x,-y,z
1/2+x,1/2+y,z
1/2-x,1/2+y,-z
1/2-x,1/2-y,-z
1/2+x,1/2-y,z
loop_
_atom_site_type_symbol
_atom_site_label
_atom_site_fract_x
_atom_site_fract_y
_atom_site_fract_z
Si Si1 0.166621 0.359400 0.408844
Si Si2 0.359062 0.641204 0.096995
Si Si3 0.803326 0.147581 0.419217
Si Si4 0.603371 0.648452 0.684915
Si Si5 0.829681 0.350050 0.778099
Si Si6 0.865961 0.273459 0.193620
Si Si7 0.049358 0.858521 0.929366
O O1 0.235025 0.500000 0.472075
O O2 0.250000 0.250000 0.500000
O O3 0.182492 0.331485 0.365831
O O4 0.000873 0.369268 0.296517
O O5 0.286753 0.500000 0.040754
O O6 0.412060 0.666886 0.190272
O O7 0.480155 0.646786 0.149347
O O8 0.250000 0.750000 0.000000
O O9 0.749046 0.203850 0.328524
O O10 0.954439 0.210250 0.551635
O O11 0.834938 0.000000 0.433093
O O12 0.579257 0.500000 0.676895
O O13 0.727161 0.671464 0.742744
O O14 0.652817 0.712994 0.770323
O O15 0.877525 0.500000 0.810527
O O16 0.967327 0.258190 0.891760
O O17 0.719660 0.345704 0.068898
O O18 0.001540 0.000000 0.911301
#
# Coordination Sequence:
#
# PCOD8100545 Si02
#       7
#     8   8   8   8   8   8   8
#     4  11  22  37  59  88 119 150 187 234 291 355
#     4   9  19  34  56  83 113 151 190 233 285 343
#     4   9  18  36  61  88 117 149 188 242 296 342
#     4  10  20  35  59  90 119 149 193 249 296 338
#     4  10  21  38  62  87 112 152 205 247 283 337
#     4  11  21  36  59  88 120 154 193 235 293 354
#     4  10  22  40  58  82 120 159 195 237 290 347
#
# _framework density 20.037538000000001
#
# number of rings (size 3 to 8) (size 9 to 14) (size 15 to 20)
#    0.000    2.000    1.429    2.143    0.000    6.286 
#    0.000    7.143    0.000    0.857    0.000    0.000 
#    0.000    0.000    0.000    0.000    0.000    0.000 
#
# Total GULP energy -346957.366090 kJ/mol
# GULP energy per Si atom -12391.334503 kJ/mol
# Density = 1.999193 g / cm^3
# Si number density = 20.037538 Si / 1000 Ang^3
#
#
#
# Elastic Constant Matrix: (Units=GPa)
#
#
# Indices 1 2 3 4 5 6 
#
# 1 123.7157 47.6066 39.3024 -0.0002 -2.4419 0.0004
# 2 47.6066 109.5009 35.4524 -0.0012 6.2649 -0.0002
# 3 39.3024 35.4524 82.8903 -0.0060 5.9757 -0.0016
# 4 -0.0002 -0.0012 -0.0060 23.9776 -0.0030 3.4831
# 5 -2.4419 6.2649 5.9757 -0.0030 31.4318 -0.0005
# 6 0.0004 -0.0002 -0.0016 3.4831 -0.0005 27.2892
#
#
#
# Elastic Compliance Matrix: (Units=1/GPa)
#
#
# Indices 1 2 3 4 5 6 
#
# 1 0.010677 -0.003574 -0.003696 -0.000001 0.002244 0.000000
# 2 -0.003574 0.011846 -0.003226 0.000000 -0.002025 0.000000
# 3 -0.003696 -0.003226 0.015381 0.000003 -0.002568 0.000000
# 4 -0.000001 0.000000 0.000003 0.042493 0.000003 -0.005424
# 5 0.002244 -0.002025 -0.002568 0.000003 0.032881 0.000000
# 6 0.000000 0.000000 0.000000 -0.005424 0.000000 0.037337
#
#
# Mechanical properties :
#
#
# Convention : Reuss Voigt Hill
#
# Bulk Modulus (GPa) = 59.12490 62.31442 60.71966
# Shear Modulus (GPa) = 28.20958 29.45611 28.83284
#
# Velocity S-wave (km/s) = 3.75619 3.83828 3.79745
# Velocity P-wave (km/s) = 6.95579 7.12808 7.04246
#
# Compressibility (1/GPa) = 0.01691335
#
# Stress axis : x y z
#
# Youngs Moduli (GPa) = 93.66334 84.41342 65.01322
#
# Poissons Ratio (x) = 0.30166 0.24026
# Poissons Ratio (y) = 0.33472 0.20975
# Poissons Ratio (z) = 0.34614 0.27234
#
# Static dielectric constant tensor:
#      x y z
#    x 3.845730 0.000000 -0.112800 
#    y 0.000000 3.568030 -0.000010 
#    z -0.112800 -0.000010 3.573250 
# 
# 
# High freq. dielectric constant tensor:
#      x y z
#    x 1.789850 0.000000 -0.002680 
#    y 0.000000 1.764910 0.000000 
#    z -0.002680 0.000000 1.766830 
# 
# From -- ./inp_files/164890.got.cif
#   From: 2010.06.25/outbox.cif.g09.slc.cpg/sg12_83_cif.got.tgz:164890.got - 2010.06.28 00:19:55.
