data_PCOD8100524
_publ_section_title
;
Structure prediction by ZEFSAII (Michael W. Deem and Ramdas Pophale) SiO2 
 PCOD8100524
Probable space group: C 2/M
;
_chemical_formula_sum "Si O2"
_cell_formula_units_Z 64
_cell_length_a 18.567196
_cell_length_b 8.600785
_cell_length_c 20.441468
_cell_angle_alpha 90.000000
_cell_angle_beta 80.159465
_cell_angle_gamma 90.000000
_cell_volume 3216.320735
_symmetry_space_group_name_H-M "C 2/M"
_symmetry_group_IT_number 12
_symmetry_cell_setting 'monoclinic'
loop_
_space_group_symop_operation_xyz
x,y,z
-x,y,-z
-x,-y,-z
x,-y,z
1/2+x,1/2+y,z
1/2-x,1/2+y,-z
1/2-x,1/2-y,-z
1/2+x,1/2-y,z
loop_
_atom_site_type_symbol
_atom_site_label
_atom_site_fract_x
_atom_site_fract_y
_atom_site_fract_z
Si Si1 0.669043 0.182571 0.021538
Si Si2 0.828049 0.323091 0.217690
Si Si3 0.237513 0.820141 0.572440
Si Si4 0.815269 0.820904 0.682539
Si Si5 0.045057 0.680445 0.280989
Si Si6 0.401535 0.322332 0.326558
Si Si7 0.594141 0.679820 0.910222
Si Si8 0.056449 0.816587 0.135050
O O1 0.631379 0.256294 0.091316
O O2 0.675912 0.000000 0.030483
O O3 0.750000 0.250000 0.000000
O O4 0.616457 0.218668 0.968811
O O5 0.840729 0.500000 0.193018
O O6 0.745269 0.293853 0.252370
O O7 0.880569 0.288561 0.270026
O O8 0.846265 0.208698 0.155471
O O9 0.250000 0.750000 0.500000
O O10 0.286887 0.727139 0.615879
O O11 0.152109 0.798046 0.603648
O O12 0.260296 0.000000 0.570220
O O13 0.880877 0.710060 0.691829
O O14 0.839918 0.000000 0.676558
O O15 0.027083 0.500000 0.283630
O O16 0.048075 0.740392 0.206716
O O17 0.983297 0.771786 0.332450
O O18 0.398571 0.500000 0.302679
O O19 0.595820 0.500000 0.930660
O O20 0.513404 0.729364 0.898685
O O21 0.061077 0.000000 0.143928
#
# Coordination Sequence:
#
# PCOD8100524 Si02
#       8
#     8   8   8   8   8   8   8   8
#     4  12  27  45  64  87 120 158 204 258 311 370
#     4  10  20  35  59  89 118 154 201 249 297 357
#     4  10  21  39  65  94 126 164 207 248 298 358
#     4  10  22  39  60  88 126 164 202 250 305 356
#     4  12  24  38  61  92 126 161 204 255 306 360
#     4  10  20  37  60  89 124 161 200 246 297 355
#     4  11  23  40  64  89 120 158 200 249 307 370
#     4  11  24  43  65  89 121 160 203 249 308 372
#
# _framework density 19.898513000000001
#
# number of rings (size 3 to 8) (size 9 to 14) (size 15 to 20)
#    0.000    1.250    1.250    4.875    1.750    6.000 
#    0.000    0.625    0.000    3.750    0.000    0.000 
#    0.000    0.000    0.000    0.000    0.000    0.000 
#
# Total GULP energy -396939.672303 kJ/mol
# GULP energy per Si atom -12404.364759 kJ/mol
# Density = 1.985322 g / cm^3
# Si number density = 19.898513 Si / 1000 Ang^3
#
#
#
# Elastic Constant Matrix: (Units=GPa)
#
#
# Indices 1 2 3 4 5 6 
#
# 1 116.6088 34.1789 37.2303 0.0000 -6.7757 0.0000
# 2 34.1789 58.9754 26.2774 0.0000 -7.0630 0.0000
# 3 37.2303 26.2774 77.7756 0.0000 -17.5447 0.0000
# 4 0.0000 0.0000 0.0000 35.9278 0.0000 -0.2529
# 5 -6.7757 -7.0630 -17.5447 0.0000 24.4560 0.0000
# 6 0.0000 0.0000 0.0000 -0.2529 0.0000 35.0221
#
#
#
# Elastic Compliance Matrix: (Units=1/GPa)
#
#
# Indices 1 2 3 4 5 6 
#
# 1 0.011204 -0.004857 -0.003983 0.000000 -0.001156 0.000000
# 2 -0.004857 0.022092 -0.004776 0.000000 0.001608 0.000000
# 3 -0.003983 -0.004776 0.018872 0.000000 0.011056 0.000000
# 4 0.000000 0.000000 0.000000 0.027835 0.000000 0.000201
# 5 -0.001156 0.001608 0.011056 0.000000 0.048965 0.000000
# 6 0.000000 0.000000 0.000000 0.000201 0.000000 0.028555
#
#
# Mechanical properties :
#
#
# Convention : Reuss Voigt Hill
#
# Bulk Modulus (GPa) = 40.10404 49.85919 44.98162
# Shear Modulus (GPa) = 25.89786 29.45939 27.67862
#
# Velocity S-wave (km/s) = 3.61154 3.85188 3.73364
# Velocity P-wave (km/s) = 6.13099 6.70028 6.42195
#
# Compressibility (1/GPa) = 0.02493514
#
# Stress axis : x y z
#
# Youngs Moduli (GPa) = 89.25590 45.26581 52.98926
#
# Poissons Ratio (x) = 0.21985 0.21105
# Poissons Ratio (y) = 0.43350 0.25309
# Poissons Ratio (z) = 0.35550 0.21620
#
# Static dielectric constant tensor:
#      x y z
#    x 5.546140 0.000000 -1.452520 
#    y 0.000000 3.749140 0.000000 
#    z -1.452520 0.000000 4.464160 
# 
# 
# High freq. dielectric constant tensor:
#      x y z
#    x 1.784050 0.000000 -0.010100 
#    y 0.000000 1.791570 0.000000 
#    z -0.010100 0.000000 1.763980 
# 
# From -- ./inp_files/314189.got.cif
#   From: 2010.06.25/outbox.cif.g09.slc.cpg/sg12_158_cif.got.tgz:314189.got - 2010.06.28 00:19:55.
