data_PCOD8100332
_publ_section_title
;
Structure prediction by ZEFSAII (Michael W. Deem and Ramdas Pophale) SiO2 
 PCOD8100332
Probable space group: C 2/M
;
_chemical_formula_sum "Si O2"
_cell_formula_units_Z 56
_cell_length_a 25.004781
_cell_length_b 8.978591
_cell_length_c 14.514987
_cell_angle_alpha 90.000000
_cell_angle_beta 59.317270
_cell_angle_gamma 90.000000
_cell_volume 2802.524621
_symmetry_space_group_name_H-M "C 2/M"
_symmetry_group_IT_number 12
_symmetry_cell_setting 'monoclinic'
loop_
_space_group_symop_operation_xyz
x,y,z
-x,y,-z
-x,-y,-z
x,-y,z
1/2+x,1/2+y,z
1/2-x,1/2+y,-z
1/2-x,1/2-y,-z
1/2+x,1/2-y,z
loop_
_atom_site_type_symbol
_atom_site_label
_atom_site_fract_x
_atom_site_fract_y
_atom_site_fract_z
Si Si1 0.141084 0.174588 0.220324
Si Si2 0.071676 0.324131 0.692479
Si Si3 0.528197 0.167731 0.075291
Si Si4 0.846543 0.825186 0.996748
Si Si5 0.497995 0.325984 0.605971
Si Si6 0.254296 0.176672 0.766424
Si Si7 0.211081 0.677510 0.615501
O O1 0.164730 0.226535 0.098607
O O2 0.068306 0.213831 0.290771
O O3 0.177027 0.268902 0.266060
O O4 0.152703 0.000000 0.228061
O O5 0.069181 0.500000 0.686219
O O6 0.139929 0.273046 0.663358
O O7 0.022469 0.263525 0.810559
O O8 0.053903 0.254742 0.609980
O O9 0.590118 0.262246 0.019001
O O10 0.545086 0.000000 0.090158
O O11 0.500000 0.171890 0.000000
O O12 0.853550 0.000000 0.993107
O O13 0.790663 0.771314 0.110929
O O14 0.500000 0.267439 0.500000
O O15 0.511875 0.500000 0.597954
O O16 0.233978 0.258274 0.691925
O O17 0.253849 0.000000 0.751043
O O18 0.219269 0.500000 0.607604
O O19 0.250000 0.750000 0.500000
#
# Coordination Sequence:
#
# PCOD8100332 Si02
#       7
#     8   8   8   8   8   8   8
#     4  10  21  39  61  89 125 162 202 252 307 363
#     4  10  22  40  62  90 120 154 197 247 301 357
#     4  10  20  35  58  87 120 157 197 242 298 361
#     4  10  21  38  59  88 123 159 203 250 303 363
#     4  10  22  39  62  91 121 157 199 246 306 367
#     4  11  24  40  61  91 124 162 207 252 303 363
#     4  11  25  45  66  90 122 161 205 252 304 361
#
# _framework density 19.981981999999999
#
# number of rings (size 3 to 8) (size 9 to 14) (size 15 to 20)
#    0.000    1.714    1.429    2.143    2.000    5.143 
#    0.000    0.000    0.000    0.000    0.000    0.000 
#    0.000    0.000    0.000    0.000    0.000    0.000 
#
# Total GULP energy -347304.292785 kJ/mol
# GULP energy per Si atom -12403.724742 kJ/mol
# Density = 1.993650 g / cm^3
# Si number density = 19.981982 Si / 1000 Ang^3
#
#
#
# Elastic Constant Matrix: (Units=GPa)
#
#
# Indices 1 2 3 4 5 6 
#
# 1 123.2797 38.8987 29.6335 0.0000 13.0950 -0.0001
# 2 38.8987 38.0898 34.0309 0.0000 3.7731 -0.0004
# 3 29.6335 34.0309 91.3374 0.0000 15.4020 -0.0001
# 4 0.0000 0.0000 0.0000 23.2700 0.0000 27.8664
# 5 13.0950 3.7731 15.4020 0.0000 32.2598 0.0000
# 6 -0.0001 -0.0004 -0.0001 27.8664 0.0000 -86.1659
#
#
#
# Elastic Compliance Matrix: (Units=1/GPa)
#
#
# Indices 1 2 3 4 5 6 
#
# 1 0.012569 -0.014117 0.001918 0.000000 -0.004367 0.000000
# 2 -0.014117 0.055413 -0.017335 0.000000 0.007526 0.000000
# 3 0.001918 -0.017335 0.018025 0.000000 -0.007357 0.000000
# 4 0.000000 0.000000 0.000000 0.030977 0.000000 0.010018
# 5 -0.004367 0.007526 -0.007357 0.000000 0.035403 0.000000
# 6 0.000000 0.000000 0.000000 0.010018 0.000000 -0.008366
#
#
# Mechanical properties :
#
#
# Convention : Reuss Voigt Hill
#
# Bulk Modulus (GPa) = 37.11987 50.87033 43.99510
# Shear Modulus (GPa) = 23.57734 3.88235 13.72985
#
# Velocity S-wave (km/s) = 3.43874 1.39540 2.62412
# Velocity P-wave (km/s) = 5.86375 5.30185 5.58986
#
# Compressibility (1/GPa) = 0.02693975
#
# Stress axis : x y z
#
# Youngs Moduli (GPa) = 79.56255 18.04644 55.47753
#
# Poissons Ratio (x) = 0.25476 -0.10642
# Poissons Ratio (y) = 1.12318 0.96169
# Poissons Ratio (z) = -0.15263 0.31283
#
# Static dielectric constant tensor:
#      x y z
#    x 3.674330 0.000000 0.070840 
#    y 0.000000 3.567580 0.000000 
#    z 0.070840 0.000000 4.173560 
# 
# 
# High freq. dielectric constant tensor:
#      x y z
#    x 1.791270 0.000000 0.003390 
#    y 0.000000 1.771220 0.000000 
#    z 0.003390 0.000000 1.791630 
# 
# From -- ./inp_files/238351.got.cif
#   From: 2010.06.25/outbox.cif.g09.slc.cpg/sg12_120_cif.got.tgz:238351.got - 2010.06.28 00:19:55.
