data_PCOD8100743
_publ_section_title
;
Structure prediction by ZEFSAII (Michael W. Deem and Ramdas Pophale) SiO2 
 PCOD8100743
Probable space group: C 2/M
;
_chemical_formula_sum "Si O2"
_cell_formula_units_Z 56
_cell_length_a 15.249254
_cell_length_b 17.382544
_cell_length_c 13.390157
_cell_angle_alpha 90.000000
_cell_angle_beta 128.293495
_cell_angle_gamma 90.000000
_cell_volume 2785.687906
_symmetry_space_group_name_H-M "C 2/M"
_symmetry_group_IT_number 12
_symmetry_cell_setting 'monoclinic'
loop_
_space_group_symop_operation_xyz
x,y,z
-x,y,-z
-x,-y,-z
x,-y,z
1/2+x,1/2+y,z
1/2-x,1/2+y,-z
1/2-x,1/2-y,-z
1/2+x,1/2-y,z
loop_
_atom_site_type_symbol
_atom_site_label
_atom_site_fract_x
_atom_site_fract_y
_atom_site_fract_z
Si Si1 0.252986 0.589039 0.513305
Si Si2 0.383555 0.591094 0.135401
Si Si3 0.949022 0.805525 0.868510
Si Si4 0.054422 0.689712 0.298882
Si Si5 0.261245 0.415356 0.748615
Si Si6 0.516276 0.333685 0.393658
Si Si7 0.851600 0.586387 0.130105
O O1 0.255728 0.500000 0.484156
O O2 0.152357 0.629861 0.385854
O O3 0.222925 0.600091 0.608445
O O4 0.370757 0.626275 0.566638
O O5 0.406544 0.500000 0.150246
O O6 0.467255 0.632951 0.119967
O O7 0.409777 0.625748 0.264279
O O8 0.257490 0.609711 0.011241
O O9 0.901034 0.746217 0.755249
O O10 0.848461 0.852699 0.845233
O O11 0.000000 0.761350 0.000000
O O12 0.021714 0.742455 0.371432
O O13 0.948750 0.646580 0.175819
O O14 0.316343 0.500000 0.794098
O O15 0.162094 0.410210 0.759124
O O16 0.500000 0.344199 0.500000
O O17 0.887770 0.500000 0.125108
#
# Coordination Sequence:
#
# PCOD8100743 Si02
#       7
#     8   8   8   8   8   8   8
#     4  11  23  42  64  86 119 161 206 251 292 350
#     4  10  20  38  63  90 120 154 199 251 298 349
#     4  11  21  36  60  91 119 154 193 253 311 354
#     4  11  25  41  59  87 126 164 198 240 298 365
#     4  10  20  35  63  94 118 149 196 252 306 353
#     4  11  25  40  63  93 122 159 199 248 300 353
#     4  10  22  39  62  91 121 158 199 246 300 357
#
# _framework density 20.102754000000001
#
# number of rings (size 3 to 8) (size 9 to 14) (size 15 to 20)
#    0.000    1.429    4.286    1.714    2.000    4.000 
#    2.571    2.143    0.000    0.857    0.000    0.000 
#    0.000    0.000    0.000    0.000    0.000    0.000 
#
# Total GULP energy -347052.986033 kJ/mol
# GULP energy per Si atom -12394.749501 kJ/mol
# Density = 2.005700 g / cm^3
# Si number density = 20.102754 Si / 1000 Ang^3
#
#
#
# Elastic Constant Matrix: (Units=GPa)
#
#
# Indices 1 2 3 4 5 6 
#
# 1 38.1914 20.3579 33.0565 0.0000 -3.8768 0.0000
# 2 20.3579 101.4786 53.5740 0.0000 16.2682 0.0000
# 3 33.0565 53.5740 118.1222 0.0000 2.9778 0.0000
# 4 0.0000 0.0000 0.0000 36.1703 0.0000 8.6967
# 5 -3.8768 16.2682 2.9778 0.0000 38.4700 0.0000
# 6 0.0000 0.0000 0.0000 8.6967 0.0000 15.8194
#
#
#
# Elastic Compliance Matrix: (Units=1/GPa)
#
#
# Indices 1 2 3 4 5 6 
#
# 1 0.036183 -0.003647 -0.008619 0.000000 0.005856 0.000000
# 2 -0.003647 0.014376 -0.005348 0.000000 -0.006033 0.000000
# 3 -0.008619 -0.005348 0.013294 0.000000 0.000364 0.000000
# 4 0.000000 0.000000 0.000000 0.031858 0.000000 -0.017514
# 5 0.005856 -0.006033 0.000364 0.000000 0.029107 0.000000
# 6 0.000000 0.000000 0.000000 -0.017514 0.000000 0.072842
#
#
# Mechanical properties :
#
#
# Convention : Reuss Voigt Hill
#
# Bulk Modulus (GPa) = 34.93413 52.41879 43.67646
# Shear Modulus (GPa) = 20.62449 28.14552 24.38500
#
# Velocity S-wave (km/s) = 3.20653 3.74583 3.48662
# Velocity P-wave (km/s) = 5.57894 6.69629 6.16299
#
# Compressibility (1/GPa) = 0.02862530
#
# Stress axis : x y z
#
# Youngs Moduli (GPa) = 27.63750 69.55890 75.22119
#
# Poissons Ratio (x) = 0.25369 0.64835
# Poissons Ratio (y) = 0.10080 0.40225
# Poissons Ratio (z) = 0.23821 0.37197
#
# Static dielectric constant tensor:
#      x y z
#    x 3.419030 0.000000 -0.119250 
#    y 0.000000 3.830290 0.000000 
#    z -0.119250 0.000000 3.806200 
# 
# 
# High freq. dielectric constant tensor:
#      x y z
#    x 1.757140 0.000000 -0.004900 
#    y 0.000000 1.794040 0.000000 
#    z -0.004900 0.000000 1.795020 
# 
# From -- ./inp_files/226586.got.cif
#   From: 2010.06.25/outbox.cif.g09.slc.cpg/sg12_114_cif.got.tgz:226586.got - 2010.06.28 00:19:55.
