data_PCOD8100605
_publ_section_title
;
Structure prediction by ZEFSAII (Michael W. Deem and Ramdas Pophale) SiO2 
 PCOD8100605
Probable space group: C 2/M
;
_chemical_formula_sum "Si O2"
_cell_formula_units_Z 48
_cell_length_a 24.869165
_cell_length_b 23.767003
_cell_length_c 11.107275
_cell_angle_alpha 90.000000
_cell_angle_beta 20.460180
_cell_angle_gamma 90.000000
_cell_volume 2294.881719
_symmetry_space_group_name_H-M "C 2/M"
_symmetry_group_IT_number 12
_symmetry_cell_setting 'monoclinic'
loop_
_space_group_symop_operation_xyz
x,y,z
-x,y,-z
-x,-y,-z
x,-y,z
1/2+x,1/2+y,z
1/2-x,1/2+y,-z
1/2-x,1/2-y,-z
1/2+x,1/2-y,z
loop_
_atom_site_type_symbol
_atom_site_label
_atom_site_fract_x
_atom_site_fract_y
_atom_site_fract_z
Si Si1 0.268467 0.715647 0.083585
Si Si2 0.710385 0.000000 0.671403
Si Si3 0.239477 0.383649 0.705980
Si Si4 0.944927 0.198800 0.369252
Si Si5 0.379028 0.877638 0.484528
Si Si6 0.650107 0.000000 0.533065
Si Si7 0.210773 0.811062 0.629704
O O1 0.192105 0.653055 0.246980
O O2 0.180268 0.750691 0.374152
O O3 0.250000 0.750000 0.000000
O O4 0.448307 0.709188 0.738016
O O5 0.781950 0.052089 0.592471
O O6 0.752067 0.000000 0.441708
O O7 0.527543 0.000000 0.060430
O O8 0.345881 0.359116 0.590979
O O9 0.292181 0.350431 0.478604
O O10 0.061890 0.375675 0.111223
O O11 0.043608 0.195281 0.040972
O O12 0.328837 0.841556 0.473523
O O13 0.315717 0.942195 0.612055
O O14 0.250000 0.750000 0.500000
#
# Coordination Sequence:
#
# PCOD8100605 Si02
#       7
#     8   4   8   8   8   4   8
#     4  11  23  42  62  83 111 149 201 262 318 357
#     4   9  18  32  56  86 125 172 199 233 279 346
#     4  11  20  35  56  87 126 161 197 233 288 357
#     4  11  24  37  55  85 114 153 198 244 309 364
#     4  10  20  35  60  87 118 160 205 248 292 347
#     4   9  16  34  57  89 120 162 214 241 279 343
#     4  11  21  33  52  84 124 162 196 238 290 361
#
# _framework density 20.916111999999998
#
# number of rings (size 3 to 8) (size 9 to 14) (size 15 to 20)
#    0.000    1.500    1.667    5.500    0.000    2.667 
#    0.000    5.000    0.000    1.000    0.000   11.667 
#    0.000    0.000    0.000    0.000    0.000    0.000 
#
# Total GULP energy -297366.890264 kJ/mol
# GULP energy per Si atom -12390.287094 kJ/mol
# Density = 2.086851 g / cm^3
# Si number density = 20.916112 Si / 1000 Ang^3
#
#
#
# Elastic Constant Matrix: (Units=GPa)
#
#
# Indices 1 2 3 4 5 6 
#
# 1 85.6754 63.8016 33.4897 0.0052 -14.9212 0.0027
# 2 63.8016 205.0565 53.0056 -0.0025 -13.7573 0.0022
# 3 33.4897 53.0056 73.0391 0.0020 -20.9845 0.0095
# 4 0.0052 -0.0025 0.0020 33.1335 -0.0068 -0.0531
# 5 -14.9212 -13.7573 -20.9845 -0.0068 32.7753 -0.0012
# 6 0.0027 0.0022 0.0095 -0.0531 -0.0012 27.7154
#
#
#
# Elastic Compliance Matrix: (Units=1/GPa)
#
#
# Indices 1 2 3 4 5 6 
#
# 1 0.016733 -0.003999 -0.003755 -0.000002 0.003535 0.000000
# 2 -0.003999 0.006961 -0.003556 0.000001 -0.001175 0.000001
# 3 -0.003755 -0.003556 0.020922 0.000001 0.010194 -0.000006
# 4 -0.000002 0.000001 0.000001 0.030181 0.000007 0.000058
# 5 0.003535 -0.001175 0.010194 0.000007 0.038154 -0.000002
# 6 0.000000 0.000001 -0.000006 0.000058 -0.000002 0.036081
#
#
# Mechanical properties :
#
#
# Convention : Reuss Voigt Hill
#
# Bulk Modulus (GPa) = 45.45943 73.81831 59.63887
# Shear Modulus (GPa) = 27.93547 32.95644 30.44595
#
# Velocity S-wave (km/s) = 3.65855 3.97375 3.81940
# Velocity P-wave (km/s) = 6.29507 7.51155 6.93006
#
# Compressibility (1/GPa) = 0.02199764
#
# Stress axis : x y z
#
# Youngs Moduli (GPa) = 59.76167 143.65325 47.79582
#
# Poissons Ratio (x) = 0.57441 0.17947
# Poissons Ratio (y) = 0.23896 0.16997
# Poissons Ratio (z) = 0.22440 0.51084
#
# Static dielectric constant tensor:
#      x y z
#    x 2.839880 -0.000070 0.262350 
#    y -0.000070 4.177590 0.000070 
#    z 0.262350 0.000070 3.680510 
# 
# 
# High freq. dielectric constant tensor:
#      x y z
#    x 1.792290 0.000000 -0.017930 
#    y 0.000000 1.828620 0.000000 
#    z -0.017930 0.000000 1.814840 
# 
# From -- ./inp_files/185023.got.cif
#   From: 2010.06.25/outbox.cif.g09.slc.cpg/sg12_93_cif.got.tgz:185023.got - 2010.06.28 00:19:55.
