data_PCOD8100380
_publ_section_title
;
Structure prediction by ZEFSAII (Michael W. Deem and Ramdas Pophale) SiO2 
 PCOD8100380
Probable space group: C 2/M
;
_chemical_formula_sum "Si O2"
_cell_formula_units_Z 64
_cell_length_a 25.156109
_cell_length_b 9.041609
_cell_length_c 14.851782
_cell_angle_alpha 90.000000
_cell_angle_beta 71.160066
_cell_angle_gamma 90.000000
_cell_volume 3197.081389
_symmetry_space_group_name_H-M "C 2/M"
_symmetry_group_IT_number 12
_symmetry_cell_setting 'monoclinic'
loop_
_space_group_symop_operation_xyz
x,y,z
-x,y,-z
-x,-y,-z
x,-y,z
1/2+x,1/2+y,z
1/2-x,1/2+y,-z
1/2-x,1/2-y,-z
1/2+x,1/2-y,z
loop_
_atom_site_type_symbol
_atom_site_label
_atom_site_fract_x
_atom_site_fract_y
_atom_site_fract_z
Si Si1 0.612327 0.672815 0.084829
Si Si2 0.590381 0.169135 0.586767
Si Si3 0.001762 0.326847 0.101141
Si Si4 0.017027 0.835380 0.387723
Si Si5 0.120338 0.669101 0.764021
Si Si6 0.186372 0.173980 0.875541
Si Si7 0.802286 0.825024 0.805982
Si Si8 0.125997 0.674265 0.371026
O O1 0.601464 0.500000 0.093766
O O2 0.552269 0.750868 0.128248
O O3 0.652441 0.722444 0.144088
O O4 0.640839 0.719676 0.975173
O O5 0.534887 0.264773 0.637086
O O6 0.630832 0.187966 0.651032
O O7 0.623082 0.218024 0.478402
O O8 0.570273 0.000000 0.586713
O O9 0.013605 0.500000 0.096330
O O10 0.943525 0.284793 0.180233
O O11 0.000000 0.266671 0.000000
O O12 0.071717 0.733899 0.346924
O O13 0.000000 0.843823 0.500000
O O14 0.030041 0.000000 0.342780
O O15 0.131171 0.500000 0.788578
O O16 0.163595 0.775334 0.790916
O O17 0.243221 0.258455 0.868790
O O18 0.198259 0.000000 0.868246
O O19 0.819739 0.754540 0.700437
O O20 0.796751 0.000000 0.798921
O O21 0.130941 0.500000 0.354063
#
# Coordination Sequence:
#
# PCOD8100380 Si02
#       8
#     8   8   8   8   8   8   8   8
#     4  10  23  40  60  87 119 151 189 236 291 348
#     4   9  19  35  56  82 115 155 196 236 285 341
#     4  10  20  35  58  89 121 154 191 232 284 344
#     4   9  17  30  50  77 111 149 187 231 284 338
#     4  10  21  38  59  86 120 157 195 235 285 344
#     4  11  23  41  62  86 114 151 194 239 290 346
#     4  11  24  41  61  86 115 151 194 243 294 345
#     4  10  20  36  56  81 114 151 195 244 287 337
#
# _framework density 20.018259
#
# number of rings (size 3 to 8) (size 9 to 14) (size 15 to 20)
#    0.000    2.000    1.250    1.875    1.750    4.750 
#    0.000    0.625    0.000    0.000    0.000    0.000 
#    0.000    0.000    0.000    0.000    0.000    0.000 
#
# Total GULP energy -396891.543246 kJ/mol
# GULP energy per Si atom -12402.860726 kJ/mol
# Density = 1.997270 g / cm^3
# Si number density = 20.018259 Si / 1000 Ang^3
#
#
#
# Elastic Constant Matrix: (Units=GPa)
#
#
# Indices 1 2 3 4 5 6 
#
# 1 97.7286 39.6671 24.3958 0.0000 6.8858 0.0000
# 2 39.6671 78.0151 25.0092 0.0000 2.8589 0.0000
# 3 24.3958 25.0092 65.4808 0.0000 13.5106 0.0000
# 4 0.0000 0.0000 0.0000 25.1522 0.0000 -1.2906
# 5 6.8858 2.8589 13.5106 0.0000 25.0998 0.0000
# 6 0.0000 0.0000 0.0000 -1.2906 0.0000 39.9634
#
#
#
# Elastic Compliance Matrix: (Units=1/GPa)
#
#
# Indices 1 2 3 4 5 6 
#
# 1 0.013366 -0.005983 -0.002338 0.000000 -0.001727 0.000000
# 2 -0.005983 0.017336 -0.004863 0.000000 0.002285 0.000000
# 3 -0.002338 -0.004863 0.019972 0.000000 -0.009555 0.000000
# 4 0.000000 0.000000 0.000000 0.039824 0.000000 0.001286
# 5 -0.001727 0.002285 -0.009555 0.000000 0.045198 0.000000
# 6 0.000000 0.000000 0.000000 0.001286 0.000000 0.025064
#
#
# Mechanical properties :
#
#
# Convention : Reuss Voigt Hill
#
# Bulk Modulus (GPa) = 41.14571 46.59651 43.87111
# Shear Modulus (GPa) = 25.61073 28.18656 26.89865
#
# Velocity S-wave (km/s) = 3.58071 3.75646 3.66964
# Velocity P-wave (km/s) = 6.13954 6.49170 6.31808
#
# Compressibility (1/GPa) = 0.02430387
#
# Stress axis : x y z
#
# Youngs Moduli (GPa) = 74.81466 57.68495 50.07082
#
# Poissons Ratio (x) = 0.34515 0.11708
# Poissons Ratio (y) = 0.44764 0.24351
# Poissons Ratio (z) = 0.17494 0.28054
#
# Static dielectric constant tensor:
#      x y z
#    x 3.478530 0.000000 0.033350 
#    y 0.000000 3.610380 0.000000 
#    z 0.033350 0.000000 3.733820 
# 
# 
# High freq. dielectric constant tensor:
#      x y z
#    x 1.766010 0.000000 0.002980 
#    y 0.000000 1.780220 0.000000 
#    z 0.002980 0.000000 1.786660 
# 
# From -- ./inp_files/243904.got.cif
#   From: 2010.06.25/outbox.cif.g09.slc.cpg/sg12_122_cif.got.tgz:243904.got - 2010.06.28 00:19:55.
