data_PCOD8100333
_publ_section_title
;
Structure prediction by ZEFSAII (Michael W. Deem and Ramdas Pophale) SiO2 
 PCOD8100333
Probable space group: C 2/M
;
_chemical_formula_sum "Si O2"
_cell_formula_units_Z 64
_cell_length_a 29.974040
_cell_length_b 13.760148
_cell_length_c 11.649156
_cell_angle_alpha 90.000000
_cell_angle_beta 137.487035
_cell_angle_gamma 90.000000
_cell_volume 3246.784146
_symmetry_space_group_name_H-M "C 2/M"
_symmetry_group_IT_number 12
_symmetry_cell_setting 'monoclinic'
loop_
_space_group_symop_operation_xyz
x,y,z
-x,y,-z
-x,-y,-z
x,-y,z
1/2+x,1/2+y,z
1/2-x,1/2+y,-z
1/2-x,1/2-y,-z
1/2+x,1/2-y,z
loop_
_atom_site_type_symbol
_atom_site_label
_atom_site_fract_x
_atom_site_fract_y
_atom_site_fract_z
Si Si1 0.754794 0.777846 0.253466
Si Si2 0.982858 0.892664 0.598287
Si Si3 0.158101 0.108390 0.747120
Si Si4 0.583477 0.610646 0.089443
Si Si5 0.133211 0.262022 0.350372
Si Si6 0.331028 0.390946 0.974258
Si Si7 0.631534 0.116236 0.127646
Si Si8 0.992750 0.254288 0.171235
O O1 0.786952 0.822442 0.201035
O O2 0.804537 0.757061 0.451573
O O3 0.732415 0.672981 0.170110
O O4 0.693513 0.846386 0.171802
O O5 0.903880 0.885195 0.456500
O O6 0.000000 0.886255 0.500000
O O7 0.015012 0.800610 0.721975
O O8 0.006341 0.000000 0.691582
O O9 0.187165 0.000000 0.800898
O O10 0.138429 0.135449 0.841997
O O11 0.569981 0.500000 0.098350
O O12 0.627620 0.660353 0.270777
O O13 0.616358 0.624806 0.026616
O O14 0.515683 0.671128 0.943671
O O15 0.144439 0.350477 0.283011
O O16 0.067402 0.292435 0.296689
O O17 0.304453 0.500000 0.922292
O O18 0.626357 0.000000 0.111071
O O19 0.562522 0.161595 0.948059
#
# Coordination Sequence:
#
# PCOD8100333 Si02
#       8
#     8   8   8   8   8   8   8   8
#     4  12  22  42  62  90 123 161 200 259 310 360
#     4  10  20  35  62  95 126 158 196 246 308 370
#     4  10  21  37  60  93 123 155 200 248 302 364
#     4  10  20  35  58  87 121 155 188 237 302 370
#     4  11  24  39  60  89 123 153 205 256 304 358
#     4  10  21  38  61  88 120 159 201 242 298 367
#     4  11  25  42  63  86 119 168 211 251 303 368
#     4  11  21  40  60  88 122 159 202 252 299 365
#
# _framework density 19.711812999999999
#
# number of rings (size 3 to 8) (size 9 to 14) (size 15 to 20)
#    0.000    1.375    3.750    3.750    0.000    6.000 
#    0.000    0.000    0.000    0.375    0.000    0.000 
#    0.000    0.000    0.000    0.000    0.000    0.000 
#
# Total GULP energy -396566.045548 kJ/mol
# GULP energy per Si atom -12392.688923 kJ/mol
# Density = 1.966695 g / cm^3
# Si number density = 19.711813 Si / 1000 Ang^3
#
#
#
# Elastic Constant Matrix: (Units=GPa)
#
#
# Indices 1 2 3 4 5 6 
#
# 1 75.1331 24.4094 18.4929 0.0000 2.2115 0.0000
# 2 24.4094 116.5361 49.9460 0.0000 3.1936 0.0000
# 3 18.4929 49.9460 100.9517 0.0000 -2.5959 0.0000
# 4 0.0000 0.0000 0.0000 24.7832 0.0000 -4.3422
# 5 2.2115 3.1936 -2.5959 0.0000 28.2852 0.0000
# 6 0.0000 0.0000 0.0000 -4.3422 0.0000 22.9279
#
#
#
# Elastic Compliance Matrix: (Units=1/GPa)
#
#
# Indices 1 2 3 4 5 6 
#
# 1 0.014477 -0.002357 -0.001512 0.000000 -0.001005 0.000000
# 2 -0.002357 0.011359 -0.005229 0.000000 -0.001578 0.000000
# 3 -0.001512 -0.005229 0.012818 0.000000 0.001885 0.000000
# 4 0.000000 0.000000 0.000000 0.041735 0.000000 0.007904
# 5 -0.001005 -0.001578 0.001885 0.000000 0.035784 0.000000
# 6 0.000000 0.000000 0.000000 0.007904 0.000000 0.045112
#
#
# Mechanical properties :
#
#
# Convention : Reuss Voigt Hill
#
# Bulk Modulus (GPa) = 48.87730 53.14639 51.01185
# Shear Modulus (GPa) = 26.83860 28.51744 27.67802
#
# Velocity S-wave (km/s) = 3.69392 3.80770 3.75124
# Velocity P-wave (km/s) = 6.56073 6.80821 6.68561
#
# Compressibility (1/GPa) = 0.02045939
#
# Stress axis : x y z
#
# Youngs Moduli (GPa) = 69.07464 88.03670 78.01514
#
# Poissons Ratio (x) = 0.20749 0.11794
# Poissons Ratio (y) = 0.16280 0.40792
# Poissons Ratio (z) = 0.10442 0.46031
#
# Static dielectric constant tensor:
#      x y z
#    x 3.700420 0.000000 0.022920 
#    y 0.000000 3.580090 0.000000 
#    z 0.022920 0.000000 3.767040 
# 
# 
# High freq. dielectric constant tensor:
#      x y z
#    x 1.783500 0.000000 -0.001010 
#    y 0.000000 1.751890 0.000000 
#    z -0.001010 0.000000 1.770790 
# 
# From -- ./inp_files/189482.got.cif
#   From: 2010.06.25/outbox.cif.g09.slc.cpg/sg12_95_cif.got.tgz:189482.got - 2010.06.28 00:19:55.
