data_PCOD8100281
_publ_section_title
;
Structure prediction by ZEFSAII (Michael W. Deem and Ramdas Pophale) SiO2 
 PCOD8100281
Probable space group: C 2/M
;
_chemical_formula_sum "Si O2"
_cell_formula_units_Z 56
_cell_length_a 13.941273
_cell_length_b 14.137535
_cell_length_c 18.952592
_cell_angle_alpha 90.000000
_cell_angle_beta 50.421643
_cell_angle_gamma 90.000000
_cell_volume 2879.124918
_symmetry_space_group_name_H-M "C 2/M"
_symmetry_group_IT_number 12
_symmetry_cell_setting 'monoclinic'
loop_
_space_group_symop_operation_xyz
x,y,z
-x,y,-z
-x,-y,-z
x,-y,z
1/2+x,1/2+y,z
1/2-x,1/2+y,-z
1/2-x,1/2-y,-z
1/2+x,1/2-y,z
loop_
_atom_site_type_symbol
_atom_site_label
_atom_site_fract_x
_atom_site_fract_y
_atom_site_fract_z
Si Si1 0.146672 0.859527 0.596709
Si Si2 0.646294 0.108696 0.779292
Si Si3 0.335766 0.859651 0.390262
Si Si4 0.676300 0.387336 0.064863
Si Si5 0.064975 0.711980 0.045460
Si Si6 0.375098 0.393364 0.757627
Si Si7 0.505550 0.000000 0.609029
Si Si8 0.702255 0.000000 0.394250
O O1 0.217381 0.893086 0.492530
O O2 0.151157 0.750276 0.608218
O O3 0.003760 0.887895 0.655037
O O4 0.210499 0.908619 0.634838
O O5 0.684975 0.110164 0.679608
O O6 0.529809 0.176258 0.849912
O O7 0.763527 0.154847 0.766152
O O8 0.615928 0.000000 0.814666
O O9 0.462799 0.907207 0.359702
O O10 0.659889 0.500000 0.054709
O O11 0.609195 0.320584 0.038141
O O12 0.612089 0.355175 0.168687
O O13 0.821272 0.361600 0.003604
O O14 0.000000 0.706216 0.000000
O O15 0.330578 0.500000 0.785706
O O16 0.588396 0.000000 0.500877
O O17 0.359147 0.000000 0.655454
#
# Coordination Sequence:
#
# PCOD8100281 Si02
#       8
#     8   8   8   8   8   8   4   4
#     4  10  20  36  57  83 117 157 204 241 295 351
#     4  11  22  36  60  89 119 153 197 248 301 359
#     4  10  21  36  56  83 119 158 195 252 292 345
#     4  10  22  40  64  91 123 158 198 249 299 356
#     4  11  22  40  66  92 119 158 201 246 305 363
#     4  10  20  35  58  86 116 154 194 240 294 359
#     4   9  18  36  55  79 111 154 199 239 291 341
#     4   9  18  34  59  79 108 155 201 239 285 350
#
# _framework density 19.450353
#
# number of rings (size 3 to 8) (size 9 to 14) (size 15 to 20)
#    0.000    1.857    2.857    1.286    0.000    2.571 
#    0.000    4.286    0.000    0.000    0.000    0.000 
#    0.000    0.000    0.000    0.000    0.000    0.000 
#
# Total GULP energy -347035.393376 kJ/mol
# GULP energy per Si atom -12394.121192 kJ/mol
# Density = 1.940608 g / cm^3
# Si number density = 19.450353 Si / 1000 Ang^3
#
#
#
# Elastic Constant Matrix: (Units=GPa)
#
#
# Indices 1 2 3 4 5 6 
#
# 1 109.4585 46.2153 42.0082 0.0000 -11.7215 0.0000
# 2 46.2153 115.9983 23.6047 0.0000 -1.6474 0.0000
# 3 42.0082 23.6047 87.1941 0.0000 -9.6226 0.0000
# 4 0.0000 0.0000 0.0000 29.1239 0.0000 -0.9469
# 5 -11.7215 -1.6474 -9.6226 0.0000 26.5765 0.0000
# 6 0.0000 0.0000 0.0000 -0.9469 0.0000 19.8756
#
#
#
# Elastic Compliance Matrix: (Units=1/GPa)
#
#
# Indices 1 2 3 4 5 6 
#
# 1 0.013157 -0.004216 -0.004777 0.000000 0.003812 0.000000
# 2 -0.004216 0.010477 -0.000978 0.000000 -0.001564 0.000000
# 3 -0.004777 -0.000978 0.014370 0.000000 0.003035 0.000000
# 4 0.000000 0.000000 0.000000 0.034389 0.000000 0.001638
# 5 0.003812 -0.001564 0.003035 0.000000 0.040311 0.000000
# 6 0.000000 0.000000 0.000000 0.001638 0.000000 0.050391
#
#
# Mechanical properties :
#
#
# Convention : Reuss Voigt Hill
#
# Bulk Modulus (GPa) = 55.36137 59.58970 57.47553
# Shear Modulus (GPa) = 26.44694 28.50339 27.47516
#
# Velocity S-wave (km/s) = 3.69143 3.83226 3.76251
# Velocity P-wave (km/s) = 6.83327 7.09119 6.96343
#
# Compressibility (1/GPa) = 0.01806314
#
# Stress axis : x y z
#
# Youngs Moduli (GPa) = 76.00260 95.44488 69.59038
#
# Poissons Ratio (x) = 0.40238 0.33243
# Poissons Ratio (y) = 0.32042 0.06805
# Poissons Ratio (z) = 0.36306 0.09333
#
# Static dielectric constant tensor:
#      x y z
#    x 3.681390 0.000000 0.050260 
#    y 0.000000 3.509100 0.000000 
#    z 0.050260 0.000000 3.617370 
# 
# 
# High freq. dielectric constant tensor:
#      x y z
#    x 1.756090 0.000000 -0.004540 
#    y 0.000000 1.758530 0.000000 
#    z -0.004540 0.000000 1.747530 
# 
# From -- ./inp_files/263272.got.cif
#   From: 2010.06.25/outbox.cif.g09.slc.cpg/sg12_132_cif.got.tgz:263272.got - 2010.06.28 00:19:55.
