data_PCOD8100383
_publ_section_title
;
Structure prediction by ZEFSAII (Michael W. Deem and Ramdas Pophale) SiO2 
 PCOD8100383
Probable space group: C 2/M
;
_chemical_formula_sum "Si O2"
_cell_formula_units_Z 56
_cell_length_a 29.544907
_cell_length_b 8.736816
_cell_length_c 21.479594
_cell_angle_alpha 90.000000
_cell_angle_beta 151.039344
_cell_angle_gamma 90.000000
_cell_volume 2684.693249
_symmetry_space_group_name_H-M "C 2/M"
_symmetry_group_IT_number 12
_symmetry_cell_setting 'monoclinic'
loop_
_space_group_symop_operation_xyz
x,y,z
-x,y,-z
-x,-y,-z
x,-y,z
1/2+x,1/2+y,z
1/2-x,1/2+y,-z
1/2-x,1/2-y,-z
1/2+x,1/2-y,z
loop_
_atom_site_type_symbol
_atom_site_label
_atom_site_fract_x
_atom_site_fract_y
_atom_site_fract_z
Si Si1 0.656509 0.825429 0.558211
Si Si2 0.650959 0.323597 0.889876
Si Si3 0.444583 0.173664 0.334843
Si Si4 0.045910 0.182174 0.121936
Si Si5 0.389769 0.318669 0.026430
Si Si6 0.231965 0.319099 0.409207
Si Si7 0.201405 0.318777 0.742342
O O1 0.555077 0.816182 0.468013
O O2 0.675720 0.720515 0.520970
O O3 0.715350 0.762133 0.687954
O O4 0.680298 0.000000 0.567760
O O5 0.670698 0.500000 0.922173
O O6 0.584832 0.290281 0.753448
O O7 0.750000 0.250000 0.000000
O O8 0.597284 0.263791 0.887018
O O9 0.395793 0.229590 0.340452
O O10 0.411262 0.000000 0.279667
O O11 0.145296 0.253201 0.263652
O O12 0.059583 0.000000 0.138383
O O13 0.000000 0.233130 0.000000
O O14 0.974067 0.246329 0.086906
O O15 0.389841 0.500000 0.018346
O O16 0.289655 0.250681 0.885296
O O17 0.220801 0.500000 0.403420
O O18 0.250000 0.250000 0.500000
O O19 0.204052 0.500000 0.742860
#
# Coordination Sequence:
#
# PCOD8100383 Si02
#       7
#     8   8   8   8   8   8   8
#     4  10  21  38  64  92 118 155 203 250 306 366
#     4  11  21  35  54  81 118 159 200 244 295 354
#     4  10  20  35  58  89 122 156 198 244 293 358
#     4  10  21  41  70  99 125 160 208 263 322 385
#     4   9  18  32  57  88 117 152 194 242 297 356
#     4  12  27  46  66  90 126 169 215 269 323 376
#     4   9  16  33  60  91 123 155 193 239 289 356
#
# _framework density 20.858993999999999
#
# number of rings (size 3 to 8) (size 9 to 14) (size 15 to 20)
#    0.000    1.857    1.429    3.000    2.000    4.857 
#    0.000    1.429    0.000    1.714    0.000    0.000 
#    0.000    0.000    0.000    0.000    0.000    0.000 
#
# Total GULP energy -346871.330536 kJ/mol
# GULP energy per Si atom -12388.261805 kJ/mol
# Density = 2.081152 g / cm^3
# Si number density = 20.858994 Si / 1000 Ang^3
#
#
#
# Elastic Constant Matrix: (Units=GPa)
#
#
# Indices 1 2 3 4 5 6 
#
# 1 157.9584 36.2726 36.9185 0.0000 -14.3375 0.0000
# 2 36.2726 57.9606 26.5043 0.0000 -7.9860 0.0000
# 3 36.9185 26.5043 80.7288 0.0000 -15.1760 0.0000
# 4 0.0000 0.0000 0.0000 26.2057 0.0000 -1.4950
# 5 -14.3375 -7.9860 -15.1760 0.0000 41.0504 0.0000
# 6 0.0000 0.0000 0.0000 -1.4950 0.0000 26.5411
#
#
#
# Elastic Compliance Matrix: (Units=1/GPa)
#
#
# Indices 1 2 3 4 5 6 
#
# 1 0.007794 -0.003747 -0.002106 0.000000 0.001215 0.000000
# 2 -0.003747 0.022200 -0.005383 0.000000 0.001020 0.000000
# 3 -0.002106 -0.005383 0.015886 0.000000 0.004090 0.000000
# 4 0.000000 0.000000 0.000000 0.038283 0.000000 0.002156
# 5 0.001215 0.001020 0.004090 0.000000 0.026495 0.000000
# 6 0.000000 0.000000 0.000000 0.002156 0.000000 0.037799
#
#
# Mechanical properties :
#
#
# Convention : Reuss Voigt Hill
#
# Bulk Modulus (GPa) = 42.71975 55.11539 48.91757
# Shear Modulus (GPa) = 27.97487 31.88961 29.93224
#
# Velocity S-wave (km/s) = 3.66613 3.91425 3.79222
# Velocity P-wave (km/s) = 6.20044 6.84899 6.53277
#
# Compressibility (1/GPa) = 0.02340838
#
# Stress axis : x y z
#
# Youngs Moduli (GPa) = 128.31000 45.04432 62.94696
#
# Poissons Ratio (x) = 0.16879 0.13254
# Poissons Ratio (y) = 0.48080 0.33886
# Poissons Ratio (z) = 0.27016 0.24249
#
# Static dielectric constant tensor:
#      x y z
#    x 4.259560 0.000000 -0.504150 
#    y 0.000000 3.234100 0.000000 
#    z -0.504150 0.000000 5.204620 
# 
# 
# High freq. dielectric constant tensor:
#      x y z
#    x 1.842360 0.000000 -0.003910 
#    y 0.000000 1.768060 0.000000 
#    z -0.003910 0.000000 1.820760 
# 
# From -- ./inp_files/329653.got.cif
#   From: 2010.06.25/outbox.cif.g09.slc.cpg/sg12_165_cif.got.tgz:329653.got - 2010.06.28 00:19:55.
