data_PCOD8100918
_publ_section_title
;
Structure prediction by ZEFSAII (Michael W. Deem and Ramdas Pophale) SiO2 
 PCOD8100918
Probable space group: C 2/M
;
_chemical_formula_sum "Si O2"
_cell_formula_units_Z 40
_cell_length_a 14.791074
_cell_length_b 32.903439
_cell_length_c 8.718730
_cell_angle_alpha 90.000000
_cell_angle_beta 28.825985
_cell_angle_gamma 90.000000
_cell_volume 2045.866767
_symmetry_space_group_name_H-M "C 2/M"
_symmetry_group_IT_number 12
_symmetry_cell_setting 'monoclinic'
loop_
_space_group_symop_operation_xyz
x,y,z
-x,y,-z
-x,-y,-z
x,-y,z
1/2+x,1/2+y,z
1/2-x,1/2+y,-z
1/2-x,1/2-y,-z
1/2+x,1/2-y,z
loop_
_atom_site_type_symbol
_atom_site_label
_atom_site_fract_x
_atom_site_fract_y
_atom_site_fract_z
Si Si1 0.311642 0.347594 0.371304
Si Si2 0.831549 0.000000 0.633050
Si Si3 0.790275 0.717682 0.248781
Si Si4 0.041404 0.500000 0.621468
Si Si5 0.810244 0.563893 0.376527
Si Si6 0.530591 0.205859 0.630763
O O1 0.311653 0.321740 0.529030
O O2 0.297069 0.394911 0.427464
O O3 0.130589 0.334955 0.540863
O O4 0.500000 0.337804 0.000000
O O5 0.831809 0.961000 0.521275
O O6 0.000000 0.000000 0.500000
O O7 0.652486 0.000000 0.004715
O O8 0.666222 0.756679 0.470866
O O9 0.000000 0.723777 0.000000
O O10 0.824668 0.711178 0.015203
O O11 0.152081 0.540025 0.518447
O O12 0.000000 0.500000 0.500000
O O13 0.000000 0.572216 0.000000
O O14 0.500000 0.201289 0.500000
#
# Coordination Sequence:
#
# PCOD8100918 Si02
#       6
#     8   4   8   4   8   8
#     4  11  22  37  55  78 108 146 184 221 269 325
#     4   9  19  37  60  84 110 141 179 221 271 327
#     4  10  20  36  56  76 106 145 181 222 270 326
#     4   9  19  35  60  84 110 143 179 219 268 329
#     4   9  19  38  58  79 110 148 180 218 273 328
#     4  11  21  35  56  81 107 140 181 229 272 319
#
# _framework density 19.551615000000002
#
# number of rings (size 3 to 8) (size 9 to 14) (size 15 to 20)
#    0.000    2.000    0.000    7.800    0.000    2.400 
#    0.000    7.000    0.000    0.000    0.000    0.000 
#    0.000    0.000    0.000    0.000    0.000    0.000 
#
# Total GULP energy -247912.775253 kJ/mol
# GULP energy per Si atom -12395.638763 kJ/mol
# Density = 1.950711 g / cm^3
# Si number density = 19.551615 Si / 1000 Ang^3
#
#
#
# Elastic Constant Matrix: (Units=GPa)
#
#
# Indices 1 2 3 4 5 6 
#
# 1 121.0951 49.8559 27.4995 0.0000 21.1848 0.0000
# 2 49.8559 134.4145 47.5613 0.0000 10.1461 0.0000
# 3 27.4995 47.5613 108.8600 0.0000 24.4880 0.0000
# 4 0.0000 0.0000 0.0000 21.2173 0.0000 27.2379
# 5 21.1848 10.1461 24.4880 0.0000 35.2251 0.0000
# 6 0.0000 0.0000 0.0000 27.2379 0.0000 -24.8782
#
#
#
# Elastic Compliance Matrix: (Units=1/GPa)
#
#
# Indices 1 2 3 4 5 6 
#
# 1 0.010662 -0.003577 0.000095 0.000000 -0.005448 0.000000
# 2 -0.003577 0.010001 -0.003914 0.000000 0.001992 0.000000
# 3 0.000095 -0.003914 0.012602 0.000000 -0.007691 0.000000
# 4 0.000000 0.000000 0.000000 0.019593 0.000000 0.021451
# 5 -0.005448 0.001992 -0.007691 0.000000 0.036438 0.000000
# 6 0.000000 0.000000 0.000000 0.021451 0.000000 -0.016710
#
#
# Mechanical properties :
#
#
# Convention : Reuss Voigt Hill
#
# Bulk Modulus (GPa) = 54.13201 68.24478 61.18840
# Shear Modulus (GPa) = 53.45519 22.27638 37.86579
#
# Velocity S-wave (km/s) = 5.23449 3.37911 4.40558
# Velocity P-wave (km/s) = 8.01748 7.08556 7.56588
#
# Compressibility (1/GPa) = 0.01847336
#
# Stress axis : x y z
#
# Youngs Moduli (GPa) = 93.78892 99.98982 79.35206
#
# Poissons Ratio (x) = 0.35768 -0.00754
# Poissons Ratio (y) = 0.33549 0.31057
# Poissons Ratio (z) = -0.00891 0.39134
#
# Static dielectric constant tensor:
#      x y z
#    x 3.259160 0.000000 0.444870 
#    y 0.000000 3.516830 0.000000 
#    z 0.444870 0.000000 3.942570 
# 
# 
# High freq. dielectric constant tensor:
#      x y z
#    x 1.753130 0.000000 0.018940 
#    y 0.000000 1.758470 0.000000 
#    z 0.018940 0.000000 1.771320 
# 
# From -- ./inp_files/68489.got.cif
#   From: 2010.06.25/outbox.cif.g09.slc.cpg/sg12_35_cif.got.tgz:68489.got - 2010.06.28 00:19:55.
