data_PCOD8101903
_publ_section_title
;
Structure prediction by ZEFSAII (Michael W. Deem and Ramdas Pophale) SiO2 
 PCOD8101903
Probable space group: C 2/M
;
_chemical_formula_sum "Si O2"
_cell_formula_units_Z 64
_cell_length_a 18.318109
_cell_length_b 15.229902
_cell_length_c 13.671279
_cell_angle_alpha 90.000000
_cell_angle_beta 55.251060
_cell_angle_gamma 90.000000
_cell_volume 3133.846417
_symmetry_space_group_name_H-M "C 2/M"
_symmetry_group_IT_number 12
_symmetry_cell_setting 'monoclinic'
loop_
_space_group_symop_operation_xyz
x,y,z
-x,y,-z
-x,-y,-z
x,-y,z
1/2+x,1/2+y,z
1/2-x,1/2+y,-z
1/2-x,1/2-y,-z
1/2+x,1/2-y,z
loop_
_atom_site_type_symbol
_atom_site_label
_atom_site_fract_x
_atom_site_fract_y
_atom_site_fract_z
Si Si1 0.388422 0.402368 0.850117
Si Si2 0.399525 0.098541 0.582781
Si Si3 0.589174 0.900877 0.209145
Si Si4 0.396778 0.597882 0.068477
Si Si5 0.166096 0.732960 0.789692
Si Si6 0.694567 0.102356 0.935681
Si Si7 0.314486 0.248075 0.540576
Si Si8 0.035971 0.756730 0.709063
O O1 0.420364 0.500000 0.793413
O O2 0.299438 0.376237 0.859145
O O3 0.464429 0.332579 0.773298
O O4 0.365084 0.404104 0.981560
O O5 0.500000 0.136528 0.500000
O O6 0.361843 0.104257 0.723013
O O7 0.334362 0.149684 0.560482
O O8 0.399791 0.000000 0.542715
O O9 0.505724 0.837175 0.281356
O O10 0.554389 0.000000 0.217495
O O11 0.653763 0.871365 0.072015
O O12 0.384078 0.500000 0.124560
O O13 0.332974 0.668103 0.169045
O O14 0.500000 0.626405 0.000000
O O15 0.146708 0.661391 0.889076
O O16 0.262634 0.705536 0.670257
O O17 0.090336 0.736636 0.765699
O O18 0.677521 0.000000 0.925030
O O19 0.250000 0.250000 0.500000
O O20 0.405406 0.289954 0.429156
#
# Coordination Sequence:
#
# PCOD8101903 Si02
#       8
#     8   8   8   8   8   8   8   8
#     4  10  22  40  62  88 122 160 203 253 307 364
#     4  10  20  38  64  90 117 155 202 255 311 362
#     4  10  22  38  62  96 125 154 199 255 318 373
#     4  10  20  36  59  90 122 152 195 252 306 366
#     4  11  24  39  61  89 125 170 209 244 314 371
#     4  10  24  42  60  90 130 164 203 256 308 372
#     4  10  24  41  56  89 127 161 204 255 304 365
#     4  11  22  40  63  87 122 167 209 258 303 363
#
# _framework density 20.422187999999998
#
# number of rings (size 3 to 8) (size 9 to 14) (size 15 to 20)
#    0.000    1.750    2.500    0.750    3.500    2.000 
#    0.000    5.625    0.000    1.500    0.000    0.000 
#    0.000    0.000    0.000    0.000    0.000    0.000 
#
# Total GULP energy -396509.020363 kJ/mol
# GULP energy per Si atom -12390.906886 kJ/mol
# Density = 2.037571 g / cm^3
# Si number density = 20.422188 Si / 1000 Ang^3
#
#
#
# Elastic Constant Matrix: (Units=GPa)
#
#
# Indices 1 2 3 4 5 6 
#
# 1 49.0144 47.2876 31.7005 0.0000 1.1817 0.0000
# 2 47.2876 90.8278 45.4108 0.0000 1.7257 0.0000
# 3 31.7005 45.4108 118.5255 0.0000 2.4903 0.0000
# 4 0.0000 0.0000 0.0000 15.5356 0.0000 4.6353
# 5 1.1817 1.7257 2.4903 0.0000 25.9434 0.0000
# 6 0.0000 0.0000 0.0000 4.6353 0.0000 32.0596
#
#
#
# Elastic Compliance Matrix: (Units=1/GPa)
#
#
# Indices 1 2 3 4 5 6 
#
# 1 0.042165 -0.020177 -0.003542 0.000000 -0.000238 0.000000
# 2 -0.020177 0.023278 -0.003516 0.000000 -0.000292 0.000000
# 3 -0.003542 -0.003516 0.010745 0.000000 -0.000636 0.000000
# 4 0.000000 0.000000 0.000000 0.067270 0.000000 -0.009726
# 5 -0.000238 -0.000292 -0.000636 0.000000 0.038637 0.000000
# 6 0.000000 0.000000 0.000000 -0.009726 0.000000 0.032598
#
#
# Mechanical properties :
#
#
# Convention : Reuss Voigt Hill
#
# Bulk Modulus (GPa) = 46.04464 56.35171 51.19817
# Shear Modulus (GPa) = 18.08966 23.63895 20.86431
#
# Velocity S-wave (km/s) = 2.97944 3.40592 3.19979
# Velocity P-wave (km/s) = 5.86783 6.56660 6.22703
#
# Compressibility (1/GPa) = 0.02171805
#
# Stress axis : x y z
#
# Youngs Moduli (GPa) = 23.71660 42.95926 93.06898
#
# Poissons Ratio (x) = 0.86678 0.32964
# Poissons Ratio (y) = 0.47852 0.32722
# Poissons Ratio (z) = 0.08400 0.15104
#
# Static dielectric constant tensor:
#      x y z
#    x 3.682980 0.000000 0.032380 
#    y 0.000000 3.673430 0.000000 
#    z 0.032380 0.000000 4.217180 
# 
# 
# High freq. dielectric constant tensor:
#      x y z
#    x 1.794720 0.000000 0.002360 
#    y 0.000000 1.787140 0.000000 
#    z 0.002360 0.000000 1.804070 
# 
# From -- ./inp_files/225715.got.cif
#   From: 2010.06.25/outbox.cif.g09.slc.cpg/sg12_113_cif.got.tgz:225715.got - 2010.06.28 00:19:55.
