data_PCOD8101221
_publ_section_title
;
Structure prediction by ZEFSAII (Michael W. Deem and Ramdas Pophale) SiO2 
 PCOD8101221
Probable space group: C 2/M
;
_chemical_formula_sum "Si O2"
_cell_formula_units_Z 56
_cell_length_a 18.261364
_cell_length_b 11.695253
_cell_length_c 13.989868
_cell_angle_alpha 90.000000
_cell_angle_beta 89.165501
_cell_angle_gamma 90.000000
_cell_volume 2987.517003
_symmetry_space_group_name_H-M "C 2/M"
_symmetry_group_IT_number 12
_symmetry_cell_setting 'monoclinic'
loop_
_space_group_symop_operation_xyz
x,y,z
-x,y,-z
-x,-y,-z
x,-y,z
1/2+x,1/2+y,z
1/2-x,1/2+y,-z
1/2-x,1/2-y,-z
1/2+x,1/2-y,z
loop_
_atom_site_type_symbol
_atom_site_label
_atom_site_fract_x
_atom_site_fract_y
_atom_site_fract_z
Si Si1 0.784697 0.128926 0.466559
Si Si2 0.828722 0.286896 0.100375
Si Si3 0.250999 0.627206 0.251052
Si Si4 0.485666 0.131450 0.107515
Si Si5 0.063124 0.128948 0.431718
Si Si6 0.824296 0.125044 0.929788
Si Si7 0.397709 0.251957 0.763496
O O1 0.750000 0.250000 0.500000
O O2 0.788044 0.135797 0.353094
O O3 0.864658 0.130327 0.507221
O O4 0.749744 0.000000 0.494674
O O5 0.799867 0.202734 0.181375
O O6 0.900199 0.352888 0.135856
O O7 0.764116 0.375033 0.076632
O O8 0.851623 0.218537 0.004528
O O9 0.254513 0.500000 0.209421
O O10 0.165640 0.660396 0.256655
O O11 0.534271 0.199318 0.181769
O O12 0.507956 0.000000 0.115507
O O13 0.500000 0.176266 0.000000
O O14 0.071317 0.202530 0.336424
O O15 0.000000 0.182718 0.500000
O O16 0.041882 0.000000 0.401962
O O17 0.861414 0.147278 0.826477
O O18 0.848506 0.000000 0.964151
#
# Coordination Sequence:
#
# PCOD8101221 Si02
#       7
#     8   8   8   8   8   8   8
#     4  10  20  39  63  89 116 155 202 252 304 359
#     4  10  21  37  56  85 115 150 193 240 289 350
#     4  10  21  37  62  88 115 151 197 246 295 351
#     4  11  23  40  59  82 116 157 196 239 294 356
#     4  10  22  39  61  86 120 161 196 241 303 363
#     4  10  20  36  57  83 113 148 192 243 290 340
#     4  11  21  38  61  84 116 151 201 240 294 348
#
# _framework density 18.744662999999999
#
# number of rings (size 3 to 8) (size 9 to 14) (size 15 to 20)
#    0.000    1.714    2.857    1.714    2.000    0.000 
#    0.000    3.571    0.000    2.143    0.000    0.000 
#    0.000    0.000    0.000    0.000    0.000    0.000 
#
# Total GULP energy -347038.143942 kJ/mol
# GULP energy per Si atom -12394.219427 kJ/mol
# Density = 1.870200 g / cm^3
# Si number density = 18.744663 Si / 1000 Ang^3
#
#
#
# Elastic Constant Matrix: (Units=GPa)
#
#
# Indices 1 2 3 4 5 6 
#
# 1 89.6210 23.5496 41.0574 0.0000 4.4841 0.0000
# 2 23.5496 87.2431 28.0766 0.0000 -4.0520 0.0000
# 3 41.0574 28.0766 103.8842 0.0000 2.3187 0.0000
# 4 0.0000 0.0000 0.0000 86.7190 0.0000 2.5082
# 5 4.4841 -4.0520 2.3187 0.0000 36.3798 0.0000
# 6 0.0000 0.0000 0.0000 2.5082 0.0000 18.5866
#
#
#
# Elastic Compliance Matrix: (Units=1/GPa)
#
#
# Indices 1 2 3 4 5 6 
#
# 1 0.014097 -0.002303 -0.004912 0.000000 -0.001681 0.000000
# 2 -0.002303 0.013026 -0.002653 0.000000 0.001904 0.000000
# 3 -0.004912 -0.002653 0.012295 0.000000 -0.000474 0.000000
# 4 0.000000 0.000000 0.000000 0.011577 0.000000 -0.001562
# 5 -0.001681 0.001904 -0.000474 0.000000 0.027937 0.000000
# 6 0.000000 0.000000 0.000000 -0.001562 0.000000 0.054013
#
#
# Mechanical properties :
#
#
# Convention : Reuss Voigt Hill
#
# Bulk Modulus (GPa) = 50.80378 51.79061 51.29719
# Shear Modulus (GPa) = 31.39887 40.87472 36.13680
#
# Velocity S-wave (km/s) = 4.09722 4.67476 4.39549
# Velocity P-wave (km/s) = 7.03881 7.53839 7.29288
#
# Compressibility (1/GPa) = 0.01968358
#
# Stress axis : x y z
#
# Youngs Moduli (GPa) = 70.93471 76.76960 81.33439
#
# Poissons Ratio (x) = 0.17678 0.39950
# Poissons Ratio (y) = 0.16334 0.21577
# Poissons Ratio (z) = 0.34841 0.20366
#
# Static dielectric constant tensor:
#      x y z
#    x 3.433300 0.000000 0.071810 
#    y 0.000000 3.643280 0.000000 
#    z 0.071810 0.000000 3.449260 
# 
# 
# High freq. dielectric constant tensor:
#      x y z
#    x 1.725090 0.000000 0.007760 
#    y 0.000000 1.731290 0.000000 
#    z 0.007760 0.000000 1.731410 
# 
# From -- ./inp_files/213412.got.cif
#   From: 2010.06.25/outbox.cif.g09.slc.cpg/sg12_107_cif.got.tgz:213412.got - 2010.06.28 00:19:55.
