data_PCOD8101045
_publ_section_title
;
Structure prediction by ZEFSAII (Michael W. Deem and Ramdas Pophale) SiO2 
 PCOD8101045
Probable space group: C 2/M
;
_chemical_formula_sum "Si O2"
_cell_formula_units_Z 56
_cell_length_a 11.033798
_cell_length_b 18.243746
_cell_length_c 16.738647
_cell_angle_alpha 90.000000
_cell_angle_beta 55.622302
_cell_angle_gamma 90.000000
_cell_volume 2780.921877
_symmetry_space_group_name_H-M "C 2/M"
_symmetry_group_IT_number 12
_symmetry_cell_setting 'monoclinic'
loop_
_space_group_symop_operation_xyz
x,y,z
-x,y,-z
-x,-y,-z
x,-y,z
1/2+x,1/2+y,z
1/2-x,1/2+y,-z
1/2-x,1/2-y,-z
1/2+x,1/2-y,z
loop_
_atom_site_type_symbol
_atom_site_label
_atom_site_fract_x
_atom_site_fract_y
_atom_site_fract_z
Si Si1 0.672735 0.415182 0.939696
Si Si2 0.064676 0.153884 0.395444
Si Si3 0.324310 0.416140 0.881566
Si Si4 0.438339 0.673243 0.278357
Si Si5 0.066273 0.336469 0.226467
Si Si6 0.093520 0.325611 0.392045
Si Si7 0.332913 0.913713 0.216998
O O1 0.698727 0.500000 0.901948
O O2 0.760864 0.354728 0.853924
O O3 0.500000 0.396571 0.000000
O O4 0.734205 0.405376 0.007302
O O5 0.072025 0.239800 0.404104
O O6 0.223384 0.119433 0.323173
O O7 0.000000 0.117445 0.500000
O O8 0.963794 0.138801 0.356480
O O9 0.355552 0.500000 0.850466
O O10 0.481211 0.376676 0.816594
O O11 0.208207 0.386182 0.857746
O O12 0.512663 0.752925 0.237778
O O13 0.266847 0.664156 0.330898
O O14 0.033711 0.359171 0.330803
O O15 0.990152 0.385680 0.187070
O O16 0.000000 0.361701 0.500000
O O17 0.332297 0.000000 0.221303
#
# Coordination Sequence:
#
# PCOD8101045 Si02
#       7
#     8   8   8   8   8   8   8
#     4  10  21  39  62  86 116 156 194 229 283 351
#     4   9  19  32  55  82 110 149 194 232 284 341
#     4   9  20  39  61  84 113 153 193 233 290 348
#     4  10  20  36  59  85 117 148 189 244 286 334
#     4  11  22  35  59  87 116 148 195 239 286 336
#     4  10  21  35  57  84 116 154 190 236 289 343
#     4  10  20  36  56  83 119 150 188 238 285 336
#
# _framework density 20.137208000000001
#
# number of rings (size 3 to 8) (size 9 to 14) (size 15 to 20)
#    0.000    2.143    1.429    1.286    2.000    3.143 
#    0.000    2.857    0.000    2.143    0.000    0.000 
#    0.000    0.000    0.000    0.000    0.000    0.000 
#
# Total GULP energy -346925.299674 kJ/mol
# GULP energy per Si atom -12390.189274 kJ/mol
# Density = 2.009137 g / cm^3
# Si number density = 20.137208 Si / 1000 Ang^3
#
#
#
# Elastic Constant Matrix: (Units=GPa)
#
#
# Indices 1 2 3 4 5 6 
#
# 1 93.6872 22.9290 40.1577 0.0000 -6.5759 0.0000
# 2 22.9290 40.3120 33.6581 0.0000 -0.2864 0.0000
# 3 40.1577 33.6581 111.2593 0.0000 8.8238 0.0000
# 4 0.0000 0.0000 0.0000 24.4187 0.0000 1.2919
# 5 -6.5759 -0.2864 8.8238 0.0000 29.5814 0.0000
# 6 0.0000 0.0000 0.0000 1.2919 0.0000 27.0356
#
#
#
# Elastic Compliance Matrix: (Units=1/GPa)
#
#
# Indices 1 2 3 4 5 6 
#
# 1 0.013758 -0.004512 -0.003933 0.000000 0.004188 0.000000
# 2 -0.004512 0.035006 -0.009125 0.000000 0.002058 0.000000
# 3 -0.003933 -0.009125 0.013565 0.000000 -0.005009 0.000000
# 4 0.000000 0.000000 0.000000 0.041056 0.000000 -0.001962
# 5 0.004188 0.002058 -0.005009 0.000000 0.036250 0.000000
# 6 0.000000 0.000000 0.000000 -0.001962 0.000000 0.037082
#
#
# Mechanical properties :
#
#
# Convention : Reuss Voigt Hill
#
# Bulk Modulus (GPa) = 36.77802 48.74978 42.76390
# Shear Modulus (GPa) = 22.63271 26.10806 24.37039
#
# Velocity S-wave (km/s) = 3.35614 3.60461 3.48259
# Velocity P-wave (km/s) = 5.77248 6.44870 6.11994
#
# Compressibility (1/GPa) = 0.02719015
#
# Stress axis : x y z
#
# Youngs Moduli (GPa) = 72.68628 28.56651 73.71797
#
# Poissons Ratio (x) = 0.12889 0.28993
# Poissons Ratio (y) = 0.32794 0.67266
# Poissons Ratio (z) = 0.28587 0.26066
#
# Static dielectric constant tensor:
#      x y z
#    x 3.895690 0.000000 0.243610 
#    y 0.000000 3.429410 0.000000 
#    z 0.243610 0.000000 3.911630 
# 
# 
# High freq. dielectric constant tensor:
#      x y z
#    x 1.798310 0.000000 0.010280 
#    y 0.000000 1.758590 0.000000 
#    z 0.010280 0.000000 1.789060 
# 
# From -- ./inp_files/264185.got.cif
#   From: 2010.06.25/outbox.cif.g09.slc.cpg/sg12_133_cif.got.tgz:264185.got - 2010.06.28 00:19:55.
