data_PCOD8101499
_publ_section_title
;
Structure prediction by ZEFSAII (Michael W. Deem and Ramdas Pophale) SiO2 
 PCOD8101499
Probable space group: C 2/M
;
_chemical_formula_sum "Si O2"
_cell_formula_units_Z 64
_cell_length_a 18.490809
_cell_length_b 8.775112
_cell_length_c 31.552151
_cell_angle_alpha 90.000000
_cell_angle_beta 40.326027
_cell_angle_gamma 90.000000
_cell_volume 3313.089897
_symmetry_space_group_name_H-M "C 2/M"
_symmetry_group_IT_number 12
_symmetry_cell_setting 'monoclinic'
loop_
_space_group_symop_operation_xyz
x,y,z
-x,y,-z
-x,-y,-z
x,-y,z
1/2+x,1/2+y,z
1/2-x,1/2+y,-z
1/2-x,1/2-y,-z
1/2+x,1/2-y,z
loop_
_atom_site_type_symbol
_atom_site_label
_atom_site_fract_x
_atom_site_fract_y
_atom_site_fract_z
Si Si1 0.725688 0.821987 0.716829
Si Si2 0.390541 0.326332 0.779049
Si Si3 0.007341 0.678975 0.862698
Si Si4 0.344243 0.320980 0.428932
Si Si5 0.436918 0.179116 0.986054
Si Si6 0.348554 0.671282 0.330755
Si Si7 0.918813 0.320777 0.678483
Si Si8 0.200084 0.319706 0.098950
O O1 0.620101 0.757100 0.790810
O O2 0.706249 0.794252 0.675714
O O3 0.833778 0.723356 0.679564
O O4 0.746838 0.000000 0.715817
O O5 0.347856 0.500000 0.796741
O O6 0.519256 0.315944 0.733667
O O7 0.369397 0.253246 0.742967
O O8 0.318312 0.234285 0.844964
O O9 0.004878 0.500000 0.856286
O O10 0.897253 0.746781 0.888404
O O11 0.009436 0.719022 0.911782
O O12 0.355552 0.500000 0.431987
O O13 0.250000 0.250000 0.500000
O O14 0.312423 0.286617 0.394502
O O15 0.461392 0.244586 0.388164
O O16 0.318628 0.257515 0.030924
O O17 0.416374 0.000000 0.999658
O O18 0.500000 0.241411 0.000000
O O19 0.309374 0.500000 0.336865
O O20 0.928957 0.500000 0.679808
O O21 0.202819 0.500000 0.096242
#
# Coordination Sequence:
#
# PCOD8101499 Si02
#       8
#     8   8   8   8   8   8   8   8
#     4  11  21  36  59  86 121 158 195 243 297 352
#     4  10  20  36  58  84 113 150 195 241 293 355
#     4   9  20  37  56  81 112 150 194 239 294 356
#     4  10  21  40  65  93 124 161 200 240 286 344
#     4  10  22  39  57  78 108 151 197 244 301 362
#     4   9  19  36  58  87 120 151 192 239 285 341
#     4  11  23  38  58  88 124 158 195 242 293 343
#     4  11  21  36  57  82 112 146 192 246 298 356
#
# _framework density 19.317314
#
# number of rings (size 3 to 8) (size 9 to 14) (size 15 to 20)
#    0.000    1.875    1.250    3.750    1.750    2.750 
#    0.000    2.500    0.000    3.750    0.000    0.000 
#    0.000    0.000    0.000    0.000    0.000    0.000 
#
# Total GULP energy -396880.084016 kJ/mol
# GULP energy per Si atom -12402.502626 kJ/mol
# Density = 1.927335 g / cm^3
# Si number density = 19.317314 Si / 1000 Ang^3
#
#
#
# Elastic Constant Matrix: (Units=GPa)
#
#
# Indices 1 2 3 4 5 6 
#
# 1 104.5358 32.2645 41.4296 -0.0008 -0.8793 -0.0035
# 2 32.2645 36.9008 14.1168 -0.0034 1.3762 -0.0026
# 3 41.4296 14.1168 100.0614 0.0006 7.1568 0.0006
# 4 -0.0008 -0.0034 0.0006 31.8014 -0.0010 -1.3289
# 5 -0.8793 1.3762 7.1568 -0.0010 21.3520 -0.0020
# 6 -0.0035 -0.0026 0.0006 -1.3289 -0.0020 30.6112
#
#
#
# Elastic Compliance Matrix: (Units=1/GPa)
#
#
# Indices 1 2 3 4 5 6 
#
# 1 0.015021 -0.011399 -0.004824 -0.000001 0.002970 0.000001
# 2 -0.011399 0.037302 -0.000346 0.000004 -0.002758 0.000002
# 3 -0.004824 -0.000346 0.012348 -0.000001 -0.004315 -0.000001
# 4 -0.000001 0.000004 -0.000001 0.031502 0.000001 0.001368
# 5 0.002970 -0.002758 -0.004315 0.000001 0.048581 0.000003
# 6 0.000001 0.000002 -0.000001 0.001368 0.000003 0.032727
#
#
# Mechanical properties :
#
#
# Convention : Reuss Voigt Hill
#
# Bulk Modulus (GPa) = 31.71126 46.34663 39.02895
# Shear Modulus (GPa) = 22.61115 26.99871 24.80493
#
# Velocity S-wave (km/s) = 3.42499 3.74256 3.58729
# Velocity P-wave (km/s) = 5.66501 6.53606 6.11606
#
# Compressibility (1/GPa) = 0.03153454
#
# Stress axis : x y z
#
# Youngs Moduli (GPa) = 66.57294 26.80830 80.98198
#
# Poissons Ratio (x) = 0.30560 0.39062
# Poissons Ratio (y) = 0.75889 0.02798
# Poissons Ratio (z) = 0.32112 0.00926
#
# Static dielectric constant tensor:
#      x y z
#    x 3.572910 0.000000 0.070410 
#    y 0.000000 3.424800 -0.000010 
#    z 0.070410 -0.000010 3.516540 
# 
# 
# High freq. dielectric constant tensor:
#      x y z
#    x 1.754490 0.000000 0.005690 
#    y 0.000000 1.745270 0.000000 
#    z 0.005690 0.000000 1.747130 
# 
# From -- ./inp_files/378070.got.cif
#   From: 2010.06.25/outbox.cif.g09.slc.cpg/sg12_190_cif.got.tgz:378070.got - 2010.06.28 00:19:55.
