data_PCOD8101407
_publ_section_title
;
Structure prediction by ZEFSAII (Michael W. Deem and Ramdas Pophale) SiO2 
 PCOD8101407
Probable space group: C 2/M
;
_chemical_formula_sum "Si O2"
_cell_formula_units_Z 56
_cell_length_a 15.070916
_cell_length_b 8.918446
_cell_length_c 21.766165
_cell_angle_alpha 90.000000
_cell_angle_beta 98.957407
_cell_angle_gamma 90.000000
_cell_volume 2889.892525
_symmetry_space_group_name_H-M "C 2/M"
_symmetry_group_IT_number 12
_symmetry_cell_setting 'monoclinic'
loop_
_space_group_symop_operation_xyz
x,y,z
-x,y,-z
-x,-y,-z
x,-y,z
1/2+x,1/2+y,z
1/2-x,1/2+y,-z
1/2-x,1/2-y,-z
1/2+x,1/2-y,z
loop_
_atom_site_type_symbol
_atom_site_label
_atom_site_fract_x
_atom_site_fract_y
_atom_site_fract_z
Si Si1 0.829014 0.676176 0.184341
Si Si2 0.495759 0.328253 0.805224
Si Si3 0.941394 0.829502 0.935182
Si Si4 0.604477 0.323268 0.505397
Si Si5 0.762308 0.675807 0.935867
Si Si6 0.309651 0.322190 0.730198
Si Si7 0.234471 0.176898 0.409586
O O1 0.817407 0.500000 0.173069
O O2 0.929148 0.720186 0.215047
O O3 0.810871 0.760244 0.118649
O O4 0.765421 0.738205 0.231291
O O5 0.512804 0.500000 0.787235
O O6 0.497913 0.314702 0.879246
O O7 0.404448 0.265704 0.766055
O O8 0.859827 0.715030 0.920255
O O9 0.905206 0.000000 0.938923
O O10 0.000000 0.782285 0.000000
O O11 0.500000 0.265434 0.500000
O O12 0.605163 0.500000 0.516404
O O13 0.669487 0.249539 0.563101
O O14 0.650663 0.280350 0.445072
O O15 0.748331 0.500000 0.940578
O O16 0.750000 0.750000 0.000000
O O17 0.307343 0.500000 0.729072
O O18 0.292063 0.259660 0.660123
O O19 0.249648 0.000000 0.411345
#
# Coordination Sequence:
#
# PCOD8101407 Si02
#       7
#     8   8   8   8   8   8   8
#     4  11  22  39  59  82 112 147 189 237 287 340
#     4  10  20  37  58  82 113 150 187 230 288 347
#     4  10  20  36  58  82 111 145 182 229 288 347
#     4   9  18  33  54  83 117 149 186 238 287 328
#     4  12  24  38  58  83 111 144 187 235 289 345
#     4   9  19  37  58  79 113 156 191 228 285 348
#     4   9  18  34  56  81 111 153 196 230 277 340
#
# _framework density 19.377884000000002
#
# number of rings (size 3 to 8) (size 9 to 14) (size 15 to 20)
#    0.000    2.000    1.429    2.571    0.000    3.429 
#    0.000    3.571    0.000    0.000    0.000    0.000 
#    0.000    0.000    0.000    0.000    0.000    0.000 
#
# Total GULP energy -347179.138676 kJ/mol
# GULP energy per Si atom -12399.254953 kJ/mol
# Density = 1.933378 g / cm^3
# Si number density = 19.377884 Si / 1000 Ang^3
#
#
#
# Elastic Constant Matrix: (Units=GPa)
#
#
# Indices 1 2 3 4 5 6 
#
# 1 161.0869 38.5075 66.6946 0.0000 4.5916 0.0000
# 2 38.5075 64.6898 31.2815 0.0000 -1.4986 0.0000
# 3 66.6946 31.2815 140.4785 0.0000 12.2033 0.0000
# 4 0.0000 0.0000 0.0000 20.5367 0.0000 4.2796
# 5 4.5916 -1.4986 12.2033 0.0000 25.4790 0.0000
# 6 0.0000 0.0000 0.0000 4.2796 0.0000 34.5627
#
#
#
# Elastic Compliance Matrix: (Units=1/GPa)
#
#
# Indices 1 2 3 4 5 6 
#
# 1 0.008353 -0.003437 -0.003185 0.000000 -0.000182 0.000000
# 2 -0.003437 0.018959 -0.002860 0.000000 0.003104 0.000000
# 3 -0.003185 -0.002860 0.009633 0.000000 -0.004208 0.000000
# 4 0.000000 0.000000 0.000000 0.049983 0.000000 -0.006189
# 5 -0.000182 0.003104 -0.004208 0.000000 0.041479 0.000000
# 6 0.000000 0.000000 0.000000 -0.006189 0.000000 0.029699
#
#
# Mechanical properties :
#
#
# Convention : Reuss Voigt Hill
#
# Bulk Modulus (GPa) = 55.60896 71.02470 63.31683
# Shear Modulus (GPa) = 27.31310 31.43378 29.37344
#
# Velocity S-wave (km/s) = 3.75840 4.03196 3.89758
# Velocity P-wave (km/s) = 6.89881 7.64249 7.28015
#
# Compressibility (1/GPa) = 0.01798271
#
# Stress axis : x y z
#
# Youngs Moduli (GPa) = 119.71645 52.74584 103.81090
#
# Poissons Ratio (x) = 0.18126 0.33061
# Poissons Ratio (y) = 0.41141 0.29688
# Poissons Ratio (z) = 0.38126 0.15084
#
# Static dielectric constant tensor:
#      x y z
#    x 3.816780 0.000000 0.001230 
#    y 0.000000 3.457790 0.000000 
#    z 0.001230 0.000000 3.693120 
# 
# 
# High freq. dielectric constant tensor:
#      x y z
#    x 1.764640 0.000000 0.001050 
#    y 0.000000 1.731880 0.000000 
#    z 0.001050 0.000000 1.753890 
# 
# From -- ./inp_files/308896.got.cif
#   From: 2010.06.25/outbox.cif.g09.slc.cpg/sg12_155_cif.got.tgz:308896.got - 2010.06.28 00:19:55.
