data_PCOD8101733
_publ_section_title
;
Structure prediction by ZEFSAII (Michael W. Deem and Ramdas Pophale) SiO2 
 PCOD8101733
Probable space group: C 2/M
;
_chemical_formula_sum "Si O2"
_cell_formula_units_Z 24
_cell_length_a 8.680199
_cell_length_b 10.667148
_cell_length_c 12.994011
_cell_angle_alpha 90.000000
_cell_angle_beta 112.317085
_cell_angle_gamma 90.000000
_cell_volume 1113.033622
_symmetry_space_group_name_H-M "C 2/M"
_symmetry_group_IT_number 12
_symmetry_cell_setting 'monoclinic'
loop_
_space_group_symop_operation_xyz
x,y,z
-x,y,-z
-x,-y,-z
x,-y,z
1/2+x,1/2+y,z
1/2-x,1/2+y,-z
1/2-x,1/2-y,-z
1/2+x,1/2-y,z
loop_
_atom_site_type_symbol
_atom_site_label
_atom_site_fract_x
_atom_site_fract_y
_atom_site_fract_z
Si Si1 0.849881 0.726637 0.260916
Si Si2 0.296669 0.859026 0.591354
Si Si3 0.004148 0.140664 0.114995
O O1 0.810405 0.837034 0.332554
O O2 0.688863 0.638559 0.210749
O O3 0.006212 0.645116 0.337494
O O4 0.880404 0.783733 0.156472
O O5 0.250000 0.750000 0.500000
O O6 0.255246 0.000000 0.539846
O O7 0.935990 0.000000 0.090612
O O8 0.000000 0.202109 0.000000
#
# Coordination Sequence:
#
# PCOD8101733 Si02
#       3
#     8   8   8
#     4  10  22  38  58  84 118 150 190 238 288 340
#     4  11  24  40  60  86 117 154 196 242 291 344
#     4  10  20  36  59  85 114 150 190 232 282 341
#
# _framework density 21.562691000000001
#
# number of rings (size 3 to 8) (size 9 to 14) (size 15 to 20)
#    0.000    1.667    0.000    4.000    0.000   10.667 
#    0.000    0.000    0.000   16.000    0.000    0.000 
#    0.000    0.000    0.000    0.000    0.000    0.000 
#
# Total GULP energy -148795.825901 kJ/mol
# GULP energy per Si atom -12399.652158 kJ/mol
# Density = 2.151361 g / cm^3
# Si number density = 21.562691 Si / 1000 Ang^3
#
#
#
# Elastic Constant Matrix: (Units=GPa)
#
#
# Indices 1 2 3 4 5 6 
#
# 1 84.2239 15.3223 15.3967 0.0000 -14.7404 0.0000
# 2 15.3223 125.8415 38.4267 0.0000 -12.4739 0.0000
# 3 15.3967 38.4267 100.1379 0.0000 -17.4486 0.0000
# 4 0.0000 0.0000 0.0000 30.4422 0.0000 1.6601
# 5 -14.7404 -12.4739 -17.4486 0.0000 29.8642 0.0000
# 6 0.0000 0.0000 0.0000 1.6601 0.0000 10.0763
#
#
#
# Elastic Compliance Matrix: (Units=1/GPa)
#
#
# Indices 1 2 3 4 5 6 
#
# 1 0.013156 -0.000816 -0.000710 0.000000 0.005738 0.000000
# 2 -0.000816 0.009154 -0.003108 0.000000 0.001605 0.000000
# 3 -0.000710 -0.003108 0.012247 0.000000 0.005508 0.000000
# 4 0.000000 0.000000 0.000000 0.033147 0.000000 -0.005461
# 5 0.005738 0.001605 0.005508 0.000000 0.040205 0.000000
# 6 0.000000 0.000000 0.000000 -0.005461 0.000000 0.100143
#
#
# Mechanical properties :
#
#
# Convention : Reuss Voigt Hill
#
# Bulk Modulus (GPa) = 39.54163 49.83274 44.68719
# Shear Modulus (GPa) = 22.14850 30.14704 26.14777
#
# Velocity S-wave (km/s) = 3.20842 3.74319 3.48607
# Velocity P-wave (km/s) = 5.66596 6.46860 6.08054
#
# Compressibility (1/GPa) = 0.02528980
#
# Stress axis : x y z
#
# Youngs Moduli (GPa) = 76.01351 109.24319 81.64938
#
# Poissons Ratio (x) = 0.08918 0.05795
# Poissons Ratio (y) = 0.06205 0.25373
# Poissons Ratio (z) = 0.05395 0.33948
#
# Static dielectric constant tensor:
#      x y z
#    x 4.010930 0.000000 -0.155610 
#    y 0.000000 3.519060 0.000000 
#    z -0.155610 0.000000 3.982080 
# 
# 
# High freq. dielectric constant tensor:
#      x y z
#    x 1.859160 0.000000 -0.007750 
#    y 0.000000 1.828020 0.000000 
#    z -0.007750 0.000000 1.852620 
# 
# From -- ./inp_files/116750.got.cif
#   From: 2010.06.25/outbox.cif.g09.slc.cpg/sg12_59_cif.got.tgz:116750.got - 2010.06.28 00:19:55.
