data_PCOD8101805
_publ_section_title
;
Structure prediction by ZEFSAII (Michael W. Deem and Ramdas Pophale) SiO2 
 PCOD8101805
Probable space group: C 2/M
;
_chemical_formula_sum "Si O2"
_cell_formula_units_Z 56
_cell_length_a 21.674758
_cell_length_b 21.733821
_cell_length_c 11.083451
_cell_angle_alpha 90.000000
_cell_angle_beta 30.463812
_cell_angle_gamma 90.000000
_cell_volume 2647.087013
_symmetry_space_group_name_H-M "C 2/M"
_symmetry_group_IT_number 12
_symmetry_cell_setting 'monoclinic'
loop_
_space_group_symop_operation_xyz
x,y,z
-x,y,-z
-x,-y,-z
x,-y,z
1/2+x,1/2+y,z
1/2-x,1/2+y,-z
1/2-x,1/2-y,-z
1/2+x,1/2-y,z
loop_
_atom_site_type_symbol
_atom_site_label
_atom_site_fract_x
_atom_site_fract_y
_atom_site_fract_z
Si Si1 0.256979 0.762784 0.224972
Si Si2 0.309650 0.382007 0.546846
Si Si3 0.865422 0.069244 0.702497
Si Si4 0.753121 0.072648 0.381767
Si Si5 0.317196 0.163927 0.906879
Si Si6 0.948677 0.835829 0.963144
Si Si7 0.410113 0.162729 0.480702
O O1 0.277292 0.824837 0.268696
O O2 0.140216 0.728079 0.485483
O O3 0.243297 0.782904 0.105802
O O4 0.372422 0.718181 0.031390
O O5 0.323263 0.429283 0.634021
O O6 0.253219 0.415183 0.525497
O O7 0.444854 0.355926 0.303900
O O8 0.000000 0.097928 0.500000
O O9 0.865702 0.000000 0.749378
O O10 0.764830 0.103226 0.951987
O O11 0.635390 0.104161 0.518922
O O12 0.750273 0.000000 0.361184
O O13 0.871849 0.102412 0.121743
O O14 0.343278 0.172315 0.722896
O O15 0.446155 0.155912 0.758159
O O16 0.000000 0.807781 0.000000
#
# Coordination Sequence:
#
# PCOD8101805 Si02
#       7
#     8   8   8   8   8   8   8
#     4  10  20  36  59  86 118 155 190 242 293 357
#     4  10  21  38  58  86 119 152 194 245 295 350
#     4  10  23  40  61  86 117 158 202 246 294 349
#     4  10  22  38  59  85 115 153 199 247 293 346
#     4  10  22  40  59  87 122 155 198 244 294 349
#     4   9  20  34  56  87 117 153 194 238 296 351
#     4  10  22  39  60  89 120 157 199 239 296 353
#
# _framework density 21.155329999999999
#
# number of rings (size 3 to 8) (size 9 to 14) (size 15 to 20)
#    0.000    2.143    0.000    1.714    4.000   10.571 
#   10.286    3.571    0.000    4.286    0.000    0.000 
#    0.000    0.000    0.000    0.000    0.000    0.000 
#
# Total GULP energy -346979.119980 kJ/mol
# GULP energy per Si atom -12392.111428 kJ/mol
# Density = 2.110718 g / cm^3
# Si number density = 21.155330 Si / 1000 Ang^3
#
#
#
# Elastic Constant Matrix: (Units=GPa)
#
#
# Indices 1 2 3 4 5 6 
#
# 1 71.3029 29.4682 -1.5186 0.0001 -9.6638 -0.0001
# 2 29.4682 116.8947 17.6896 -0.0001 -3.6269 0.0000
# 3 -1.5186 17.6896 65.4747 0.0000 -11.0561 0.0000
# 4 0.0001 -0.0001 0.0000 18.4581 -0.0004 -3.0640
# 5 -9.6638 -3.6269 -11.0561 -0.0004 37.0525 0.0004
# 6 -0.0001 0.0000 0.0000 -3.0640 0.0004 13.9434
#
#
#
# Elastic Compliance Matrix: (Units=1/GPa)
#
#
# Indices 1 2 3 4 5 6 
#
# 1 0.016501 -0.004371 0.002336 0.000000 0.004573 0.000000
# 2 -0.004371 0.010078 -0.003001 0.000000 -0.001049 0.000000
# 3 0.002336 -0.003001 0.017051 0.000000 0.005403 0.000000
# 4 0.000000 0.000000 0.000000 0.056228 0.000000 0.012356
# 5 0.004573 -0.001049 0.005403 0.000000 0.029691 -0.000001
# 6 0.000000 0.000000 0.000000 0.012356 -0.000001 0.074434
#
#
# Mechanical properties :
#
#
# Convention : Reuss Voigt Hill
#
# Bulk Modulus (GPa) = 29.80104 38.32786 34.06445
# Shear Modulus (GPa) = 22.19842 27.75966 24.97904
#
# Velocity S-wave (km/s) = 3.24281 3.62634 3.43992
# Velocity P-wave (km/s) = 5.30457 5.97415 5.64929
#
# Compressibility (1/GPa) = 0.03355588
#
# Stress axis : x y z
#
# Youngs Moduli (GPa) = 60.60321 99.22266 58.64910
#
# Poissons Ratio (x) = 0.43373 -0.13700
# Poissons Ratio (y) = 0.26492 0.17603
# Poissons Ratio (z) = -0.14156 0.29781
#
# Static dielectric constant tensor:
#      x y z
#    x 3.892460 0.000000 -0.044070 
#    y 0.000000 3.683160 0.000000 
#    z -0.044070 0.000000 3.818730 
# 
# 
# High freq. dielectric constant tensor:
#      x y z
#    x 1.832700 0.000000 0.003890 
#    y 0.000000 1.826510 0.000000 
#    z 0.003890 0.000000 1.824890 
# 
# From -- ./inp_files/177871.got.cif
#   From: 2010.06.25/outbox.cif.g09.slc.cpg/sg12_89_cif.got.tgz:177871.got - 2010.06.28 00:19:55.
