data_PCOD8101680
_publ_section_title
;
Structure prediction by ZEFSAII (Michael W. Deem and Ramdas Pophale) SiO2 
 PCOD8101680
Probable space group: C 2/M
;
_chemical_formula_sum "Si O2"
_cell_formula_units_Z 48
_cell_length_a 19.610505
_cell_length_b 8.908433
_cell_length_c 26.207415
_cell_angle_alpha 90.000000
_cell_angle_beta 146.876170
_cell_angle_gamma 90.000000
_cell_volume 2501.871356
_symmetry_space_group_name_H-M "C 2/M"
_symmetry_group_IT_number 12
_symmetry_cell_setting 'monoclinic'
loop_
_space_group_symop_operation_xyz
x,y,z
-x,y,-z
-x,-y,-z
x,-y,z
1/2+x,1/2+y,z
1/2-x,1/2+y,-z
1/2-x,1/2-y,-z
1/2+x,1/2-y,z
loop_
_atom_site_type_symbol
_atom_site_label
_atom_site_fract_x
_atom_site_fract_y
_atom_site_fract_z
Si Si1 0.076446 0.677050 0.424698
Si Si2 0.389496 0.176966 0.772010
Si Si3 0.201448 0.678972 0.728394
Si Si4 0.635858 0.675875 0.076555
Si Si5 0.356119 0.323836 0.033312
Si Si6 0.812820 0.675228 0.611980
O O1 0.083363 0.500000 0.432808
O O2 0.102388 0.729244 0.382550
O O3 0.178937 0.744212 0.527002
O O4 0.941232 0.733890 0.357895
O O5 0.265246 0.241929 0.720190
O O6 0.509479 0.255307 0.871138
O O7 0.384348 0.216376 0.708786
O O8 0.398396 0.000000 0.786861
O O9 0.211751 0.500000 0.728901
O O10 0.267018 0.738912 0.821269
O O11 0.623751 0.500000 0.078178
O O12 0.500000 0.750653 0.000000
O O13 0.682897 0.711235 0.049246
O O14 0.362400 0.500000 0.048110
O O15 0.250000 0.250000 0.000000
O O16 0.785519 0.500000 0.591570
#
# Coordination Sequence:
#
# PCOD8101680 Si02
#       6
#     8   8   8   8   8   8
#     4   9  19  36  60  84 106 142 191 236 278 333
#     4  11  23  38  57  83 116 151 185 230 284 336
#     4  10  20  36  59  84 110 146 192 233 276 334
#     4   9  17  34  59  81 107 149 188 221 271 334
#     4  11  23  39  60  85 115 150 189 232 278 332
#     4   9  20  38  58  80 112 149 185 229 284 340
#
# _framework density 19.185638000000001
#
# number of rings (size 3 to 8) (size 9 to 14) (size 15 to 20)
#    0.000    2.167    1.667    1.000    2.333    2.667 
#    0.000    5.833    0.000    0.000    0.000    0.000 
#    0.000    0.000    0.000    0.000    0.000    0.000 
#
# Total GULP energy -297611.378595 kJ/mol
# GULP energy per Si atom -12400.474108 kJ/mol
# Density = 1.914197 g / cm^3
# Si number density = 19.185638 Si / 1000 Ang^3
#
#
#
# Elastic Constant Matrix: (Units=GPa)
#
#
# Indices 1 2 3 4 5 6 
#
# 1 94.3402 34.6388 20.8766 -0.0001 15.4726 0.0003
# 2 34.6388 51.0599 24.3389 -0.0001 1.5500 0.0002
# 3 20.8766 24.3389 61.6604 0.0001 7.7811 0.0001
# 4 -0.0001 -0.0001 0.0001 28.6674 0.0000 2.0610
# 5 15.4726 1.5500 7.7811 0.0000 36.9658 -0.0001
# 6 0.0003 0.0002 0.0001 2.0610 -0.0001 32.2550
#
#
#
# Elastic Compliance Matrix: (Units=1/GPa)
#
#
# Indices 1 2 3 4 5 6 
#
# 1 0.015348 -0.009991 -0.000509 0.000000 -0.005898 0.000000
# 2 -0.009991 0.030665 -0.009335 0.000000 0.004861 0.000000
# 3 -0.000509 -0.009335 0.020544 0.000000 -0.003720 0.000000
# 4 0.000000 0.000000 0.000000 0.035044 0.000000 -0.002239
# 5 -0.005898 0.004861 -0.003720 0.000000 0.030100 0.000000
# 6 0.000000 0.000000 0.000000 -0.002239 0.000000 0.031146
#
#
# Mechanical properties :
#
#
# Convention : Reuss Voigt Hill
#
# Bulk Modulus (GPa) = 37.19042 40.75212 38.97127
# Shear Modulus (GPa) = 23.64312 28.05805 25.85058
#
# Velocity S-wave (km/s) = 3.51427 3.82835 3.67467
# Velocity P-wave (km/s) = 5.99111 6.38974 6.19363
#
# Compressibility (1/GPa) = 0.02688865
#
# Stress axis : x y z
#
# Youngs Moduli (GPa) = 65.15470 32.61092 48.67537
#
# Poissons Ratio (x) = 0.32580 0.02476
# Poissons Ratio (y) = 0.65093 0.45438
# Poissons Ratio (z) = 0.03314 0.30442
#
# Static dielectric constant tensor:
#      x y z
#    x 3.682120 0.000000 -0.010870 
#    y 0.000000 3.316100 0.000000 
#    z -0.010870 0.000000 3.644890 
# 
# 
# High freq. dielectric constant tensor:
#      x y z
#    x 1.755960 0.000000 -0.000700 
#    y 0.000000 1.725820 0.000000 
#    z -0.000700 0.000000 1.751960 
# 
# From -- ./inp_files/221706.got.cif
#   From: 2010.06.25/outbox.cif.g09.slc.cpg/sg12_111_cif.got.tgz:221706.got - 2010.06.28 00:19:55.
