data_PCOD8101217
_publ_section_title
;
Structure prediction by ZEFSAII (Michael W. Deem and Ramdas Pophale) SiO2 
 PCOD8101217
Probable space group: C 2/M
;
_chemical_formula_sum "Si O2"
_cell_formula_units_Z 56
_cell_length_a 18.866387
_cell_length_b 8.603365
_cell_length_c 19.824008
_cell_angle_alpha 90.000000
_cell_angle_beta 63.966976
_cell_angle_gamma 90.000000
_cell_volume 2891.256093
_symmetry_space_group_name_H-M "C 2/M"
_symmetry_group_IT_number 12
_symmetry_cell_setting 'monoclinic'
loop_
_space_group_symop_operation_xyz
x,y,z
-x,y,-z
-x,-y,-z
x,-y,z
1/2+x,1/2+y,z
1/2-x,1/2+y,-z
1/2-x,1/2-y,-z
1/2+x,1/2-y,z
loop_
_atom_site_type_symbol
_atom_site_label
_atom_site_fract_x
_atom_site_fract_y
_atom_site_fract_z
Si Si1 0.957521 0.322100 0.804916
Si Si2 0.588183 0.328255 0.307935
Si Si3 0.675700 0.680879 0.570836
Si Si4 0.738693 0.177303 0.798319
Si Si5 0.377138 0.317401 0.258019
Si Si6 0.468887 0.177277 0.442702
Si Si7 0.711519 0.178015 0.081423
O O1 0.961734 0.500000 0.776354
O O2 0.936875 0.194823 0.758084
O O3 0.883879 0.307293 0.887497
O O4 0.043017 0.273162 0.796731
O O5 0.559355 0.500000 0.342829
O O6 0.681275 0.313689 0.278208
O O7 0.546392 0.189601 0.364883
O O8 0.691277 0.500000 0.568934
O O9 0.750000 0.750000 0.500000
O O10 0.659552 0.743604 0.654458
O O11 0.599806 0.715486 0.557180
O O12 0.679608 0.284373 0.781004
O O13 0.753118 0.238282 0.867541
O O14 0.707832 0.000000 0.815198
O O15 0.393823 0.500000 0.256475
O O16 0.500000 0.243288 0.500000
O O17 0.439217 0.000000 0.459541
O O18 0.736869 0.000000 0.077048
O O19 0.750000 0.250000 0.000000
#
# Coordination Sequence:
#
# PCOD8101217 Si02
#       7
#     8   8   8   8   8   8   8
#     4  10  20  36  61  88 116 154 195 235 287 348
#     4  10  20  36  57  83 111 147 194 242 291 346
#     4  11  25  42  60  84 117 158 203 251 306 359
#     4  10  22  38  60  89 120 156 197 242 293 351
#     4  11  23  39  60  87 120 157 200 249 298 353
#     4  11  24  39  57  82 113 150 195 247 301 354
#     4  10  21  39  64  94 125 158 194 239 290 349
#
# _framework density 19.368742999999998
#
# number of rings (size 3 to 8) (size 9 to 14) (size 15 to 20)
#    0.000    1.571    1.429    3.000    2.000    6.286 
#    0.000    0.714    0.000    4.286    0.000    0.000 
#    0.000    0.000    0.000    0.000    0.000    0.000 
#
# Total GULP energy -347011.785638 kJ/mol
# GULP energy per Si atom -12393.278058 kJ/mol
# Density = 1.932466 g / cm^3
# Si number density = 19.368743 Si / 1000 Ang^3
#
#
#
# Elastic Constant Matrix: (Units=GPa)
#
#
# Indices 1 2 3 4 5 6 
#
# 1 116.5332 34.4722 57.6396 -0.0001 0.5258 -0.0002
# 2 34.4722 74.7835 34.9145 -0.0002 -8.8006 -0.0006
# 3 57.6396 34.9145 114.2409 0.0000 -10.4081 -0.0001
# 4 -0.0001 -0.0002 0.0000 33.1142 0.0000 -0.3243
# 5 0.5258 -8.8006 -10.4081 0.0000 25.2311 0.0000
# 6 -0.0002 -0.0006 -0.0001 -0.3243 0.0000 40.2554
#
#
#
# Elastic Compliance Matrix: (Units=1/GPa)
#
#
# Indices 1 2 3 4 5 6 
#
# 1 0.012375 -0.003584 -0.005492 0.000000 -0.003774 0.000000
# 2 -0.003584 0.016959 -0.002939 0.000000 0.004777 0.000000
# 3 -0.005492 -0.002939 0.012822 0.000000 0.004378 0.000000
# 4 0.000000 0.000000 0.000000 0.030201 0.000000 0.000243
# 5 -0.003774 0.004777 0.004378 0.000000 0.043185 0.000000
# 6 0.000000 0.000000 0.000000 0.000243 0.000000 0.024843
#
#
# Mechanical properties :
#
#
# Convention : Reuss Voigt Hill
#
# Bulk Modulus (GPa) = 55.17555 62.17891 58.67723
# Shear Modulus (GPa) = 29.33286 31.62220 30.47753
#
# Velocity S-wave (km/s) = 3.89581 4.04498 3.97109
# Velocity P-wave (km/s) = 6.98464 7.34767 7.16845
#
# Compressibility (1/GPa) = 0.01812397
#
# Stress axis : x y z
#
# Youngs Moduli (GPa) = 80.80733 58.96694 77.99316
#
# Poissons Ratio (x) = 0.21136 0.42835
# Poissons Ratio (y) = 0.28965 0.22924
# Poissons Ratio (z) = 0.44381 0.17331
#
# Static dielectric constant tensor:
#      x y z
#    x 3.649410 0.000000 -0.230880 
#    y 0.000000 3.635300 0.000000 
#    z -0.230880 0.000000 3.477600 
# 
# 
# High freq. dielectric constant tensor:
#      x y z
#    x 1.756590 0.000000 -0.009390 
#    y 0.000000 1.767010 0.000000 
#    z -0.009390 0.000000 1.740330 
# 
# From -- ./inp_files/275312.got.cif
#   From: 2010.06.25/outbox.cif.g09.slc.cpg/sg12_138_cif.got.tgz:275312.got - 2010.06.28 00:19:55.
