data_PCOD8101259
_publ_section_title
;
Structure prediction by ZEFSAII (Michael W. Deem and Ramdas Pophale) SiO2 
 PCOD8101259
Probable space group: C 2/M
;
_chemical_formula_sum "Si O2"
_cell_formula_units_Z 64
_cell_length_a 29.138915
_cell_length_b 8.903562
_cell_length_c 17.913974
_cell_angle_alpha 90.000000
_cell_angle_beta 135.457213
_cell_angle_gamma 90.000000
_cell_volume 3260.023177
_symmetry_space_group_name_H-M "C 2/M"
_symmetry_group_IT_number 12
_symmetry_cell_setting 'monoclinic'
loop_
_space_group_symop_operation_xyz
x,y,z
-x,y,-z
-x,-y,-z
x,-y,z
1/2+x,1/2+y,z
1/2-x,1/2+y,-z
1/2-x,1/2-y,-z
1/2+x,1/2-y,z
loop_
_atom_site_type_symbol
_atom_site_label
_atom_site_fract_x
_atom_site_fract_y
_atom_site_fract_z
Si Si1 0.782535 0.674333 0.203506
Si Si2 0.014211 0.669416 0.930235
Si Si3 0.118759 0.672436 0.810253
Si Si4 0.350879 0.321016 0.421232
Si Si5 0.570439 0.668395 0.281741
Si Si6 0.991076 0.832193 0.633463
Si Si7 0.806610 0.323214 0.518005
Si Si8 0.648898 0.175374 0.010452
O O1 0.783043 0.500000 0.227194
O O2 0.816224 0.700010 0.162482
O O3 0.822854 0.769094 0.310323
O O4 0.708933 0.732414 0.113715
O O5 0.997994 0.500000 0.884757
O O6 0.967254 0.787233 0.836222
O O7 0.089470 0.704923 0.998332
O O8 0.000000 0.689863 0.000000
O O9 0.100937 0.500000 0.798690
O O10 0.057212 0.741699 0.694343
O O11 0.130981 0.739115 0.907224
O O12 0.347201 0.500000 0.425971
O O13 0.426774 0.266860 0.516755
O O14 0.307656 0.248568 0.436796
O O15 0.599553 0.500000 0.306978
O O16 0.519507 0.673158 0.290278
O O17 0.627012 0.788280 0.361144
O O18 0.003574 0.000000 0.619034
O O19 0.796006 0.500000 0.498631
O O20 0.750000 0.250000 0.500000
O O21 0.668043 0.000000 0.028312
#
# Coordination Sequence:
#
# PCOD8101259 Si02
#       8
#     8   8   8   8   8   8   8   8
#     4  11  24  39  57  86 120 158 202 249 304 361
#     4  10  21  37  59  87 116 151 197 246 302 359
#     4  10  21  37  60  87 115 153 202 248 300 365
#     4  10  22  41  60  85 121 158 198 245 300 358
#     4  10  20  36  57  84 117 153 194 241 294 353
#     4   9  19  35  59  86 112 148 194 242 294 355
#     4  11  22  38  62  89 118 155 198 244 294 352
#     4  10  21  39  60  83 116 158 201 248 304 362
#
# _framework density 19.631762999999999
#
# number of rings (size 3 to 8) (size 9 to 14) (size 15 to 20)
#    0.000    1.875    1.250    3.375    0.000    6.250 
#    0.000    6.250    0.000    0.000    0.000    0.000 
#    0.000    0.000    0.000    0.000    0.000    0.000 
#
# Total GULP energy -396847.387382 kJ/mol
# GULP energy per Si atom -12401.480856 kJ/mol
# Density = 1.958708 g / cm^3
# Si number density = 19.631763 Si / 1000 Ang^3
#
#
#
# Elastic Constant Matrix: (Units=GPa)
#
#
# Indices 1 2 3 4 5 6 
#
# 1 92.8678 33.3435 40.9747 0.0000 2.9771 0.0000
# 2 33.3435 86.1170 36.5026 0.0000 0.6604 0.0000
# 3 40.9747 36.5026 111.9001 0.0000 -2.3658 0.0000
# 4 0.0000 0.0000 0.0000 36.4934 0.0000 3.2235
# 5 2.9771 0.6604 -2.3658 0.0000 22.4278 0.0000
# 6 0.0000 0.0000 0.0000 3.2235 0.0000 30.0854
#
#
#
# Elastic Compliance Matrix: (Units=1/GPa)
#
#
# Indices 1 2 3 4 5 6 
#
# 1 0.013898 -0.003700 -0.003928 0.000000 -0.002150 0.000000
# 2 -0.003700 0.014477 -0.003374 0.000000 -0.000291 0.000000
# 3 -0.003928 -0.003374 0.011514 0.000000 0.001835 0.000000
# 4 0.000000 0.000000 0.000000 0.027664 0.000000 -0.002964
# 5 -0.002150 -0.000291 0.001835 0.000000 0.045075 0.000000
# 6 0.000000 0.000000 0.000000 -0.002964 0.000000 0.033556
#
#
# Mechanical properties :
#
#
# Convention : Reuss Voigt Hill
#
# Bulk Modulus (GPa) = 55.90808 56.94739 56.42774
# Shear Modulus (GPa) = 28.71090 29.80560 29.25825
#
# Velocity S-wave (km/s) = 3.82838 3.90068 3.86470
# Velocity P-wave (km/s) = 6.93413 7.02551 6.97997
#
# Compressibility (1/GPa) = 0.01788650
#
# Stress axis : x y z
#
# Youngs Moduli (GPa) = 71.95112 69.07509 86.84990
#
# Poissons Ratio (x) = 0.25557 0.34112
# Poissons Ratio (y) = 0.26622 0.29302
# Poissons Ratio (z) = 0.28260 0.23305
#
# Static dielectric constant tensor:
#      x y z
#    x 3.580630 0.000000 0.042650 
#    y 0.000000 3.617420 0.000000 
#    z 0.042650 0.000000 3.530060 
# 
# 
# High freq. dielectric constant tensor:
#      x y z
#    x 1.764600 0.000000 0.003620 
#    y 0.000000 1.764930 0.000000 
#    z 0.003620 0.000000 1.765740 
# 
# From -- ./inp_files/295848.got.cif
#   From: 2010.06.25/outbox.cif.g09.slc.cpg/sg12_148_cif.got.tgz:295848.got - 2010.06.28 00:19:55.
