data_PCOD8101466
_publ_section_title
;
Structure prediction by ZEFSAII (Michael W. Deem and Ramdas Pophale) SiO2 
 PCOD8101466
Probable space group: C 2/M
;
_chemical_formula_sum "Si O2"
_cell_formula_units_Z 56
_cell_length_a 29.100536
_cell_length_b 13.140076
_cell_length_c 13.686600
_cell_angle_alpha 90.000000
_cell_angle_beta 33.828828
_cell_angle_gamma 90.000000
_cell_volume 2913.575723
_symmetry_space_group_name_H-M "C 2/M"
_symmetry_group_IT_number 12
_symmetry_cell_setting 'monoclinic'
loop_
_space_group_symop_operation_xyz
x,y,z
-x,y,-z
-x,-y,-z
x,-y,z
1/2+x,1/2+y,z
1/2-x,1/2+y,-z
1/2-x,1/2-y,-z
1/2+x,1/2-y,z
loop_
_atom_site_type_symbol
_atom_site_label
_atom_site_fract_x
_atom_site_fract_y
_atom_site_fract_z
Si Si1 0.625468 0.188750 0.746219
Si Si2 0.473624 0.882122 0.901010
Si Si3 0.223934 0.883753 0.847696
Si Si4 0.443047 0.612542 0.507004
Si Si5 0.426705 0.250037 0.808737
Si Si6 0.214104 0.114932 0.639813
Si Si7 0.830613 0.731883 0.795132
O O1 0.553798 0.181020 0.792494
O O2 0.706728 0.131180 0.567506
O O3 0.641631 0.308490 0.735862
O O4 0.599506 0.134251 0.892410
O O5 0.444573 0.844744 0.846785
O O6 0.497276 0.000000 0.852862
O O7 0.240297 0.864158 0.705007
O O8 0.308818 0.855702 0.755069
O O9 0.201530 0.000000 0.909747
O O10 0.147934 0.816626 0.018060
O O11 0.500000 0.599681 0.500000
O O12 0.422321 0.500000 0.501208
O O13 0.491832 0.679557 0.340855
O O14 0.357259 0.667120 0.688101
O O15 0.403924 0.203435 0.741823
O O16 0.180955 0.000000 0.685029
O O17 0.750000 0.750000 0.000000
#
# Coordination Sequence:
#
# PCOD8101466 Si02
#       7
#     8   8   8   8   8   8   8
#     4  10  21  39  60  82 114 148 195 239 282 346
#     4  11  22  38  60  83 113 155 193 232 289 344
#     4  10  20  36  58  83 114 153 190 230 290 340
#     4   9  18  35  59  82 111 151 189 230 282 335
#     4  10  20  37  57  87 117 149 193 237 277 335
#     4  10  20  37  62  86 113 150 189 238 292 339
#     4   9  20  35  56  84 119 148 186 230 273 334
#
# _framework density 19.220369000000002
#
# number of rings (size 3 to 8) (size 9 to 14) (size 15 to 20)
#    0.000    2.143    1.429    2.143    2.000    4.000 
#    0.000    5.000    0.000    2.571    0.000    0.000 
#    0.000    0.000    0.000    0.000    0.000    0.000 
#
# Total GULP energy -347148.611230 kJ/mol
# GULP energy per Si atom -12398.164687 kJ/mol
# Density = 1.917662 g / cm^3
# Si number density = 19.220369 Si / 1000 Ang^3
#
#
#
# Elastic Constant Matrix: (Units=GPa)
#
#
# Indices 1 2 3 4 5 6 
#
# 1 108.6963 74.7456 29.9037 0.0000 0.1599 0.0000
# 2 74.7456 132.7724 46.9719 0.0000 -3.1000 0.0000
# 3 29.9037 46.9719 77.3300 0.0000 -3.1641 0.0000
# 4 0.0000 0.0000 0.0000 24.0175 0.0000 -2.6214
# 5 0.1599 -3.1000 -3.1641 0.0000 18.2484 0.0000
# 6 0.0000 0.0000 0.0000 -2.6214 0.0000 30.1386
#
#
#
# Elastic Compliance Matrix: (Units=1/GPa)
#
#
# Indices 1 2 3 4 5 6 
#
# 1 0.015107 -0.008219 -0.000919 0.000000 -0.001688 0.000000
# 2 -0.008219 0.014072 -0.005306 0.000000 0.001542 0.000000
# 3 -0.000919 -0.005306 0.016591 0.000000 0.001983 0.000000
# 4 0.000000 0.000000 0.000000 0.042035 0.000000 0.003656
# 5 -0.001688 0.001542 0.001983 0.000000 0.055420 0.000000
# 6 0.000000 0.000000 0.000000 0.003656 0.000000 0.033498
#
#
# Mechanical properties :
#
#
# Convention : Reuss Voigt Hill
#
# Bulk Modulus (GPa) = 59.23317 69.11568 64.17442
# Shear Modulus (GPa) = 23.66993 25.62606 24.64799
#
# Velocity S-wave (km/s) = 3.51308 3.65537 3.58493
# Velocity P-wave (km/s) = 6.88044 7.33848 7.11315
#
# Compressibility (1/GPa) = 0.01688243
#
# Stress axis : x y z
#
# Youngs Moduli (GPa) = 66.19429 71.06343 60.27364
#
# Poissons Ratio (x) = 0.58408 0.05536
# Poissons Ratio (y) = 0.54406 0.31982
# Poissons Ratio (z) = 0.06080 0.37707
#
# Static dielectric constant tensor:
#      x y z
#    x 3.697510 0.000000 0.092860 
#    y 0.000000 3.584770 0.000000 
#    z 0.092860 0.000000 3.555480 
# 
# 
# High freq. dielectric constant tensor:
#      x y z
#    x 1.736440 0.000000 0.011640 
#    y 0.000000 1.741820 0.000000 
#    z 0.011640 0.000000 1.754020 
# 
# From -- ./inp_files/251003.got.cif
#   From: 2010.06.25/outbox.cif.g09.slc.cpg/sg12_126_cif.got.tgz:251003.got - 2010.06.28 00:19:55.
