data_PCOD8101544
_publ_section_title
;
Structure prediction by ZEFSAII (Michael W. Deem and Ramdas Pophale) SiO2 
 PCOD8101544
Probable space group: C 2/M
;
_chemical_formula_sum "Si O2"
_cell_formula_units_Z 64
_cell_length_a 31.820650
_cell_length_b 9.173005
_cell_length_c 24.477953
_cell_angle_alpha 90.000000
_cell_angle_beta 26.702252
_cell_angle_gamma 90.000000
_cell_volume 3210.587377
_symmetry_space_group_name_H-M "C 2/M"
_symmetry_group_IT_number 12
_symmetry_cell_setting 'monoclinic'
loop_
_space_group_symop_operation_xyz
x,y,z
-x,y,-z
-x,-y,-z
x,-y,z
1/2+x,1/2+y,z
1/2-x,1/2+y,-z
1/2-x,1/2-y,-z
1/2+x,1/2-y,z
loop_
_atom_site_type_symbol
_atom_site_label
_atom_site_fract_x
_atom_site_fract_y
_atom_site_fract_z
Si Si1 0.432977 0.333315 0.028442
Si Si2 0.704839 0.667706 0.185850
Si Si3 0.784480 0.171033 0.406113
Si Si4 0.974601 0.333152 0.172050
Si Si5 0.130285 0.329598 0.495367
Si Si6 0.718940 0.167490 0.280314
Si Si7 0.625301 0.832823 0.084445
Si Si8 0.059412 0.168407 0.262541
O O1 0.451147 0.500000 0.988582
O O2 0.327005 0.310429 0.170722
O O3 0.500000 0.289856 0.000000
O O4 0.450800 0.222525 0.958612
O O5 0.724271 0.500000 0.176625
O O6 0.689154 0.747407 0.261058
O O7 0.610763 0.690241 0.260494
O O8 0.793898 0.730596 0.049117
O O9 0.750000 0.250000 0.500000
O O10 0.885201 0.230586 0.272473
O O11 0.714898 0.205968 0.437667
O O12 0.791585 0.000000 0.409574
O O13 0.946363 0.500000 0.192599
O O14 0.023855 0.321679 0.173762
O O15 0.106207 0.500000 0.524202
O O16 0.158723 0.276719 0.401745
O O17 0.040743 0.243115 0.619523
O O18 0.696893 0.000000 0.294116
O O19 0.623973 0.738625 0.140798
O O20 0.649015 0.000000 0.072098
O O21 0.045530 0.000000 0.264291
#
# Coordination Sequence:
#
# PCOD8101544 Si02
#       8
#     8   8   8   8   8   8   8   8
#     4  10  20  36  58  85 117 152 194 243 293 345
#     4  10  22  41  61  87 123 157 192 246 309 356
#     4  11  23  40  61  86 121 161 202 249 299 352
#     4  11  22  36  58  88 119 155 195 237 295 356
#     4  10  23  43  62  84 120 162 201 246 300 354
#     4  10  21  38  62  88 115 156 205 245 291 355
#     4  10  21  39  61  86 122 159 193 241 303 362
#     4  11  24  39  61  90 117 153 202 251 301 356
#
# _framework density 19.934047
#
# number of rings (size 3 to 8) (size 9 to 14) (size 15 to 20)
#    0.000    1.625    1.250    3.000    0.000    9.750 
#    0.000    3.750    0.000    0.000    0.000    0.000 
#    0.000    0.000    0.000    0.000    0.000    0.000 
#
# Total GULP energy -396967.983116 kJ/mol
# GULP energy per Si atom -12405.249472 kJ/mol
# Density = 1.988868 g / cm^3
# Si number density = 19.934047 Si / 1000 Ang^3
#
#
#
# Elastic Constant Matrix: (Units=GPa)
#
#
# Indices 1 2 3 4 5 6 
#
# 1 84.3446 48.0513 17.6530 -0.0053 16.3722 0.0006
# 2 48.0513 81.3795 36.8605 -0.0080 9.1785 -0.0008
# 3 17.6530 36.8605 79.8457 -0.0262 11.7904 0.0054
# 4 -0.0053 -0.0080 -0.0262 32.6493 0.0036 3.0851
# 5 16.3722 9.1785 11.7904 0.0036 38.9348 0.0005
# 6 0.0006 -0.0008 0.0054 3.0851 0.0005 34.0000
#
#
#
# Elastic Compliance Matrix: (Units=1/GPa)
#
#
# Indices 1 2 3 4 5 6 
#
# 1 0.019172 -0.011541 0.001966 0.000003 -0.005936 -0.000001
# 2 -0.011541 0.022576 -0.008166 -0.000003 0.002004 0.000002
# 3 0.001966 -0.008166 0.016432 0.000012 -0.003878 -0.000004
# 4 0.000003 -0.000003 0.000012 0.030893 -0.000007 -0.002803
# 5 -0.005936 0.002004 -0.003878 -0.000007 0.028882 0.000001
# 6 -0.000001 0.000002 -0.000004 -0.002803 0.000001 0.029666
#
#
# Mechanical properties :
#
#
# Convention : Reuss Voigt Hill
#
# Bulk Modulus (GPa) = 44.05974 50.07772 47.06873
# Shear Modulus (GPa) = 26.22334 30.65048 28.43691
#
# Velocity S-wave (km/s) = 3.63092 3.92547 3.78107
# Velocity P-wave (km/s) = 6.30309 6.76180 6.53647
#
# Compressibility (1/GPa) = 0.02269645
#
# Stress axis : x y z
#
# Youngs Moduli (GPa) = 52.15927 44.29576 60.85677
#
# Poissons Ratio (x) = 0.51123 -0.11963
# Poissons Ratio (y) = 0.60198 0.49697
# Poissons Ratio (z) = -0.10254 0.36173
#
# Static dielectric constant tensor:
#      x y z
#    x 3.659500 -0.000010 0.013000 
#    y -0.000010 3.613960 0.000050 
#    z 0.013000 0.000050 3.735810 
# 
# 
# High freq. dielectric constant tensor:
#      x y z
#    x 1.785500 0.000000 -0.000880 
#    y 0.000000 1.774870 0.000000 
#    z -0.000880 0.000000 1.783910 
# 
# From -- ./inp_files/353316.got.cif
#   From: 2010.06.25/outbox.cif.g09.slc.cpg/sg12_177_cif.got.tgz:353316.got - 2010.06.28 00:19:55.
