data_PCOD8101594
_publ_section_title
;
Structure prediction by ZEFSAII (Michael W. Deem and Ramdas Pophale) SiO2 
 PCOD8101594
Probable space group: C 2/M
;
_chemical_formula_sum "Si O2"
_cell_formula_units_Z 56
_cell_length_a 23.839109
_cell_length_b 8.873234
_cell_length_c 14.026783
_cell_angle_alpha 90.000000
_cell_angle_beta 107.763824
_cell_angle_gamma 90.000000
_cell_volume 2825.621251
_symmetry_space_group_name_H-M "C 2/M"
_symmetry_group_IT_number 12
_symmetry_cell_setting 'monoclinic'
loop_
_space_group_symop_operation_xyz
x,y,z
-x,y,-z
-x,-y,-z
x,-y,z
1/2+x,1/2+y,z
1/2-x,1/2+y,-z
1/2-x,1/2-y,-z
1/2+x,1/2-y,z
loop_
_atom_site_type_symbol
_atom_site_label
_atom_site_fract_x
_atom_site_fract_y
_atom_site_fract_z
Si Si1 0.312627 0.679748 0.505260
Si Si2 0.913967 0.672528 0.191641
Si Si3 0.340068 0.677719 0.305854
Si Si4 0.488165 0.679552 0.885965
Si Si5 0.122692 0.169423 0.283437
Si Si6 0.722470 0.330451 0.193280
Si Si7 0.692170 0.171036 0.006498
O O1 0.305518 0.500000 0.507507
O O2 0.250000 0.750000 0.500000
O O3 0.335050 0.730761 0.412899
O O4 0.364592 0.737922 0.604717
O O5 0.934355 0.500000 0.216552
O O6 0.896604 0.743676 0.285242
O O7 0.963913 0.767206 0.165186
O O8 0.857609 0.684950 0.096569
O O9 0.347809 0.500000 0.300238
O O10 0.280228 0.727644 0.222986
O O11 0.488251 0.500000 0.892386
O O12 0.426694 0.746894 0.809847
O O13 0.500000 0.743954 0.000000
O O14 0.188312 0.173159 0.274440
O O15 0.099631 0.000000 0.283474
O O16 0.741830 0.500000 0.175453
O O17 0.675443 0.263657 0.093046
O O18 0.705210 0.000000 0.041045
O O19 0.750000 0.250000 0.000000
#
# Coordination Sequence:
#
# PCOD8101594 Si02
#       7
#     8   8   8   8   8   8   8
#     4  10  20  36  58  87 121 156 196 243 296 352
#     4  11  24  40  58  82 117 158 195 245 301 347
#     4  11  22  35  56  85 117 154 195 239 291 355
#     4  10  21  40  65  89 115 154 201 244 288 354
#     4   9  19  36  59  86 117 153 194 242 296 351
#     4  11  20  33  56  84 117 152 187 238 296 350
#     4  11  22  34  51  78 113 150 190 234 290 355
#
# _framework density 19.818650000000002
#
# number of rings (size 3 to 8) (size 9 to 14) (size 15 to 20)
#    0.000    1.571    2.857    2.571    0.000    3.714 
#    0.000    2.857    0.000    4.286    0.000    0.000 
#    0.000    0.000    0.000    0.000    0.000    0.000 
#
# Total GULP energy -346986.108278 kJ/mol
# GULP energy per Si atom -12392.361010 kJ/mol
# Density = 1.977354 g / cm^3
# Si number density = 19.818650 Si / 1000 Ang^3
#
#
#
# Elastic Constant Matrix: (Units=GPa)
#
#
# Indices 1 2 3 4 5 6 
#
# 1 97.1164 16.9658 47.5771 0.0000 -11.4789 0.0000
# 2 16.9658 45.8855 28.1331 0.0000 -5.0774 0.0000
# 3 47.5771 28.1331 136.0435 0.0000 -13.6011 0.0000
# 4 0.0000 0.0000 0.0000 19.6578 0.0000 -3.7422
# 5 -11.4789 -5.0774 -13.6011 0.0000 32.7535 0.0000
# 6 0.0000 0.0000 0.0000 -3.7422 0.0000 28.9823
#
#
#
# Elastic Compliance Matrix: (Units=1/GPa)
#
#
# Indices 1 2 3 4 5 6 
#
# 1 0.012832 -0.002136 -0.003786 0.000000 0.002594 0.000000
# 2 -0.002136 0.025415 -0.004371 0.000000 0.001376 0.000000
# 3 -0.003786 -0.004371 0.009785 0.000000 0.002058 0.000000
# 4 0.000000 0.000000 0.000000 0.052152 0.000000 0.006734
# 5 0.002594 0.001376 0.002058 0.000000 0.032508 0.000000
# 6 0.000000 0.000000 0.000000 0.006734 0.000000 0.035373
#
#
# Mechanical properties :
#
#
# Convention : Reuss Voigt Hill
#
# Bulk Modulus (GPa) = 36.43731 51.59973 44.01852
# Shear Modulus (GPa) = 25.27798 28.70335 26.99066
#
# Velocity S-wave (km/s) = 3.57524 3.80978 3.69437
# Velocity P-wave (km/s) = 5.95553 6.74129 6.36056
#
# Compressibility (1/GPa) = 0.02744439
#
# Stress axis : x y z
#
# Youngs Moduli (GPa) = 77.93267 39.34618 102.20199
#
# Poissons Ratio (x) = 0.08404 0.38699
# Poissons Ratio (y) = 0.16645 0.44675
# Poissons Ratio (z) = 0.29509 0.17199
#
# Static dielectric constant tensor:
#      x y z
#    x 3.935850 0.000000 2.863450 
#    y 0.000000 3.825310 0.000000 
#    z 2.863450 0.000000 32.174500 
# 
# 
# High freq. dielectric constant tensor:
#      x y z
#    x 1.761420 0.000000 -0.015550 
#    y 0.000000 1.758390 0.000000 
#    z -0.015550 0.000000 1.784180 
# 
# From -- ./inp_files/244293.got.cif
#   From: 2010.06.25/outbox.cif.g09.slc.cpg/sg12_123_cif.got.tgz:244293.got - 2010.06.28 00:19:55.
