data_PCOD8101685
_publ_section_title
;
Structure prediction by ZEFSAII (Michael W. Deem and Ramdas Pophale) SiO2 
 PCOD8101685
Probable space group: C 2/M
;
_chemical_formula_sum "Si O2"
_cell_formula_units_Z 48
_cell_length_a 29.887572
_cell_length_b 8.770396
_cell_length_c 16.441693
_cell_angle_alpha 90.000000
_cell_angle_beta 145.119076
_cell_angle_gamma 90.000000
_cell_volume 2464.653092
_symmetry_space_group_name_H-M "C 2/M"
_symmetry_group_IT_number 12
_symmetry_cell_setting 'monoclinic'
loop_
_space_group_symop_operation_xyz
x,y,z
-x,y,-z
-x,-y,-z
x,-y,z
1/2+x,1/2+y,z
1/2-x,1/2+y,-z
1/2-x,1/2-y,-z
1/2+x,1/2-y,z
loop_
_atom_site_type_symbol
_atom_site_label
_atom_site_fract_x
_atom_site_fract_y
_atom_site_fract_z
Si Si1 0.422872 0.181185 0.931613
Si Si2 0.051317 0.319150 0.845528
Si Si3 0.394756 0.680312 0.547114
Si Si4 0.265555 0.820369 0.609876
Si Si5 0.080157 0.822438 0.593069
Si Si6 0.333305 0.322563 0.115779
O O1 0.344546 0.244708 0.770301
O O2 0.422859 0.000000 0.928384
O O3 0.500000 0.244483 0.000000
O O4 0.423216 0.235370 0.026184
O O5 0.052672 0.500000 0.841003
O O6 0.111612 0.254159 0.869235
O O7 0.963367 0.261145 0.699879
O O8 0.409123 0.500000 0.574737
O O9 0.309550 0.727524 0.450313
O O10 0.393275 0.745693 0.453214
O O11 0.250000 0.750000 0.500000
O O12 0.273425 0.000000 0.612438
O O13 0.140195 0.791303 0.753366
O O14 0.000000 0.741414 0.500000
O O15 0.065328 0.000000 0.556017
O O16 0.329796 0.500000 0.088970
O O17 0.250000 0.250000 0.000000
#
# Coordination Sequence:
#
# PCOD8101685 Si02
#       6
#     8   8   8   8   8   8
#     4   9  19  36  58  83 113 152 194 233 280 348
#     4  11  22  37  60  87 116 151 191 239 293 343
#     4  10  20  36  59  84 111 149 195 239 284 340
#     4  10  21  37  60  85 112 147 191 239 288 345
#     4   9  17  34  59  81 106 150 196 229 273 340
#     4  11  23  39  60  85 118 155 196 240 284 341
#
# _framework density 19.475359000000001
#
# number of rings (size 3 to 8) (size 9 to 14) (size 15 to 20)
#    0.000    2.000    1.667    2.000    2.333    2.000 
#    0.000    4.167    0.000    4.500    0.000    0.000 
#    0.000    0.000    0.000    0.000    0.000    0.000 
#
# Total GULP energy -297466.180760 kJ/mol
# GULP energy per Si atom -12394.424198 kJ/mol
# Density = 1.943103 g / cm^3
# Si number density = 19.475359 Si / 1000 Ang^3
#
#
#
# Elastic Constant Matrix: (Units=GPa)
#
#
# Indices 1 2 3 4 5 6 
#
# 1 166.4185 41.0920 99.5778 0.0000 -0.9893 0.0000
# 2 41.0920 45.6210 48.6889 0.0000 1.5196 0.0000
# 3 99.5778 48.6889 132.0257 0.0000 18.3137 0.0000
# 4 0.0000 0.0000 0.0000 30.2444 0.0000 -1.0915
# 5 -0.9893 1.5196 18.3137 0.0000 42.4644 0.0000
# 6 0.0000 0.0000 0.0000 -1.0915 0.0000 22.3764
#
#
#
# Elastic Compliance Matrix: (Units=1/GPa)
#
#
# Indices 1 2 3 4 5 6 
#
# 1 0.011681 -0.001052 -0.009004 0.000000 0.004193 0.000000
# 2 -0.001052 0.037160 -0.013533 0.000000 0.004482 0.000000
# 3 -0.009004 -0.013533 0.020547 0.000000 -0.008587 0.000000
# 4 0.000000 0.000000 0.000000 0.033122 0.000000 0.001616
# 5 0.004193 0.004482 -0.008587 0.000000 0.027190 0.000000
# 6 0.000000 0.000000 0.000000 0.001616 0.000000 0.044769
#
#
# Mechanical properties :
#
#
# Convention : Reuss Voigt Hill
#
# Bulk Modulus (GPa) = 45.02083 80.30919 62.66501
# Shear Modulus (GPa) = 21.82926 29.33083 25.58005
#
# Velocity S-wave (km/s) = 3.35157 3.88499 3.62810
# Velocity P-wave (km/s) = 6.17611 7.83901 7.05671
#
# Compressibility (1/GPa) = 0.02221194
#
# Stress axis : x y z
#
# Youngs Moduli (GPa) = 85.60741 26.91041 48.66832
#
# Poissons Ratio (x) = 0.02830 0.43822
# Poissons Ratio (y) = 0.09002 0.65861
# Poissons Ratio (z) = 0.77082 0.36417
#
# Static dielectric constant tensor:
#      x y z
#    x 3.767920 0.000000 0.028010 
#    y 0.000000 3.329260 0.000000 
#    z 0.028010 0.000000 3.760050 
# 
# 
# High freq. dielectric constant tensor:
#      x y z
#    x 1.779540 0.000000 -0.001080 
#    y 0.000000 1.723170 0.000000 
#    z -0.001080 0.000000 1.775700 
# 
# From -- ./inp_files/244727.got.cif
#   From: 2010.06.25/outbox.cif.g09.slc.cpg/sg12_123_cif.got.tgz:244727.got - 2010.06.28 00:19:55.
