data_PCOD8101717
_publ_section_title
;
Structure prediction by ZEFSAII (Michael W. Deem and Ramdas Pophale) SiO2 
 PCOD8101717
Probable space group: C 2/M
;
_chemical_formula_sum "Si O2"
_cell_formula_units_Z 48
_cell_length_a 16.047674
_cell_length_b 8.976483
_cell_length_c 21.825324
_cell_angle_alpha 90.000000
_cell_angle_beta 125.724896
_cell_angle_gamma 90.000000
_cell_volume 2552.372423
_symmetry_space_group_name_H-M "C 2/M"
_symmetry_group_IT_number 12
_symmetry_cell_setting 'monoclinic'
loop_
_space_group_symop_operation_xyz
x,y,z
-x,y,-z
-x,-y,-z
x,-y,z
1/2+x,1/2+y,z
1/2-x,1/2+y,-z
1/2-x,1/2-y,-z
1/2+x,1/2-y,z
loop_
_atom_site_type_symbol
_atom_site_label
_atom_site_fract_x
_atom_site_fract_y
_atom_site_fract_z
Si Si1 0.276577 0.826368 0.415053
Si Si2 0.357230 0.324529 0.327240
Si Si3 0.902635 0.827086 0.573217
Si Si4 0.690616 0.171907 0.026789
Si Si5 0.002420 0.158293 0.929653
Si Si6 0.275957 0.326825 0.831569
O O1 0.302193 0.739525 0.363939
O O2 0.159951 0.795617 0.390012
O O3 0.356965 0.775634 0.500724
O O4 0.292328 0.000000 0.408409
O O5 0.340301 0.500000 0.320676
O O6 0.477574 0.284984 0.371474
O O7 0.304670 0.254778 0.245660
O O8 0.888625 0.000000 0.548684
O O9 0.725814 0.251086 0.103443
O O10 0.714183 0.000000 0.043438
O O11 0.750000 0.250000 0.000000
O O12 0.573853 0.197748 0.953637
O O13 0.890641 0.193201 0.853392
O O14 0.042630 0.000000 0.917291
O O15 0.000000 0.124929 0.000000
O O16 0.246428 0.500000 0.825049
#
# Coordination Sequence:
#
# PCOD8101717 Si02
#       6
#     8   8   8   8   8   8
#     4  10  20  36  59  85 112 149 194 238 286 340
#     4  11  22  37  57  83 117 155 191 233 289 347
#     4   9  20  38  58  82 115 152 190 235 285 341
#     4  11  21  35  57  83 110 143 185 229 275 331
#     4   8  16  33  55  76 102 137 174 218 270 322
#     4  10  21  38  57  80 111 145 183 230 282 336
#
# _framework density 18.806031999999998
#
# number of rings (size 3 to 8) (size 9 to 14) (size 15 to 20)
#    0.000    2.167    0.000    4.500    0.000    7.667 
#    3.000    0.000    0.000    0.000    0.000    0.000 
#    0.000    0.000    0.000    0.000    0.000    0.000 
#
# Total GULP energy -297335.644498 kJ/mol
# GULP energy per Si atom -12388.985187 kJ/mol
# Density = 1.876323 g / cm^3
# Si number density = 18.806032 Si / 1000 Ang^3
#
#
#
# Elastic Constant Matrix: (Units=GPa)
#
#
# Indices 1 2 3 4 5 6 
#
# 1 119.5638 66.2796 62.5864 0.0000 -1.5042 0.0000
# 2 66.2796 123.8153 63.3083 0.0000 -3.2370 0.0000
# 3 62.5864 63.3083 97.9941 0.0000 8.2114 0.0000
# 4 0.0000 0.0000 0.0000 132.8648 0.0000 45.5129
# 5 -1.5042 -3.2370 8.2114 0.0000 22.5239 0.0000
# 6 0.0000 0.0000 0.0000 45.5129 0.0000 53.6538
#
#
#
# Elastic Compliance Matrix: (Units=1/GPa)
#
#
# Indices 1 2 3 4 5 6 
#
# 1 0.014137 -0.004123 -0.006596 0.000000 0.002756 0.000000
# 2 -0.004123 0.013769 -0.006607 0.000000 0.004112 0.000000
# 3 -0.006596 -0.006607 0.019395 0.000000 -0.008461 0.000000
# 4 0.000000 0.000000 0.000000 0.010609 0.000000 -0.008999
# 5 0.002756 0.004112 -0.008461 0.000000 0.048257 0.000000
# 6 0.000000 0.000000 0.000000 -0.008999 0.000000 0.026272
#
#
# Mechanical properties :
#
#
# Convention : Reuss Voigt Hill
#
# Bulk Modulus (GPa) = 79.05841 80.63576 79.84708
# Shear Modulus (GPa) = 29.18734 51.75508 40.47121
#
# Velocity S-wave (km/s) = 3.94384 5.25169 4.64403
# Velocity P-wave (km/s) = 7.92897 8.92997 8.44432
#
# Compressibility (1/GPa) = 0.01264888
#
# Stress axis : x y z
#
# Youngs Moduli (GPa) = 70.73800 72.62573 51.55978
#
# Poissons Ratio (x) = 0.29941 0.34010
# Poissons Ratio (y) = 0.29163 0.34066
# Poissons Ratio (z) = 0.46661 0.47984
#
# Static dielectric constant tensor:
#      x y z
#    x 3.621480 0.000000 0.103370 
#    y 0.000000 4.988570 0.000000 
#    z 0.103370 0.000000 3.293760 
# 
# 
# High freq. dielectric constant tensor:
#      x y z
#    x 1.733130 0.000000 0.009450 
#    y 0.000000 1.744640 0.000000 
#    z 0.009450 0.000000 1.715550 
# 
# From -- ./inp_files/314494.got.cif
#   From: 2010.06.25/outbox.cif.g09.slc.cpg/sg12_158_cif.got.tgz:314494.got - 2010.06.28 00:19:55.
