data_PCOD8101728
_publ_section_title
;
Structure prediction by ZEFSAII (Michael W. Deem and Ramdas Pophale) SiO2 
 PCOD8101728
Probable space group: C 2/M
;
_chemical_formula_sum "Si O2"
_cell_formula_units_Z 56
_cell_length_a 18.093518
_cell_length_b 8.734658
_cell_length_c 26.243291
_cell_angle_alpha 90.000000
_cell_angle_beta 138.065890
_cell_angle_gamma 90.000000
_cell_volume 2771.678096
_symmetry_space_group_name_H-M "C 2/M"
_symmetry_group_IT_number 12
_symmetry_cell_setting 'monoclinic'
loop_
_space_group_symop_operation_xyz
x,y,z
-x,y,-z
-x,-y,-z
x,-y,z
1/2+x,1/2+y,z
1/2-x,1/2+y,-z
1/2-x,1/2-y,-z
1/2+x,1/2-y,z
loop_
_atom_site_type_symbol
_atom_site_label
_atom_site_fract_x
_atom_site_fract_y
_atom_site_fract_z
Si Si1 0.411173 0.178203 0.733233
Si Si2 0.178881 0.323788 0.600872
Si Si3 0.107130 0.671956 0.019898
Si Si4 0.761750 0.821420 0.829097
Si Si5 0.528875 0.678477 0.131833
Si Si6 0.977805 0.323875 0.570754
Si Si7 0.529353 0.321810 0.698848
O O1 0.282172 0.214503 0.661788
O O2 0.466439 0.269584 0.807733
O O3 0.474580 0.223468 0.714937
O O4 0.426107 0.000000 0.751486
O O5 0.216626 0.500000 0.626033
O O6 0.088457 0.281963 0.596741
O O7 0.128804 0.295313 0.519183
O O8 0.152392 0.500000 0.036364
O O9 0.201587 0.774252 0.095006
O O10 0.000000 0.675890 0.000000
O O11 0.075101 0.739387 0.948485
O O12 0.856459 0.779249 0.837117
O O13 0.656928 0.723510 0.758271
O O14 0.732296 0.000000 0.813233
O O15 0.505724 0.500000 0.116635
O O16 0.983067 0.500000 0.591043
O O17 0.966923 0.215770 0.614118
O O18 0.516315 0.500000 0.704531
#
# Coordination Sequence:
#
# PCOD8101728 Si02
#       7
#     8   8   8   8   8   8   8
#     4  12  25  39  56  80 113 151 190 232 279 331
#     4   9  19  38  63  88 114 145 182 226 277 332
#     4   9  17  31  54  85 116 145 184 231 275 323
#     4  10  20  36  59  85 114 148 186 229 279 333
#     4  10  20  36  59  85 114 148 186 229 279 333
#     4   9  19  38  63  88 114 145 182 226 277 332
#     4  12  25  39  56  80 113 151 190 232 279 331
#
# _framework density 20.204366
#
# number of rings (size 3 to 8) (size 9 to 14) (size 15 to 20)
#    0.000    1.857    0.000    5.571    0.000    8.571 
#    0.000    2.143    0.000    0.000    0.000    0.000 
#    0.000    0.000    0.000    0.000    0.000    0.000 
#
# Total GULP energy -347324.596785 kJ/mol
# GULP energy per Si atom -12404.449885 kJ/mol
# Density = 2.015838 g / cm^3
# Si number density = 20.204366 Si / 1000 Ang^3
#
#
#
# Elastic Constant Matrix: (Units=GPa)
#
#
# Indices 1 2 3 4 5 6 
#
# 1 53.1995 12.4183 19.9954 0.0000 -23.1867 0.0000
# 2 12.4183 58.4659 13.4173 0.0000 0.0147 0.0001
# 3 19.9954 13.4173 80.2465 0.0000 -28.8654 0.0000
# 4 0.0000 0.0000 0.0000 40.6972 0.0000 -4.5911
# 5 -23.1867 0.0147 -28.8654 0.0000 21.8367 0.0000
# 6 0.0000 0.0001 0.0000 -4.5911 0.0000 28.1311
#
#
#
# Elastic Compliance Matrix: (Units=1/GPa)
#
#
# Indices 1 2 3 4 5 6 
#
# 1 0.047050 -0.013752 0.016300 0.000000 0.071516 0.000000
# 2 -0.013752 0.022478 -0.010657 0.000000 -0.028705 0.000000
# 3 0.016300 -0.010657 0.031287 0.000000 0.058673 0.000000
# 4 0.000000 0.000000 0.000000 0.025033 0.000000 0.004085
# 5 0.071516 -0.028705 0.058673 0.000000 0.199309 0.000000
# 6 0.000000 0.000000 0.000000 0.004085 0.000000 0.036215
#
#
# Mechanical properties :
#
#
# Convention : Reuss Voigt Hill
#
# Bulk Modulus (GPa) = 11.82069 31.50823 21.66446
# Shear Modulus (GPa) = 12.32168 27.87171 20.09669
#
# Velocity S-wave (km/s) = 2.47220 3.71818 3.15726
# Velocity P-wave (km/s) = 3.74330 5.83624 4.90276
#
# Compressibility (1/GPa) = 0.08459741
#
# Stress axis : x y z
#
# Youngs Moduli (GPa) = 21.25378 44.48807 31.96220
#
# Poissons Ratio (x) = 0.61182 -0.52100
# Poissons Ratio (y) = 0.29229 0.34062
# Poissons Ratio (z) = -0.34645 0.47411
#
# Static dielectric constant tensor:
#      x y z
#    x 3.435490 0.000000 -0.120010 
#    y 0.000000 3.644800 0.000000 
#    z -0.120010 0.000000 3.825100 
# 
# 
# High freq. dielectric constant tensor:
#      x y z
#    x 1.767040 0.000000 -0.012700 
#    y 0.000000 1.791520 0.000000 
#    z -0.012700 0.000000 1.802710 
# 
# From -- ./inp_files/333371.got.cif
#   From: 2010.06.25/outbox.cif.g09.slc.cpg/sg12_167_cif.got.tgz:333371.got - 2010.06.28 00:19:55.
