data_PCOD8101543
_publ_section_title
;
Structure prediction by ZEFSAII (Michael W. Deem and Ramdas Pophale) SiO2 
 PCOD8101543
Probable space group: C 2/M
;
_chemical_formula_sum "Si O2"
_cell_formula_units_Z 48
_cell_length_a 20.244832
_cell_length_b 8.644792
_cell_length_c 20.834780
_cell_angle_alpha 90.000000
_cell_angle_beta 42.238617
_cell_angle_gamma 90.000000
_cell_volume 2451.144431
_symmetry_space_group_name_H-M "C 2/M"
_symmetry_group_IT_number 12
_symmetry_cell_setting 'monoclinic'
loop_
_space_group_symop_operation_xyz
x,y,z
-x,y,-z
-x,-y,-z
x,-y,z
1/2+x,1/2+y,z
1/2-x,1/2+y,-z
1/2-x,1/2-y,-z
1/2+x,1/2-y,z
loop_
_atom_site_type_symbol
_atom_site_label
_atom_site_fract_x
_atom_site_fract_y
_atom_site_fract_z
Si Si1 0.802492 0.319763 0.603767
Si Si2 0.596357 0.819832 0.721173
Si Si3 0.354555 0.321241 0.697071
Si Si4 0.642756 0.179357 0.896986
Si Si5 0.508180 0.319337 0.090782
Si Si6 0.044770 0.680776 0.615132
O O1 0.776149 0.500000 0.619492
O O2 0.703545 0.222332 0.669888
O O3 0.856357 0.281147 0.631544
O O4 0.873992 0.270106 0.494933
O O5 0.512279 0.730877 0.821492
O O6 0.587066 0.772117 0.653837
O O7 0.579615 0.000000 0.744020
O O8 0.360010 0.500000 0.673082
O O9 0.258109 0.286439 0.808813
O O10 0.446314 0.276829 0.674792
O O11 0.586969 0.277835 0.883128
O O12 0.618423 0.000000 0.902998
O O13 0.604616 0.231518 0.994512
O O14 0.528673 0.500000 0.072761
O O15 0.020110 0.500000 0.628147
#
# Coordination Sequence:
#
# PCOD8101543 Si02
#       6
#     8   8   8   8   8   8
#     4  11  22  38  61  87 115 152 198 244 288 340
#     4  11  22  39  60  85 118 155 194 239 293 345
#     4  11  23  38  60  88 118 154 194 237 288 346
#     4  10  20  36  58  85 117 150 188 238 289 342
#     4  11  21  34  58  89 115 147 191 239 288 344
#     4  10  24  41  58  83 119 158 194 239 292 344
#
# _framework density 19.582689999999999
#
# number of rings (size 3 to 8) (size 9 to 14) (size 15 to 20)
#    0.000    1.333    1.667    5.500    0.000    6.667 
#    0.000    0.833    0.000    0.000    0.000    0.000 
#    0.000    0.000    0.000    0.000    0.000    0.000 
#
# Total GULP energy -297749.736852 kJ/mol
# GULP energy per Si atom -12406.239036 kJ/mol
# Density = 1.953812 g / cm^3
# Si number density = 19.582690 Si / 1000 Ang^3
#
#
#
# Elastic Constant Matrix: (Units=GPa)
#
#
# Indices 1 2 3 4 5 6 
#
# 1 58.6296 11.9241 21.6190 0.0000 0.8696 0.0000
# 2 11.9241 63.9195 31.8615 -0.0002 0.9283 0.0002
# 3 21.6190 31.8615 128.5857 -0.0001 6.7311 0.0001
# 4 0.0000 -0.0002 -0.0001 33.9042 0.0001 -1.9710
# 5 0.8696 0.9283 6.7311 0.0001 13.8518 -0.0001
# 6 0.0000 0.0002 0.0001 -1.9710 -0.0001 29.3667
#
#
#
# Elastic Compliance Matrix: (Units=1/GPa)
#
#
# Indices 1 2 3 4 5 6 
#
# 1 0.018442 -0.002159 -0.002578 0.000000 0.000240 0.000000
# 2 -0.002159 0.018115 -0.004175 0.000000 0.000951 0.000000
# 3 -0.002578 -0.004175 0.009463 0.000000 -0.004157 0.000000
# 4 0.000000 0.000000 0.000000 0.029610 0.000000 0.001987
# 5 0.000240 0.000951 -0.004157 0.000000 0.074134 0.000000
# 6 0.000000 0.000000 0.000000 0.001987 0.000000 0.034186
#
#
# Mechanical properties :
#
#
# Convention : Reuss Voigt Hill
#
# Bulk Modulus (GPa) = 35.46727 42.43822 38.95275
# Shear Modulus (GPa) = 23.67728 27.80656 25.74192
#
# Velocity S-wave (km/s) = 3.48097 3.77232 3.62957
# Velocity P-wave (km/s) = 5.85723 6.37904 6.12369
#
# Compressibility (1/GPa) = 0.02819501
#
# Stress axis : x y z
#
# Youngs Moduli (GPa) = 54.22276 55.20330 105.67925
#
# Poissons Ratio (x) = 0.11917 0.27248
# Poissons Ratio (y) = 0.11705 0.44125
# Poissons Ratio (z) = 0.13981 0.23050
#
# Static dielectric constant tensor:
#      x y z
#    x 3.330320 0.000000 0.100210 
#    y 0.000000 3.584290 0.000000 
#    z 0.100210 0.000000 3.908660 
# 
# 
# High freq. dielectric constant tensor:
#      x y z
#    x 1.738170 0.000000 0.004290 
#    y 0.000000 1.772320 0.000000 
#    z 0.004290 0.000000 1.782520 
# 
# From -- ./inp_files/319581.got.cif
#   From: 2010.06.25/outbox.cif.g09.slc.cpg/sg12_160_cif.got.tgz:319581.got - 2010.06.28 00:19:55.
