data_PCOD8101929
_publ_section_title
;
Structure prediction by ZEFSAII (Michael W. Deem and Ramdas Pophale) SiO2 
 PCOD8101929
Probable space group: C 2/M
;
_chemical_formula_sum "Si O2"
_cell_formula_units_Z 56
_cell_length_a 27.596756
_cell_length_b 13.716954
_cell_length_c 9.278243
_cell_angle_alpha 90.000000
_cell_angle_beta 123.578250
_cell_angle_gamma 90.000000
_cell_volume 2926.138545
_symmetry_space_group_name_H-M "C 2/M"
_symmetry_group_IT_number 12
_symmetry_cell_setting 'monoclinic'
loop_
_space_group_symop_operation_xyz
x,y,z
-x,y,-z
-x,-y,-z
x,-y,z
1/2+x,1/2+y,z
1/2-x,1/2+y,-z
1/2-x,1/2-y,-z
1/2+x,1/2-y,z
loop_
_atom_site_type_symbol
_atom_site_label
_atom_site_fract_x
_atom_site_fract_y
_atom_site_fract_z
Si Si1 0.272240 0.229680 0.378299
Si Si2 0.694490 0.273531 0.002466
Si Si3 0.122246 0.386648 0.347936
Si Si4 0.528229 0.609909 0.394748
Si Si5 0.115325 0.613449 0.001534
Si Si6 0.503590 0.210694 0.173955
Si Si7 0.660440 0.612073 0.685661
O O1 0.250000 0.250000 0.500000
O O2 0.218676 0.185479 0.195567
O O3 0.324230 0.152349 0.470114
O O4 0.293853 0.329428 0.338191
O O5 0.656552 0.176524 0.966142
O O6 0.750000 0.250000 0.000000
O O7 0.658049 0.351873 0.849179
O O8 0.116746 0.500000 0.365226
O O9 0.130900 0.362926 0.193270
O O10 0.064023 0.339346 0.316663
O O11 0.500000 0.634397 0.500000
O O12 0.512942 0.500000 0.321449
O O13 0.498862 0.682332 0.233484
O O14 0.597228 0.625130 0.513082
O O15 0.124628 0.500000 0.980927
O O16 0.048673 0.641698 0.858849
O O17 0.500000 0.226556 0.000000
O O18 0.680428 0.500000 0.717471
#
# Coordination Sequence:
#
# PCOD8101929 Si02
#       7
#     8   8   8   8   8   8   8
#     4  11  21  38  62  88 120 155 203 254 307 348
#     4  10  22  37  59  85 117 160 200 246 289 351
#     4  10  20  36  60  91 122 155 195 244 303 366
#     4  10  20  36  60  83 113 157 196 240 298 354
#     4  10  20  37  62  90 120 159 196 239 304 364
#     4  10  20  36  62  90 122 152 193 250 303 360
#     4  10  22  40  59  82 116 159 200 242 300 363
#
# _framework density 19.137848999999999
#
# number of rings (size 3 to 8) (size 9 to 14) (size 15 to 20)
#    0.000    1.857    2.857    1.286    0.000    5.429 
#    0.000    2.143    0.000    2.571    0.000    0.000 
#    0.000    0.000    0.000    0.000    0.000    0.000 
#
# Total GULP energy -347175.542176 kJ/mol
# GULP energy per Si atom -12399.126506 kJ/mol
# Density = 1.909429 g / cm^3
# Si number density = 19.137849 Si / 1000 Ang^3
#
#
#
# Elastic Constant Matrix: (Units=GPa)
#
#
# Indices 1 2 3 4 5 6 
#
# 1 94.9102 43.6741 24.2799 0.0000 -5.5177 0.0000
# 2 43.6741 116.3600 37.1427 0.0000 -4.0801 0.0000
# 3 24.2799 37.1427 75.4851 0.0000 0.3434 0.0000
# 4 0.0000 0.0000 0.0000 34.6590 0.0000 -4.3390
# 5 -5.5177 -4.0801 0.3434 0.0000 21.6326 0.0000
# 6 0.0000 0.0000 0.0000 -4.3390 0.0000 31.2630
#
#
#
# Elastic Compliance Matrix: (Units=1/GPa)
#
#
# Indices 1 2 3 4 5 6 
#
# 1 0.013159 -0.004143 -0.002206 0.000000 0.002610 0.000000
# 2 -0.004143 0.011588 -0.004374 0.000000 0.001198 0.000000
# 3 -0.002206 -0.004374 0.016117 0.000000 -0.001643 0.000000
# 4 0.000000 0.000000 0.000000 0.029363 0.000000 0.004075
# 5 0.002610 0.001198 -0.001643 0.000000 0.047144 0.000000
# 6 0.000000 0.000000 0.000000 0.004075 0.000000 0.032552
#
#
# Mechanical properties :
#
#
# Convention : Reuss Voigt Hill
#
# Bulk Modulus (GPa) = 51.50267 55.21653 53.35960
# Shear Modulus (GPa) = 28.11486 29.62150 28.86818
#
# Velocity S-wave (km/s) = 3.83700 3.93847 3.88807
# Velocity P-wave (km/s) = 6.82642 7.04249 6.93530
#
# Compressibility (1/GPa) = 0.01941647
#
# Stress axis : x y z
#
# Youngs Moduli (GPa) = 75.99420 86.29961 62.04627
#
# Poissons Ratio (x) = 0.35758 0.13685
# Poissons Ratio (y) = 0.31488 0.27141
# Poissons Ratio (z) = 0.16762 0.37751
#
# Static dielectric constant tensor:
#      x y z
#    x 3.459910 0.000000 0.143860 
#    y 0.000000 3.461610 0.000000 
#    z 0.143860 0.000000 4.071820 
# 
# 
# High freq. dielectric constant tensor:
#      x y z
#    x 1.749870 0.000000 0.011370 
#    y 0.000000 1.738090 0.000000 
#    z 0.011370 0.000000 1.745930 
# 
# From -- ./inp_files/111727.got.cif
#   From: 2010.06.25/outbox.cif.g09.slc.cpg/sg12_56_cif.got.tgz:111727.got - 2010.06.28 00:19:55.
