data_PCOD8101654
_publ_section_title
;
Structure prediction by ZEFSAII (Michael W. Deem and Ramdas Pophale) SiO2 
 PCOD8101654
Probable space group: C 2/M
;
_chemical_formula_sum "Si O2"
_cell_formula_units_Z 64
_cell_length_a 30.839556
_cell_length_b 8.699609
_cell_length_c 22.995332
_cell_angle_alpha 90.000000
_cell_angle_beta 31.105030
_cell_angle_gamma 90.000000
_cell_volume 3187.198272
_symmetry_space_group_name_H-M "C 2/M"
_symmetry_group_IT_number 12
_symmetry_cell_setting 'monoclinic'
loop_
_space_group_symop_operation_xyz
x,y,z
-x,y,-z
-x,-y,-z
x,-y,z
1/2+x,1/2+y,z
1/2-x,1/2+y,-z
1/2-x,1/2-y,-z
1/2+x,1/2-y,z
loop_
_atom_site_type_symbol
_atom_site_label
_atom_site_fract_x
_atom_site_fract_y
_atom_site_fract_z
Si Si1 0.749197 0.818209 0.240912
Si Si2 0.122686 0.683200 0.583288
Si Si3 0.176747 0.323116 0.047571
Si Si4 0.888224 0.819986 0.991036
Si Si5 0.582558 0.817108 0.371013
Si Si6 0.966336 0.323968 0.696378
Si Si7 0.569568 0.181569 0.770262
Si Si8 0.283524 0.682298 0.330478
O O1 0.666119 0.747228 0.305349
O O2 0.757071 0.754704 0.297444
O O3 0.739024 0.000000 0.253687
O O4 0.833809 0.772270 0.109645
O O5 0.115393 0.500000 0.592982
O O6 0.101981 0.749139 0.671160
O O7 0.214411 0.737061 0.457095
O O8 0.055303 0.749095 0.613816
O O9 0.196373 0.500000 0.010138
O O10 0.167994 0.224974 0.999486
O O11 0.092085 0.307411 0.180920
O O12 0.250000 0.250000 0.000000
O O13 0.974625 0.728070 0.892485
O O14 0.907973 0.000000 0.967042
O O15 0.500000 0.763438 0.500000
O O16 0.573481 0.747673 0.315839
O O17 0.590972 0.000000 0.360430
O O18 0.982069 0.500000 0.661424
O O19 0.627274 0.247181 0.755122
O O20 0.575181 0.000000 0.763506
O O21 0.291896 0.500000 0.319776
#
# Coordination Sequence:
#
# PCOD8101654 Si02
#       8
#     8   8   8   8   8   8   8   8
#     4   9  19  34  52  80 114 145 185 238 282 329
#     4   9  17  32  55  83 113 142 178 233 291 343
#     4  11  21  35  55  81 115 150 189 232 277 328
#     4  11  22  38  58  81 113 151 191 234 282 334
#     4   9  15  25  46  78 111 142 177 219 271 328
#     4   9  16  28  49  77 109 142 175 220 274 323
#     4  11  22  38  57  82 115 146 185 235 288 340
#     4  10  20  36  59  83 108 144 189 235 290 345
#
# _framework density 20.080333
#
# number of rings (size 3 to 8) (size 9 to 14) (size 15 to 20)
#    0.000    2.125    1.250    3.000    0.000    5.500 
#    0.000    4.375    0.000    0.000    0.000    0.000 
#    0.000    6.500    0.000    0.000    0.000    0.000 
#
# Total GULP energy -396758.133335 kJ/mol
# GULP energy per Si atom -12398.691667 kJ/mol
# Density = 2.003463 g / cm^3
# Si number density = 20.080333 Si / 1000 Ang^3
#
#
#
# Elastic Constant Matrix: (Units=GPa)
#
#
# Indices 1 2 3 4 5 6 
#
# 1 143.0728 16.7212 55.2336 0.0096 -7.8485 0.0008
# 2 16.7212 23.2098 16.7546 0.0060 2.8808 -0.0057
# 3 55.2336 16.7546 100.9612 0.0171 -3.3653 -0.0023
# 4 0.0096 0.0060 0.0171 19.4230 0.0000 -1.9350
# 5 -7.8485 2.8808 -3.3653 0.0000 39.8461 0.0015
# 6 0.0008 -0.0057 -0.0023 -1.9350 0.0015 23.1890
#
#
#
# Elastic Compliance Matrix: (Units=1/GPa)
#
#
# Indices 1 2 3 4 5 6 
#
# 1 0.009199 -0.003690 -0.004363 0.000000 0.001710 -0.000002
# 2 -0.003690 0.051153 -0.006636 -0.000007 -0.004986 0.000012
# 3 -0.004363 -0.006636 0.013418 -0.000008 0.000754 -0.000001
# 4 0.000000 -0.000007 -0.000008 0.051917 0.000000 0.004332
# 5 0.001710 -0.004986 0.000754 0.000000 0.025858 -0.000003
# 6 -0.000002 0.000012 -0.000001 0.004332 -0.000003 0.043485
#
#
# Mechanical properties :
#
#
# Convention : Reuss Voigt Hill
#
# Bulk Modulus (GPa) = 22.52698 49.40694 35.96696
# Shear Modulus (GPa) = 20.90251 28.39393 24.64822
#
# Velocity S-wave (km/s) = 3.22987 3.76442 3.50734
# Velocity P-wave (km/s) = 5.01519 6.59944 5.86109
#
# Compressibility (1/GPa) = 0.04439121
#
# Stress axis : x y z
#
# Youngs Moduli (GPa) = 108.70843 19.54923 74.52546
#
# Poissons Ratio (x) = 0.07213 0.32517
# Poissons Ratio (y) = 0.40112 0.49458
# Poissons Ratio (z) = 0.47431 0.12974
#
# Static dielectric constant tensor:
#      x y z
#    x 3.940910 -0.000010 0.084350 
#    y -0.000010 3.195350 0.000030 
#    z 0.084350 0.000030 3.977710 
# 
# 
# High freq. dielectric constant tensor:
#      x y z
#    x 1.801250 0.000000 -0.004500 
#    y 0.000000 1.727050 0.000000 
#    z -0.004500 0.000000 1.794050 
# 
# From -- ./inp_files/353255.got.cif
#   From: 2010.06.25/outbox.cif.g09.slc.cpg/sg12_177_cif.got.tgz:353255.got - 2010.06.28 00:19:55.
