data_PCOD8101785
_publ_section_title
;
Structure prediction by ZEFSAII (Michael W. Deem and Ramdas Pophale) SiO2 
 PCOD8101785
Probable space group: C 2/M
;
_chemical_formula_sum "Si O2"
_cell_formula_units_Z 56
_cell_length_a 23.730199
_cell_length_b 8.902538
_cell_length_c 30.846241
_cell_angle_alpha 90.000000
_cell_angle_beta 25.793320
_cell_angle_gamma 90.000000
_cell_volume 2835.519432
_symmetry_space_group_name_H-M "C 2/M"
_symmetry_group_IT_number 12
_symmetry_cell_setting 'monoclinic'
loop_
_space_group_symop_operation_xyz
x,y,z
-x,y,-z
-x,-y,-z
x,-y,z
1/2+x,1/2+y,z
1/2-x,1/2+y,-z
1/2-x,1/2-y,-z
1/2+x,1/2-y,z
loop_
_atom_site_type_symbol
_atom_site_label
_atom_site_fract_x
_atom_site_fract_y
_atom_site_fract_z
Si Si1 0.131277 0.177070 0.887142
Si Si2 0.200545 0.671784 0.473914
Si Si3 0.156017 0.678177 0.029537
Si Si4 0.942554 0.672495 0.340766
Si Si5 0.886815 0.821205 0.199654
Si Si6 0.706669 0.675530 0.154024
Si Si7 0.866326 0.324690 0.575910
O O1 0.132522 0.230104 0.836612
O O2 0.249880 0.246866 0.831459
O O3 0.145038 0.000000 0.881090
O O4 0.000000 0.235966 0.000000
O O5 0.250269 0.500000 0.442233
O O6 0.091615 0.702536 0.585371
O O7 0.321188 0.782186 0.395454
O O8 0.135362 0.708604 0.473657
O O9 0.154922 0.500000 0.037045
O O10 0.011753 0.743530 0.134609
O O11 0.250000 0.750000 0.000000
O O12 0.204486 0.723702 0.948014
O O13 0.977434 0.500000 0.307882
O O14 0.061667 0.774170 0.243851
O O15 0.761346 0.759325 0.312258
O O16 0.904836 0.000000 0.191119
O O17 0.710932 0.500000 0.158515
O O18 0.868487 0.500000 0.585362
O O19 0.000000 0.249569 0.500000
#
# Coordination Sequence:
#
# PCOD8101785 Si02
#       7
#     8   8   8   8   8   8   8
#     4  10  20  36  59  86 116 148 191 242 287 341
#     4   9  19  37  59  84 116 151 194 243 293 348
#     4  11  25  42  61  86 120 157 198 244 295 356
#     4  10  21  36  59  86 115 151 192 243 297 348
#     4  10  21  38  62  89 119 157 198 242 293 349
#     4  11  24  39  59  86 117 153 194 240 293 353
#     4   9  19  35  59  87 115 152 197 238 283 347
#
# _framework density 19.749466999999999
#
# number of rings (size 3 to 8) (size 9 to 14) (size 15 to 20)
#    0.000    2.000    1.429    1.286    4.000    3.143 
#    0.000    0.000    0.000    0.857    0.000    0.000 
#    0.000    0.000    0.000    0.000    0.000    0.000 
#
# Total GULP energy -347281.230749 kJ/mol
# GULP energy per Si atom -12402.901098 kJ/mol
# Density = 1.970452 g / cm^3
# Si number density = 19.749467 Si / 1000 Ang^3
#
#
#
# Elastic Constant Matrix: (Units=GPa)
#
#
# Indices 1 2 3 4 5 6 
#
# 1 118.2101 37.2209 51.4599 -0.0164 -16.7712 0.0669
# 2 37.2209 33.7081 29.0158 -0.0484 -1.5377 0.1791
# 3 51.4599 29.0158 130.2708 0.0088 -13.4944 0.0096
# 4 -0.0164 -0.0484 0.0088 28.2701 0.0039 -8.0214
# 5 -16.7712 -1.5377 -13.4944 0.0039 21.3258 -0.0348
# 6 0.0669 0.1791 0.0096 -8.0214 -0.0348 28.1578
#
#
#
# Elastic Compliance Matrix: (Units=1/GPa)
#
#
# Indices 1 2 3 4 5 6 
#
# 1 0.015329 -0.015027 -0.001682 0.000003 0.009907 0.000073
# 2 -0.015027 0.051582 -0.006840 -0.000003 -0.012427 -0.000306
# 3 -0.001682 -0.006840 0.010355 -0.000003 0.004736 0.000049
# 4 0.000003 -0.000003 -0.000003 0.038484 0.000011 0.010963
# 5 0.009907 -0.012427 0.004736 0.000011 0.056784 0.000127
# 6 0.000073 -0.000306 0.000049 0.010963 0.000127 0.038639
#
#
# Mechanical properties :
#
#
# Convention : Reuss Voigt Hill
#
# Bulk Modulus (GPa) = 33.14831 57.50915 45.32873
# Shear Modulus (GPa) = 18.63395 26.51688 22.57542
#
# Velocity S-wave (km/s) = 3.07500 3.66821 3.38463
# Velocity P-wave (km/s) = 5.42479 6.86466 6.18676
#
# Compressibility (1/GPa) = 0.03016745
#
# Stress axis : x y z
#
# Youngs Moduli (GPa) = 65.23666 19.38652 96.57197
#
# Poissons Ratio (x) = 0.29132 0.16243
# Poissons Ratio (y) = 0.98030 0.66060
# Poissons Ratio (z) = 0.10973 0.13261
#
# Static dielectric constant tensor:
#      x y z
#    x 3.622710 -0.000150 0.052960 
#    y -0.000150 3.375430 0.000060 
#    z 0.052960 0.000060 3.722890 
# 
# 
# High freq. dielectric constant tensor:
#      x y z
#    x 1.778410 -0.000010 -0.001420 
#    y -0.000010 1.749110 0.000000 
#    z -0.001420 0.000000 1.777640 
# 
# From -- ./inp_files/380582.got.cif
#   From: 2010.06.25/outbox.cif.g09.slc.cpg/sg12_191_cif.got.tgz:380582.got - 2010.06.28 00:19:55.
