data_PCOD8101621
_publ_section_title
;
Structure prediction by ZEFSAII (Michael W. Deem and Ramdas Pophale) SiO2 
 PCOD8101621
Probable space group: C 2/M
;
_chemical_formula_sum "Si O2"
_cell_formula_units_Z 48
_cell_length_a 24.593341
_cell_length_b 8.669632
_cell_length_c 10.820639
_cell_angle_alpha 90.000000
_cell_angle_beta 79.393894
_cell_angle_gamma 90.000000
_cell_volume 2267.709361
_symmetry_space_group_name_H-M "C 2/M"
_symmetry_group_IT_number 12
_symmetry_cell_setting 'monoclinic'
loop_
_space_group_symop_operation_xyz
x,y,z
-x,y,-z
-x,-y,-z
x,-y,z
1/2+x,1/2+y,z
1/2-x,1/2+y,-z
1/2-x,1/2-y,-z
1/2+x,1/2-y,z
loop_
_atom_site_type_symbol
_atom_site_label
_atom_site_fract_x
_atom_site_fract_y
_atom_site_fract_z
Si Si1 0.061876 0.174792 0.467290
Si Si2 0.904290 0.679791 0.781173
Si Si3 0.116488 0.174438 0.707979
Si Si4 0.013747 0.329275 0.853742
Si Si5 0.267258 0.181482 0.359152
Si Si6 0.217089 0.683377 0.130150
O O1 0.098886 0.277396 0.361309
O O2 0.091462 0.186362 0.583881
O O3 0.000000 0.243644 0.500000
O O4 0.059508 0.000000 0.418496
O O5 0.910304 0.500000 0.799123
O O6 0.846794 0.732922 0.867723
O O7 0.960372 0.755446 0.813602
O O8 0.068605 0.226528 0.821271
O O9 0.168669 0.286145 0.695675
O O10 0.134767 0.000000 0.732323
O O11 0.024802 0.500000 0.791145
O O12 0.000000 0.349334 0.000000
O O13 0.250000 0.250000 0.500000
O O14 0.234034 0.250990 0.257018
O O15 0.255952 0.000000 0.368715
O O16 0.224538 0.500000 0.131367
O O17 0.250000 0.750000 0.000000
#
# Coordination Sequence:
#
# PCOD8101621 Si02
#       6
#     8   8   8   8   8   8
#     4  10  20  36  58  89 126 160 198 250 311 375
#     4  10  22  39  62  91 125 163 208 258 312 380
#     4  11  23  40  64  95 128 164 210 263 319 388
#     4  10  22  39  60  89 126 168 208 255 317 382
#     4  12  26  46  70  97 132 175 224 280 337 398
#     4  11  25  45  68  99 134 176 226 275 330 395
#
# _framework density 21.166734000000002
#
# number of rings (size 3 to 8) (size 9 to 14) (size 15 to 20)
#    0.000    1.333    1.667    3.500    2.333    6.000 
#    0.000    0.000    0.000    0.000    0.000    0.000 
#    0.000    0.000    0.000    0.000    0.000    0.000 
#
# Total GULP energy -297540.854683 kJ/mol
# GULP energy per Si atom -12397.535612 kJ/mol
# Density = 2.111856 g / cm^3
# Si number density = 21.166734 Si / 1000 Ang^3
#
#
#
# Elastic Constant Matrix: (Units=GPa)
#
#
# Indices 1 2 3 4 5 6 
#
# 1 112.1901 37.4054 34.1322 0.0000 -21.2532 0.0000
# 2 37.4054 73.6969 33.9498 0.0000 -2.5615 0.0000
# 3 34.1322 33.9498 109.2832 0.0000 -14.0738 0.0000
# 4 0.0000 0.0000 0.0000 43.7588 0.0000 7.7717
# 5 -21.2532 -2.5615 -14.0738 0.0000 38.6233 0.0000
# 6 0.0000 0.0000 0.0000 7.7717 0.0000 36.9269
#
#
#
# Elastic Compliance Matrix: (Units=1/GPa)
#
#
# Indices 1 2 3 4 5 6 
#
# 1 0.012239 -0.005363 -0.001401 0.000000 0.005869 0.000000
# 2 -0.005363 0.018207 -0.004413 0.000000 -0.003352 0.000000
# 3 -0.001401 -0.004413 0.011355 0.000000 0.003074 0.000000
# 4 0.000000 0.000000 0.000000 0.023740 0.000000 -0.004996
# 5 0.005869 -0.003352 0.003074 0.000000 0.030018 0.000000
# 6 0.000000 0.000000 0.000000 -0.004996 0.000000 0.028132
#
#
# Mechanical properties :
#
#
# Convention : Reuss Voigt Hill
#
# Bulk Modulus (GPa) = 51.41824 56.23834 53.82829
# Shear Modulus (GPa) = 32.78075 36.50732 34.64403
#
# Velocity S-wave (km/s) = 3.93961 4.15752 4.05003
# Velocity P-wave (km/s) = 6.71109 7.04794 6.88158
#
# Compressibility (1/GPa) = 0.01944835
#
# Stress axis : x y z
#
# Youngs Moduli (GPa) = 81.70273 54.92242 88.06786
#
# Poissons Ratio (x) = 0.29454 0.12337
# Poissons Ratio (y) = 0.43817 0.38864
# Poissons Ratio (z) = 0.11446 0.24237
#
# Static dielectric constant tensor:
#      x y z
#    x 3.872440 0.000000 -0.011980 
#    y 0.000000 3.943890 0.000000 
#    z -0.011980 0.000000 3.778080 
# 
# 
# High freq. dielectric constant tensor:
#      x y z
#    x 1.847280 0.000000 -0.006240 
#    y 0.000000 1.822710 0.000000 
#    z -0.006240 0.000000 1.832660 
# 
# From -- ./inp_files/172194.got.cif
#   From: 2010.06.25/outbox.cif.g09.slc.cpg/sg12_87_cif.got.tgz:172194.got - 2010.06.28 00:19:55.
