data_PCOD8101457
_publ_section_title
;
Structure prediction by ZEFSAII (Michael W. Deem and Ramdas Pophale) SiO2 
 PCOD8101457
Probable space group: C 2/M
;
_chemical_formula_sum "Si O2"
_cell_formula_units_Z 56
_cell_length_a 18.699857
_cell_length_b 8.665903
_cell_length_c 26.862927
_cell_angle_alpha 90.000000
_cell_angle_beta 139.139926
_cell_angle_gamma 90.000000
_cell_volume 2847.903298
_symmetry_space_group_name_H-M "C 2/M"
_symmetry_group_IT_number 12
_symmetry_cell_setting 'monoclinic'
loop_
_space_group_symop_operation_xyz
x,y,z
-x,y,-z
-x,-y,-z
x,-y,z
1/2+x,1/2+y,z
1/2-x,1/2+y,-z
1/2-x,1/2-y,-z
1/2+x,1/2-y,z
loop_
_atom_site_type_symbol
_atom_site_label
_atom_site_fract_x
_atom_site_fract_y
_atom_site_fract_z
Si Si1 0.518537 0.317583 0.262024
Si Si2 0.716420 0.819427 0.429535
Si Si3 0.874470 0.323106 0.437868
Si Si4 0.560933 0.830202 0.178922
Si Si5 0.313734 0.669427 0.308791
Si Si6 0.429419 0.318408 0.916770
Si Si7 0.676805 0.818077 0.786084
O O1 0.518452 0.500000 0.266696
O O2 0.608025 0.253768 0.348134
O O3 0.544481 0.272654 0.219053
O O4 0.398342 0.250411 0.209844
O O5 0.750000 0.750000 0.500000
O O6 0.819404 0.790355 0.448208
O O7 0.694812 0.000000 0.423926
O O8 0.853310 0.500000 0.442423
O O9 0.825556 0.293573 0.358253
O O10 0.000000 0.280403 0.500000
O O11 0.686932 0.851929 0.233483
O O12 0.516479 0.750774 0.105146
O O13 0.507244 0.000000 0.158501
O O14 0.366169 0.500000 0.347792
O O15 0.368376 0.741698 0.288511
O O16 0.440237 0.500000 0.916870
O O17 0.303313 0.272865 0.861112
O O18 0.500000 0.254819 0.000000
O O19 0.660582 0.000000 0.774423
#
# Coordination Sequence:
#
# PCOD8101457 Si02
#       7
#     8   8   8   8   8   8   8
#     4  12  24  40  62  87 120 159 203 250 300 359
#     4  12  26  44  63  86 119 158 203 252 307 360
#     4  11  24  40  59  84 116 152 197 247 299 354
#     4  10  20  36  60  89 118 153 196 242 294 351
#     4  10  20  36  58  83 113 150 197 246 293 350
#     4   9  19  38  64  93 124 158 196 241 295 355
#     4  10  21  37  60  88 121 156 197 245 296 354
#
# _framework density 19.663589000000002
#
# number of rings (size 3 to 8) (size 9 to 14) (size 15 to 20)
#    0.000    1.429    1.429    4.286    2.000    3.143 
#    0.000    0.714    0.000    0.000    0.000    0.000 
#    0.000    0.000    0.000    0.000    0.000    0.000 
#
# Total GULP energy -347147.904801 kJ/mol
# GULP energy per Si atom -12398.139457 kJ/mol
# Density = 1.961883 g / cm^3
# Si number density = 19.663589 Si / 1000 Ang^3
#
#
#
# Elastic Constant Matrix: (Units=GPa)
#
#
# Indices 1 2 3 4 5 6 
#
# 1 102.6787 46.2268 52.7358 0.0000 -8.9432 0.0000
# 2 46.2268 114.0934 42.8475 0.0000 1.2706 0.0001
# 3 52.7358 42.8475 106.7929 0.0000 -23.5191 0.0000
# 4 0.0000 0.0000 0.0000 25.8193 0.0000 -4.8878
# 5 -8.9432 1.2706 -23.5191 0.0000 29.9673 0.0000
# 6 0.0000 0.0001 0.0000 -4.8878 0.0000 40.6934
#
#
#
# Elastic Compliance Matrix: (Units=1/GPa)
#
#
# Indices 1 2 3 4 5 6 
#
# 1 0.014255 -0.003694 -0.005544 0.000000 0.000060 0.000000
# 2 -0.003694 0.011794 -0.003942 0.000000 -0.004696 0.000000
# 3 -0.005544 -0.003942 0.016146 0.000000 0.011185 0.000000
# 4 0.000000 0.000000 0.000000 0.039632 0.000000 0.004760
# 5 0.000060 -0.004696 0.011185 0.000000 0.042365 0.000000
# 6 0.000000 0.000000 0.000000 0.004760 0.000000 0.025146
#
#
# Mechanical properties :
#
#
# Convention : Reuss Voigt Hill
#
# Bulk Modulus (GPa) = 63.15086 67.46500 65.30793
# Shear Modulus (GPa) = 27.62780 31.41299 29.52040
#
# Velocity S-wave (km/s) = 3.75243 4.00124 3.87883
# Velocity P-wave (km/s) = 7.13860 7.46529 7.30378
#
# Compressibility (1/GPa) = 0.01583510
#
# Stress axis : x y z
#
# Youngs Moduli (GPa) = 70.15160 84.78671 61.93299
#
# Poissons Ratio (x) = 0.31322 0.34335
# Poissons Ratio (y) = 0.25916 0.24415
# Poissons Ratio (z) = 0.38891 0.33424
#
# Static dielectric constant tensor:
#      x y z
#    x 3.628980 0.000000 -0.106090 
#    y 0.000000 3.829010 0.000000 
#    z -0.106090 0.000000 3.552600 
# 
# 
# High freq. dielectric constant tensor:
#      x y z
#    x 1.770890 0.000000 -0.010650 
#    y 0.000000 1.781400 0.000000 
#    z -0.010650 0.000000 1.749670 
# 
# From -- ./inp_files/363202.got.cif
#   From: 2010.06.25/outbox.cif.g09.slc.cpg/sg12_182_cif.got.tgz:363202.got - 2010.06.28 00:19:55.
