data_PCOD8101695
_publ_section_title
;
Structure prediction by ZEFSAII (Michael W. Deem and Ramdas Pophale) SiO2 
 PCOD8101695
Probable space group: C 2/M
;
_chemical_formula_sum "Si O2"
_cell_formula_units_Z 48
_cell_length_a 17.743853
_cell_length_b 8.793871
_cell_length_c 15.520466
_cell_angle_alpha 90.000000
_cell_angle_beta 89.686074
_cell_angle_gamma 90.000000
_cell_volume 2421.732998
_symmetry_space_group_name_H-M "C 2/M"
_symmetry_group_IT_number 12
_symmetry_cell_setting 'monoclinic'
loop_
_space_group_symop_operation_xyz
x,y,z
-x,y,-z
-x,-y,-z
x,-y,z
1/2+x,1/2+y,z
1/2-x,1/2+y,-z
1/2-x,1/2-y,-z
1/2+x,1/2-y,z
loop_
_atom_site_type_symbol
_atom_site_label
_atom_site_fract_x
_atom_site_fract_y
_atom_site_fract_z
Si Si1 0.949021 0.825555 0.919354
Si Si2 0.791061 0.678784 0.242187
Si Si3 0.958953 0.180742 0.585288
Si Si4 0.951563 0.176544 0.248464
Si Si5 0.209588 0.678110 0.081562
Si Si6 0.288738 0.320123 0.582366
O O1 0.878340 0.715019 0.920218
O O2 0.995370 0.796757 0.832924
O O3 0.921313 0.000000 0.925306
O O4 0.000000 0.782152 0.000000
O O5 0.781962 0.500000 0.229061
O O6 0.877842 0.723490 0.236412
O O7 0.744665 0.760813 0.168798
O O8 0.757269 0.732138 0.333541
O O9 0.873833 0.243464 0.589371
O O10 0.000000 0.245222 0.500000
O O11 0.004538 0.238072 0.668132
O O12 0.957497 0.000000 0.584490
O O13 0.928763 0.000000 0.258168
O O14 0.222309 0.500000 0.077251
O O15 0.250000 0.750000 0.000000
O O16 0.288829 0.500000 0.572201
O O17 0.250000 0.250000 0.500000
#
# Coordination Sequence:
#
# PCOD8101695 Si02
#       6
#     8   8   8   8   8   8
#     4  10  21  38  60  86 117 152 191 237 290 348
#     4  11  23  39  59  86 122 158 196 245 297 350
#     4   9  17  31  53  79 108 146 192 237 283 341
#     4  10  20  36  59  84 113 152 196 240 289 349
#     4  12  25  41  63  89 119 156 198 243 292 349
#     4  10  21  37  58  85 117 154 195 243 297 350
#
# _framework density 19.820518
#
# number of rings (size 3 to 8) (size 9 to 14) (size 15 to 20)
#    0.000    1.667    0.000    5.000    0.000    7.667 
#    0.000    0.833    0.000    3.000    0.000    0.000 
#    0.000    0.000    0.000    0.000    0.000    0.000 
#
# Total GULP energy -297723.672258 kJ/mol
# GULP energy per Si atom -12405.153011 kJ/mol
# Density = 1.977541 g / cm^3
# Si number density = 19.820518 Si / 1000 Ang^3
#
#
#
# Elastic Constant Matrix: (Units=GPa)
#
#
# Indices 1 2 3 4 5 6 
#
# 1 131.0629 46.7515 64.3629 0.0000 9.1582 0.0000
# 2 46.7515 79.8308 56.9695 0.0000 0.6492 0.0000
# 3 64.3629 56.9695 177.3049 0.0000 14.4405 0.0000
# 4 0.0000 0.0000 0.0000 40.2837 0.0000 -3.8400
# 5 9.1582 0.6492 14.4405 0.0000 34.0220 0.0000
# 6 0.0000 0.0000 0.0000 -3.8400 0.0000 38.8960
#
#
#
# Elastic Compliance Matrix: (Units=1/GPa)
#
#
# Indices 1 2 3 4 5 6 
#
# 1 0.010451 -0.004545 -0.002187 0.000000 -0.001798 0.000000
# 2 -0.004545 0.018359 -0.004475 0.000000 0.002772 0.000000
# 3 -0.002187 -0.004475 0.008097 0.000000 -0.002763 0.000000
# 4 0.000000 0.000000 0.000000 0.025060 0.000000 0.002474
# 5 -0.001798 0.002772 -0.002763 0.000000 0.030996 0.000000
# 6 0.000000 0.000000 0.000000 0.002474 0.000000 0.025954
#
#
# Mechanical properties :
#
#
# Convention : Reuss Voigt Hill
#
# Bulk Modulus (GPa) = 68.99913 80.48515 74.74214
# Shear Modulus (GPa) = 34.20884 37.31465 35.76175
#
# Velocity S-wave (km/s) = 4.15894 4.34363 4.25229
# Velocity P-wave (km/s) = 7.61248 8.11488 7.86769
#
# Compressibility (1/GPa) = 0.01449294
#
# Stress axis : x y z
#
# Youngs Moduli (GPa) = 95.68650 54.46904 123.50796
#
# Poissons Ratio (x) = 0.24757 0.27010
# Poissons Ratio (y) = 0.43490 0.55268
# Poissons Ratio (z) = 0.20926 0.24374
#
# Static dielectric constant tensor:
#      x y z
#    x 3.687870 0.000000 -0.054730 
#    y 0.000000 3.408250 0.000000 
#    z -0.054730 0.000000 3.849110 
# 
# 
# High freq. dielectric constant tensor:
#      x y z
#    x 1.790170 0.000000 0.000430 
#    y 0.000000 1.749850 0.000000 
#    z 0.000430 0.000000 1.796810 
# 
# From -- ./inp_files/221652.got.cif
#   From: 2010.06.25/outbox.cif.g09.slc.cpg/sg12_111_cif.got.tgz:221652.got - 2010.06.28 00:19:55.
