data_PCOD8101111
_publ_section_title
;
Structure prediction by ZEFSAII (Michael W. Deem and Ramdas Pophale) SiO2 
 PCOD8101111
Probable space group: C 2/M
;
_chemical_formula_sum "Si O2"
_cell_formula_units_Z 56
_cell_length_a 16.090265
_cell_length_b 9.324670
_cell_length_c 19.783389
_cell_angle_alpha 90.000000
_cell_angle_beta 103.086145
_cell_angle_gamma 90.000000
_cell_volume 2891.146007
_symmetry_space_group_name_H-M "C 2/M"
_symmetry_group_IT_number 12
_symmetry_cell_setting 'monoclinic'
loop_
_space_group_symop_operation_xyz
x,y,z
-x,y,-z
-x,-y,-z
x,-y,z
1/2+x,1/2+y,z
1/2-x,1/2+y,-z
1/2-x,1/2-y,-z
1/2+x,1/2-y,z
loop_
_atom_site_type_symbol
_atom_site_label
_atom_site_fract_x
_atom_site_fract_y
_atom_site_fract_z
Si Si1 0.987492 0.168241 0.420086
Si Si2 0.199070 0.168591 0.663589
Si Si3 0.120960 0.666045 0.352882
Si Si4 0.169202 0.333627 0.786593
Si Si5 0.010817 0.666309 0.208076
Si Si6 0.564618 0.163135 0.073338
Si Si7 0.775173 0.833983 0.938372
O O1 0.892220 0.221794 0.382415
O O2 0.000000 0.208891 0.500000
O O3 0.064254 0.242647 0.393773
O O4 0.996355 0.000000 0.408705
O O5 0.277731 0.205798 0.626630
O O6 0.218649 0.245938 0.738117
O O7 0.198545 0.000000 0.676959
O O8 0.106316 0.500000 0.368788
O O9 0.091474 0.698079 0.270535
O O10 0.173323 0.500000 0.766600
O O11 0.207009 0.306986 0.867356
O O12 0.073389 0.268387 0.772217
O O13 0.990743 0.500000 0.196538
O O14 0.023661 0.725031 0.134795
O O15 0.636169 0.276710 0.071308
O O16 0.599543 0.000000 0.089886
O O17 0.500000 0.164880 0.000000
O O18 0.782596 0.000000 0.958570
O O19 0.750000 0.750000 0.000000
#
# Coordination Sequence:
#
# PCOD8101111 Si02
#       7
#     8   8   8   8   8   8   8
#     4  10  22  40  59  84 122 158 189 237 299 354
#     4  10  21  37  59  88 118 151 195 243 291 346
#     4  10  20  36  59  85 114 151 198 243 285 343
#     4  10  20  36  58  83 112 149 192 238 287 343
#     4   9  17  32  55  80 108 144 186 236 287 337
#     4  10  20  36  57  79 109 151 194 236 290 349
#     4  11  23  37  54  79 112 148 190 240 293 351
#
# _framework density 19.369482999999999
#
# number of rings (size 3 to 8) (size 9 to 14) (size 15 to 20)
#    0.000    2.000    1.429    2.143    0.000    6.286 
#    0.000    1.429    0.000    0.000    0.000    0.000 
#    0.000    0.000    0.000    0.000    0.000    0.000 
#
# Total GULP energy -347119.792274 kJ/mol
# GULP energy per Si atom -12397.135438 kJ/mol
# Density = 1.932540 g / cm^3
# Si number density = 19.369483 Si / 1000 Ang^3
#
#
#
# Elastic Constant Matrix: (Units=GPa)
#
#
# Indices 1 2 3 4 5 6 
#
# 1 140.3341 49.9708 54.7415 0.0000 -17.3663 0.0000
# 2 49.9708 62.9681 47.7763 0.0000 -5.5568 0.0000
# 3 54.7415 47.7763 107.3133 0.0000 -20.2528 0.0000
# 4 0.0000 0.0000 0.0000 30.9410 0.0000 -6.7443
# 5 -17.3663 -5.5568 -20.2528 0.0000 29.1553 0.0000
# 6 0.0000 0.0000 0.0000 -6.7443 0.0000 33.3221
#
#
#
# Elastic Compliance Matrix: (Units=1/GPa)
#
#
# Indices 1 2 3 4 5 6 
#
# 1 0.010713 -0.006902 -0.001653 0.000000 0.003918 0.000000
# 2 -0.006902 0.028704 -0.010360 0.000000 -0.005837 0.000000
# 3 -0.001653 -0.010360 0.016360 0.000000 0.008406 0.000000
# 4 0.000000 0.000000 0.000000 0.033811 0.000000 0.006843
# 5 0.003918 -0.005837 0.008406 0.000000 0.041359 0.000000
# 6 0.000000 0.000000 0.000000 0.006843 0.000000 0.031395
#
#
# Mechanical properties :
#
#
# Convention : Reuss Voigt Hill
#
# Bulk Modulus (GPa) = 55.71677 68.39917 62.05797
# Shear Modulus (GPa) = 24.25367 29.22547 26.73957
#
# Velocity S-wave (km/s) = 3.54242 3.88859 3.71954
# Velocity P-wave (km/s) = 6.74977 7.45326 7.11022
#
# Compressibility (1/GPa) = 0.01794792
#
# Stress axis : x y z
#
# Youngs Moduli (GPa) = 93.34392 34.83862 61.12436
#
# Poissons Ratio (x) = 0.24046 0.10101
# Poissons Ratio (y) = 0.64428 0.63323
# Poissons Ratio (z) = 0.15426 0.36092
#
# Static dielectric constant tensor:
#      x y z
#    x 3.858850 0.000000 0.027120 
#    y 0.000000 3.394650 0.000000 
#    z 0.027120 0.000000 3.392370 
# 
# 
# High freq. dielectric constant tensor:
#      x y z
#    x 1.767020 0.000000 -0.003230 
#    y 0.000000 1.732730 0.000000 
#    z -0.003230 0.000000 1.757050 
# 
# From -- ./inp_files/308966.got.cif
#   From: 2010.06.25/outbox.cif.g09.slc.cpg/sg12_155_cif.got.tgz:308966.got - 2010.06.28 00:19:55.
