data_PCOD8101138
_publ_section_title
;
Structure prediction by ZEFSAII (Michael W. Deem and Ramdas Pophale) SiO2 
 PCOD8101138
Probable space group: C 2/M
;
_chemical_formula_sum "Si O2"
_cell_formula_units_Z 56
_cell_length_a 18.862510
_cell_length_b 8.660246
_cell_length_c 26.223633
_cell_angle_alpha 90.000000
_cell_angle_beta 40.166791
_cell_angle_gamma 90.000000
_cell_volume 2763.072639
_symmetry_space_group_name_H-M "C 2/M"
_symmetry_group_IT_number 12
_symmetry_cell_setting 'monoclinic'
loop_
_space_group_symop_operation_xyz
x,y,z
-x,y,-z
-x,-y,-z
x,-y,z
1/2+x,1/2+y,z
1/2-x,1/2+y,-z
1/2-x,1/2-y,-z
1/2+x,1/2-y,z
loop_
_atom_site_type_symbol
_atom_site_label
_atom_site_fract_x
_atom_site_fract_y
_atom_site_fract_z
Si Si1 0.163529 0.320579 0.684787
Si Si2 0.655039 0.176617 0.274971
Si Si3 0.046862 0.180294 0.237539
Si Si4 0.223934 0.317232 0.069795
Si Si5 0.935676 0.675275 0.983323
Si Si6 0.613433 0.182049 0.413143
Si Si7 0.109880 0.176675 0.818829
O O1 0.160372 0.500000 0.673925
O O2 0.287692 0.259561 0.609490
O O3 0.125026 0.289735 0.763333
O O4 0.079983 0.234952 0.692142
O O5 0.600274 0.283087 0.262674
O O6 0.614336 0.230542 0.353246
O O7 0.787039 0.195617 0.199548
O O8 0.620810 0.000000 0.282996
O O9 0.107708 0.263905 0.156739
O O10 0.054270 0.000000 0.223525
O O11 0.226508 0.500000 0.066381
O O12 0.250000 0.250000 0.000000
O O13 0.316876 0.251868 0.056988
O O14 0.923710 0.500000 0.969914
O O15 0.997913 0.777516 0.907574
O O16 0.000000 0.680186 0.000000
O O17 0.500000 0.239560 0.500000
O O18 0.629531 0.000000 0.409136
O O19 0.102525 0.000000 0.803273
#
# Coordination Sequence:
#
# PCOD8101138 Si02
#       7
#     8   8   8   8   8   8   8
#     4  11  22  37  59  85 114 148 188 230 275 332
#     4   9  19  36  59  87 117 150 188 231 283 339
#     4  12  24  39  58  82 115 152 194 239 286 338
#     4  12  25  41  59  80 111 150 194 242 294 345
#     4  11  23  37  54  79 110 144 187 238 288 337
#     4   9  19  39  66  93 121 151 184 226 278 337
#     4  10  20  36  57  80 109 146 189 235 284 339
#
# _framework density 20.267292999999999
#
# number of rings (size 3 to 8) (size 9 to 14) (size 15 to 20)
#    0.000    1.429    0.000    7.286    0.000    6.571 
#    0.000    0.714    0.000    0.000    0.000    0.000 
#    0.000    0.000    0.000    0.000    0.000    0.000 
#
# Total GULP energy -347291.796079 kJ/mol
# GULP energy per Si atom -12403.278431 kJ/mol
# Density = 2.022116 g / cm^3
# Si number density = 20.267293 Si / 1000 Ang^3
#
#
#
# Elastic Constant Matrix: (Units=GPa)
#
#
# Indices 1 2 3 4 5 6 
#
# 1 94.3804 48.3939 20.1019 -0.0001 -16.7327 -0.0005
# 2 48.3939 125.6932 30.6860 -0.0001 -11.1708 -0.0006
# 3 20.1019 30.6860 86.6492 0.0000 -18.2764 -0.0001
# 4 -0.0001 -0.0001 0.0000 27.6352 0.0000 -3.7469
# 5 -16.7327 -11.1708 -18.2764 0.0000 28.7868 0.0000
# 6 -0.0005 -0.0006 -0.0001 -3.7469 0.0000 35.2147
#
#
#
# Elastic Compliance Matrix: (Units=1/GPa)
#
#
# Indices 1 2 3 4 5 6 
#
# 1 0.014253 -0.004869 -0.000270 0.000000 0.006224 0.000000
# 2 -0.004869 0.010440 -0.002667 0.000000 -0.000472 0.000000
# 3 -0.000270 -0.002667 0.014198 0.000000 0.007822 0.000000
# 4 0.000000 0.000000 0.000000 0.036715 0.000000 0.003907
# 5 0.006224 -0.000472 0.007822 0.000000 0.043139 0.000000
# 6 0.000000 0.000000 0.000000 0.003907 0.000000 0.028813
#
#
# Mechanical properties :
#
#
# Convention : Reuss Voigt Hill
#
# Bulk Modulus (GPa) = 42.95630 56.12072 49.53851
# Shear Modulus (GPa) = 29.25213 32.16341 30.70777
#
# Velocity S-wave (km/s) = 3.80322 3.98799 3.89670
# Velocity P-wave (km/s) = 6.36607 6.99684 6.68890
#
# Compressibility (1/GPa) = 0.02327947
#
# Stress axis : x y z
#
# Youngs Moduli (GPa) = 70.16231 95.78967 70.43350
#
# Poissons Ratio (x) = 0.46636 0.01898
# Poissons Ratio (y) = 0.34159 0.18786
# Poissons Ratio (z) = 0.01891 0.25549
#
# Static dielectric constant tensor:
#      x y z
#    x 3.794390 0.000000 -0.227160 
#    y 0.000000 3.683220 0.000000 
#    z -0.227160 0.000000 3.815350 
# 
# 
# High freq. dielectric constant tensor:
#      x y z
#    x 1.799620 0.000000 -0.017170 
#    y 0.000000 1.797140 0.000000 
#    z -0.017170 0.000000 1.776080 
# 
# From -- ./inp_files/362925.got.cif
#   From: 2010.06.25/outbox.cif.g09.slc.cpg/sg12_182_cif.got.tgz:362925.got - 2010.06.28 00:19:55.
