data_PCOD8101119
_publ_section_title
;
Structure prediction by ZEFSAII (Michael W. Deem and Ramdas Pophale) SiO2 
 PCOD8101119
Probable space group: C 2/M
;
_chemical_formula_sum "Si O2"
_cell_formula_units_Z 40
_cell_length_a 27.340742
_cell_length_b 8.473928
_cell_length_c 9.524251
_cell_angle_alpha 90.000000
_cell_angle_beta 110.357389
_cell_angle_gamma 90.000000
_cell_volume 2068.788775
_symmetry_space_group_name_H-M "C 2/M"
_symmetry_group_IT_number 12
_symmetry_cell_setting 'monoclinic'
loop_
_space_group_symop_operation_xyz
x,y,z
-x,y,-z
-x,-y,-z
x,-y,z
1/2+x,1/2+y,z
1/2-x,1/2+y,-z
1/2-x,1/2-y,-z
1/2+x,1/2-y,z
loop_
_atom_site_type_symbol
_atom_site_label
_atom_site_fract_x
_atom_site_fract_y
_atom_site_fract_z
Si Si1 0.749811 0.686284 0.655973
Si Si2 0.653506 0.685721 0.744756
Si Si3 0.544324 0.183757 0.653073
Si Si4 0.548068 0.316060 0.956439
Si Si5 0.842121 0.314909 0.945928
O O1 0.749800 0.500000 0.650326
O O2 0.750000 0.750000 0.500000
O O3 0.698846 0.747561 0.687375
O O4 0.800991 0.746456 0.789640
O O5 0.644573 0.500000 0.721303
O O6 0.600922 0.775677 0.645615
O O7 0.668790 0.724089 0.920096
O O8 0.500000 0.232608 0.500000
O O9 0.534539 0.287044 0.781039
O O10 0.541739 0.000000 0.689710
O O11 0.557783 0.500000 0.992988
O O12 0.500000 0.251924 0.000000
O O13 0.600044 0.222423 0.053566
O O14 0.836121 0.500000 0.968707
#
# Coordination Sequence:
#
# PCOD8101119 Si02
#       5
#     8   8   8   8   8
#     4  10  23  38  54  80 110 140 175 218 266 314
#     4  10  20  36  57  80 106 139 179 218 261 314
#     4  10  21  36  55  80 108 140 178 218 263 313
#     4  10  21  36  55  80 108 140 178 218 263 313
#     4  10  20  36  57  80 106 139 179 218 261 314
#
# _framework density 19.334983999999999
#
# number of rings (size 3 to 8) (size 9 to 14) (size 15 to 20)
#    0.000    2.000    0.000    5.400    0.000    8.000 
#    0.000    8.000    0.000    0.000    0.000    0.000 
#    0.000    0.000    0.000    0.000    0.000    0.000 
#
# Total GULP energy -248055.637109 kJ/mol
# GULP energy per Si atom -12402.781855 kJ/mol
# Density = 1.929098 g / cm^3
# Si number density = 19.334984 Si / 1000 Ang^3
#
#
#
# Elastic Constant Matrix: (Units=GPa)
#
#
# Indices 1 2 3 4 5 6 
#
# 1 170.0161 15.2432 94.4723 0.0000 -2.5183 0.0000
# 2 15.2432 32.3183 10.8251 0.0000 3.4686 0.0000
# 3 94.4723 10.8251 121.0436 0.0000 19.1649 0.0000
# 4 0.0000 0.0000 0.0000 32.3002 0.0000 0.1612
# 5 -2.5183 3.4686 19.1649 0.0000 40.0464 0.0000
# 6 0.0000 0.0000 0.0000 0.1612 0.0000 22.7745
#
#
#
# Elastic Compliance Matrix: (Units=1/GPa)
#
#
# Indices 1 2 3 4 5 6 
#
# 1 0.011605 -0.002829 -0.009693 0.000000 0.005614 0.000000
# 2 -0.002829 0.032672 -0.000257 0.000000 -0.002885 0.000000
# 3 -0.009693 -0.000257 0.017250 0.000000 -0.008842 0.000000
# 4 0.000000 0.000000 0.000000 0.030961 0.000000 -0.000219
# 5 0.005614 -0.002885 -0.008842 0.000000 0.029806 0.000000
# 6 0.000000 0.000000 0.000000 -0.000219 0.000000 0.043910
#
#
# Mechanical properties :
#
#
# Convention : Reuss Voigt Hill
#
# Bulk Modulus (GPa) = 27.80227 62.71768 45.25998
# Shear Modulus (GPa) = 24.53969 32.54670 28.54320
#
# Velocity S-wave (km/s) = 3.56643 4.10726 3.84636
# Velocity P-wave (km/s) = 5.60087 7.41624 6.57154
#
# Compressibility (1/GPa) = 0.03596828
#
# Stress axis : x y z
#
# Youngs Moduli (GPa) = 86.17179 30.60689 57.97184
#
# Poissons Ratio (x) = 0.08659 0.56192
# Poissons Ratio (y) = 0.24380 0.01490
# Poissons Ratio (z) = 0.83527 0.00787
#
# Static dielectric constant tensor:
#      x y z
#    x -2.667850 0.000000 16.189110 
#    y 0.000000 3.479490 0.000000 
#    z 16.189110 0.000000 -36.281370 
# 
# 
# High freq. dielectric constant tensor:
#      x y z
#    x 1.766710 0.000000 0.005780 
#    y 0.000000 1.756060 0.000000 
#    z 0.005780 0.000000 1.744210 
# 
# From -- ./inp_files/107512.got.cif
#   From: 2010.06.25/outbox.cif.g09.slc.cpg/sg12_54_cif.got.tgz:107512.got - 2010.06.28 00:19:55.
