data_PCOD8101147
_publ_section_title
;
Structure prediction by ZEFSAII (Michael W. Deem and Ramdas Pophale) SiO2 
 PCOD8101147
Probable space group: C 2/M
;
_chemical_formula_sum "Si O2"
_cell_formula_units_Z 56
_cell_length_a 30.671278
_cell_length_b 9.313678
_cell_length_c 12.459512
_cell_angle_alpha 90.000000
_cell_angle_beta 127.136197
_cell_angle_gamma 90.000000
_cell_volume 2837.415122
_symmetry_space_group_name_H-M "C 2/M"
_symmetry_group_IT_number 12
_symmetry_cell_setting 'monoclinic'
loop_
_space_group_symop_operation_xyz
x,y,z
-x,y,-z
-x,-y,-z
x,-y,z
1/2+x,1/2+y,z
1/2-x,1/2+y,-z
1/2-x,1/2-y,-z
1/2+x,1/2-y,z
loop_
_atom_site_type_symbol
_atom_site_label
_atom_site_fract_x
_atom_site_fract_y
_atom_site_fract_z
Si Si1 0.531253 0.168078 0.440587
Si Si2 0.007922 0.834095 0.190737
Si Si3 0.743678 0.333890 0.099026
Si Si4 0.654848 0.837061 0.594672
Si Si5 0.086089 0.833683 0.115127
Si Si6 0.279676 0.343343 0.456639
Si Si7 0.679458 0.158292 0.159436
O O1 0.500000 0.226266 0.500000
O O2 0.508406 0.242625 0.299767
O O3 0.595366 0.202942 0.552462
O O4 0.520221 0.000000 0.409910
O O5 0.056786 0.790326 0.182652
O O6 0.012987 0.000000 0.230059
O O7 0.951701 0.804410 0.044357
O O8 0.730570 0.500000 0.058302
O O9 0.800165 0.314887 0.246934
O O10 0.690224 0.265226 0.076376
O O11 0.750000 0.250000 0.000000
O O12 0.666765 0.736622 0.509433
O O13 0.655932 0.000000 0.553916
O O14 0.138868 0.733018 0.183674
O O15 0.103450 0.000000 0.144272
O O16 0.297208 0.500000 0.528912
O O17 0.250000 0.250000 0.500000
O O18 0.237950 0.365744 0.298677
O O19 0.657205 0.000000 0.090786
#
# Coordination Sequence:
#
# PCOD8101147 Si02
#       7
#     8   8   8   8   8   8   8
#     4  10  22  39  58  82 114 152 194 240 290 340
#     4   9  20  38  58  82 112 148 189 235 287 346
#     4  10  20  36  57  80 111 150 188 231 281 332
#     4   9  20  38  56  78 112 149 186 229 278 332
#     4   9  19  37  58  82 115 148 183 232 293 348
#     4  10  21  35  53  80 112 144 180 223 274 333
#     4  10  21  35  53  81 111 140 184 230 273 336
#
# _framework density 19.736273000000001
#
# number of rings (size 3 to 8) (size 9 to 14) (size 15 to 20)
#    0.000    2.429    0.000    2.143    2.000    5.429 
#    0.000    2.857    0.000    0.000    0.000    0.000 
#    0.000    0.000    0.000    0.000    0.000    0.000 
#
# Total GULP energy -347129.486682 kJ/mol
# GULP energy per Si atom -12397.481667 kJ/mol
# Density = 1.969135 g / cm^3
# Si number density = 19.736273 Si / 1000 Ang^3
#
#
#
# Elastic Constant Matrix: (Units=GPa)
#
#
# Indices 1 2 3 4 5 6 
#
# 1 144.5986 69.4886 34.4186 0.0000 -17.3906 0.0000
# 2 69.4886 126.3046 35.7792 0.0000 -18.5940 0.0000
# 3 34.4186 35.7792 58.3492 0.0000 -18.3174 0.0000
# 4 0.0000 0.0000 0.0000 31.9643 0.0000 -6.8448
# 5 -17.3906 -18.5940 -18.3174 0.0000 34.8964 0.0000
# 6 0.0000 0.0000 0.0000 -6.8448 0.0000 32.9161
#
#
#
# Elastic Compliance Matrix: (Units=1/GPa)
#
#
# Indices 1 2 3 4 5 6 
#
# 1 0.009851 -0.004490 -0.002715 0.000000 0.001092 0.000000
# 2 -0.004490 0.011802 -0.003971 0.000000 0.001967 0.000000
# 3 -0.002715 -0.003971 0.024048 0.000000 0.009154 0.000000
# 4 0.000000 0.000000 0.000000 0.032743 0.000000 0.006809
# 5 0.001092 0.001967 0.009154 0.000000 0.035053 0.000000
# 6 0.000000 0.000000 0.000000 0.006809 0.000000 0.031796
#
#
# Mechanical properties :
#
#
# Convention : Reuss Voigt Hill
#
# Bulk Modulus (GPa) = 42.82713 67.62501 55.22607
# Shear Modulus (GPa) = 28.50163 32.59309 30.54736
#
# Velocity S-wave (km/s) = 3.80429 4.06819 3.93845
# Velocity P-wave (km/s) = 6.40653 7.51037 6.98030
#
# Compressibility (1/GPa) = 0.02334969
#
# Stress axis : x y z
#
# Youngs Moduli (GPa) = 101.51403 84.73195 41.58270
#
# Poissons Ratio (x) = 0.38043 0.11289
# Poissons Ratio (y) = 0.45578 0.16513
# Poissons Ratio (z) = 0.27560 0.33647
#
# Static dielectric constant tensor:
#      x y z
#    x 3.605990 0.000000 -0.004020 
#    y 0.000000 3.891900 0.000000 
#    z -0.004020 0.000000 3.445280 
# 
# 
# High freq. dielectric constant tensor:
#      x y z
#    x 1.773050 0.000000 -0.001780 
#    y 0.000000 1.775610 0.000000 
#    z -0.001780 0.000000 1.754490 
# 
# From -- ./inp_files/187732.got.cif
#   From: 2010.06.25/outbox.cif.g09.slc.cpg/sg12_94_cif.got.tgz:187732.got - 2010.06.28 00:19:55.
