data_PCOD8101218
_publ_section_title
;
Structure prediction by ZEFSAII (Michael W. Deem and Ramdas Pophale) SiO2 
 PCOD8101218
Probable space group: C 2/M
;
_chemical_formula_sum "Si O2"
_cell_formula_units_Z 64
_cell_length_a 14.596848
_cell_length_b 9.022891
_cell_length_c 24.210214
_cell_angle_alpha 90.000000
_cell_angle_beta 89.799233
_cell_angle_gamma 90.000000
_cell_volume 3188.605264
_symmetry_space_group_name_H-M "C 2/M"
_symmetry_group_IT_number 12
_symmetry_cell_setting 'monoclinic'
loop_
_space_group_symop_operation_xyz
x,y,z
-x,y,-z
-x,-y,-z
x,-y,z
1/2+x,1/2+y,z
1/2-x,1/2+y,-z
1/2-x,1/2-y,-z
1/2+x,1/2-y,z
loop_
_atom_site_type_symbol
_atom_site_label
_atom_site_fract_x
_atom_site_fract_y
_atom_site_fract_z
Si Si1 0.107497 0.665510 0.735389
Si Si2 0.373807 0.673353 0.646637
Si Si3 0.891545 0.663417 0.753576
Si Si4 0.418422 0.325338 0.371895
Si Si5 0.775004 0.823606 0.942654
Si Si6 0.577376 0.176202 0.125779
Si Si7 0.126711 0.324188 0.855010
Si Si8 0.726041 0.176338 0.557501
O O1 0.144268 0.500000 0.720643
O O2 0.130766 0.775087 0.684955
O O3 0.151670 0.729071 0.792325
O O4 0.999834 0.658008 0.745456
O O5 0.370787 0.500000 0.652861
O O6 0.345046 0.734782 0.706987
O O7 0.475458 0.724514 0.628498
O O8 0.303117 0.729043 0.600805
O O9 0.849858 0.500000 0.746273
O O10 0.874174 0.720981 0.816032
O O11 0.406483 0.500000 0.379798
O O12 0.371740 0.239613 0.422780
O O13 0.873652 0.763994 0.923633
O O14 0.701617 0.766491 0.897787
O O15 0.775847 0.000000 0.948500
O O16 0.750000 0.750000 0.000000
O O17 0.472698 0.233312 0.125344
O O18 0.583740 0.000000 0.116006
O O19 0.122604 0.500000 0.852734
O O20 0.750000 0.250000 0.500000
O O21 0.721543 0.000000 0.551400
#
# Coordination Sequence:
#
# PCOD8101218 Si02
#       8
#     8   8   8   8   8   8   8   8
#     4   8  14  30  55  82 108 138 175 213 254 314
#     4   9  20  37  57  80 111 145 175 211 264 320
#     4   8  15  29  54  84 111 136 170 214 261 312
#     4  10  20  36  57  83 112 142 173 214 266 318
#     4  11  23  38  54  76 104 139 182 225 264 312
#     4   9  18  36  58  80 106 139 175 216 263 314
#     4   8  17  35  58  78 104 143 179 209 259 324
#     4  11  24  41  57  77 105 142 185 226 263 310
#
# _framework density 20.071473000000001
#
# number of rings (size 3 to 8) (size 9 to 14) (size 15 to 20)
#    0.000    2.750    0.000    2.625    0.000    4.000 
#    0.000   13.125    0.000    0.000    0.000    0.000 
#    0.000    0.000    0.000    0.000    0.000    0.000 
#
# Total GULP energy -396723.357684 kJ/mol
# GULP energy per Si atom -12397.604928 kJ/mol
# Density = 2.002579 g / cm^3
# Si number density = 20.071473 Si / 1000 Ang^3
#
#
#
# Elastic Constant Matrix: (Units=GPa)
#
#
# Indices 1 2 3 4 5 6 
#
# 1 41.7050 13.4336 12.6989 0.0000 -3.8545 0.0000
# 2 13.4336 52.2269 24.6312 0.0000 -4.8479 0.0000
# 3 12.6989 24.6312 90.7851 0.0000 -11.8730 0.0000
# 4 0.0000 0.0000 0.0000 38.3911 0.0000 -3.5992
# 5 -3.8545 -4.8479 -11.8730 0.0000 35.8735 0.0000
# 6 0.0000 0.0000 0.0000 -3.5992 0.0000 24.6763
#
#
#
# Elastic Compliance Matrix: (Units=1/GPa)
#
#
# Indices 1 2 3 4 5 6 
#
# 1 0.026568 -0.005776 -0.001963 0.000000 0.001424 0.000000
# 2 -0.005776 0.023250 -0.005404 0.000000 0.000733 0.000000
# 3 -0.001963 -0.005404 0.013204 0.000000 0.003429 0.000000
# 4 0.000000 0.000000 0.000000 0.026409 0.000000 0.003852
# 5 0.001424 0.000733 0.003429 0.000000 0.029263 0.000000
# 6 0.000000 0.000000 0.000000 0.003852 0.000000 0.041087
#
#
# Mechanical properties :
#
#
# Convention : Reuss Voigt Hill
#
# Bulk Modulus (GPa) = 27.22131 31.80493 29.51312
# Shear Modulus (GPa) = 25.21299 28.71841 26.96570
#
# Velocity S-wave (km/s) = 3.54808 3.78670 3.66933
# Velocity P-wave (km/s) = 5.51152 5.91600 5.71734
#
# Compressibility (1/GPa) = 0.03673592
#
# Stress axis : x y z
#
# Youngs Moduli (GPa) = 37.63967 43.01157 75.73299
#
# Poissons Ratio (x) = 0.24842 0.14866
# Poissons Ratio (y) = 0.21739 0.40928
# Poissons Ratio (z) = 0.07389 0.23244
#
# Static dielectric constant tensor:
#      x y z
#    x 3.700850 0.000000 0.110430 
#    y 0.000000 3.469970 0.000000 
#    z 0.110430 0.000000 3.866950 
# 
# 
# High freq. dielectric constant tensor:
#      x y z
#    x 1.778710 0.000000 -0.004770 
#    y 0.000000 1.765260 0.000000 
#    z -0.004770 0.000000 1.787300 
# 
# From -- ./inp_files/338931.got.cif
#   From: 2010.06.25/outbox.cif.g09.slc.cpg/sg12_170_cif.got.tgz:338931.got - 2010.06.28 00:19:55.
