data_PCOD8101132
_publ_section_title
;
Structure prediction by ZEFSAII (Michael W. Deem and Ramdas Pophale) SiO2 
 PCOD8101132
Probable space group: C 2/M
;
_chemical_formula_sum "Si O2"
_cell_formula_units_Z 48
_cell_length_a 20.073251
_cell_length_b 8.487585
_cell_length_c 15.688755
_cell_angle_alpha 90.000000
_cell_angle_beta 70.827401
_cell_angle_gamma 90.000000
_cell_volume 2524.688003
_symmetry_space_group_name_H-M "C 2/M"
_symmetry_group_IT_number 12
_symmetry_cell_setting 'monoclinic'
loop_
_space_group_symop_operation_xyz
x,y,z
-x,y,-z
-x,-y,-z
x,-y,z
1/2+x,1/2+y,z
1/2-x,1/2+y,-z
1/2-x,1/2-y,-z
1/2+x,1/2-y,z
loop_
_atom_site_type_symbol
_atom_site_label
_atom_site_fract_x
_atom_site_fract_y
_atom_site_fract_z
Si Si1 0.680995 0.184751 0.073172
Si Si2 0.959531 0.184021 0.932989
Si Si3 0.650019 0.681311 0.606347
Si Si4 0.013336 0.318271 0.742171
Si Si5 0.875231 0.814893 0.732559
Si Si6 0.207825 0.816078 0.399311
O O1 0.613479 0.220845 0.042569
O O2 0.673474 0.269956 0.167140
O O3 0.687851 0.000000 0.085218
O O4 0.750000 0.250000 0.000000
O O5 0.008588 0.217042 0.830669
O O6 0.941647 0.000000 0.945342
O O7 0.000000 0.242143 0.000000
O O8 0.629325 0.500000 0.627651
O O9 0.586942 0.789236 0.665222
O O10 0.719831 0.718616 0.631262
O O11 0.662565 0.722868 0.502251
O O12 0.006112 0.500000 0.770076
O O13 0.950233 0.272197 0.704905
O O14 0.836893 0.759736 0.662764
O O15 0.889430 0.000000 0.726563
O O16 0.226914 0.000000 0.386981
#
# Coordination Sequence:
#
# PCOD8101132 Si02
#       6
#     8   8   8   8   8   8
#     4  11  22  37  57  81 110 143 180 220 266 318
#     4  10  21  38  59  82 108 139 178 223 270 319
#     4  10  20  36  57  80 109 143 180 222 267 317
#     4  11  22  36  55  80 111 144 180 220 265 318
#     4  10  20  37  58  80 109 141 178 223 270 319
#     4   9  20  37  57  81 108 141 179 222 271 319
#
# _framework density 19.012250000000002
#
# number of rings (size 3 to 8) (size 9 to 14) (size 15 to 20)
#    0.000    1.833    0.000    6.500    0.000    5.333 
#    0.000    3.333    0.000    0.000    0.000    0.000 
#    0.000    0.000    0.000    0.000    0.000    0.000 
#
# Total GULP energy -297719.371657 kJ/mol
# GULP energy per Si atom -12404.973819 kJ/mol
# Density = 1.896898 g / cm^3
# Si number density = 19.012250 Si / 1000 Ang^3
#
#
#
# Elastic Constant Matrix: (Units=GPa)
#
#
# Indices 1 2 3 4 5 6 
#
# 1 117.7717 22.5095 83.0137 0.0000 9.1180 0.0000
# 2 22.5095 51.1496 11.4391 0.0000 0.4099 0.0000
# 3 83.0137 11.4391 94.3746 0.0000 7.7910 0.0000
# 4 0.0000 0.0000 0.0000 25.9860 0.0000 -4.4167
# 5 9.1180 0.4099 7.7910 0.0000 44.5959 0.0000
# 6 0.0000 0.0000 0.0000 -4.4167 0.0000 34.9053
#
#
#
# Elastic Compliance Matrix: (Units=1/GPa)
#
#
# Indices 1 2 3 4 5 6 
#
# 1 0.024092 -0.006040 -0.020351 0.000000 -0.001315 0.000000
# 2 -0.006040 0.021612 0.002646 0.000000 0.000574 0.000000
# 3 -0.020351 0.002646 0.028243 0.000000 -0.000797 0.000000
# 4 0.000000 0.000000 0.000000 0.039328 0.000000 0.004976
# 5 -0.001315 0.000574 -0.000797 0.000000 0.022826 0.000000
# 6 0.000000 0.000000 0.000000 0.004976 0.000000 0.029279
#
#
# Mechanical properties :
#
#
# Convention : Reuss Voigt Hill
#
# Bulk Modulus (GPa) = 37.79836 55.24672 46.52254
# Shear Modulus (GPa) = 22.55397 30.85300 26.70348
#
# Velocity S-wave (km/s) = 3.44799 4.03276 3.75179
# Velocity P-wave (km/s) = 5.98128 7.12782 6.57957
#
# Compressibility (1/GPa) = 0.02645617
#
# Stress axis : x y z
#
# Youngs Moduli (GPa) = 41.50682 46.26994 35.40742
#
# Poissons Ratio (x) = 0.27949 0.72059
# Poissons Ratio (y) = 0.25072 -0.09370
# Poissons Ratio (z) = 0.84472 -0.12244
#
# Static dielectric constant tensor:
#      x y z
#    x 3.502220 0.000000 0.096380 
#    y 0.000000 3.552270 0.000000 
#    z 0.096380 0.000000 3.480150 
# 
# 
# High freq. dielectric constant tensor:
#      x y z
#    x 1.742440 0.000000 0.000560 
#    y 0.000000 1.750210 0.000000 
#    z 0.000560 0.000000 1.737870 
# 
# From -- ./inp_files/229879.got.cif
#   From: 2010.06.25/outbox.cif.g09.slc.cpg/sg12_115_cif.got.tgz:229879.got - 2010.06.28 00:19:55.
