data_PCOD8101000
_publ_section_title
;
Structure prediction by ZEFSAII (Michael W. Deem and Ramdas Pophale) SiO2 
 PCOD8101000
Probable space group: C 2/M
;
_chemical_formula_sum "Si O2"
_cell_formula_units_Z 48
_cell_length_a 18.993755
_cell_length_b 8.771959
_cell_length_c 29.372648
_cell_angle_alpha 90.000000
_cell_angle_beta 148.629067
_cell_angle_gamma 90.000000
_cell_volume 2547.622777
_symmetry_space_group_name_H-M "C 2/M"
_symmetry_group_IT_number 12
_symmetry_cell_setting 'monoclinic'
loop_
_space_group_symop_operation_xyz
x,y,z
-x,y,-z
-x,-y,-z
x,-y,z
1/2+x,1/2+y,z
1/2-x,1/2+y,-z
1/2-x,1/2-y,-z
1/2+x,1/2-y,z
loop_
_atom_site_type_symbol
_atom_site_label
_atom_site_fract_x
_atom_site_fract_y
_atom_site_fract_z
Si Si1 0.359244 0.321903 0.593138
Si Si2 0.334867 0.325224 0.260942
Si Si3 0.210746 0.821396 0.866515
Si Si4 0.576061 0.179886 0.278188
Si Si5 0.143972 0.177600 0.224795
Si Si6 0.141810 0.820385 0.974237
O O1 0.332355 0.500000 0.584577
O O2 0.250000 0.250000 0.500000
O O3 0.506073 0.290989 0.652888
O O4 0.346054 0.243702 0.634940
O O5 0.306611 0.500000 0.258604
O O6 0.268967 0.287418 0.175551
O O7 0.270937 0.215208 0.262996
O O8 0.072520 0.750069 0.808835
O O9 0.201956 0.000000 0.871560
O O10 0.335321 0.747859 0.962657
O O11 0.660490 0.227492 0.280308
O O12 0.565106 0.000000 0.276073
O O13 0.007796 0.227085 0.123586
O O14 0.143818 0.000000 0.236662
O O15 0.161435 0.000000 0.986270
O O16 0.250000 0.750000 0.000000
#
# Coordination Sequence:
#
# PCOD8101000 Si02
#       6
#     8   8   8   8   8   8
#     4  10  21  40  65  91 117 145 184 230 278 341
#     4   9  21  39  58  82 115 151 185 230 287 340
#     4  10  20  36  56  80 112 150 196 242 282 334
#     4  11  21  35  59  85 113 151 191 231 283 340
#     4  11  23  37  55  82 117 152 191 240 286 332
#     4  11  22  34  53  80 112 152 197 244 285 330
#
# _framework density 18.841094999999999
#
# number of rings (size 3 to 8) (size 9 to 14) (size 15 to 20)
#    0.000    1.667    1.667    4.500    0.000    6.667 
#    0.000    4.167    0.000    5.000    0.000    0.000 
#    0.000    0.000    0.000    0.000    0.000    0.000 
#
# Total GULP energy -297719.789136 kJ/mol
# GULP energy per Si atom -12404.991214 kJ/mol
# Density = 1.879821 g / cm^3
# Si number density = 18.841095 Si / 1000 Ang^3
#
#
#
# Elastic Constant Matrix: (Units=GPa)
#
#
# Indices 1 2 3 4 5 6 
#
# 1 111.3763 49.6792 47.5055 0.0000 -9.6885 -0.0003
# 2 49.6792 109.7276 45.9928 0.0000 -8.5525 -0.0004
# 3 47.5055 45.9928 103.7388 0.0000 -21.9594 0.0000
# 4 0.0000 0.0000 0.0000 33.9662 0.0000 -4.2207
# 5 -9.6885 -8.5525 -21.9594 0.0000 24.4316 0.0000
# 6 -0.0003 -0.0004 0.0000 -4.2207 0.0000 35.8493
#
#
#
# Elastic Compliance Matrix: (Units=1/GPa)
#
#
# Indices 1 2 3 4 5 6 
#
# 1 0.012429 -0.003982 -0.003925 0.000000 0.000007 0.000000
# 2 -0.003982 0.012478 -0.003851 0.000000 -0.000672 0.000000
# 3 -0.003925 -0.003851 0.015474 0.000000 0.011003 0.000000
# 4 0.000000 0.000000 0.000000 0.029878 0.000000 0.003518
# 5 0.000007 -0.000672 0.011003 0.000000 0.050588 0.000000
# 6 0.000000 0.000000 0.000000 0.003518 0.000000 0.028309
#
#
# Mechanical properties :
#
#
# Convention : Reuss Voigt Hill
#
# Bulk Modulus (GPa) = 59.29334 67.91085 63.60209
# Shear Modulus (GPa) = 28.04374 30.96043 29.50209
#
# Velocity S-wave (km/s) = 3.86221 4.05809 3.96136
# Velocity P-wave (km/s) = 7.17129 7.62100 7.39956
#
# Compressibility (1/GPa) = 0.01686530
#
# Stress axis : x y z
#
# Youngs Moduli (GPa) = 80.45473 80.14120 64.62642
#
# Poissons Ratio (x) = 0.31909 0.25366
# Poissons Ratio (y) = 0.32034 0.24889
# Poissons Ratio (z) = 0.31579 0.30863
#
# Static dielectric constant tensor:
#      x y z
#    x 3.413090 0.000000 -0.208570 
#    y 0.000000 3.522920 0.000000 
#    z -0.208570 0.000000 3.479740 
# 
# 
# High freq. dielectric constant tensor:
#      x y z
#    x 1.730960 0.000000 -0.015150 
#    y 0.000000 1.745930 0.000000 
#    z -0.015150 0.000000 1.720140 
# 
# From -- ./inp_files/274073.got.cif
#   From: 2010.06.25/outbox.cif.g09.slc.cpg/sg12_138_cif.got.tgz:274073.got - 2010.06.28 00:19:55.
