data_PCOD8101575
_publ_section_title
;
Structure prediction by ZEFSAII (Michael W. Deem and Ramdas Pophale) SiO2 
 PCOD8101575
Probable space group: C 2/M
;
_chemical_formula_sum "Si O2"
_cell_formula_units_Z 40
_cell_length_a 21.374284
_cell_length_b 8.860474
_cell_length_c 10.551642
_cell_angle_alpha 90.000000
_cell_angle_beta 105.602970
_cell_angle_gamma 90.000000
_cell_volume 1924.694868
_symmetry_space_group_name_H-M "C 2/M"
_symmetry_group_IT_number 12
_symmetry_cell_setting 'monoclinic'
loop_
_space_group_symop_operation_xyz
x,y,z
-x,y,-z
-x,-y,-z
x,-y,z
1/2+x,1/2+y,z
1/2-x,1/2+y,-z
1/2-x,1/2-y,-z
1/2+x,1/2-y,z
loop_
_atom_site_type_symbol
_atom_site_label
_atom_site_fract_x
_atom_site_fract_y
_atom_site_fract_z
Si Si1 0.481063 0.321526 0.627754
Si Si2 0.809366 0.321544 0.954424
Si Si3 0.754130 0.165719 0.694586
Si Si4 0.342002 0.665706 0.503075
Si Si5 0.949197 0.179574 0.082741
O O1 0.500000 0.256619 0.500000
O O2 0.488897 0.500000 0.636565
O O3 0.406489 0.269361 0.604851
O O4 0.523007 0.258045 0.767876
O O5 0.810148 0.500000 0.973743
O O6 0.796033 0.279496 0.801605
O O7 0.750000 0.250000 0.000000
O O8 0.879144 0.255474 0.029529
O O9 0.682142 0.231719 0.627697
O O10 0.787455 0.149381 0.578051
O O11 0.747768 0.000000 0.755698
O O12 0.357541 0.500000 0.453381
O O13 0.939634 0.000000 0.075132
O O14 0.000000 0.227542 0.000000
#
# Coordination Sequence:
#
# PCOD8101575 Si02
#       5
#     8   8   8   8   8
#     4   9  18  32  55  86 117 153 198 243 293 356
#     4  12  26  42  62  89 123 162 209 262 318 372
#     4  10  20  36  58  86 119 156 200 247 304 367
#     4   9  18  34  58  87 119 157 198 243 294 359
#     4  10  21  40  65  92 125 166 208 252 307 375
#
# _framework density 20.782515
#
# number of rings (size 3 to 8) (size 9 to 14) (size 15 to 20)
#    0.000    2.000    0.000    3.600    2.800    4.400 
#    0.000    1.000    0.000    1.200    0.000    0.000 
#    0.000    0.000    0.000    0.000    0.000    0.000 
#
# Total GULP energy -247854.228726 kJ/mol
# GULP energy per Si atom -12392.711436 kJ/mol
# Density = 2.073521 g / cm^3
# Si number density = 20.782515 Si / 1000 Ang^3
#
#
#
# Elastic Constant Matrix: (Units=GPa)
#
#
# Indices 1 2 3 4 5 6 
#
# 1 141.6939 58.0156 66.9536 0.0000 33.8193 0.0000
# 2 58.0156 92.2212 45.3612 0.0000 13.7227 0.0000
# 3 66.9536 45.3612 150.3474 0.0000 32.0889 0.0000
# 4 0.0000 0.0000 0.0000 25.4391 0.0000 11.0227
# 5 33.8193 13.7227 32.0889 0.0000 43.0744 0.0000
# 6 0.0000 0.0000 0.0000 11.0227 0.0000 29.0143
#
#
#
# Elastic Compliance Matrix: (Units=1/GPa)
#
#
# Indices 1 2 3 4 5 6 
#
# 1 0.011753 -0.005364 -0.002391 0.000000 -0.005738 0.000000
# 2 -0.005364 0.015255 -0.002468 0.000000 0.001190 0.000000
# 3 -0.002391 -0.002468 0.009384 0.000000 -0.004327 0.000000
# 4 0.000000 0.000000 0.000000 0.047055 0.000000 -0.017877
# 5 -0.005738 0.001190 -0.004327 0.000000 0.030565 0.000000
# 6 0.000000 0.000000 0.000000 -0.017877 0.000000 0.041257
#
#
# Mechanical properties :
#
#
# Convention : Reuss Voigt Hill
#
# Bulk Modulus (GPa) = 62.70940 80.54705 71.62822
# Shear Modulus (GPa) = 27.61973 33.76770 30.69371
#
# Velocity S-wave (km/s) = 3.64948 4.03527 3.84722
# Velocity P-wave (km/s) = 6.92805 7.78155 7.36717
#
# Compressibility (1/GPa) = 0.01594657
#
# Stress axis : x y z
#
# Youngs Moduli (GPa) = 85.08544 65.55394 106.56226
#
# Poissons Ratio (x) = 0.35162 0.25479
# Poissons Ratio (y) = 0.45638 0.26297
# Poissons Ratio (z) = 0.20344 0.16177
#
# Static dielectric constant tensor:
#      x y z
#    x 3.835200 0.000000 0.178280 
#    y 0.000000 3.890240 0.000000 
#    z 0.178280 0.000000 3.988620 
# 
# 
# High freq. dielectric constant tensor:
#      x y z
#    x 1.819810 0.000000 0.014450 
#    y 0.000000 1.784970 0.000000 
#    z 0.014450 0.000000 1.822420 
# 
# From -- ./inp_files/162640.got.cif
#   From: 2010.06.25/outbox.cif.g09.slc.cpg/sg12_82_cif.got.tgz:162640.got - 2010.06.28 00:19:55.
