data_PCOD8101277
_publ_section_title
;
Structure prediction by ZEFSAII (Michael W. Deem and Ramdas Pophale) SiO2 
 PCOD8101277
Probable space group: C 2/M
;
_chemical_formula_sum "Si O2"
_cell_formula_units_Z 56
_cell_length_a 30.009247
_cell_length_b 9.180665
_cell_length_c 11.845185
_cell_angle_alpha 90.000000
_cell_angle_beta 62.158763
_cell_angle_gamma 90.000000
_cell_volume 2885.650551
_symmetry_space_group_name_H-M "C 2/M"
_symmetry_group_IT_number 12
_symmetry_cell_setting 'monoclinic'
loop_
_space_group_symop_operation_xyz
x,y,z
-x,y,-z
-x,-y,-z
x,-y,z
1/2+x,1/2+y,z
1/2-x,1/2+y,-z
1/2-x,1/2-y,-z
1/2+x,1/2-y,z
loop_
_atom_site_type_symbol
_atom_site_label
_atom_site_fract_x
_atom_site_fract_y
_atom_site_fract_z
Si Si1 0.901379 0.333808 0.265669
Si Si2 0.088660 0.669762 0.134971
Si Si3 0.941564 0.668894 0.575770
Si Si4 0.247369 0.829773 0.383216
Si Si5 0.336842 0.164735 0.131037
Si Si6 0.500894 0.337199 0.865920
Si Si7 0.135693 0.167830 0.493333
O O1 0.900681 0.500000 0.306998
O O2 0.885702 0.318276 0.154019
O O3 0.862491 0.240737 0.385447
O O4 0.956221 0.271138 0.227053
O O5 0.077621 0.500000 0.118572
O O6 0.084456 0.696467 0.272736
O O7 0.050622 0.776538 0.119631
O O8 0.143705 0.716141 0.016626
O O9 0.940414 0.500000 0.543551
O O10 0.906419 0.755317 0.532064
O O11 0.000000 0.723866 0.500000
O O12 0.250000 0.750000 0.500000
O O13 0.288273 0.758288 0.246653
O O14 0.193386 0.812835 0.383829
O O15 0.259356 0.000000 0.393417
O O16 0.319294 0.000000 0.139607
O O17 0.510129 0.500000 0.807288
O O18 0.500000 0.341220 0.000000
O O19 0.120446 0.000000 0.520177
#
# Coordination Sequence:
#
# PCOD8101277 Si02
#       7
#     8   8   8   8   8   8   8
#     4  11  20  33  56  81 111 150 192 233 279 342
#     4  10  20  37  59  81 109 151 200 242 282 335
#     4  10  22  40  61  84 111 149 199 246 284 340
#     4  10  20  36  57  85 117 151 191 235 288 346
#     4   9  18  33  55  82 111 146 186 233 282 334
#     4  11  22  33  49  80 120 151 180 228 290 351
#     4  11  23  37  58  86 118 151 188 239 298 350
#
# _framework density 19.406369000000002
#
# number of rings (size 3 to 8) (size 9 to 14) (size 15 to 20)
#    0.000    1.714    2.857    2.143    0.000    3.143 
#    0.000    1.429    0.000    0.000    0.000    0.000 
#    0.000    0.000    0.000    0.000    0.000    0.000 
#
# Total GULP energy -346952.978040 kJ/mol
# GULP energy per Si atom -12391.177787 kJ/mol
# Density = 1.936220 g / cm^3
# Si number density = 19.406369 Si / 1000 Ang^3
#
#
#
# Elastic Constant Matrix: (Units=GPa)
#
#
# Indices 1 2 3 4 5 6 
#
# 1 76.5431 39.2833 35.9993 0.0000 -16.1997 0.0000
# 2 39.2833 75.6468 29.9809 0.0000 -2.3616 0.0000
# 3 35.9993 29.9809 135.7096 0.0000 -20.7487 0.0000
# 4 0.0000 0.0000 0.0000 24.4874 0.0000 3.2129
# 5 -16.1997 -2.3616 -20.7487 0.0000 31.9537 0.0000
# 6 0.0000 0.0000 0.0000 3.2129 0.0000 26.3327
#
#
#
# Elastic Compliance Matrix: (Units=1/GPa)
#
#
# Indices 1 2 3 4 5 6 
#
# 1 0.020833 -0.009730 -0.002078 0.000000 0.008493 0.000000
# 2 -0.009730 0.019068 -0.002409 0.000000 -0.005088 0.000000
# 3 -0.002078 -0.002409 0.009175 0.000000 0.004726 0.000000
# 4 0.000000 0.000000 0.000000 0.041502 0.000000 -0.005064
# 5 0.008493 -0.005088 0.004726 0.000000 0.038294 0.000000
# 6 0.000000 0.000000 0.000000 -0.005064 0.000000 0.038593
#
#
# Mechanical properties :
#
#
# Convention : Reuss Voigt Hill
#
# Bulk Modulus (GPa) = 48.44742 55.38072 51.91407
# Shear Modulus (GPa) = 24.65728 28.73050 26.69389
#
# Velocity S-wave (km/s) = 3.56838 3.85186 3.71283
# Velocity P-wave (km/s) = 6.48049 6.95570 6.72229
#
# Compressibility (1/GPa) = 0.02064093
#
# Stress axis : x y z
#
# Youngs Moduli (GPa) = 48.00084 52.44375 108.99419
#
# Poissons Ratio (x) = 0.51026 0.22652
# Poissons Ratio (y) = 0.46703 0.26261
# Poissons Ratio (z) = 0.09976 0.12636
#
# Static dielectric constant tensor:
#      x y z
#    x 3.026550 0.000000 -0.272910 
#    y 0.000000 3.530990 0.000000 
#    z -0.272910 0.000000 4.042930 
# 
# 
# High freq. dielectric constant tensor:
#      x y z
#    x 1.737240 0.000000 -0.018960 
#    y 0.000000 1.742880 0.000000 
#    z -0.018960 0.000000 1.767480 
# 
# From -- ./inp_files/180633.got.cif
#   From: 2010.06.25/outbox.cif.g09.slc.cpg/sg12_91_cif.got.tgz:180633.got - 2010.06.28 00:19:55.
