data_PCOD8101300
_publ_section_title
;
Structure prediction by ZEFSAII (Michael W. Deem and Ramdas Pophale) SiO2 
 PCOD8101300
Probable space group: C 2/M
;
_chemical_formula_sum "Si O2"
_cell_formula_units_Z 40
_cell_length_a 8.792343
_cell_length_b 17.754831
_cell_length_c 13.828373
_cell_angle_alpha 90.000000
_cell_angle_beta 103.871064
_cell_angle_gamma 90.000000
_cell_volume 2095.747101
_symmetry_space_group_name_H-M "C 2/M"
_symmetry_group_IT_number 12
_symmetry_cell_setting 'monoclinic'
loop_
_space_group_symop_operation_xyz
x,y,z
-x,y,-z
-x,-y,-z
x,-y,z
1/2+x,1/2+y,z
1/2-x,1/2+y,-z
1/2-x,1/2-y,-z
1/2+x,1/2-y,z
loop_
_atom_site_type_symbol
_atom_site_label
_atom_site_fract_x
_atom_site_fract_y
_atom_site_fract_z
Si Si1 0.737358 0.852771 0.707205
Si Si2 0.335524 0.587703 0.523540
Si Si3 0.400196 0.086126 0.679426
Si Si4 0.514872 0.330239 0.109701
Si Si5 0.724464 0.796533 0.191958
O O1 0.818407 0.860971 0.615536
O O2 0.583356 0.903238 0.687187
O O3 0.696623 0.764371 0.721673
O O4 0.863748 0.880234 0.807712
O O5 0.500000 0.608311 0.500000
O O6 0.329177 0.500000 0.552058
O O7 0.195005 0.609490 0.430420
O O8 0.345676 0.133451 0.762256
O O9 0.365706 0.000000 0.700133
O O10 0.582794 0.244731 0.113304
O O11 0.346450 0.329026 0.133983
O O12 0.500000 0.364683 0.000000
#
# Coordination Sequence:
#
# PCOD8101300 Si02
#       5
#     8   8   8   8   8
#     4  10  20  36  57  89 114 155 200 248 280 349
#     4  10  21  36  57  85 121 164 196 234 296 359
#     4  11  22  38  61  88 125 162 193 236 299 357
#     4  10  20  37  64  87 114 153 199 249 299 348
#     4  10  20  37  59  93 114 153 198 248 290 346
#
# _framework density 19.086272999999998
#
# number of rings (size 3 to 8) (size 9 to 14) (size 15 to 20)
#    1.200    0.600    2.000    3.000    0.000    2.400 
#    0.000    1.000    0.000    9.600    0.000    0.000 
#    0.000    0.000    0.000    0.000    0.000    0.000 
#
# Total GULP energy -247944.756706 kJ/mol
# GULP energy per Si atom -12397.237835 kJ/mol
# Density = 1.904283 g / cm^3
# Si number density = 19.086273 Si / 1000 Ang^3
#
#
#
# Elastic Constant Matrix: (Units=GPa)
#
#
# Indices 1 2 3 4 5 6 
#
# 1 119.2839 9.4361 65.1752 0.0000 -12.7618 0.0000
# 2 9.4361 27.7198 15.5467 0.0000 -3.0315 0.0000
# 3 65.1752 15.5467 125.0303 0.0000 -6.7406 0.0000
# 4 0.0000 0.0000 0.0000 19.0024 0.0000 -0.2039
# 5 -12.7618 -3.0315 -6.7406 0.0000 34.9430 0.0000
# 6 0.0000 0.0000 0.0000 -0.2039 0.0000 26.2622
#
#
#
# Elastic Compliance Matrix: (Units=1/GPa)
#
#
# Indices 1 2 3 4 5 6 
#
# 1 0.012075 -0.000351 -0.006078 0.000000 0.003207 0.000000
# 2 -0.000351 0.039000 -0.004538 0.000000 0.002380 0.000000
# 3 -0.006078 -0.004538 0.011712 0.000000 -0.000354 0.000000
# 4 0.000000 0.000000 0.000000 0.052629 0.000000 0.000409
# 5 0.003207 0.002380 -0.000354 0.000000 0.029927 0.000000
# 6 0.000000 0.000000 0.000000 0.000409 0.000000 0.038081
#
#
# Mechanical properties :
#
#
# Convention : Reuss Voigt Hill
#
# Bulk Modulus (GPa) = 24.47807 50.26110 37.36959
# Shear Modulus (GPa) = 22.83352 28.16659 25.50005
#
# Velocity S-wave (km/s) = 3.46256 3.84572 3.65916
# Velocity P-wave (km/s) = 5.37015 6.79045 6.12163
#
# Compressibility (1/GPa) = 0.04085290
#
# Stress axis : x y z
#
# Youngs Moduli (GPa) = 82.81460 25.64081 85.38587
#
# Poissons Ratio (x) = 0.00900 0.51897
# Poissons Ratio (y) = 0.02906 0.38750
# Poissons Ratio (z) = 0.50334 0.11636
#
# Static dielectric constant tensor:
#      x y z
#    x 3.546670 0.000000 0.077280 
#    y 0.000000 3.167130 0.000000 
#    z 0.077280 0.000000 3.346250 
# 
# 
# High freq. dielectric constant tensor:
#      x y z
#    x 1.758780 0.000000 -0.002600 
#    y 0.000000 1.711300 0.000000 
#    z -0.002600 0.000000 1.735960 
# 
# From -- ./inp_files/195100.got.cif
#   From: 2010.06.25/outbox.cif.g09.slc.cpg/sg12_98_cif.got.tgz:195100.got - 2010.06.28 00:19:55.
