data_PCOD8101951
_publ_section_title
;
Structure prediction by ZEFSAII (Michael W. Deem and Ramdas Pophale) SiO2 
 PCOD8101951
Probable space group: C 2/M
;
_chemical_formula_sum "Si O2"
_cell_formula_units_Z 44
_cell_length_a 14.834161
_cell_length_b 17.608600
_cell_length_c 13.845957
_cell_angle_alpha 90.000000
_cell_angle_beta 37.602333
_cell_angle_gamma 90.000000
_cell_volume 2206.820096
_symmetry_space_group_name_H-M "C 2/M"
_symmetry_group_IT_number 12
_symmetry_cell_setting 'monoclinic'
loop_
_space_group_symop_operation_xyz
x,y,z
-x,y,-z
-x,-y,-z
x,-y,z
1/2+x,1/2+y,z
1/2-x,1/2+y,-z
1/2-x,1/2-y,-z
1/2+x,1/2-y,z
loop_
_atom_site_type_symbol
_atom_site_label
_atom_site_fract_x
_atom_site_fract_y
_atom_site_fract_z
Si Si1 0.926141 0.500000 0.216994
Si Si2 0.122128 0.915311 0.701984
Si Si3 0.787928 0.686528 0.844492
Si Si4 0.500000 0.371770 0.000000
Si Si5 0.441763 0.083713 0.390029
Si Si6 0.650391 0.648345 0.161031
Si Si7 0.726590 0.000000 0.846587
O O1 0.923483 0.575003 0.288320
O O2 0.790556 0.500000 0.255607
O O3 0.072247 0.500000 0.030662
O O4 0.288424 0.881910 0.562215
O O5 0.019910 0.859839 0.726198
O O6 0.126757 0.000000 0.652285
O O7 0.051183 0.924063 0.868300
O O8 0.639592 0.680592 0.907918
O O9 0.837087 0.773539 0.791511
O O10 0.923595 0.636242 0.690082
O O11 0.758989 0.655923 0.977164
O O12 0.472347 0.000000 0.409073
O O13 0.688343 0.576121 0.194517
#
# Coordination Sequence:
#
# PCOD8101951 Si02
#       7
#     4   8   8   4   8   8   4
#     4   9  20  33  59  92 110 150 190 248 277 347
#     4  10  20  37  61  85 116 152 193 232 292 343
#     4  10  21  38  57  84 120 153 192 236 294 336
#     4  10  23  36  58  89 112 146 200 248 269 352
#     4   9  19  38  59  83 119 154 184 234 294 351
#     4  10  20  36  60  85 115 155 188 242 286 349
#     4  11  18  35  63  88 109 148 202 240 284 335
#
# _framework density 19.938192000000001
#
# number of rings (size 3 to 8) (size 9 to 14) (size 15 to 20)
#    0.545    1.636    2.727    0.273    0.000    4.364 
#    3.273    3.636    4.000    0.000    0.000    0.000 
#    0.000    0.000    0.000    0.000    0.000    0.000 
#
# Total GULP energy -272653.343346 kJ/mol
# GULP energy per Si atom -12393.333788 kJ/mol
# Density = 1.989281 g / cm^3
# Si number density = 19.938192 Si / 1000 Ang^3
#
#
#
# Elastic Constant Matrix: (Units=GPa)
#
#
# Indices 1 2 3 4 5 6 
#
# 1 90.0948 40.5788 36.1044 0.0003 -25.3701 -0.0002
# 2 40.5788 125.1915 52.2199 0.0012 -32.5541 -0.0004
# 3 36.1044 52.2199 133.8825 0.0014 -34.2666 -0.0005
# 4 0.0003 0.0012 0.0014 22.9884 -0.0009 -6.7564
# 5 -25.3701 -32.5541 -34.2666 -0.0009 31.8255 0.0001
# 6 -0.0002 -0.0004 -0.0005 -6.7564 0.0001 13.6574
#
#
#
# Elastic Compliance Matrix: (Units=1/GPa)
#
#
# Indices 1 2 3 4 5 6 
#
# 1 0.014892 -0.002191 -0.000962 0.000000 0.008595 0.000000
# 2 -0.002191 0.011577 -0.001851 0.000000 0.008103 0.000000
# 3 -0.000962 -0.001851 0.010725 0.000000 0.008888 0.000000
# 4 0.000000 0.000000 0.000000 0.050901 0.000001 0.025181
# 5 0.008595 0.008103 0.008888 0.000001 0.056131 0.000001
# 6 0.000000 0.000000 0.000000 0.025181 0.000001 0.085678
#
#
# Mechanical properties :
#
#
# Convention : Reuss Voigt Hill
#
# Bulk Modulus (GPa) = 36.78164 67.44168 52.11166
# Shear Modulus (GPa) = 20.08251 28.37864 24.23057
#
# Velocity S-wave (km/s) = 3.17714 3.77680 3.48987
# Velocity P-wave (km/s) = 5.65216 7.27446 6.51401
#
# Compressibility (1/GPa) = 0.02718747
#
# Stress axis : x y z
#
# Youngs Moduli (GPa) = 67.15114 86.37904 93.23693
#
# Poissons Ratio (x) = 0.18925 0.08965
# Poissons Ratio (y) = 0.14712 0.17257
# Poissons Ratio (z) = 0.06457 0.15987
#
# Static dielectric constant tensor:
#      x y z
#    x 3.626200 0.000000 -0.068740 
#    y 0.000000 3.336840 0.000000 
#    z -0.068740 0.000000 3.605250 
# 
# 
# High freq. dielectric constant tensor:
#      x y z
#    x 1.764750 0.000000 -0.013610 
#    y 0.000000 1.754730 0.000000 
#    z -0.013610 0.000000 1.781170 
# 
# From -- ./inp_files/271341.got.cif
#   From: 2010.06.25/outbox.cif.g09.slc.cpg/sg12_136_cif.got.tgz:271341.got - 2010.06.28 00:19:55.
