data_PCOD8101048
_publ_section_title
;
Structure prediction by ZEFSAII (Michael W. Deem and Ramdas Pophale) SiO2 
 PCOD8101048
Probable space group: C 2/M
;
_chemical_formula_sum "Si O2"
_cell_formula_units_Z 56
_cell_length_a 16.274099
_cell_length_b 25.962250
_cell_length_c 15.247840
_cell_angle_alpha 90.000000
_cell_angle_beta 152.840427
_cell_angle_gamma 90.000000
_cell_volume 2940.763438
_symmetry_space_group_name_H-M "C 2/M"
_symmetry_group_IT_number 12
_symmetry_cell_setting 'monoclinic'
loop_
_space_group_symop_operation_xyz
x,y,z
-x,y,-z
-x,-y,-z
x,-y,z
1/2+x,1/2+y,z
1/2-x,1/2+y,-z
1/2-x,1/2-y,-z
1/2+x,1/2-y,z
loop_
_atom_site_type_symbol
_atom_site_label
_atom_site_fract_x
_atom_site_fract_y
_atom_site_fract_z
Si Si1 0.613778 0.939861 0.816062
Si Si2 0.386537 0.362790 0.131320
Si Si3 0.775143 0.272644 0.431230
Si Si4 0.583381 0.718287 0.992971
Si Si5 0.209843 0.058795 0.201670
Si Si6 0.586944 0.293749 0.670287
Si Si7 0.764843 0.608708 0.431470
O O1 0.696088 0.925940 0.799483
O O2 0.403825 0.924315 0.622489
O O3 0.638044 0.000000 0.863169
O O4 0.723648 0.903405 0.987771
O O5 0.345044 0.322163 0.012420
O O6 0.411520 0.333599 0.247493
O O7 0.562763 0.397385 0.277191
O O8 0.750000 0.250000 0.500000
O O9 0.593828 0.254151 0.211822
O O10 0.812881 0.332237 0.477826
O O11 0.949348 0.252514 0.549499
O O12 0.500000 0.688790 0.000000
O O13 0.721745 0.763679 0.152135
O O14 0.293878 0.091215 0.359511
O O15 0.250160 0.000000 0.263054
O O16 0.000000 0.070325 0.000000
O O17 0.500000 0.321389 0.500000
#
# Coordination Sequence:
#
# PCOD8101048 Si02
#       7
#     8   8   8   8   8   8   8
#     4  11  24  39  60  88 118 158 205 251 304 361
#     4  11  25  39  61  88 123 158 204 249 296 355
#     4  11  23  39  56  88 124 161 208 247 284 354
#     4  11  23  37  62  90 125 166 201 240 292 359
#     4  10  20  36  56  83 122 161 198 242 290 357
#     4  12  24  41  61  86 122 165 203 251 304 348
#     4  11  22  35  59  83 124 162 202 237 295 352
#
# _framework density 19.042674999999999
#
# number of rings (size 3 to 8) (size 9 to 14) (size 15 to 20)
#    0.000    1.000    5.714    2.143    6.000    2.857 
#    0.000    0.000    0.000    0.429    0.000    1.000 
#    0.000    0.000    0.000    0.000    0.000    0.000 
#
# Total GULP energy -346894.168971 kJ/mol
# GULP energy per Si atom -12389.077463 kJ/mol
# Density = 1.899933 g / cm^3
# Si number density = 19.042675 Si / 1000 Ang^3
#
#
#
# Elastic Constant Matrix: (Units=GPa)
#
#
# Indices 1 2 3 4 5 6 
#
# 1 71.5081 32.9428 2.0275 -0.0019 -20.6727 -0.0010
# 2 32.9428 92.9371 24.4902 0.0007 -16.2696 0.0004
# 3 2.0275 24.4902 198.4920 -0.0122 2.2362 -0.0064
# 4 -0.0019 0.0007 -0.0122 -936.8281 -0.0049 -509.1236
# 5 -20.6727 -16.2696 2.2362 -0.0049 34.6098 -0.0026
# 6 -0.0010 0.0004 -0.0064 -509.1236 -0.0026 -240.6576
#
#
#
# Elastic Compliance Matrix: (Units=1/GPa)
#
#
# Indices 1 2 3 4 5 6 
#
# 1 0.018951 -0.005267 0.000357 0.000000 0.008820 0.000000
# 2 -0.005267 0.013659 -0.001670 0.000000 0.003383 0.000000
# 3 0.000357 -0.001670 0.005251 0.000000 -0.000911 0.000000
# 4 0.000000 0.000000 0.000000 0.007130 0.000000 -0.015084
# 5 0.008820 0.003383 -0.000911 0.000000 0.035811 0.000000
# 6 0.000000 0.000000 0.000000 -0.015084 0.000000 0.027756
#
#
# Mechanical properties :
#
#
# Convention : Reuss Voigt Hill
#
# Bulk Modulus (GPa) = 40.48481 53.53980 47.01231
# Shear Modulus (GPa) = 38.47590 -208.34341 -84.93376
#
# Velocity S-wave (km/s) = 4.49988 -10.47121 -6.68570
# Velocity P-wave (km/s) = 6.95017 10.86362 5.90396
#
# Compressibility (1/GPa) = 0.02470062
#
# Stress axis : x y z
#
# Youngs Moduli (GPa) = 52.76818 73.21081 190.45446
#
# Poissons Ratio (x) = 0.38563 -0.06798
# Poissons Ratio (y) = 0.27795 0.31798
# Poissons Ratio (z) = -0.01884 0.12223
#
# Static dielectric constant tensor:
#      x y z
#    x 3.540910 0.000000 -0.005310 
#    y 0.000000 3.251490 0.000000 
#    z -0.005310 0.000000 3.873550 
# 
# 
# High freq. dielectric constant tensor:
#      x y z
#    x 1.716340 0.000000 0.007690 
#    y 0.000000 1.722800 0.000000 
#    z 0.007690 0.000000 1.763810 
# 
# From -- ./inp_files/219139.got.cif
#   From: 2010.06.25/outbox.cif.g09.slc.cpg/sg12_110_cif.got.tgz:219139.got - 2010.06.28 00:19:55.
