data_PCOD8101511
_publ_section_title
;
Structure prediction by ZEFSAII (Michael W. Deem and Ramdas Pophale) SiO2 
 PCOD8101511
Probable space group: C 2/M
;
_chemical_formula_sum "Si O2"
_cell_formula_units_Z 56
_cell_length_a 19.451620
_cell_length_b 12.906257
_cell_length_c 11.042332
_cell_angle_alpha 90.000000
_cell_angle_beta 97.888658
_cell_angle_gamma 90.000000
_cell_volume 2745.917191
_symmetry_space_group_name_H-M "C 2/M"
_symmetry_group_IT_number 12
_symmetry_cell_setting 'monoclinic'
loop_
_space_group_symop_operation_xyz
x,y,z
-x,y,-z
-x,-y,-z
x,-y,z
1/2+x,1/2+y,z
1/2-x,1/2+y,-z
1/2-x,1/2-y,-z
1/2+x,1/2-y,z
loop_
_atom_site_type_symbol
_atom_site_label
_atom_site_fract_x
_atom_site_fract_y
_atom_site_fract_z
Si Si1 0.982013 0.115584 0.634982
Si Si2 0.363598 0.115311 0.351799
Si Si3 0.554151 0.235878 0.814816
Si Si4 0.640137 0.769184 0.400165
Si Si5 0.711624 0.617161 0.263681
Si Si6 0.328016 0.744613 0.966922
Si Si7 0.916094 0.619146 0.828910
O O1 0.914167 0.179977 0.641962
O O2 0.000000 0.122222 0.500000
O O3 0.042041 0.161350 0.733494
O O4 0.968077 0.000000 0.675033
O O5 0.423930 0.146589 0.274439
O O6 0.356963 0.195070 0.461532
O O7 0.293503 0.115332 0.256152
O O8 0.379862 0.000000 0.405663
O O9 0.485653 0.189761 0.865180
O O10 0.615559 0.276019 0.915831
O O11 0.707222 0.704494 0.370342
O O12 0.618123 0.866897 0.312250
O O13 0.687504 0.500000 0.294795
O O14 0.670295 0.653314 0.133490
O O15 0.355616 0.849930 0.909839
O O16 0.250000 0.750000 0.000000
O O17 0.936163 0.500000 0.854493
#
# Coordination Sequence:
#
# PCOD8101511 Si02
#       7
#     8   8   8   8   8   8   8
#     4  10  20  36  58  84 114 154 199 242 298 359
#     4  11  21  35  60  90 123 162 201 245 308 374
#     4  11  22  39  62  91 127 162 200 259 305 366
#     4  10  20  38  60  87 123 158 198 258 302 364
#     4  10  22  39  60  85 117 163 207 251 307 365
#     4  11  23  41  62  86 124 162 207 256 304 362
#     4  10  23  40  63  94 125 161 204 254 313 368
#
# _framework density 20.393913999999999
#
# number of rings (size 3 to 8) (size 9 to 14) (size 15 to 20)
#    0.000    1.571    2.857    2.143    0.000    2.857 
#    0.000    2.143    0.000    6.000    0.000    0.000 
#    0.000    0.000    0.000    0.000    0.000    0.000 
#
# Total GULP energy -346949.887725 kJ/mol
# GULP energy per Si atom -12391.067419 kJ/mol
# Density = 2.034750 g / cm^3
# Si number density = 20.393914 Si / 1000 Ang^3
#
#
#
# Elastic Constant Matrix: (Units=GPa)
#
#
# Indices 1 2 3 4 5 6 
#
# 1 97.0699 30.0176 33.2886 0.0000 -5.1028 0.0000
# 2 30.0176 124.3769 51.8281 0.0000 2.7854 0.0000
# 3 33.2886 51.8281 102.3890 0.0000 6.9986 0.0000
# 4 0.0000 0.0000 0.0000 22.9547 0.0000 -4.7326
# 5 -5.1028 2.7854 6.9986 0.0000 34.3475 0.0000
# 6 0.0000 0.0000 0.0000 -4.7326 0.0000 42.5030
#
#
#
# Elastic Compliance Matrix: (Units=1/GPa)
#
#
# Indices 1 2 3 4 5 6 
#
# 1 0.012060 -0.001598 -0.003289 0.000000 0.002592 0.000000
# 2 -0.001598 0.010403 -0.004738 0.000000 -0.000116 0.000000
# 3 -0.003289 -0.004738 0.013429 0.000000 -0.002841 0.000000
# 4 0.000000 0.000000 0.000000 0.044588 0.000000 0.004965
# 5 0.002592 -0.000116 -0.002841 0.000000 0.030087 0.000000
# 6 0.000000 0.000000 0.000000 0.004965 0.000000 0.024081
#
#
# Mechanical properties :
#
#
# Convention : Reuss Voigt Hill
#
# Bulk Modulus (GPa) = 60.09421 61.56716 60.83069
# Shear Modulus (GPa) = 31.35869 33.87447 32.61658
#
# Velocity S-wave (km/s) = 3.92554 4.07997 4.00350
# Velocity P-wave (km/s) = 7.07653 7.24219 7.15984
#
# Compressibility (1/GPa) = 0.01664054
#
# Stress axis : x y z
#
# Youngs Moduli (GPa) = 82.91690 96.12776 74.46725
#
# Poissons Ratio (x) = 0.15362 0.24494
# Poissons Ratio (y) = 0.13251 0.35285
# Poissons Ratio (z) = 0.27273 0.45548
#
# Static dielectric constant tensor:
#      x y z
#    x 4.553920 0.000000 -0.967930 
#    y 0.000000 3.764930 0.000000 
#    z -0.967930 0.000000 4.937960 
# 
# 
# High freq. dielectric constant tensor:
#      x y z
#    x 1.803320 0.000000 -0.003050 
#    y 0.000000 1.790690 0.000000 
#    z -0.003050 0.000000 1.797990 
# 
# From -- ./inp_files/164979.got.cif
#   From: 2010.06.25/outbox.cif.g09.slc.cpg/sg12_83_cif.got.tgz:164979.got - 2010.06.28 00:19:55.
