data_PCOD8101412
_publ_section_title
;
Structure prediction by ZEFSAII (Michael W. Deem and Ramdas Pophale) SiO2 
 PCOD8101412
Probable space group: C 2/M
;
_chemical_formula_sum "Si O2"
_cell_formula_units_Z 64
_cell_length_a 18.509970
_cell_length_b 8.973002
_cell_length_c 32.409191
_cell_angle_alpha 90.000000
_cell_angle_beta 142.176301
_cell_angle_gamma 90.000000
_cell_volume 3300.941097
_symmetry_space_group_name_H-M "C 2/M"
_symmetry_group_IT_number 12
_symmetry_cell_setting 'monoclinic'
loop_
_space_group_symop_operation_xyz
x,y,z
-x,y,-z
-x,-y,-z
x,-y,z
1/2+x,1/2+y,z
1/2-x,1/2+y,-z
1/2-x,1/2-y,-z
1/2+x,1/2-y,z
loop_
_atom_site_type_symbol
_atom_site_label
_atom_site_fract_x
_atom_site_fract_y
_atom_site_fract_z
Si Si1 0.103183 0.175959 0.181196
Si Si2 0.234551 0.326785 0.820042
Si Si3 0.039470 0.672467 0.311109
Si Si4 0.366582 0.164361 0.951617
Si Si5 0.687736 0.322610 0.307040
Si Si6 0.124000 0.676015 0.439356
Si Si7 0.636436 0.324973 0.966671
Si Si8 0.453988 0.177277 0.435336
O O1 0.209374 0.220093 0.198511
O O2 0.129453 0.240712 0.238582
O O3 0.979708 0.240960 0.108352
O O4 0.093241 0.000000 0.179525
O O5 0.261987 0.500000 0.841811
O O6 0.096944 0.293463 0.757301
O O7 0.289246 0.223165 0.879327
O O8 0.068709 0.500000 0.317195
O O9 0.116077 0.766536 0.313916
O O10 0.069567 0.722124 0.371000
O O11 0.317854 0.000000 0.942958
O O12 0.500000 0.144666 0.000000
O O13 0.363245 0.287121 0.985353
O O14 0.686037 0.500000 0.306861
O O15 0.821576 0.262896 0.369100
O O16 0.138831 0.500000 0.450140
O O17 0.250000 0.750000 0.500000
O O18 0.037998 0.737244 0.436609
O O19 0.643481 0.500000 0.963940
O O20 0.750000 0.250000 0.000000
O O21 0.500000 0.238456 0.500000
O O22 0.454502 0.000000 0.435101
#
# Coordination Sequence:
#
# PCOD8101412 Si02
#       8
#     8   8   8   8   8   8   8   8
#     4   9  19  36  58  81 106 143 189 233 278 337
#     4  10  20  38  61  82 110 151 194 233 287 349
#     4  10  22  37  55  84 117 148 183 232 285 337
#     4  11  23  39  59  86 116 148 192 244 292 343
#     4  10  20  36  58  82 111 148 190 233 276 331
#     4  10  20  36  58  85 117 148 186 231 277 330
#     4  11  23  39  59  84 115 150 192 239 293 351
#     4   9  17  31  55  84 110 143 187 228 265 317
#
# _framework density 19.38841
#
# number of rings (size 3 to 8) (size 9 to 14) (size 15 to 20)
#    0.000    2.000    1.250    2.250    1.750    5.500 
#    0.000    1.875    0.000    3.750    0.000    0.000 
#    0.000    0.000    0.000    0.000    0.000    0.000 
#
# Total GULP energy -396801.730318 kJ/mol
# GULP energy per Si atom -12400.054072 kJ/mol
# Density = 1.934428 g / cm^3
# Si number density = 19.388410 Si / 1000 Ang^3
#
#
#
# Elastic Constant Matrix: (Units=GPa)
#
#
# Indices 1 2 3 4 5 6 
#
# 1 159.4343 32.3793 77.6452 0.0000 0.5896 0.0001
# 2 32.3793 41.9064 38.5251 0.0000 2.5240 0.0001
# 3 77.6452 38.5251 149.5188 0.0000 -7.5123 0.0000
# 4 0.0000 0.0000 0.0000 25.0071 0.0000 2.0349
# 5 0.5896 2.5240 -7.5123 0.0000 40.9953 0.0000
# 6 0.0001 0.0001 0.0000 2.0349 0.0000 33.4512
#
#
#
# Elastic Compliance Matrix: (Units=1/GPa)
#
#
# Indices 1 2 3 4 5 6 
#
# 1 0.008762 -0.003305 -0.003729 0.000000 -0.000606 0.000000
# 2 -0.003305 0.033003 -0.006951 0.000000 -0.003258 0.000000
# 3 -0.003729 -0.006951 0.010537 0.000000 0.002412 0.000000
# 4 0.000000 0.000000 0.000000 0.040188 0.000000 -0.002445
# 5 -0.000606 -0.003258 0.002412 0.000000 0.025044 0.000000
# 6 0.000000 0.000000 0.000000 -0.002445 0.000000 0.030043
#
#
# Mechanical properties :
#
#
# Convention : Reuss Voigt Hill
#
# Bulk Modulus (GPa) = 41.09928 71.99540 56.54734
# Shear Modulus (GPa) = 27.22483 33.37802 30.30143
#
# Velocity S-wave (km/s) = 3.75130 4.15365 3.95759
# Velocity P-wave (km/s) = 6.32510 7.76000 7.07900
#
# Compressibility (1/GPa) = 0.02433133
#
# Stress axis : x y z
#
# Youngs Moduli (GPa) = 114.13465 30.30055 94.90782
#
# Poissons Ratio (x) = 0.10016 0.35388
# Poissons Ratio (y) = 0.37726 0.65967
# Poissons Ratio (z) = 0.42557 0.21061
#
# Static dielectric constant tensor:
#      x y z
#    x 3.616920 0.000000 -0.031450 
#    y 0.000000 3.087850 0.000000 
#    z -0.031450 0.000000 3.882840 
# 
# 
# High freq. dielectric constant tensor:
#      x y z
#    x 1.768420 0.000000 -0.000100 
#    y 0.000000 1.722390 0.000000 
#    z -0.000100 0.000000 1.772580 
# 
# From -- ./inp_files/378466.got.cif
#   From: 2010.06.25/outbox.cif.g09.slc.cpg/sg12_190_cif.got.tgz:378466.got - 2010.06.28 00:19:55.
