data_PCOD8101415
_publ_section_title
;
Structure prediction by ZEFSAII (Michael W. Deem and Ramdas Pophale) SiO2 
 PCOD8101415
Probable space group: C 2/M
;
_chemical_formula_sum "Si O2"
_cell_formula_units_Z 64
_cell_length_a 30.504553
_cell_length_b 9.026210
_cell_length_c 18.802392
_cell_angle_alpha 90.000000
_cell_angle_beta 140.461121
_cell_angle_gamma 90.000000
_cell_volume 3295.725079
_symmetry_space_group_name_H-M "C 2/M"
_symmetry_group_IT_number 12
_symmetry_cell_setting 'monoclinic'
loop_
_space_group_symop_operation_xyz
x,y,z
-x,y,-z
-x,-y,-z
x,-y,z
1/2+x,1/2+y,z
1/2-x,1/2+y,-z
1/2-x,1/2-y,-z
1/2+x,1/2-y,z
loop_
_atom_site_type_symbol
_atom_site_label
_atom_site_fract_x
_atom_site_fract_y
_atom_site_fract_z
Si Si1 0.266616 0.328178 0.947070
Si Si2 0.788004 0.327340 0.444352
Si Si3 0.979896 0.669273 0.315538
Si Si4 0.344247 0.826880 0.667808
Si Si5 0.097128 0.328424 0.926187
Si Si6 0.611429 0.674228 0.531699
Si Si7 0.126910 0.669550 0.695735
Si Si8 0.990244 0.676012 0.908262
O O1 0.276154 0.500000 0.976332
O O2 0.205422 0.300750 0.815070
O O3 0.250000 0.250000 0.000000
O O4 0.334223 0.266583 0.993880
O O5 0.781895 0.500000 0.420594
O O6 0.711908 0.262639 0.357864
O O7 0.834717 0.295704 0.572151
O O8 0.821765 0.249163 0.419003
O O9 0.005179 0.500000 0.356419
O O10 0.951215 0.696763 0.201660
O O11 0.920203 0.709017 0.296116
O O12 0.043641 0.777847 0.404723
O O13 0.418821 0.766522 0.784903
O O14 0.334746 0.000000 0.672805
O O15 0.118297 0.500000 0.959516
O O16 0.054818 0.271075 0.941737
O O17 0.619989 0.500000 0.537956
O O18 0.604641 0.723514 0.604642
O O19 0.115503 0.500000 0.657522
O O20 0.988178 0.500000 0.906181
O O21 0.000000 0.739716 0.000000
#
# Coordination Sequence:
#
# PCOD8101415 Si02
#       8
#     8   8   8   8   8   8   8   8
#     4  11  22  39  62  88 117 151 196 244 290 344
#     4  10  20  36  58  82 111 151 189 232 290 353
#     4  10  20  38  60  80 111 156 197 235 288 357
#     4   9  18  35  59  84 111 146 192 239 281 336
#     4  10  20  37  61  89 119 158 201 237 286 349
#     4  12  25  37  54  85 118 147 190 246 295 346
#     4  10  22  40  59  80 112 156 195 232 290 357
#     4   9  18  33  56  86 119 151 187 234 287 340
#
# _framework density 19.419096
#
# number of rings (size 3 to 8) (size 9 to 14) (size 15 to 20)
#    0.000    1.875    1.250    3.000    0.000    7.000 
#    0.000    1.875    0.000    0.750    0.000    0.000 
#    0.000    0.000    0.000    0.000    0.000    0.000 
#
# Total GULP energy -396944.696591 kJ/mol
# GULP energy per Si atom -12404.521768 kJ/mol
# Density = 1.937490 g / cm^3
# Si number density = 19.419096 Si / 1000 Ang^3
#
#
#
# Elastic Constant Matrix: (Units=GPa)
#
#
# Indices 1 2 3 4 5 6 
#
# 1 138.7212 44.8755 42.5459 0.0000 1.9473 0.0000
# 2 44.8755 77.5986 20.6392 0.0000 8.0470 0.0000
# 3 42.5459 20.6392 51.2380 0.0000 12.5216 0.0000
# 4 0.0000 0.0000 0.0000 27.9356 0.0000 7.7420
# 5 1.9473 8.0470 12.5216 0.0000 32.8367 0.0000
# 6 0.0000 0.0000 0.0000 7.7420 0.0000 31.9288
#
#
#
# Elastic Compliance Matrix: (Units=1/GPa)
#
#
# Indices 1 2 3 4 5 6 
#
# 1 0.011218 -0.004649 -0.008334 0.000000 0.003652 0.000000
# 2 -0.004649 0.016423 -0.002028 0.000000 -0.002976 0.000000
# 3 -0.008334 -0.002028 0.029788 0.000000 -0.010368 0.000000
# 4 0.000000 0.000000 0.000000 0.038375 0.000000 -0.009305
# 5 0.003652 -0.002976 -0.010368 0.000000 0.034920 0.000000
# 6 0.000000 0.000000 0.000000 -0.009305 0.000000 0.033576
#
#
# Mechanical properties :
#
#
# Convention : Reuss Voigt Hill
#
# Bulk Modulus (GPa) = 36.48838 53.74212 45.11525
# Shear Modulus (GPa) = 24.57505 29.17337 26.87421
#
# Velocity S-wave (km/s) = 3.56126 3.88016 3.72413
# Velocity P-wave (km/s) = 5.97836 6.91442 6.46336
#
# Compressibility (1/GPa) = 0.02740598
#
# Stress axis : x y z
#
# Youngs Moduli (GPa) = 89.14567 60.88876 33.57076
#
# Poissons Ratio (x) = 0.28308 0.27979
# Poissons Ratio (y) = 0.41445 0.06808
# Poissons Ratio (z) = 0.74298 0.12347
#
# Static dielectric constant tensor:
#      x y z
#    x 3.694670 0.000000 0.048450 
#    y 0.000000 3.425630 0.000000 
#    z 0.048450 0.000000 3.593370 
# 
# 
# High freq. dielectric constant tensor:
#      x y z
#    x 1.769280 0.000000 0.004610 
#    y 0.000000 1.737950 0.000000 
#    z 0.004610 0.000000 1.758090 
# 
# From -- ./inp_files/295823.got.cif
#   From: 2010.06.25/outbox.cif.g09.slc.cpg/sg12_148_cif.got.tgz:295823.got - 2010.06.28 00:19:55.
