data_PCOD8101980
_publ_section_title
;
Structure prediction by ZEFSAII (Michael W. Deem and Ramdas Pophale) SiO2 
 PCOD8101980
Probable space group: C 2/M
;
_chemical_formula_sum "Si O2"
_cell_formula_units_Z 48
_cell_length_a 31.429632
_cell_length_b 8.585463
_cell_length_c 9.547827
_cell_angle_alpha 90.000000
_cell_angle_beta 103.669559
_cell_angle_gamma 90.000000
_cell_volume 2503.389948
_symmetry_space_group_name_H-M "C 2/M"
_symmetry_group_IT_number 12
_symmetry_cell_setting 'monoclinic'
loop_
_space_group_symop_operation_xyz
x,y,z
-x,y,-z
-x,-y,-z
x,-y,z
1/2+x,1/2+y,z
1/2-x,1/2+y,-z
1/2-x,1/2-y,-z
1/2+x,1/2-y,z
loop_
_atom_site_type_symbol
_atom_site_label
_atom_site_fract_x
_atom_site_fract_y
_atom_site_fract_z
Si Si1 0.615507 0.182078 0.897519
Si Si2 0.686315 0.178434 0.171765
Si Si3 0.859233 0.818707 0.370656
Si Si4 0.265970 0.181907 0.366275
Si Si5 0.389794 0.178830 0.670175
Si Si6 0.049996 0.181825 0.056554
O O1 0.618808 0.224753 0.738539
O O2 0.606178 0.000000 0.911481
O O3 0.660933 0.226833 0.010698
O O4 0.575432 0.275289 0.934446
O O5 0.728655 0.288004 0.220678
O O6 0.654854 0.205587 0.279647
O O7 0.701997 0.000000 0.177586
O O8 0.809598 0.766160 0.351453
O O9 0.887933 0.783630 0.530236
O O10 0.860780 0.000000 0.337180
O O11 0.250000 0.250000 0.500000
O O12 0.275604 0.000000 0.389392
O O13 0.431131 0.226840 0.795467
O O14 0.394906 0.000000 0.629679
O O15 0.054816 0.000000 0.090118
O O16 0.000000 0.232954 0.000000
#
# Coordination Sequence:
#
# PCOD8101980 Si02
#       6
#     8   8   8   8   8   8
#     4  10  22  40  61  85 118 153 191 240 292 347
#     4   9  19  36  57  81 111 151 197 241 286 337
#     4  12  24  38  58  84 118 156 194 241 295 345
#     4  12  23  35  55  82 115 154 200 245 286 336
#     4  10  20  36  60  86 116 152 194 238 285 345
#     4  10  21  39  64  92 120 150 188 233 283 346
#
# _framework density 19.174001000000001
#
# number of rings (size 3 to 8) (size 9 to 14) (size 15 to 20)
#    0.000    1.500    1.667    5.500    0.000    5.333 
#    0.000    0.833    0.000    5.000    0.000    0.000 
#    0.000    0.000    0.000    0.000    0.000    0.000 
#
# Total GULP energy -297725.237906 kJ/mol
# GULP energy per Si atom -12405.218246 kJ/mol
# Density = 1.913036 g / cm^3
# Si number density = 19.174001 Si / 1000 Ang^3
#
#
#
# Elastic Constant Matrix: (Units=GPa)
#
#
# Indices 1 2 3 4 5 6 
#
# 1 99.5166 15.5733 37.5076 0.0000 15.2656 0.0000
# 2 15.5733 53.5833 8.1346 0.0000 10.4423 0.0000
# 3 37.5076 8.1346 100.3250 0.0000 -0.6978 0.0000
# 4 0.0000 0.0000 0.0000 34.1504 0.0000 2.1126
# 5 15.2656 10.4423 -0.6978 0.0000 20.7725 0.0000
# 6 0.0000 0.0000 0.0000 2.1126 0.0000 29.1428
#
#
#
# Elastic Compliance Matrix: (Units=1/GPa)
#
#
# Indices 1 2 3 4 5 6 
#
# 1 0.013619 -0.001339 -0.005049 0.000000 -0.009505 0.000000
# 2 -0.001339 0.021133 -0.001280 0.000000 -0.009682 0.000000
# 3 -0.005049 -0.001280 0.011992 0.000000 0.004757 0.000000
# 4 0.000000 0.000000 0.000000 0.029414 0.000000 -0.002132
# 5 -0.009505 -0.009682 0.004757 0.000000 0.060153 0.000000
# 6 0.000000 0.000000 0.000000 -0.002132 0.000000 0.034468
#
#
# Mechanical properties :
#
#
# Convention : Reuss Voigt Hill
#
# Bulk Modulus (GPa) = 31.84002 41.76175 36.80088
# Shear Modulus (GPa) = 25.43416 29.62711 27.53064
#
# Velocity S-wave (km/s) = 3.64606 3.93513 3.79335
# Velocity P-wave (km/s) = 5.86232 6.51726 6.19845
#
# Compressibility (1/GPa) = 0.03140702
#
# Stress axis : x y z
#
# Youngs Moduli (GPa) = 73.42548 47.31934 83.38763
#
# Poissons Ratio (x) = 0.06338 0.42104
# Poissons Ratio (y) = 0.09835 0.10674
# Poissons Ratio (z) = 0.37074 0.06057
#
# Static dielectric constant tensor:
#      x y z
#    x 3.460300 0.000000 0.145660 
#    y 0.000000 3.579650 0.000000 
#    z 0.145660 0.000000 3.557400 
# 
# 
# High freq. dielectric constant tensor:
#      x y z
#    x 1.730560 0.000000 0.010670 
#    y 0.000000 1.756680 0.000000 
#    z 0.010670 0.000000 1.748230 
# 
# From -- ./inp_files/108651.got.cif
#   From: 2010.06.25/outbox.cif.g09.slc.cpg/sg12_55_cif.got.tgz:108651.got - 2010.06.28 00:19:55.
