data_PCOD8101442
_publ_section_title
;
Structure prediction by ZEFSAII (Michael W. Deem and Ramdas Pophale) SiO2 
 PCOD8101442
Probable space group: C 2/M
;
_chemical_formula_sum "Si O2"
_cell_formula_units_Z 64
_cell_length_a 18.514174
_cell_length_b 8.818374
_cell_length_c 30.028530
_cell_angle_alpha 90.000000
_cell_angle_beta 137.232446
_cell_angle_gamma 90.000000
_cell_volume 3328.994933
_symmetry_space_group_name_H-M "C 2/M"
_symmetry_group_IT_number 12
_symmetry_cell_setting 'monoclinic'
loop_
_space_group_symop_operation_xyz
x,y,z
-x,y,-z
-x,-y,-z
x,-y,z
1/2+x,1/2+y,z
1/2-x,1/2+y,-z
1/2-x,1/2-y,-z
1/2+x,1/2-y,z
loop_
_atom_site_type_symbol
_atom_site_label
_atom_site_fract_x
_atom_site_fract_y
_atom_site_fract_z
Si Si1 0.834693 0.678090 0.637254
Si Si2 0.945667 0.320780 0.598424
Si Si3 0.410085 0.176790 0.924738
Si Si4 0.902363 0.821760 0.486069
Si Si5 0.019592 0.677378 0.216604
Si Si6 0.672623 0.329665 0.831099
Si Si7 0.842381 0.827412 0.279901
Si Si8 0.378884 0.322203 0.818519
O O1 0.853292 0.500000 0.643732
O O2 0.880202 0.745406 0.611263
O O3 0.710357 0.717963 0.588283
O O4 0.901521 0.741854 0.709281
O O5 0.938428 0.500000 0.593150
O O6 0.896229 0.254961 0.531241
O O7 0.067899 0.271241 0.655921
O O8 0.295882 0.210801 0.895282
O O9 0.425122 0.273770 0.887119
O O10 0.418430 0.000000 0.915538
O O11 0.500000 0.227075 0.000000
O O12 0.000000 0.759153 0.500000
O O13 0.916005 0.000000 0.499512
O O14 0.037014 0.500000 0.215445
O O15 0.035926 0.773785 0.179587
O O16 0.897751 0.706989 0.175081
O O17 0.647720 0.500000 0.836652
O O18 0.644872 0.315879 0.766877
O O19 0.729204 0.763084 0.243390
O O20 0.850912 0.000000 0.300778
O O21 0.358332 0.500000 0.809103
#
# Coordination Sequence:
#
# PCOD8101442 Si02
#       8
#     8   8   8   8   8   8   8   8
#     4   9  20  37  56  80 110 148 191 235 288 348
#     4  11  21  36  57  82 112 144 188 242 295 349
#     4   9  19  39  65  90 119 157 196 233 280 341
#     4  10  22  39  57  78 107 148 195 241 293 354
#     4  11  21  36  58  83 118 157 193 236 291 345
#     4   9  18  34  57  87 117 145 187 237 280 333
#     4  10  20  36  58  83 111 149 193 235 287 349
#     4  11  23  37  56  87 123 153 190 239 288 336
#
# _framework density 19.225021000000002
#
# number of rings (size 3 to 8) (size 9 to 14) (size 15 to 20)
#    0.000    2.000    1.250    3.375    1.750    2.500 
#    0.000    2.500    0.000    0.000    0.000    0.000 
#    0.000    0.000    0.000    0.000    0.000    0.000 
#
# Total GULP energy -396873.764303 kJ/mol
# GULP energy per Si atom -12402.305134 kJ/mol
# Density = 1.918126 g / cm^3
# Si number density = 19.225021 Si / 1000 Ang^3
#
#
#
# Elastic Constant Matrix: (Units=GPa)
#
#
# Indices 1 2 3 4 5 6 
#
# 1 104.5676 33.6100 41.4822 0.0000 2.6179 0.0000
# 2 33.6100 49.9877 21.6419 -0.0001 -0.6387 0.0001
# 3 41.4822 21.6419 104.7042 0.0000 11.8310 0.0000
# 4 0.0000 -0.0001 0.0000 27.5479 0.0000 0.0221
# 5 2.6179 -0.6387 11.8310 0.0000 20.2046 0.0000
# 6 0.0000 0.0001 0.0000 0.0221 0.0000 30.0049
#
#
#
# Elastic Compliance Matrix: (Units=1/GPa)
#
#
# Indices 1 2 3 4 5 6 
#
# 1 0.013449 -0.007380 -0.003833 0.000000 0.000269 0.000000
# 2 -0.007380 0.026266 -0.002899 0.000000 0.003484 0.000000
# 3 -0.003833 -0.002899 0.012446 0.000000 -0.006883 0.000000
# 4 0.000000 0.000000 0.000000 0.036300 0.000000 -0.000027
# 5 0.000269 0.003484 -0.006883 0.000000 0.053599 0.000000
# 6 0.000000 0.000000 0.000000 -0.000027 0.000000 0.033328
#
#
# Mechanical properties :
#
#
# Convention : Reuss Voigt Hill
#
# Bulk Modulus (GPa) = 41.77516 50.30306 46.03911
# Shear Modulus (GPa) = 23.63025 26.38652 25.00838
#
# Velocity S-wave (km/s) = 3.50971 3.70876 3.61061
# Velocity P-wave (km/s) = 6.18069 6.67548 6.43284
#
# Compressibility (1/GPa) = 0.02393767
#
# Stress axis : x y z
#
# Youngs Moduli (GPa) = 74.35427 38.07142 80.34436
#
# Poissons Ratio (x) = 0.28095 0.30799
# Poissons Ratio (y) = 0.54871 0.23293
# Poissons Ratio (z) = 0.28503 0.11037
#
# Static dielectric constant tensor:
#      x y z
#    x 3.550300 0.000000 0.081710 
#    y 0.000000 3.353020 0.000000 
#    z 0.081710 0.000000 3.520380 
# 
# 
# High freq. dielectric constant tensor:
#      x y z
#    x 1.750170 0.000000 0.007600 
#    y 0.000000 1.735670 0.000000 
#    z 0.007600 0.000000 1.741850 
# 
# From -- ./inp_files/378275.got.cif
#   From: 2010.06.25/outbox.cif.g09.slc.cpg/sg12_190_cif.got.tgz:378275.got - 2010.06.28 00:19:55.
