data_PCOD8101820
_publ_section_title
;
Structure prediction by ZEFSAII (Michael W. Deem and Ramdas Pophale) SiO2 
 PCOD8101820
Probable space group: C 2/M
;
_chemical_formula_sum "Si O2"
_cell_formula_units_Z 48
_cell_length_a 24.495741
_cell_length_b 9.297912
_cell_length_c 23.580474
_cell_angle_alpha 90.000000
_cell_angle_beta 26.123441
_cell_angle_gamma 90.000000
_cell_volume 2364.741518
_symmetry_space_group_name_H-M "C 2/M"
_symmetry_group_IT_number 12
_symmetry_cell_setting 'monoclinic'
loop_
_space_group_symop_operation_xyz
x,y,z
-x,y,-z
-x,-y,-z
x,-y,z
1/2+x,1/2+y,z
1/2-x,1/2+y,-z
1/2-x,1/2-y,-z
1/2+x,1/2-y,z
loop_
_atom_site_type_symbol
_atom_site_label
_atom_site_fract_x
_atom_site_fract_y
_atom_site_fract_z
Si Si1 0.212279 0.335084 0.161405
Si Si2 0.666148 0.665947 0.491821
Si Si3 0.476646 0.162974 0.460350
Si Si4 0.442318 0.165201 0.993936
Si Si5 0.444202 0.836116 0.229786
Si Si6 0.440533 0.331054 0.783205
O O1 0.241326 0.500000 0.117467
O O2 0.100726 0.325009 0.308970
O O3 0.327726 0.265656 0.085506
O O4 0.175241 0.246214 0.139476
O O5 0.657431 0.500000 0.483988
O O6 0.634563 0.751452 0.464541
O O7 0.805898 0.707944 0.378619
O O8 0.570018 0.705364 0.631070
O O9 0.500000 0.231996 0.500000
O O10 0.430657 0.000000 0.509495
O O11 0.397094 0.000000 0.040977
O O12 0.500000 0.216515 0.000000
O O13 0.543689 0.181956 0.849340
O O14 0.543590 0.733266 0.168458
O O15 0.472665 0.000000 0.221493
O O16 0.412703 0.500000 0.812119
#
# Coordination Sequence:
#
# PCOD8101820 Si02
#       6
#     8   8   8   8   8   8
#     4  10  21  38  59  82 112 148 186 232 280 328
#     4   9  19  34  54  84 115 144 182 227 276 332
#     4   9  19  34  53  80 112 146 183 227 278 328
#     4  10  23  41  59  81 112 150 190 232 275 325
#     4  10  21  37  57  83 115 150 187 228 278 331
#     4  10  20  36  59  87 115 144 184 231 281 335
#
# _framework density 20.298202
#
# number of rings (size 3 to 8) (size 9 to 14) (size 15 to 20)
#    0.000    2.333    0.000    1.500    2.333    4.000 
#    0.000    0.000    0.000    0.000    0.000    0.000 
#    0.000    0.000    0.000    0.000    0.000    0.000 
#
# Total GULP energy -297630.814889 kJ/mol
# GULP energy per Si atom -12401.283954 kJ/mol
# Density = 2.025200 g / cm^3
# Si number density = 20.298202 Si / 1000 Ang^3
#
#
#
# Elastic Constant Matrix: (Units=GPa)
#
#
# Indices 1 2 3 4 5 6 
#
# 1 159.2087 72.9873 31.3303 0.0024 -9.4311 -0.0009
# 2 72.9873 100.4522 33.0244 0.0053 -17.6461 -0.0056
# 3 31.3303 33.0244 33.4859 0.0034 -15.8859 -0.0020
# 4 0.0024 0.0053 0.0034 22.7783 -0.0011 -6.5728
# 5 -9.4311 -17.6461 -15.8859 -0.0011 30.9099 0.0006
# 6 -0.0009 -0.0056 -0.0020 -6.5728 0.0006 42.5622
#
#
#
# Elastic Compliance Matrix: (Units=1/GPa)
#
#
# Indices 1 2 3 4 5 6 
#
# 1 0.009814 -0.006166 -0.004430 0.000001 -0.002803 -0.000001
# 2 -0.006166 0.018642 -0.011187 -0.000001 0.003012 0.000002
# 3 -0.004430 -0.011187 0.054709 -0.000004 0.020379 0.000000
# 4 0.000001 -0.000001 -0.000004 0.045949 -0.000001 0.007096
# 5 -0.002803 0.003012 0.020379 -0.000001 0.043690 0.000001
# 6 -0.000001 0.000002 0.000000 0.007096 0.000001 0.024591
#
#
# Mechanical properties :
#
#
# Convention : Reuss Voigt Hill
#
# Bulk Modulus (GPa) = 25.25404 63.09232 44.17318
# Shear Modulus (GPa) = 19.67248 29.63706 24.65477
#
# Velocity S-wave (km/s) = 3.11653 3.82525 3.48893
# Velocity P-wave (km/s) = 5.04171 7.11760 6.16762
#
# Compressibility (1/GPa) = 0.03959763
#
# Stress axis : x y z
#
# Youngs Moduli (GPa) = 101.89732 53.64125 18.27840
#
# Poissons Ratio (x) = 0.33078 0.08098
# Poissons Ratio (y) = 0.62835 0.20448
# Poissons Ratio (z) = 0.45144 0.60009
#
# Static dielectric constant tensor:
#      x y z
#    x 3.717760 0.000000 0.057860 
#    y 0.000000 3.698620 0.000000 
#    z 0.057860 0.000000 3.637410 
# 
# 
# High freq. dielectric constant tensor:
#      x y z
#    x 1.798310 0.000000 0.001540 
#    y 0.000000 1.790860 0.000000 
#    z 0.001540 0.000000 1.787420 
# 
# From -- ./inp_files/172142.got.cif
#   From: 2010.06.25/outbox.cif.g09.slc.cpg/sg12_87_cif.got.tgz:172142.got - 2010.06.28 00:19:55.
