data_PCOD8101656
_publ_section_title
;
Structure prediction by ZEFSAII (Michael W. Deem and Ramdas Pophale) SiO2 
 PCOD8101656
Probable space group: C 2/M
;
_chemical_formula_sum "Si O2"
_cell_formula_units_Z 48
_cell_length_a 30.752158
_cell_length_b 8.825488
_cell_length_c 17.802641
_cell_angle_alpha 90.000000
_cell_angle_beta 29.853098
_cell_angle_gamma 90.000000
_cell_volume 2405.107003
_symmetry_space_group_name_H-M "C 2/M"
_symmetry_group_IT_number 12
_symmetry_cell_setting 'monoclinic'
loop_
_space_group_symop_operation_xyz
x,y,z
-x,y,-z
-x,-y,-z
x,-y,z
1/2+x,1/2+y,z
1/2-x,1/2+y,-z
1/2-x,1/2-y,-z
1/2+x,1/2-y,z
loop_
_atom_site_type_symbol
_atom_site_label
_atom_site_fract_x
_atom_site_fract_y
_atom_site_fract_z
Si Si1 0.576249 0.179552 0.665502
Si Si2 0.402416 0.825183 0.673943
Si Si3 0.916321 0.678051 0.174355
Si Si4 0.253073 0.178779 0.174920
Si Si5 0.241563 0.179494 0.673506
Si Si6 0.906149 0.319827 0.837319
O O1 0.565675 0.229839 0.767531
O O2 0.666082 0.242486 0.495849
O O3 0.495006 0.247355 0.740154
O O4 0.575550 0.000000 0.661266
O O5 0.500000 0.804024 0.500000
O O6 0.342225 0.729299 0.708684
O O7 0.394595 0.759569 0.769934
O O8 0.373309 0.000000 0.713435
O O9 0.896302 0.500000 0.197976
O O10 0.832776 0.770031 0.272338
O O11 0.000000 0.723692 0.000000
O O12 0.278313 0.251041 0.215979
O O13 0.256625 0.000000 0.178733
O O14 0.323756 0.236985 0.008629
O O15 0.242884 0.000000 0.678045
O O16 0.912270 0.500000 0.827192
#
# Coordination Sequence:
#
# PCOD8101656 Si02
#       6
#     8   8   8   8   8   8
#     4   9  18  34  56  81 108 141 181 222 267 321
#     4  10  20  36  59  83 109 143 181 222 271 325
#     4  10  20  36  59  83 109 143 181 222 271 325
#     4  11  22  36  56  81 111 145 182 225 270 319
#     4  11  22  36  56  81 111 145 182 225 270 319
#     4   9  18  34  56  81 108 141 181 222 267 321
#
# _framework density 19.957532
#
# number of rings (size 3 to 8) (size 9 to 14) (size 15 to 20)
#    0.000    2.000    0.000    4.000    0.000    6.000 
#    0.000    1.667    0.000    7.000    0.000    0.000 
#    0.000    0.000    0.000    0.000    0.000    0.000 
#
# Total GULP energy -297694.674978 kJ/mol
# GULP energy per Si atom -12403.944791 kJ/mol
# Density = 1.991211 g / cm^3
# Si number density = 19.957532 Si / 1000 Ang^3
#
#
#
# Elastic Constant Matrix: (Units=GPa)
#
#
# Indices 1 2 3 4 5 6 
#
# 1 82.6577 11.8036 6.2965 0.0000 -1.8053 0.0000
# 2 11.8036 38.6658 18.9592 0.0015 -3.2774 0.0003
# 3 6.2965 18.9592 82.9430 -0.0008 2.4594 0.0005
# 4 0.0000 0.0015 -0.0008 22.6310 0.0007 -2.5613
# 5 -1.8053 -3.2774 2.4594 0.0007 44.8081 -0.0004
# 6 0.0000 0.0003 0.0005 -2.5613 -0.0004 31.3951
#
#
#
# Elastic Compliance Matrix: (Units=1/GPa)
#
#
# Indices 1 2 3 4 5 6 
#
# 1 0.012653 -0.003793 -0.000101 0.000000 0.000238 0.000000
# 2 -0.003793 0.030547 -0.006767 -0.000002 0.002453 0.000000
# 3 -0.000101 -0.006767 0.013648 0.000001 -0.001248 0.000000
# 4 0.000000 -0.000002 0.000001 0.044599 -0.000001 0.003639
# 5 0.000238 0.002453 -0.001248 -0.000001 0.022575 0.000000
# 6 0.000000 0.000000 0.000000 0.003639 0.000000 0.032149
#
#
# Mechanical properties :
#
#
# Convention : Reuss Voigt Hill
#
# Bulk Modulus (GPa) = 28.14866 30.93171 29.54018
# Shear Modulus (GPa) = 26.40844 30.91400 28.66122
#
# Velocity S-wave (km/s) = 3.64157 3.93999 3.79372
# Velocity P-wave (km/s) = 5.64059 6.01917 5.83295
#
# Compressibility (1/GPa) = 0.03552567
#
# Stress axis : x y z
#
# Youngs Moduli (GPa) = 79.03522 32.73683 73.27098
#
# Poissons Ratio (x) = 0.12417 0.00737
# Poissons Ratio (y) = 0.29978 0.49584
# Poissons Ratio (z) = 0.00795 0.22154
#
# Static dielectric constant tensor:
#      x y z
#    x 3.807530 0.000000 0.054190 
#    y 0.000000 3.247180 0.000000 
#    z 0.054190 0.000000 3.855560 
# 
# 
# High freq. dielectric constant tensor:
#      x y z
#    x 1.797370 0.000000 0.002470 
#    y 0.000000 1.739570 0.000000 
#    z 0.002470 0.000000 1.795880 
# 
# From -- ./inp_files/274056.got.cif
#   From: 2010.06.25/outbox.cif.g09.slc.cpg/sg12_138_cif.got.tgz:274056.got - 2010.06.28 00:19:55.
