data_PCOD8101246
_publ_section_title
;
Structure prediction by ZEFSAII (Michael W. Deem and Ramdas Pophale) SiO2 
 PCOD8101246
Probable space group: C 2/M
;
_chemical_formula_sum "Si O2"
_cell_formula_units_Z 64
_cell_length_a 14.617495
_cell_length_b 8.602740
_cell_length_c 25.975489
_cell_angle_alpha 90.000000
_cell_angle_beta 90.318495
_cell_angle_gamma 90.000000
_cell_volume 3266.380495
_symmetry_space_group_name_H-M "C 2/M"
_symmetry_group_IT_number 12
_symmetry_cell_setting 'monoclinic'
loop_
_space_group_symop_operation_xyz
x,y,z
-x,y,-z
-x,-y,-z
x,-y,z
1/2+x,1/2+y,z
1/2-x,1/2+y,-z
1/2-x,1/2-y,-z
1/2+x,1/2-y,z
loop_
_atom_site_type_symbol
_atom_site_label
_atom_site_fract_x
_atom_site_fract_y
_atom_site_fract_z
Si Si1 0.373391 0.318332 0.774200
Si Si2 0.562537 0.179896 0.759953
Si Si3 0.895990 0.315950 0.504597
Si Si4 0.864213 0.321303 0.127934
Si Si5 0.228442 0.683094 0.691957
Si Si6 0.483628 0.680498 0.941219
Si Si7 0.325498 0.180179 0.882949
Si Si8 0.746979 0.315609 0.422275
O O1 0.355796 0.500000 0.784860
O O2 0.475628 0.290930 0.754503
O O3 0.305127 0.250397 0.730819
O O4 0.358671 0.225172 0.826385
O O5 0.616768 0.214784 0.812493
O O6 0.628040 0.224749 0.712725
O O7 0.532000 0.000000 0.757878
O O8 0.898022 0.500000 0.509064
O O9 0.835085 0.260635 0.455687
O O10 0.848227 0.249429 0.555654
O O11 0.000000 0.251391 0.500000
O O12 0.836673 0.500000 0.120428
O O13 0.952381 0.283426 0.094703
O O14 0.781030 0.214672 0.109077
O O15 0.241534 0.500000 0.689243
O O16 0.240600 0.754009 0.635020
O O17 0.504137 0.500000 0.931640
O O18 0.379868 0.721048 0.925856
O O19 0.500000 0.727598 0.000000
O O20 0.345087 0.000000 0.892269
O O21 0.741197 0.500000 0.421943
#
# Coordination Sequence:
#
# PCOD8101246 Si02
#       8
#     8   8   8   8   8   8   8   8
#     4  11  21  36  57  82 113 150 192 238 284 339
#     4  10  20  36  57  84 113 149 189 230 284 345
#     4   9  18  33  54  80 109 144 187 235 289 338
#     4  11  22  39  64  90 118 153 192 238 289 346
#     4   9  19  36  55  78 114 152 187 228 284 343
#     4  11  25  44  65  90 119 152 193 243 295 346
#     4  12  24  39  62  89 118 154 195 236 287 348
#     4   9  18  34  55  78 108 149 189 231 282 339
#
# _framework density 19.593553
#
# number of rings (size 3 to 8) (size 9 to 14) (size 15 to 20)
#    0.000    1.750    2.500    2.250    0.000    3.250 
#    0.000    3.125    0.000    0.000    0.000    0.000 
#    0.000    0.000    0.000    0.000    0.000    0.000 
#
# Total GULP energy -396912.257646 kJ/mol
# GULP energy per Si atom -12403.508051 kJ/mol
# Density = 1.954896 g / cm^3
# Si number density = 19.593553 Si / 1000 Ang^3
#
#
#
# Elastic Constant Matrix: (Units=GPa)
#
#
# Indices 1 2 3 4 5 6 
#
# 1 83.4236 18.8131 0.9460 0.0000 1.9328 0.0000
# 2 18.8131 32.3377 28.4439 0.0000 -0.4550 0.0000
# 3 0.9460 28.4439 79.9058 0.0000 0.4143 0.0000
# 4 0.0000 0.0000 0.0000 19.9570 0.0000 -3.4993
# 5 1.9328 -0.4550 0.4143 0.0000 27.3319 0.0000
# 6 0.0000 0.0000 0.0000 -3.4993 0.0000 30.9789
#
#
#
# Elastic Compliance Matrix: (Units=1/GPa)
#
#
# Indices 1 2 3 4 5 6 
#
# 1 0.014743 -0.012299 0.004210 0.000000 -0.001311 0.000000
# 2 -0.012299 0.055306 -0.019553 0.000000 0.002087 0.000000
# 3 0.004210 -0.019553 0.019430 0.000000 -0.000918 0.000000
# 4 0.000000 0.000000 0.000000 0.051120 0.000000 0.005774
# 5 -0.001311 0.002087 -0.000918 0.000000 0.036729 0.000000
# 6 0.000000 0.000000 0.000000 0.005774 0.000000 0.032932
#
#
# Mechanical properties :
#
#
# Convention : Reuss Voigt Hill
#
# Bulk Modulus (GPa) = 29.24236 32.45258 30.84747
# Shear Modulus (GPa) = 18.05434 25.48450 21.76942
#
# Velocity S-wave (km/s) = 3.03882 3.61038 3.33686
# Velocity P-wave (km/s) = 5.22202 5.82912 5.53390
#
# Compressibility (1/GPa) = 0.03419696
#
# Stress axis : x y z
#
# Youngs Moduli (GPa) = 67.82785 18.08111 51.46752
#
# Poissons Ratio (x) = 0.22238 -0.21669
# Poissons Ratio (y) = 0.83421 1.00632
# Poissons Ratio (z) = -0.28557 0.35353
#
# Static dielectric constant tensor:
#      x y z
#    x 3.716050 0.000000 0.073070 
#    y 0.000000 3.347850 0.000000 
#    z 0.073070 0.000000 3.724080 
# 
# 
# High freq. dielectric constant tensor:
#      x y z
#    x 1.774140 0.000000 -0.000370 
#    y 0.000000 1.748390 0.000000 
#    z -0.000370 0.000000 1.760890 
# 
# From -- ./inp_files/338725.got.cif
#   From: 2010.06.25/outbox.cif.g09.slc.cpg/sg12_170_cif.got.tgz:338725.got - 2010.06.28 00:19:55.
