data_PCOD8101426
_publ_section_title
;
Structure prediction by ZEFSAII (Michael W. Deem and Ramdas Pophale) SiO2 
 PCOD8101426
Probable space group: C 2/M
;
_chemical_formula_sum "Si O2"
_cell_formula_units_Z 40
_cell_length_a 18.166305
_cell_length_b 8.888731
_cell_length_c 25.829119
_cell_angle_alpha 90.000000
_cell_angle_beta 150.196100
_cell_angle_gamma 90.000000
_cell_volume 2073.009086
_symmetry_space_group_name_H-M "C 2/M"
_symmetry_group_IT_number 12
_symmetry_cell_setting 'monoclinic'
loop_
_space_group_symop_operation_xyz
x,y,z
-x,y,-z
-x,-y,-z
x,-y,z
1/2+x,1/2+y,z
1/2-x,1/2+y,-z
1/2-x,1/2-y,-z
1/2+x,1/2-y,z
loop_
_atom_site_type_symbol
_atom_site_label
_atom_site_fract_x
_atom_site_fract_y
_atom_site_fract_z
Si Si1 0.166195 0.674189 0.901813
Si Si2 0.305389 0.675890 0.284117
Si Si3 0.854334 0.821647 0.717536
Si Si4 0.572798 0.834696 0.488668
Si Si5 0.670273 0.327249 0.105187
O O1 0.141529 0.500000 0.899508
O O2 0.265324 0.698715 0.912117
O O3 0.009234 0.751132 0.796318
O O4 0.250000 0.750000 0.000000
O O5 0.288271 0.500000 0.282466
O O6 0.200665 0.759793 0.260995
O O7 0.478904 0.720052 0.396356
O O8 0.257172 0.720091 0.197315
O O9 0.740928 0.778562 0.601582
O O10 0.868832 0.000000 0.732270
O O11 0.500000 0.848532 0.500000
O O12 0.572029 0.000000 0.461616
O O13 0.687317 0.500000 0.133641
O O14 0.500000 0.278084 0.000000
#
# Coordination Sequence:
#
# PCOD8101426 Si02
#       5
#     8   8   8   8   8
#     4  11  23  38  59  85 112 144 183 229 278 332
#     4  11  21  33  56  87 115 144 183 232 276 322
#     4  10  20  36  58  82 113 151 187 226 273 326
#     4   8  16  32  54  79 109 148 187 223 270 326
#     4  10  22  40  59  79 108 147 185 223 275 335
#
# _framework density 19.295622000000002
#
# number of rings (size 3 to 8) (size 9 to 14) (size 15 to 20)
#    0.000    2.000    0.000    5.400    0.000    8.000 
#    0.000    1.000    0.000    0.000    0.000    0.000 
#    0.000    0.000    0.000    0.000    0.000    0.000 
#
# Total GULP energy -248017.916332 kJ/mol
# GULP energy per Si atom -12400.895817 kJ/mol
# Density = 1.925170 g / cm^3
# Si number density = 19.295622 Si / 1000 Ang^3
#
#
#
# Elastic Constant Matrix: (Units=GPa)
#
#
# Indices 1 2 3 4 5 6 
#
# 1 71.2850 48.9168 60.0362 0.0001 10.2445 0.0000
# 2 48.9168 127.4763 76.4977 0.0001 3.1000 0.0000
# 3 60.0362 76.4977 163.3281 0.0014 16.4622 0.0005
# 4 0.0001 0.0001 0.0014 25.1709 0.0005 1.3074
# 5 10.2445 3.1000 16.4622 0.0005 32.9771 0.0001
# 6 0.0000 0.0000 0.0005 1.3074 0.0001 27.6373
#
#
#
# Elastic Compliance Matrix: (Units=1/GPa)
#
#
# Indices 1 2 3 4 5 6 
#
# 1 0.022928 -0.005398 -0.005510 0.000000 -0.003865 0.000000
# 2 -0.005398 0.012263 -0.004015 0.000000 0.002528 0.000000
# 3 -0.005510 -0.004015 0.010338 0.000000 -0.003072 0.000000
# 4 0.000000 0.000000 0.000000 0.039826 0.000000 -0.001884
# 5 -0.003865 0.002528 -0.003072 0.000000 0.032820 0.000000
# 6 0.000000 0.000000 0.000000 -0.001884 0.000000 0.036272
#
#
# Mechanical properties :
#
#
# Convention : Reuss Voigt Hill
#
# Bulk Modulus (GPa) = 63.75647 81.44344 72.59996
# Shear Modulus (GPa) = 26.38213 28.93296 27.65754
#
# Velocity S-wave (km/s) = 3.70166 3.87648 3.79008
# Velocity P-wave (km/s) = 7.16822 7.89532 7.54054
#
# Compressibility (1/GPa) = 0.01568468
#
# Stress axis : x y z
#
# Youngs Moduli (GPa) = 43.61401 81.54293 96.72994
#
# Poissons Ratio (x) = 0.44014 0.53302
# Poissons Ratio (y) = 0.23541 0.38833
# Poissons Ratio (z) = 0.24033 0.32736
#
# Static dielectric constant tensor:
#      x y z
#    x 3.274770 0.000000 0.257180 
#    y 0.000000 3.585320 0.000000 
#    z 0.257180 0.000000 4.014610 
# 
# 
# High freq. dielectric constant tensor:
#      x y z
#    x 1.724580 0.000000 0.008220 
#    y 0.000000 1.754570 0.000000 
#    z 0.008220 0.000000 1.770350 
# 
# From -- ./inp_files/151736.got.cif
#   From: 2010.06.25/outbox.cif.g09.slc.cpg/sg12_76_cif.got.tgz:151736.got - 2010.06.28 00:19:55.
