data_PCOD8101194
_publ_section_title
;
Structure prediction by ZEFSAII (Michael W. Deem and Ramdas Pophale) SiO2 
 PCOD8101194
Probable space group: C 2/M
;
_chemical_formula_sum "Si O2"
_cell_formula_units_Z 56
_cell_length_a 28.131371
_cell_length_b 8.883074
_cell_length_c 17.444926
_cell_angle_alpha 90.000000
_cell_angle_beta 43.794343
_cell_angle_gamma 90.000000
_cell_volume 3016.994590
_symmetry_space_group_name_H-M "C 2/M"
_symmetry_group_IT_number 12
_symmetry_cell_setting 'monoclinic'
loop_
_space_group_symop_operation_xyz
x,y,z
-x,y,-z
-x,-y,-z
x,-y,z
1/2+x,1/2+y,z
1/2-x,1/2+y,-z
1/2-x,1/2-y,-z
1/2+x,1/2-y,z
loop_
_atom_site_type_symbol
_atom_site_label
_atom_site_fract_x
_atom_site_fract_y
_atom_site_fract_z
Si Si1 0.176455 0.326743 0.939393
Si Si2 0.351550 0.821690 0.600696
Si Si3 0.831593 0.821669 0.780889
Si Si4 0.913190 0.822933 0.833933
Si Si5 0.066670 0.823549 0.623060
Si Si6 0.791856 0.676136 0.267830
Si Si7 0.318474 0.676715 0.387609
O O1 0.165172 0.500000 0.971854
O O2 0.251778 0.275049 0.879868
O O3 0.168806 0.294932 0.857680
O O4 0.117839 0.235468 0.050678
O O5 0.366308 0.762239 0.668890
O O6 0.414615 0.770723 0.474205
O O7 0.283320 0.748338 0.645269
O O8 0.344018 0.000000 0.609880
O O9 0.869339 0.762479 0.812911
O O10 0.839094 0.000000 0.758876
O O11 0.991417 0.768895 0.736177
O O12 0.908537 0.000000 0.841214
O O13 0.117818 0.784098 0.632486
O O14 0.068056 0.000000 0.601133
O O15 0.781992 0.500000 0.295359
O O16 0.835600 0.752491 0.284580
O O17 0.306807 0.500000 0.393075
O O18 0.250000 0.750000 0.500000
#
# Coordination Sequence:
#
# PCOD8101194 Si02
#       7
#     8   8   8   8   8   8   8
#     4   9  19  35  56  81 109 141 177 228 280 316
#     4  11  21  33  54  83 110 141 182 225 274 324
#     4   9  19  36  57  80 109 144 183 224 272 324
#     4  10  21  37  57  79 106 148 189 222 267 324
#     4  10  22  38  54  77 113 148 179 221 274 328
#     4  10  20  36  57  82 112 142 178 226 276 324
#     4  11  21  34  57  84 110 142 182 225 274 325
#
# _framework density 18.561518
#
# number of rings (size 3 to 8) (size 9 to 14) (size 15 to 20)
#    0.000    2.000    1.429    3.429    0.000    5.143 
#    0.000    3.571    0.000    4.286    0.000    0.000 
#    0.000    0.000    0.000    0.000    0.000    0.000 
#
# Total GULP energy -347294.183019 kJ/mol
# GULP energy per Si atom -12403.363679 kJ/mol
# Density = 1.851927 g / cm^3
# Si number density = 18.561518 Si / 1000 Ang^3
#
#
#
# Elastic Constant Matrix: (Units=GPa)
#
#
# Indices 1 2 3 4 5 6 
#
# 1 74.6587 32.9392 65.0507 0.0424 9.2324 -0.0090
# 2 32.9392 70.3527 52.9645 0.0388 4.8915 -0.0174
# 3 65.0507 52.9645 147.8072 0.0322 5.3197 -0.0156
# 4 0.0424 0.0388 0.0322 35.3450 -0.0186 6.5213
# 5 9.2324 4.8915 5.3197 -0.0186 25.5376 0.0035
# 6 -0.0090 -0.0174 -0.0156 6.5213 0.0035 25.9080
#
#
#
# Elastic Compliance Matrix: (Units=1/GPa)
#
#
# Indices 1 2 3 4 5 6 
#
# 1 0.023457 -0.004054 -0.008658 -0.000020 -0.005900 0.000006
# 2 -0.004054 0.020300 -0.005444 -0.000016 -0.001289 0.000013
# 3 -0.008658 -0.005444 0.012470 0.000006 0.001575 -0.000001
# 4 -0.000020 -0.000016 0.000006 0.029671 0.000032 -0.007468
# 5 -0.005900 -0.001289 0.001575 0.000032 0.041210 -0.000016
# 6 0.000006 0.000013 -0.000001 -0.007468 -0.000016 0.040478
#
#
# Mechanical properties :
#
#
# Convention : Reuss Voigt Hill
#
# Bulk Modulus (GPa) = 50.21359 66.08079 58.14719
# Shear Modulus (GPa) = 23.74905 26.81573 25.28239
#
# Velocity S-wave (km/s) = 3.58086 3.80504 3.69465
# Velocity P-wave (km/s) = 6.64891 7.41503 7.04239
#
# Compressibility (1/GPa) = 0.01991493
#
# Stress axis : x y z
#
# Youngs Moduli (GPa) = 42.63209 49.26121 80.19153
#
# Poissons Ratio (x) = 0.19969 0.69433
# Poissons Ratio (y) = 0.17282 0.43654
# Poissons Ratio (z) = 0.36912 0.26816
#
# Static dielectric constant tensor:
#      x y z
#    x 3.559170 0.000000 0.185110 
#    y 0.000000 3.344670 0.000010 
#    z 0.185110 0.000010 3.480580 
# 
# 
# High freq. dielectric constant tensor:
#      x y z
#    x 1.716090 0.000000 0.016800 
#    y 0.000000 1.718840 0.000000 
#    z 0.016800 0.000000 1.717920 
# 
# From -- ./inp_files/288212.got.cif
#   From: 2010.06.25/outbox.cif.g09.slc.cpg/sg12_145_cif.got.tgz:288212.got - 2010.06.28 00:19:55.
