data_PCOD8101177
_publ_section_title
;
Structure prediction by ZEFSAII (Michael W. Deem and Ramdas Pophale) SiO2 
 PCOD8101177
Probable space group: C 2/M
;
_chemical_formula_sum "Si O2"
_cell_formula_units_Z 48
_cell_length_a 20.439912
_cell_length_b 9.072381
_cell_length_c 13.953001
_cell_angle_alpha 90.000000
_cell_angle_beta 89.896300
_cell_angle_gamma 90.000000
_cell_volume 2587.421700
_symmetry_space_group_name_H-M "C 2/M"
_symmetry_group_IT_number 12
_symmetry_cell_setting 'monoclinic'
loop_
_space_group_symop_operation_xyz
x,y,z
-x,y,-z
-x,-y,-z
x,-y,z
1/2+x,1/2+y,z
1/2-x,1/2+y,-z
1/2-x,1/2-y,-z
1/2+x,1/2-y,z
loop_
_atom_site_type_symbol
_atom_site_label
_atom_site_fract_x
_atom_site_fract_y
_atom_site_fract_z
Si Si1 0.387219 0.325257 0.751196
Si Si2 0.694505 0.673746 0.561216
Si Si3 0.809682 0.667713 0.047936
Si Si4 0.565184 0.325322 0.451523
Si Si5 0.261477 0.832512 0.258804
Si Si6 0.930009 0.826292 0.957867
O O1 0.386951 0.500000 0.747628
O O2 0.423872 0.262195 0.656503
O O3 0.312134 0.269678 0.753983
O O4 0.424282 0.271848 0.847361
O O5 0.704338 0.500000 0.557192
O O6 0.750000 0.750000 0.500000
O O7 0.625161 0.721772 0.518206
O O8 0.698247 0.729708 0.669557
O O9 0.810514 0.500000 0.010974
O O10 0.801461 0.674397 0.161276
O O11 0.750000 0.750000 0.000000
O O12 0.877216 0.745508 0.022884
O O13 0.500000 0.257202 0.500000
O O14 0.558845 0.500000 0.445334
O O15 0.258184 0.000000 0.298342
O O16 0.916908 0.000000 0.964921
O O17 0.000000 0.782171 0.000000
#
# Coordination Sequence:
#
# PCOD8101177 Si02
#       6
#     8   8   8   8   8   8
#     4   9  16  32  54  77 111 150 182 223 285 341
#     4  11  21  34  56  85 112 143 188 236 278 333
#     4  11  22  37  59  84 114 150 194 243 291 346
#     4   9  18  32  53  80 109 143 183 226 274 327
#     4  10  20  36  57  81 113 151 186 230 289 342
#     4  10  21  37  59  86 117 153 192 237 290 350
#
# _framework density 18.551286000000001
#
# number of rings (size 3 to 8) (size 9 to 14) (size 15 to 20)
#    0.000    2.000    3.333    1.000    0.000    3.000 
#    0.000    3.333    0.000    2.000    0.000    0.000 
#    0.000    0.000    0.000    0.000    0.000    0.000 
#
# Total GULP energy -297603.662741 kJ/mol
# GULP energy per Si atom -12400.152614 kJ/mol
# Density = 1.850906 g / cm^3
# Si number density = 18.551286 Si / 1000 Ang^3
#
#
#
# Elastic Constant Matrix: (Units=GPa)
#
#
# Indices 1 2 3 4 5 6 
#
# 1 167.6768 51.1409 85.5503 0.0000 -1.1030 0.0000
# 2 51.1409 52.1824 34.5629 0.0000 4.3657 0.0000
# 3 85.5503 34.5629 140.9174 0.0000 6.8487 0.0000
# 4 0.0000 0.0000 0.0000 28.4476 0.0000 -0.3058
# 5 -1.1030 4.3657 6.8487 0.0000 37.0039 0.0000
# 6 0.0000 0.0000 0.0000 -0.3058 0.0000 26.6574
#
#
#
# Elastic Compliance Matrix: (Units=1/GPa)
#
#
# Indices 1 2 3 4 5 6 
#
# 1 0.010690 -0.007505 -0.004751 0.000000 0.002083 0.000000
# 2 -0.007505 0.028252 -0.002221 0.000000 -0.003146 0.000000
# 3 -0.004751 -0.002221 0.010615 0.000000 -0.001844 0.000000
# 4 0.000000 0.000000 0.000000 0.035157 0.000000 0.000403
# 5 0.002083 -0.003146 -0.001844 0.000000 0.027799 0.000000
# 6 0.000000 0.000000 0.000000 0.000403 0.000000 0.037518
#
#
# Mechanical properties :
#
#
# Convention : Reuss Voigt Hill
#
# Bulk Modulus (GPa) = 48.53009 78.14278 63.33644
# Shear Modulus (GPa) = 26.90332 31.05659 28.97995
#
# Velocity S-wave (km/s) = 3.81230 4.09601 3.95670
# Velocity P-wave (km/s) = 6.75240 8.03640 7.42222
#
# Compressibility (1/GPa) = 0.02060577
#
# Stress axis : x y z
#
# Youngs Moduli (GPa) = 93.54323 35.39518 94.20918
#
# Poissons Ratio (x) = 0.26563 0.44755
# Poissons Ratio (y) = 0.70201 0.20920
# Poissons Ratio (z) = 0.44438 0.07860
#
# Static dielectric constant tensor:
#      x y z
#    x 4.058980 0.000000 -0.098250 
#    y 0.000000 3.266620 0.000000 
#    z -0.098250 0.000000 3.715260 
# 
# 
# High freq. dielectric constant tensor:
#      x y z
#    x 1.720160 0.000000 -0.001010 
#    y 0.000000 1.687210 0.000000 
#    z -0.001010 0.000000 1.736380 
# 
# From -- ./inp_files/221540.got.cif
#   From: 2010.06.25/outbox.cif.g09.slc.cpg/sg12_111_cif.got.tgz:221540.got - 2010.06.28 00:19:55.
