data_PCOD8101225
_publ_section_title
;
Structure prediction by ZEFSAII (Michael W. Deem and Ramdas Pophale) SiO2 
 PCOD8101225
Probable space group: C 2/M
;
_chemical_formula_sum "Si O2"
_cell_formula_units_Z 56
_cell_length_a 28.845419
_cell_length_b 9.045245
_cell_length_c 21.482174
_cell_angle_alpha 90.000000
_cell_angle_beta 30.873002
_cell_angle_gamma 90.000000
_cell_volume 2876.130836
_symmetry_space_group_name_H-M "C 2/M"
_symmetry_group_IT_number 12
_symmetry_cell_setting 'monoclinic'
loop_
_space_group_symop_operation_xyz
x,y,z
-x,y,-z
-x,-y,-z
x,-y,z
1/2+x,1/2+y,z
1/2-x,1/2+y,-z
1/2-x,1/2-y,-z
1/2+x,1/2-y,z
loop_
_atom_site_type_symbol
_atom_site_label
_atom_site_fract_x
_atom_site_fract_y
_atom_site_fract_z
Si Si1 0.205670 0.672767 0.109503
Si Si2 0.604152 0.175072 0.884590
Si Si3 0.739269 0.674051 0.817116
Si Si4 0.864066 0.668019 0.408819
Si Si5 0.412471 0.671531 0.559576
Si Si6 0.802478 0.325973 0.348326
Si Si7 0.997498 0.330562 0.652654
O O1 0.203026 0.500000 0.098337
O O2 0.260392 0.708968 0.109425
O O3 0.103509 0.733435 0.234042
O O4 0.250000 0.750000 0.000000
O O5 0.649489 0.253632 0.891738
O O6 0.652362 0.235293 0.766547
O O7 0.614391 0.000000 0.881221
O O8 0.500000 0.221806 0.000000
O O9 0.739325 0.500000 0.804576
O O10 0.828257 0.741189 0.683858
O O11 0.829074 0.500000 0.452138
O O12 0.863349 0.722103 0.337897
O O13 0.797275 0.761938 0.529033
O O14 0.965282 0.681803 0.319422
O O15 0.500000 0.700645 0.500000
O O16 0.386073 0.500000 0.585829
O O17 0.435116 0.732301 0.465624
O O18 0.794861 0.500000 0.351435
O O19 0.999660 0.500000 0.626282
#
# Coordination Sequence:
#
# PCOD8101225 Si02
#       7
#     8   8   8   8   8   8   8
#     4  10  23  40  58  81 112 151 192 236 287 343
#     4  10  22  39  60  85 113 150 195 242 290 341
#     4  11  23  40  61  86 118 154 192 241 297 350
#     4   9  18  32  54  80 106 141 181 224 279 335
#     4  11  22  35  57  88 118 151 191 237 288 343
#     4   9  18  34  53  78 111 141 179 229 280 334
#     4  10  20  36  57  83 114 149 189 233 285 346
#
# _framework density 19.470603000000001
#
# number of rings (size 3 to 8) (size 9 to 14) (size 15 to 20)
#    0.000    2.000    1.429    1.714    0.000    7.143 
#    0.000    2.857    0.000    3.429    0.000    0.000 
#    0.000    0.000    0.000    0.000    0.000    0.000 
#
# Total GULP energy -347216.695083 kJ/mol
# GULP energy per Si atom -12400.596253 kJ/mol
# Density = 1.942629 g / cm^3
# Si number density = 19.470603 Si / 1000 Ang^3
#
#
#
# Elastic Constant Matrix: (Units=GPa)
#
#
# Indices 1 2 3 4 5 6 
#
# 1 146.6625 51.5548 64.5246 -0.0041 -3.4748 0.0017
# 2 51.5548 54.6787 41.1281 -0.0021 -1.6628 0.0051
# 3 64.5246 41.1281 103.3376 0.0012 6.5881 0.0015
# 4 -0.0041 -0.0021 0.0012 30.6335 0.0035 0.5311
# 5 -3.4748 -1.6628 6.5881 0.0035 30.7636 -0.0027
# 6 0.0017 0.0051 0.0015 0.5311 -0.0027 31.7819
#
#
#
# Elastic Compliance Matrix: (Units=1/GPa)
#
#
# Indices 1 2 3 4 5 6 
#
# 1 0.011343 -0.007462 -0.004227 0.000001 0.001783 0.000001
# 2 -0.007462 0.031430 -0.008014 0.000001 0.002572 -0.000004
# 3 -0.004227 -0.008014 0.015779 -0.000001 -0.004290 0.000000
# 4 0.000001 0.000001 -0.000001 0.032654 -0.000003 -0.000546
# 5 0.001783 0.002572 -0.004290 -0.000003 0.033765 0.000003
# 6 0.000001 -0.000004 0.000000 -0.000546 0.000003 0.031474
#
#
# Mechanical properties :
#
#
# Convention : Reuss Voigt Hill
#
# Bulk Modulus (GPa) = 52.22515 68.78819 60.50667
# Shear Modulus (GPa) = 24.72410 28.46722 26.59566
#
# Velocity S-wave (km/s) = 3.56732 3.82784 3.69987
# Velocity P-wave (km/s) = 6.62182 7.41232 7.02819
#
# Compressibility (1/GPa) = 0.01914786
#
# Stress axis : x y z
#
# Youngs Moduli (GPa) = 88.15975 31.81652 63.37443
#
# Poissons Ratio (x) = 0.23740 0.26786
# Poissons Ratio (y) = 0.65781 0.50789
# Poissons Ratio (z) = 0.37262 0.25498
#
# Static dielectric constant tensor:
#      x y z
#    x 3.931000 -0.000010 0.007970 
#    y -0.000010 3.488870 0.000010 
#    z 0.007970 0.000010 3.433800 
# 
# 
# High freq. dielectric constant tensor:
#      x y z
#    x 1.779560 0.000000 -0.000070 
#    y 0.000000 1.750700 0.000000 
#    z -0.000070 0.000000 1.742170 
# 
# From -- ./inp_files/329566.got.cif
#   From: 2010.06.25/outbox.cif.g09.slc.cpg/sg12_165_cif.got.tgz:329566.got - 2010.06.28 00:19:55.
