data_PCOD8101835
_publ_section_title
;
Structure prediction by ZEFSAII (Michael W. Deem and Ramdas Pophale) SiO2 
 PCOD8101835
Probable space group: C 2/M
;
_chemical_formula_sum "Si O2"
_cell_formula_units_Z 56
_cell_length_a 20.322378
_cell_length_b 8.816831
_cell_length_c 27.536888
_cell_angle_alpha 90.000000
_cell_angle_beta 145.172765
_cell_angle_gamma 90.000000
_cell_volume 2817.844162
_symmetry_space_group_name_H-M "C 2/M"
_symmetry_group_IT_number 12
_symmetry_cell_setting 'monoclinic'
loop_
_space_group_symop_operation_xyz
x,y,z
-x,y,-z
-x,-y,-z
x,-y,z
1/2+x,1/2+y,z
1/2-x,1/2+y,-z
1/2-x,1/2-y,-z
1/2+x,1/2-y,z
loop_
_atom_site_type_symbol
_atom_site_label
_atom_site_fract_x
_atom_site_fract_y
_atom_site_fract_z
Si Si1 0.706383 0.822933 0.342893
Si Si2 0.936050 0.679013 0.508920
Si Si3 0.676687 0.179111 0.214714
Si Si4 0.895878 0.676406 0.304958
Si Si5 0.959513 0.324365 0.233891
Si Si6 0.966003 0.178711 0.033904
Si Si7 0.245078 0.178650 0.944277
O O1 0.807658 0.743155 0.434071
O O2 0.704330 0.765917 0.286006
O O3 0.588636 0.779278 0.298135
O O4 0.729824 0.000000 0.358717
O O5 0.927335 0.500000 0.501689
O O6 0.000000 0.743446 0.500000
O O7 0.007140 0.733706 0.598853
O O8 0.779012 0.229873 0.241260
O O9 0.558488 0.257412 0.127550
O O10 0.659140 0.000000 0.201123
O O11 0.866705 0.500000 0.295426
O O12 0.943986 0.709229 0.281044
O O13 0.933389 0.500000 0.205566
O O14 0.877312 0.217144 0.153174
O O15 0.955685 0.000000 0.034794
O O16 0.000000 0.222776 0.000000
O O17 0.843067 0.252993 0.969295
O O18 0.261339 0.000000 0.958335
O O19 0.250000 0.250000 0.000000
#
# Coordination Sequence:
#
# PCOD8101835 Si02
#       7
#     8   8   8   8   8   8   8
#     4  10  22  38  58  85 116 151 192 243 296 351
#     4  10  20  36  59  87 118 154 198 243 292 353
#     4  11  22  36  58  87 117 152 198 249 299 354
#     4  10  21  38  60  85 118 160 199 244 301 359
#     4  10  22  41  61  85 120 158 198 244 301 360
#     4  11  24  41  62  89 122 160 201 249 306 363
#     4  12  25  42  65  91 122 161 205 251 303 362
#
# _framework density 19.873348
#
# number of rings (size 3 to 8) (size 9 to 14) (size 15 to 20)
#    0.000    1.429    1.429    3.857    0.000    8.857 
#    0.000    0.000    0.000    0.000    0.000    0.000 
#    0.000    0.000    0.000    0.000    0.000    0.000 
#
# Total GULP energy -347395.868436 kJ/mol
# GULP energy per Si atom -12406.995301 kJ/mol
# Density = 1.982812 g / cm^3
# Si number density = 19.873348 Si / 1000 Ang^3
#
#
#
# Elastic Constant Matrix: (Units=GPa)
#
#
# Indices 1 2 3 4 5 6 
#
# 1 117.8087 33.5856 28.0299 0.0000 7.3636 0.0001
# 2 33.5856 59.9360 19.3191 0.0000 -0.9378 0.0002
# 3 28.0299 19.3191 99.0745 0.0001 1.8691 0.0000
# 4 0.0000 0.0000 0.0001 39.5489 0.0000 5.5351
# 5 7.3636 -0.9378 1.8691 0.0000 37.8529 0.0000
# 6 0.0001 0.0002 0.0000 5.5351 0.0000 25.1882
#
#
#
# Elastic Compliance Matrix: (Units=1/GPa)
#
#
# Indices 1 2 3 4 5 6 
#
# 1 0.010602 -0.005357 -0.001915 0.000000 -0.002101 0.000000
# 2 -0.005357 0.020524 -0.002518 0.000000 0.001675 0.000000
# 3 -0.001915 -0.002518 0.011131 0.000000 -0.000239 0.000000
# 4 0.000000 0.000000 0.000000 0.026088 0.000000 -0.005733
# 5 -0.002101 0.001675 -0.000239 0.000000 0.026880 0.000000
# 6 0.000000 0.000000 0.000000 -0.005733 0.000000 0.040961
#
#
# Mechanical properties :
#
#
# Convention : Reuss Voigt Hill
#
# Bulk Modulus (GPa) = 44.09808 48.74316 46.42062
# Shear Modulus (GPa) = 30.61374 33.57697 32.09535
#
# Velocity S-wave (km/s) = 3.92910 4.11487 4.02306
# Velocity P-wave (km/s) = 6.54382 6.86705 6.70738
#
# Compressibility (1/GPa) = 0.02267672
#
# Stress axis : x y z
#
# Youngs Moduli (GPa) = 94.31748 48.72348 89.84004
#
# Poissons Ratio (x) = 0.26099 0.17209
# Poissons Ratio (y) = 0.50523 0.22624
# Poissons Ratio (z) = 0.18066 0.12270
#
# Static dielectric constant tensor:
#      x y z
#    x 3.811980 0.000000 0.324110 
#    y 0.000000 3.538250 0.000000 
#    z 0.324110 0.000000 4.745790 
# 
# 
# High freq. dielectric constant tensor:
#      x y z
#    x 1.785150 0.000000 0.001300 
#    y 0.000000 1.770400 0.000000 
#    z 0.001300 0.000000 1.788910 
# 
# From -- ./inp_files/380808.got.cif
#   From: 2010.06.25/outbox.cif.g09.slc.cpg/sg12_191_cif.got.tgz:380808.got - 2010.06.28 00:19:55.
