data_PCOD8101725
_publ_section_title
;
Structure prediction by ZEFSAII (Michael W. Deem and Ramdas Pophale) SiO2 
 PCOD8101725
Probable space group: C 2/M
;
_chemical_formula_sum "Si O2"
_cell_formula_units_Z 64
_cell_length_a 18.427471
_cell_length_b 8.917049
_cell_length_c 29.735878
_cell_angle_alpha 90.000000
_cell_angle_beta 42.877042
_cell_angle_gamma 90.000000
_cell_volume 3324.676390
_symmetry_space_group_name_H-M "C 2/M"
_symmetry_group_IT_number 12
_symmetry_cell_setting 'monoclinic'
loop_
_space_group_symop_operation_xyz
x,y,z
-x,y,-z
-x,-y,-z
x,-y,z
1/2+x,1/2+y,z
1/2-x,1/2+y,-z
1/2-x,1/2-y,-z
1/2+x,1/2-y,z
loop_
_atom_site_type_symbol
_atom_site_label
_atom_site_fract_x
_atom_site_fract_y
_atom_site_fract_z
Si Si1 0.102705 0.824317 0.925971
Si Si2 0.946302 0.825174 0.402607
Si Si3 0.641402 0.829709 0.275797
Si Si4 0.321488 0.676746 0.833695
Si Si5 0.118351 0.168674 0.816156
Si Si6 0.836707 0.171560 0.359290
Si Si7 0.901417 0.326403 0.513624
Si Si8 0.519868 0.174953 0.779452
O O1 0.205320 0.739711 0.898849
O O2 0.085897 0.785068 0.881375
O O3 0.123875 0.000000 0.922555
O O4 0.000000 0.769004 0.000000
O O5 0.055791 0.732590 0.349538
O O6 0.869076 0.788379 0.395758
O O7 0.891644 0.772415 0.473291
O O8 0.972701 0.000000 0.393343
O O9 0.638953 0.725680 0.233290
O O10 0.755021 0.823627 0.248296
O O11 0.614283 0.000000 0.273564
O O12 0.318068 0.500000 0.838154
O O13 0.406947 0.740454 0.829859
O O14 0.067964 0.289302 0.806143
O O15 0.078189 0.000000 0.823490
O O16 0.710352 0.197454 0.409590
O O17 0.900468 0.275472 0.296154
O O18 0.867411 0.000000 0.334362
O O19 0.916445 0.500000 0.493257
O O20 0.000000 0.272481 0.500000
O O21 0.499760 0.000000 0.783884
#
# Coordination Sequence:
#
# PCOD8101725 Si02
#       8
#     8   8   8   8   8   8   8   8
#     4   9  19  39  66  93 122 159 200 238 284 346
#     4  11  22  36  58  84 113 149 191 244 296 350
#     4  10  20  36  59  85 113 152 196 238 289 352
#     4  11  21  36  59  88 122 155 194 241 288 339
#     4   9  20  37  58  85 120 155 189 238 292 339
#     4  10  22  40  59  81 112 153 196 241 298 354
#     4  10  23  41  59  80 110 152 197 243 298 361
#     4  12  24  37  58  87 119 156 198 243 294 351
#
# _framework density 19.249994999999998
#
# number of rings (size 3 to 8) (size 9 to 14) (size 15 to 20)
#    0.000    1.750    1.250    4.125    1.750    4.000 
#    0.000    0.625    0.000    0.000    0.000    0.000 
#    0.000    0.000    0.000    0.000    0.000    0.000 
#
# Total GULP energy -396922.436013 kJ/mol
# GULP energy per Si atom -12403.826125 kJ/mol
# Density = 1.920618 g / cm^3
# Si number density = 19.249995 Si / 1000 Ang^3
#
#
#
# Elastic Constant Matrix: (Units=GPa)
#
#
# Indices 1 2 3 4 5 6 
#
# 1 107.6717 52.0558 45.4966 0.0001 -8.6906 0.0008
# 2 52.0558 107.1477 47.5430 0.0003 -11.3420 0.0009
# 3 45.4966 47.5430 103.3845 0.0000 -15.4117 -0.0001
# 4 0.0001 0.0003 0.0000 30.7642 0.0000 -0.2655
# 5 -8.6906 -11.3420 -15.4117 0.0000 21.9042 0.0001
# 6 0.0008 0.0009 -0.0001 -0.2655 0.0001 30.4878
#
#
#
# Elastic Compliance Matrix: (Units=1/GPa)
#
#
# Indices 1 2 3 4 5 6 
#
# 1 0.013110 -0.004774 -0.003538 0.000000 0.000240 0.000000
# 2 -0.004774 0.013592 -0.003779 0.000000 0.002485 0.000000
# 3 -0.003538 -0.003779 0.013927 0.000000 0.006439 0.000000
# 4 0.000000 0.000000 0.000000 0.032508 0.000000 0.000283
# 5 0.000240 0.002485 0.006439 0.000000 0.051565 0.000000
# 6 0.000000 0.000000 0.000000 0.000283 0.000000 0.032802
#
#
# Mechanical properties :
#
#
# Convention : Reuss Voigt Hill
#
# Bulk Modulus (GPa) = 60.80187 67.59940 64.20064
# Shear Modulus (GPa) = 26.71365 28.17181 27.44273
#
# Velocity S-wave (km/s) = 3.72926 3.82968 3.77980
# Velocity P-wave (km/s) = 7.08499 7.39920 7.24380
#
# Compressibility (1/GPa) = 0.01644686
#
# Stress axis : x y z
#
# Youngs Moduli (GPa) = 76.27794 73.57169 71.80063
#
# Poissons Ratio (x) = 0.35122 0.25404
# Poissons Ratio (y) = 0.36414 0.27136
# Poissons Ratio (z) = 0.26989 0.27805
#
# Static dielectric constant tensor:
#      x y z
#    x 3.549110 0.000000 -0.174470 
#    y 0.000000 3.465650 0.000000 
#    z -0.174470 0.000000 3.480200 
# 
# 
# High freq. dielectric constant tensor:
#      x y z
#    x 1.749420 0.000000 -0.011800 
#    y 0.000000 1.749800 0.000000 
#    z -0.011800 0.000000 1.741360 
# 
# From -- ./inp_files/378201.got.cif
#   From: 2010.06.25/outbox.cif.g09.slc.cpg/sg12_190_cif.got.tgz:378201.got - 2010.06.28 00:19:55.
