data_PCOD8101213
_publ_section_title
;
Structure prediction by ZEFSAII (Michael W. Deem and Ramdas Pophale) SiO2 
 PCOD8101213
Probable space group: C 2/M
;
_chemical_formula_sum "Si O2"
_cell_formula_units_Z 56
_cell_length_a 27.727210
_cell_length_b 9.273163
_cell_length_c 13.692601
_cell_angle_alpha 90.000000
_cell_angle_beta 126.554096
_cell_angle_gamma 90.000000
_cell_volume 2828.101729
_symmetry_space_group_name_H-M "C 2/M"
_symmetry_group_IT_number 12
_symmetry_cell_setting 'monoclinic'
loop_
_space_group_symop_operation_xyz
x,y,z
-x,y,-z
-x,-y,-z
x,-y,z
1/2+x,1/2+y,z
1/2-x,1/2+y,-z
1/2-x,1/2-y,-z
1/2+x,1/2-y,z
loop_
_atom_site_type_symbol
_atom_site_label
_atom_site_fract_x
_atom_site_fract_y
_atom_site_fract_z
Si Si1 0.380872 0.844344 0.774023
Si Si2 0.413500 0.832875 0.126095
Si Si3 0.806727 0.331641 0.867275
Si Si4 0.508784 0.657120 0.123717
Si Si5 0.175792 0.827245 0.659348
Si Si6 0.565305 0.831174 0.623953
Si Si7 0.296777 0.842399 0.498028
O O1 0.341115 0.768971 0.812387
O O2 0.430027 0.739863 0.789040
O O3 0.346183 0.880737 0.635304
O O4 0.406744 0.000000 0.843829
O O5 0.453846 0.744166 0.101320
O O6 0.430930 0.792105 0.257145
O O7 0.426110 0.000000 0.122607
O O8 0.343985 0.795628 0.011788
O O9 0.802691 0.500000 0.843345
O O10 0.737517 0.276928 0.789854
O O11 0.512413 0.500000 0.179100
O O12 0.500000 0.637401 0.000000
O O13 0.116975 0.765536 0.640034
O O14 0.176693 0.756791 0.554644
O O15 0.170479 0.000000 0.646025
O O16 0.500000 0.790616 0.500000
O O17 0.578776 0.000000 0.621876
O O18 0.250000 0.750000 0.500000
O O19 0.272715 0.000000 0.430237
#
# Coordination Sequence:
#
# PCOD8101213 Si02
#       7
#     8   8   8   8   8   8   8
#     4  10  20  36  57  82 120 163 201 238 288 357
#     4  10  21  40  65  85 113 163 209 245 295 358
#     4   9  18  36  61  89 118 153 202 246 287 359
#     4  11  23  36  54  89 129 156 191 246 304 352
#     4  11  23  41  63  90 122 158 200 251 305 358
#     4  10  24  45  64  87 118 153 201 256 303 358
#     4  11  22  37  59  89 124 161 200 242 297 359
#
# _framework density 19.801269000000001
#
# number of rings (size 3 to 8) (size 9 to 14) (size 15 to 20)
#    0.000    1.714    2.857    1.286    2.000    3.143 
#    0.000    1.429    0.000    0.000    0.000    0.000 
#    0.000    0.000    0.000    0.000    0.000    0.000 
#
# Total GULP energy -346881.685989 kJ/mol
# GULP energy per Si atom -12388.631642 kJ/mol
# Density = 1.975620 g / cm^3
# Si number density = 19.801269 Si / 1000 Ang^3
#
#
#
# Elastic Constant Matrix: (Units=GPa)
#
#
# Indices 1 2 3 4 5 6 
#
# 1 122.8735 67.2420 53.1213 0.0000 12.3381 0.0000
# 2 67.2420 102.4594 38.6514 0.0000 6.5735 0.0000
# 3 53.1213 38.6514 129.2453 0.0000 4.4677 0.0000
# 4 0.0000 0.0000 0.0000 20.3753 0.0000 1.0969
# 5 12.3381 6.5735 4.4677 0.0000 33.0530 0.0000
# 6 0.0000 0.0000 0.0000 1.0969 0.0000 32.1758
#
#
#
# Elastic Compliance Matrix: (Units=1/GPa)
#
#
# Indices 1 2 3 4 5 6 
#
# 1 0.014229 -0.007849 -0.003387 0.000000 -0.003292 0.000000
# 2 -0.007849 0.015433 -0.001391 0.000000 0.000049 0.000000
# 3 -0.003387 -0.001391 0.009537 0.000000 0.000252 0.000000
# 4 0.000000 0.000000 0.000000 0.049169 0.000000 -0.001676
# 5 -0.003292 0.000049 0.000252 0.000000 0.031440 0.000000
# 6 0.000000 0.000000 0.000000 -0.001676 0.000000 0.031136
#
#
# Mechanical properties :
#
#
# Convention : Reuss Voigt Hill
#
# Bulk Modulus (GPa) = 71.71510 74.73416 73.22463
# Shear Modulus (GPa) = 27.64793 30.15839 28.90316
#
# Velocity S-wave (km/s) = 3.74072 3.90687 3.82470
# Velocity P-wave (km/s) = 7.41306 7.62729 7.52093
#
# Compressibility (1/GPa) = 0.01394407
#
# Stress axis : x y z
#
# Youngs Moduli (GPa) = 70.28028 64.79745 104.85941
#
# Poissons Ratio (x) = 0.50860 0.35517
# Poissons Ratio (y) = 0.55163 0.14584
# Poissons Ratio (z) = 0.23804 0.09012
#
# Static dielectric constant tensor:
#      x y z
#    x 3.481010 0.000000 0.202310 
#    y 0.000000 3.848070 0.000000 
#    z 0.202310 0.000000 3.673060 
# 
# 
# High freq. dielectric constant tensor:
#      x y z
#    x 1.763110 0.000000 0.006410 
#    y 0.000000 1.768600 0.000000 
#    z 0.006410 0.000000 1.777320 
# 
# From -- ./inp_files/238996.got.cif
#   From: 2010.06.25/outbox.cif.g09.slc.cpg/sg12_120_cif.got.tgz:238996.got - 2010.06.28 00:19:55.
