data_PCOD8101128
_publ_section_title
;
Structure prediction by ZEFSAII (Michael W. Deem and Ramdas Pophale) SiO2 
 PCOD8101128
Probable space group: C 2/M
;
_chemical_formula_sum "Si O2"
_cell_formula_units_Z 64
_cell_length_a 20.207664
_cell_length_b 9.224030
_cell_length_c 21.400369
_cell_angle_alpha 90.000000
_cell_angle_beta 60.991126
_cell_angle_gamma 90.000000
_cell_volume 3488.510606
_symmetry_space_group_name_H-M "C 2/M"
_symmetry_group_IT_number 12
_symmetry_cell_setting 'monoclinic'
loop_
_space_group_symop_operation_xyz
x,y,z
-x,y,-z
-x,-y,-z
x,-y,z
1/2+x,1/2+y,z
1/2-x,1/2+y,-z
1/2-x,1/2-y,-z
1/2+x,1/2-y,z
loop_
_atom_site_type_symbol
_atom_site_label
_atom_site_fract_x
_atom_site_fract_y
_atom_site_fract_z
Si Si1 0.674631 0.668253 0.911202
Si Si2 0.033642 0.829812 0.550957
Si Si3 0.066302 0.833685 0.076363
Si Si4 0.828402 0.328992 0.453751
Si Si5 0.585670 0.835676 0.707749
Si Si6 0.045570 0.166587 0.288290
Si Si7 0.325660 0.332777 0.858174
Si Si8 0.910973 0.331946 0.153553
O O1 0.684624 0.500000 0.891434
O O2 0.754232 0.729923 0.898029
O O3 0.650179 0.750010 0.859966
O O4 0.612844 0.695255 0.992379
O O5 0.109218 0.737875 0.528231
O O6 0.000000 0.782530 0.500000
O O7 0.970298 0.790092 0.632398
O O8 0.054187 0.000000 0.542614
O O9 0.117734 0.793950 0.111764
O O10 0.994426 0.730547 0.106292
O O11 0.038723 0.000000 0.092409
O O12 0.820870 0.500000 0.470280
O O13 0.750000 0.250000 0.500000
O O14 0.850778 0.293976 0.371964
O O15 0.510099 0.744663 0.733950
O O16 0.617878 0.809968 0.762230
O O17 0.560229 0.000000 0.709149
O O18 0.131702 0.199347 0.227527
O O19 0.027127 0.000000 0.286298
O O20 0.299579 0.500000 0.874125
O O21 0.912725 0.500000 0.133844
#
# Coordination Sequence:
#
# PCOD8101128 Si02
#       8
#     8   8   8   8   8   8   8   8
#     4  11  24  38  53  78 113 146 178 222 275 323
#     4   9  18  34  56  83 113 144 178 216 264 321
#     4  10  21  38  59  81 106 140 180 225 273 323
#     4  10  20  36  57  82 112 143 180 223 267 315
#     4   9  19  35  56  81 107 140 180 224 266 313
#     4   9  17  32  57  82 105 141 182 219 261 317
#     4  10  20  36  57  80 108 141 182 225 268 319
#     4  11  22  37  58  82 108 141 182 224 270 322
#
# _framework density 18.345938
#
# number of rings (size 3 to 8) (size 9 to 14) (size 15 to 20)
#    0.000    2.125    1.250    1.875    0.000    4.750 
#    2.250    0.000    0.000    0.000    0.000    0.000 
#    0.000    0.000    0.000    0.000    0.000    0.000 
#
# Total GULP energy -396832.207769 kJ/mol
# GULP energy per Si atom -12401.006493 kJ/mol
# Density = 1.830418 g / cm^3
# Si number density = 18.345938 Si / 1000 Ang^3
#
#
#
# Elastic Constant Matrix: (Units=GPa)
#
#
# Indices 1 2 3 4 5 6 
#
# 1 77.3809 46.4175 35.5001 0.0000 5.0979 -0.0011
# 2 46.4175 84.8942 38.6388 -0.0002 -0.9243 -0.0020
# 3 35.5001 38.6388 65.9761 0.0000 12.5612 0.0006
# 4 0.0000 -0.0002 0.0000 25.8407 0.0001 -0.9286
# 5 5.0979 -0.9243 12.5612 0.0001 26.3325 -0.0001
# 6 -0.0011 -0.0020 0.0006 -0.9286 -0.0001 35.4417
#
#
#
# Elastic Compliance Matrix: (Units=1/GPa)
#
#
# Indices 1 2 3 4 5 6 
#
# 1 0.021009 -0.008861 -0.005809 0.000000 -0.001607 0.000000
# 2 -0.008861 0.020572 -0.008518 0.000000 0.006501 0.000001
# 3 -0.005809 -0.008518 0.025423 0.000000 -0.011302 -0.000001
# 4 0.000000 0.000000 0.000000 0.038735 0.000000 0.001015
# 5 -0.001607 0.006501 -0.011302 0.000000 0.043906 0.000001
# 6 0.000000 0.000001 -0.000001 0.001015 0.000001 0.028242
#
#
# Mechanical properties :
#
#
# Convention : Reuss Voigt Hill
#
# Bulk Modulus (GPa) = 48.47671 52.15155 50.31413
# Shear Modulus (GPa) = 21.63205 24.70265 23.16735
#
# Velocity S-wave (km/s) = 3.43756 3.67344 3.55745
# Velocity P-wave (km/s) = 6.49898 6.81767 6.66023
#
# Compressibility (1/GPa) = 0.02062846
#
# Stress axis : x y z
#
# Youngs Moduli (GPa) = 47.59813 48.61070 39.33456
#
# Poissons Ratio (x) = 0.43072 0.22851
# Poissons Ratio (y) = 0.42175 0.33504
# Poissons Ratio (z) = 0.27651 0.41405
#
# Static dielectric constant tensor:
#      x y z
#    x 3.214970 0.000000 0.076530 
#    y 0.000000 3.443240 0.000000 
#    z 0.076530 0.000000 3.693020 
# 
# 
# High freq. dielectric constant tensor:
#      x y z
#    x 1.697720 0.000000 0.003620 
#    y 0.000000 1.716210 0.000000 
#    z 0.003620 0.000000 1.723260 
# 
# From -- ./inp_files/319843.got.cif
#   From: 2010.06.25/outbox.cif.g09.slc.cpg/sg12_160_cif.got.tgz:319843.got - 2010.06.28 00:19:55.
