data_PCOD8101714
_publ_section_title
;
Structure prediction by ZEFSAII (Michael W. Deem and Ramdas Pophale) SiO2 
 PCOD8101714
Probable space group: C 2/M
;
_chemical_formula_sum "Si O2"
_cell_formula_units_Z 64
_cell_length_a 24.212486
_cell_length_b 8.953178
_cell_length_c 18.840294
_cell_angle_alpha 90.000000
_cell_angle_beta 50.304098
_cell_angle_gamma 90.000000
_cell_volume 3142.548539
_symmetry_space_group_name_H-M "C 2/M"
_symmetry_group_IT_number 12
_symmetry_cell_setting 'monoclinic'
loop_
_space_group_symop_operation_xyz
x,y,z
-x,y,-z
-x,-y,-z
x,-y,z
1/2+x,1/2+y,z
1/2-x,1/2+y,-z
1/2-x,1/2-y,-z
1/2+x,1/2-y,z
loop_
_atom_site_type_symbol
_atom_site_label
_atom_site_fract_x
_atom_site_fract_y
_atom_site_fract_z
Si Si1 0.717532 0.676211 0.833278
Si Si2 0.812555 0.831862 0.861599
Si Si3 0.074940 0.672309 0.970387
Si Si4 0.080899 0.326549 0.132133
Si Si5 0.664496 0.824930 0.376080
Si Si6 0.819573 0.321926 0.476501
Si Si7 0.963198 0.178010 0.323940
Si Si8 0.566579 0.334808 0.356787
O O1 0.719824 0.500000 0.841269
O O2 0.742734 0.751930 0.886338
O O3 0.637402 0.731231 0.882135
O O4 0.767999 0.728250 0.726675
O O5 0.842717 0.740018 0.904168
O O6 0.873248 0.833626 0.752545
O O7 0.791841 0.000000 0.901997
O O8 0.087937 0.500000 0.940058
O O9 0.074903 0.698680 0.053925
O O10 0.000000 0.729547 0.000000
O O11 0.076710 0.500000 0.157209
O O12 0.014587 0.238369 0.220371
O O13 0.675541 0.765140 0.446342
O O14 0.589515 0.766054 0.404514
O O15 0.658060 0.000000 0.381532
O O16 0.816550 0.500000 0.472901
O O17 0.750000 0.250000 0.500000
O O18 0.887092 0.258522 0.377612
O O19 0.994329 0.221125 0.376676
O O20 0.956219 0.000000 0.321283
O O21 0.555643 0.500000 0.396588
#
# Coordination Sequence:
#
# PCOD8101714 Si02
#       8
#     8   8   8   8   8   8   8   8
#     4  10  20  36  59  85 112 145 184 228 280 332
#     4   9  17  32  55  84 116 147 180 222 275 333
#     4  10  23  41  57  78 110 147 190 235 277 329
#     4  10  20  36  59  85 113 147 185 227 278 331
#     4   9  20  37  57  83 114 145 180 227 278 327
#     4  11  24  41  58  80 111 148 192 236 277 325
#     4  10  21  38  59  85 116 148 183 226 277 332
#     4   8  16  31  54  83 112 143 178 218 270 333
#
# _framework density 20.365635999999999
#
# number of rings (size 3 to 8) (size 9 to 14) (size 15 to 20)
#    0.000    2.375    0.000    2.625    0.000    8.250 
#    0.000    5.000    0.000    0.000    0.000    0.000 
#    0.000    0.000    0.000    0.000    0.000    0.000 
#
# Total GULP energy -396825.345432 kJ/mol
# GULP energy per Si atom -12400.792045 kJ/mol
# Density = 2.031928 g / cm^3
# Si number density = 20.365636 Si / 1000 Ang^3
#
#
#
# Elastic Constant Matrix: (Units=GPa)
#
#
# Indices 1 2 3 4 5 6 
#
# 1 82.8275 22.6528 4.2354 -0.0010 -12.1349 0.0036
# 2 22.6528 75.6829 17.0420 0.0020 -2.9781 0.0067
# 3 4.2354 17.0420 33.3007 -0.0010 -6.2853 0.0027
# 4 -0.0010 0.0020 -0.0010 22.5060 -0.0002 -4.9795
# 5 -12.1349 -2.9781 -6.2853 -0.0002 33.9429 -0.0010
# 6 0.0036 0.0067 0.0027 -4.9795 -0.0010 37.9568
#
#
#
# Elastic Compliance Matrix: (Units=1/GPa)
#
#
# Indices 1 2 3 4 5 6 
#
# 1 0.013880 -0.004263 0.001329 0.000001 0.004834 0.000000
# 2 -0.004263 0.016244 -0.008072 -0.000003 -0.001594 -0.000002
# 3 0.001329 -0.008072 0.035176 0.000002 0.006281 -0.000001
# 4 0.000001 -0.000003 0.000002 0.045761 0.000001 0.006003
# 5 0.004834 -0.001594 0.006281 0.000001 0.032213 0.000000
# 6 0.000000 -0.000002 -0.000001 0.006003 0.000000 0.027133
#
#
# Mechanical properties :
#
#
# Convention : Reuss Voigt Hill
#
# Bulk Modulus (GPa) = 23.10111 31.07462 27.08787
# Shear Modulus (GPa) = 24.17232 28.73984 26.45608
#
# Velocity S-wave (km/s) = 3.44890 3.76066 3.60815
# Velocity P-wave (km/s) = 5.21802 5.84365 5.53967
#
# Compressibility (1/GPa) = 0.04328797
#
# Stress axis : x y z
#
# Youngs Moduli (GPa) = 72.04839 61.56152 28.42810
#
# Poissons Ratio (x) = 0.26246 -0.03778
# Poissons Ratio (y) = 0.30717 0.22946
# Poissons Ratio (z) = -0.09574 0.49690
#
# Static dielectric constant tensor:
#      x y z
#    x 3.889340 -0.000010 -0.037830 
#    y -0.000010 3.716820 0.000010 
#    z -0.037830 0.000010 3.579210 
# 
# 
# High freq. dielectric constant tensor:
#      x y z
#    x 1.796800 0.000000 -0.005570 
#    y 0.000000 1.797090 0.000000 
#    z -0.005570 0.000000 1.791260 
# 
# From -- ./inp_files/324117.got.cif
#   From: 2010.06.25/outbox.cif.g09.slc.cpg/sg12_163_cif.got.tgz:324117.got - 2010.06.28 00:19:55.
