data_PCOD8101096
_publ_section_title
;
Structure prediction by ZEFSAII (Michael W. Deem and Ramdas Pophale) SiO2 
 PCOD8101096
Probable space group: C 2/M
;
_chemical_formula_sum "Si O2"
_cell_formula_units_Z 56
_cell_length_a 19.804798
_cell_length_b 9.307294
_cell_length_c 31.031798
_cell_angle_alpha 90.000000
_cell_angle_beta 149.200195
_cell_angle_gamma 90.000000
_cell_volume 2928.900571
_symmetry_space_group_name_H-M "C 2/M"
_symmetry_group_IT_number 12
_symmetry_cell_setting 'monoclinic'
loop_
_space_group_symop_operation_xyz
x,y,z
-x,y,-z
-x,-y,-z
x,-y,z
1/2+x,1/2+y,z
1/2-x,1/2+y,-z
1/2-x,1/2-y,-z
1/2+x,1/2-y,z
loop_
_atom_site_type_symbol
_atom_site_label
_atom_site_fract_x
_atom_site_fract_y
_atom_site_fract_z
Si Si1 0.633729 0.834809 0.740144
Si Si2 0.825279 0.836455 0.361178
Si Si3 0.454486 0.168129 0.217242
Si Si4 0.627200 0.668483 0.912998
Si Si5 0.349852 0.334808 0.792977
Si Si6 0.949613 0.830383 0.580203
Si Si7 0.765667 0.333875 0.598336
O O1 0.648567 0.812794 0.799607
O O2 0.770111 0.781661 0.792096
O O3 0.503564 0.750469 0.651842
O O4 0.605987 0.000000 0.714059
O O5 0.699397 0.748031 0.275967
O O6 0.838398 0.811464 0.419530
O O7 0.955821 0.789552 0.407916
O O8 0.790417 0.000000 0.331746
O O9 0.405299 0.264090 0.151102
O O10 0.593148 0.232283 0.311478
O O11 0.465343 0.000000 0.209241
O O12 0.658653 0.500000 0.924197
O O13 0.507170 0.690676 0.881356
O O14 0.750000 0.750000 0.000000
O O15 0.318183 0.500000 0.767755
O O16 0.805132 0.774028 0.484256
O O17 0.948246 0.000000 0.588823
O O18 0.791960 0.500000 0.604209
#
# Coordination Sequence:
#
# PCOD8101096 Si02
#       7
#     8   8   8   8   8   8   8
#     4   9  19  35  53  75 108 146 179 211 255 309
#     4   9  15  26  47  72 101 138 180 221 258 300
#     4  10  20  36  57  79 106 141 177 216 261 308
#     4  11  23  39  61  85 107 130 164 212 264 318
#     4   9  18  34  54  77 105 137 171 209 257 313
#     4   9  17  28  45  72 105 144 185 222 255 295
#     4   9  16  27  46  73 105 139 181 223 259 298
#
# _framework density 19.119803000000001
#
# number of rings (size 3 to 8) (size 9 to 14) (size 15 to 20)
#    0.000    2.571    1.429    0.857    0.000    3.429 
#    0.000    2.143    0.000    7.714    0.000    0.000 
#    0.000    0.000    0.000    0.000    0.000    0.000 
#
# Total GULP energy -346914.397425 kJ/mol
# GULP energy per Si atom -12389.799908 kJ/mol
# Density = 1.907629 g / cm^3
# Si number density = 19.119803 Si / 1000 Ang^3
#
#
#
# Elastic Constant Matrix: (Units=GPa)
#
#
# Indices 1 2 3 4 5 6 
#
# 1 65.8883 25.3543 50.8068 0.0000 -7.1149 0.0000
# 2 25.3543 59.3707 53.7547 -0.0001 0.3564 0.0001
# 3 50.8068 53.7547 123.6605 0.0001 0.1951 0.0000
# 4 0.0000 -0.0001 0.0001 29.3864 0.0000 -3.9885
# 5 -7.1149 0.3564 0.1951 0.0000 16.4335 0.0000
# 6 0.0000 0.0001 0.0000 -3.9885 0.0000 19.7272
#
#
#
# Elastic Compliance Matrix: (Units=1/GPa)
#
#
# Indices 1 2 3 4 5 6 
#
# 1 0.024070 -0.002265 -0.008922 0.000000 0.010576 0.000000
# 2 -0.002265 0.027991 -0.011235 0.000000 -0.001454 0.000000
# 3 -0.008922 -0.011235 0.016642 0.000000 -0.003817 0.000000
# 4 0.000000 0.000000 0.000000 0.034989 0.000000 0.007074
# 5 0.010576 -0.001454 -0.003817 0.000000 0.065507 0.000000
# 6 0.000000 0.000000 0.000000 0.007074 0.000000 0.052122
#
#
# Mechanical properties :
#
#
# Convention : Reuss Voigt Hill
#
# Bulk Modulus (GPa) = 41.90985 56.52791 49.21888
# Shear Modulus (GPa) = 18.24029 21.04302 19.64165
#
# Velocity S-wave (km/s) = 3.09204 3.32111 3.20862
# Velocity P-wave (km/s) = 5.89193 6.65850 6.28691
#
# Compressibility (1/GPa) = 0.02386074
#
# Stress axis : x y z
#
# Youngs Moduli (GPa) = 41.54483 35.72516 60.08932
#
# Poissons Ratio (x) = 0.08092 0.53609
# Poissons Ratio (y) = 0.09410 0.67509
# Poissons Ratio (z) = 0.37064 0.40137
#
# Static dielectric constant tensor:
#      x y z
#    x 3.752910 0.000000 0.115470 
#    y 0.000000 3.334690 0.000000 
#    z 0.115470 0.000000 3.471390 
# 
# 
# High freq. dielectric constant tensor:
#      x y z
#    x 1.753420 0.000000 0.005850 
#    y 0.000000 1.720190 0.000000 
#    z 0.005850 0.000000 1.723300 
# 
# From -- ./inp_files/320267.got.cif
#   From: 2010.06.25/outbox.cif.g09.slc.cpg/sg12_161_cif.got.tgz:320267.got - 2010.06.28 00:19:55.
