data_PCOD8101999
_publ_section_title
;
Structure prediction by ZEFSAII (Michael W. Deem and Ramdas Pophale) SiO2 
 PCOD8101999
Probable space group: C 2/M
;
_chemical_formula_sum "Si O2"
_cell_formula_units_Z 56
_cell_length_a 18.547075
_cell_length_b 8.957341
_cell_length_c 23.475804
_cell_angle_alpha 90.000000
_cell_angle_beta 133.258755
_cell_angle_gamma 90.000000
_cell_volume 2840.306467
_symmetry_space_group_name_H-M "C 2/M"
_symmetry_group_IT_number 12
_symmetry_cell_setting 'monoclinic'
loop_
_space_group_symop_operation_xyz
x,y,z
-x,y,-z
-x,-y,-z
x,-y,z
1/2+x,1/2+y,z
1/2-x,1/2+y,-z
1/2-x,1/2-y,-z
1/2+x,1/2-y,z
loop_
_atom_site_type_symbol
_atom_site_label
_atom_site_fract_x
_atom_site_fract_y
_atom_site_fract_z
Si Si1 0.008707 0.830942 0.065552
Si Si2 0.785290 0.166718 0.964725
Si Si3 0.929856 0.176652 0.512041
Si Si4 0.466870 0.322864 0.659815
Si Si5 0.189886 0.175226 0.234471
Si Si6 0.168748 0.325708 0.792000
Si Si7 0.290297 0.822987 0.634384
O O1 0.089809 0.760151 0.151110
O O2 0.047218 0.000000 0.074469
O O3 0.000000 0.746690 0.000000
O O4 0.902330 0.826101 0.035860
O O5 0.743524 0.231364 0.882318
O O6 0.745288 0.000000 0.947055
O O7 0.750000 0.250000 0.000000
O O8 0.968167 0.229155 0.594564
O O9 0.817158 0.232185 0.444939
O O10 0.000000 0.245450 0.500000
O O11 0.932979 0.000000 0.508734
O O12 0.460683 0.500000 0.662366
O O13 0.567284 0.265416 0.743250
O O14 0.372640 0.254375 0.640350
O O15 0.281157 0.206670 0.241697
O O16 0.202258 0.274023 0.296559
O O17 0.181396 0.000000 0.245720
O O18 0.144720 0.500000 0.785167
O O19 0.302949 0.000000 0.636542
#
# Coordination Sequence:
#
# PCOD8101999 Si02
#       7
#     8   8   8   8   8   8   8
#     4   9  16  33  59  82 106 146 193 235 281 335
#     4  10  21  36  56  82 114 151 193 237 286 342
#     4   9  19  38  63  88 114 149 190 232 282 343
#     4  11  23  39  61  86 116 154 197 236 280 345
#     4  10  20  36  60  87 115 149 195 239 283 346
#     4  10  21  38  58  84 119 154 192 242 292 340
#     4  11  23  39  60  87 121 153 186 236 292 339
#
# _framework density 19.716183000000001
#
# number of rings (size 3 to 8) (size 9 to 14) (size 15 to 20)
#    0.000    2.000    1.429    2.143    2.000    2.286 
#    0.000    2.143    0.000    6.000    0.000    0.000 
#    0.000    0.000    0.000    0.000    0.000    0.000 
#
# Total GULP energy -347135.786392 kJ/mol
# GULP energy per Si atom -12397.706657 kJ/mol
# Density = 1.967131 g / cm^3
# Si number density = 19.716183 Si / 1000 Ang^3
#
#
#
# Elastic Constant Matrix: (Units=GPa)
#
#
# Indices 1 2 3 4 5 6 
#
# 1 128.2843 43.4048 41.0126 0.0000 1.3329 0.0000
# 2 43.4048 53.5097 31.0543 0.0000 2.0368 0.0000
# 3 41.0126 31.0543 107.8687 0.0000 11.3250 0.0000
# 4 0.0000 0.0000 0.0000 23.5976 0.0000 -5.2375
# 5 1.3329 2.0368 11.3250 0.0000 40.0458 0.0000
# 6 0.0000 0.0000 0.0000 -5.2375 0.0000 23.4721
#
#
#
# Elastic Compliance Matrix: (Units=1/GPa)
#
#
# Indices 1 2 3 4 5 6 
#
# 1 0.011089 -0.007845 -0.002021 0.000000 0.000601 0.000000
# 2 -0.007845 0.028007 -0.005109 0.000000 0.000282 0.000000
# 3 -0.002021 -0.005109 0.011827 0.000000 -0.003017 0.000000
# 4 0.000000 0.000000 0.000000 0.044585 0.000000 0.009949
# 5 0.000601 0.000282 -0.003017 0.000000 0.025790 0.000000
# 6 0.000000 0.000000 0.000000 0.009949 0.000000 0.044824
#
#
# Mechanical properties :
#
#
# Convention : Reuss Voigt Hill
#
# Bulk Modulus (GPa) = 47.68436 57.84511 52.76473
# Shear Modulus (GPa) = 24.62279 29.03585 26.82932
#
# Velocity S-wave (km/s) = 3.53776 3.84173 3.69287
# Velocity P-wave (km/s) = 6.39731 7.00579 6.70845
#
# Compressibility (1/GPa) = 0.02097124
#
# Stress axis : x y z
#
# Youngs Moduli (GPa) = 90.17553 35.70586 84.55486
#
# Poissons Ratio (x) = 0.28013 0.17087
# Poissons Ratio (y) = 0.70746 0.43203
# Poissons Ratio (z) = 0.18223 0.18244
#
# Static dielectric constant tensor:
#      x y z
#    x 3.600160 0.000000 -0.049390 
#    y 0.000000 3.267190 0.000000 
#    z -0.049390 0.000000 3.702700 
# 
# 
# High freq. dielectric constant tensor:
#      x y z
#    x 1.781000 0.000000 0.001760 
#    y 0.000000 1.731760 0.000000 
#    z 0.001760 0.000000 1.786850 
# 
# From -- ./inp_files/342539.got.cif
#   From: 2010.06.25/outbox.cif.g09.slc.cpg/sg12_172_cif.got.tgz:342539.got - 2010.06.28 00:19:55.
