data_PCOD8101984
_publ_section_title
;
Structure prediction by ZEFSAII (Michael W. Deem and Ramdas Pophale) SiO2 
 PCOD8101984
Probable space group: C 2/M
;
_chemical_formula_sum "Si O2"
_cell_formula_units_Z 48
_cell_length_a 29.175613
_cell_length_b 8.968985
_cell_length_c 14.842477
_cell_angle_alpha 90.000000
_cell_angle_beta 38.183270
_cell_angle_gamma 90.000000
_cell_volume 2400.954070
_symmetry_space_group_name_H-M "C 2/M"
_symmetry_group_IT_number 12
_symmetry_cell_setting 'monoclinic'
loop_
_space_group_symop_operation_xyz
x,y,z
-x,y,-z
-x,-y,-z
x,-y,z
1/2+x,1/2+y,z
1/2-x,1/2+y,-z
1/2-x,1/2-y,-z
1/2+x,1/2-y,z
loop_
_atom_site_type_symbol
_atom_site_label
_atom_site_fract_x
_atom_site_fract_y
_atom_site_fract_z
Si Si1 0.083003 0.165234 0.123179
Si Si2 0.505587 0.826162 0.592469
Si Si3 0.075320 0.176209 0.934455
Si Si4 0.830654 0.675920 0.612220
Si Si5 0.774542 0.321685 0.368679
Si Si6 0.249995 0.336208 0.091266
O O1 0.058540 0.264829 0.244622
O O2 0.049546 0.000000 0.188733
O O3 0.060057 0.228512 0.060838
O O4 0.170981 0.160863 0.983904
O O5 0.500000 0.756052 0.500000
O O6 0.582106 0.790240 0.525763
O O7 0.492186 0.000000 0.603742
O O8 0.144265 0.263893 0.784906
O O9 0.093114 0.000000 0.902682
O O10 0.000000 0.218172 0.000000
O O11 0.812741 0.500000 0.626033
O O12 0.788500 0.773800 0.604233
O O13 0.805805 0.732430 0.749377
O O14 0.776750 0.500000 0.373129
O O15 0.750000 0.250000 0.500000
O O16 0.221692 0.500000 0.110098
O O17 0.250000 0.250000 0.000000
#
# Coordination Sequence:
#
# PCOD8101984 Si02
#       6
#     8   8   8   8   8   8
#     4  10  21  38  60  88 123 159 197 249 306 361
#     4  10  22  39  61  89 124 166 207 252 304 358
#     4  10  22  43  68  93 125 161 199 250 314 375
#     4  10  21  41  63  87 124 164 204 254 307 363
#     4  12  26  43  66  94 125 162 207 256 310 373
#     4  10  20  36  60  86 118 157 200 248 301 359
#
# _framework density 19.992052000000001
#
# number of rings (size 3 to 8) (size 9 to 14) (size 15 to 20)
#    0.000    1.667    1.667    2.500    2.333    4.667 
#    0.000    0.000    0.000    0.000    0.000    0.000 
#    0.000    0.000    0.000    0.000    0.000    0.000 
#
# Total GULP energy -297572.554344 kJ/mol
# GULP energy per Si atom -12398.856431 kJ/mol
# Density = 1.994655 g / cm^3
# Si number density = 19.992052 Si / 1000 Ang^3
#
#
#
# Elastic Constant Matrix: (Units=GPa)
#
#
# Indices 1 2 3 4 5 6 
#
# 1 100.6039 41.2702 21.0000 0.0000 17.1094 0.0000
# 2 41.2702 79.0413 38.6368 -0.0009 6.4681 0.0003
# 3 21.0000 38.6368 93.4950 -0.0003 14.4382 0.0001
# 4 0.0000 -0.0009 -0.0003 31.5603 0.0001 4.0599
# 5 17.1094 6.4681 14.4382 0.0001 38.7394 0.0000
# 6 0.0000 0.0003 0.0001 4.0599 0.0000 30.7363
#
#
#
# Elastic Compliance Matrix: (Units=1/GPa)
#
#
# Indices 1 2 3 4 5 6 
#
# 1 0.013518 -0.006945 0.000612 0.000000 -0.005039 0.000000
# 2 -0.006945 0.019424 -0.006833 0.000001 0.002371 0.000000
# 3 0.000612 -0.006833 0.014057 0.000000 -0.004368 0.000000
# 4 0.000000 0.000001 0.000000 0.032233 0.000000 -0.004258
# 5 -0.005039 0.002371 -0.004368 0.000000 0.029271 0.000000
# 6 0.000000 0.000000 0.000000 -0.004258 0.000000 0.033097
#
#
# Mechanical properties :
#
#
# Convention : Reuss Voigt Hill
#
# Bulk Modulus (GPa) = 48.38826 52.77270 50.58048
# Shear Modulus (GPa) = 28.60050 31.68939 30.14495
#
# Velocity S-wave (km/s) = 3.78642 3.98565 3.88731
# Velocity P-wave (km/s) = 6.58576 6.90179 6.74563
#
# Compressibility (1/GPa) = 0.02066617
#
# Stress axis : x y z
#
# Youngs Moduli (GPa) = 73.97407 51.48258 71.14035
#
# Poissons Ratio (x) = 0.35755 -0.04353
# Poissons Ratio (y) = 0.51376 0.48611
# Poissons Ratio (z) = -0.04526 0.35179
#
# Static dielectric constant tensor:
#      x y z
#    x 3.969120 0.000000 -0.039150 
#    y 0.000000 3.577280 0.000000 
#    z -0.039150 0.000000 3.619030 
# 
# 
# High freq. dielectric constant tensor:
#      x y z
#    x 1.796080 0.000000 0.002600 
#    y 0.000000 1.762600 0.000000 
#    z 0.002600 0.000000 1.791240 
# 
# From -- ./inp_files/244678.got.cif
#   From: 2010.06.25/outbox.cif.g09.slc.cpg/sg12_123_cif.got.tgz:244678.got - 2010.06.28 00:19:55.
