data_PCOD8101875
_publ_section_title
;
Structure prediction by ZEFSAII (Michael W. Deem and Ramdas Pophale) SiO2 
 PCOD8101875
Probable space group: C 2/M
;
_chemical_formula_sum "Si O2"
_cell_formula_units_Z 60
_cell_length_a 9.996472
_cell_length_b 27.622301
_cell_length_c 11.024584
_cell_angle_alpha 90.000000
_cell_angle_beta 112.033798
_cell_angle_gamma 90.000000
_cell_volume 2821.831554
_symmetry_space_group_name_H-M "C 2/M"
_symmetry_group_IT_number 12
_symmetry_cell_setting 'monoclinic'
loop_
_space_group_symop_operation_xyz
x,y,z
-x,y,-z
-x,-y,-z
x,-y,z
1/2+x,1/2+y,z
1/2-x,1/2+y,-z
1/2-x,1/2-y,-z
1/2+x,1/2-y,z
loop_
_atom_site_type_symbol
_atom_site_label
_atom_site_fract_x
_atom_site_fract_y
_atom_site_fract_z
Si Si1 0.431647 0.054329 0.245484
Si Si2 0.664581 0.102875 0.017606
Si Si3 0.168093 0.288996 0.053320
Si Si4 0.236866 0.054771 0.717568
Si Si5 0.090236 0.650519 0.646307
Si Si6 0.865857 0.710850 0.685868
Si Si7 0.652889 0.685959 0.400663
Si Si8 0.500000 0.387204 0.500000
O O1 0.599139 0.056487 0.270168
O O2 0.405588 0.092303 0.344715
O O3 0.387991 0.000000 0.271021
O O4 0.324754 0.071161 0.100904
O O5 0.706124 0.158762 0.008689
O O6 0.771672 0.080660 0.154568
O O7 0.500000 0.099759 0.000000
O O8 0.212493 0.288902 0.210373
O O9 0.250000 0.250000 0.000000
O O10 0.000000 0.276067 0.000000
O O11 0.136828 0.080345 0.583606
O O12 0.182676 0.000000 0.714362
O O13 0.252089 0.669789 0.683246
O O14 0.000000 0.667732 0.500000
O O15 0.007954 0.675407 0.733853
O O16 0.745501 0.691343 0.554272
O O17 0.921897 0.763756 0.662892
O O18 0.535758 0.645312 0.393650
#
# Coordination Sequence:
#
# PCOD8101875 Si02
#       8
#     8   8   8   8   8   8   8   4
#     4  10  20  36  63  90 116 155 205 264 314 357
#     4   9  18  36  60  86 116 155 206 258 303 360
#     4  11  24  37  59  91 126 167 200 259 317 375
#     4  10  20  36  59  88 121 158 205 255 308 367
#     4  10  20  38  58  89 120 156 200 265 308 363
#     4  10  22  39  60  84 121 159 209 250 299 366
#     4  10  24  36  62  86 119 163 206 245 301 376
#     4  12  23  38  56  92 124 164 195 252 312 376
#
# _framework density 21.262786999999999
#
# number of rings (size 3 to 8) (size 9 to 14) (size 15 to 20)
#    0.000    1.867    0.000    5.400    8.400    2.933 
#    0.000    1.333    0.000    0.000    0.000    1.867 
#    0.000    0.000    0.000    0.000    0.000    0.000 
#
# Total GULP energy -371928.245815 kJ/mol
# GULP energy per Si atom -12397.608194 kJ/mol
# Density = 2.121439 g / cm^3
# Si number density = 21.262787 Si / 1000 Ang^3
#
#
#
# Elastic Constant Matrix: (Units=GPa)
#
#
# Indices 1 2 3 4 5 6 
#
# 1 59.7863 48.6454 15.1098 0.0000 -15.5596 0.0000
# 2 48.6454 176.7349 30.6013 0.0000 -1.0211 0.0000
# 3 15.1098 30.6013 63.3208 0.0000 -0.8019 0.0000
# 4 0.0000 0.0000 0.0000 34.5392 0.0000 -7.7982
# 5 -15.5596 -1.0211 -0.8019 0.0000 24.5516 0.0000
# 6 0.0000 0.0000 0.0000 -7.7982 0.0000 22.7543
#
#
#
# Elastic Compliance Matrix: (Units=1/GPa)
#
#
# Indices 1 2 3 4 5 6 
#
# 1 0.027622 -0.006985 -0.002999 0.000000 0.017117 0.000000
# 2 -0.006985 0.007942 -0.002224 0.000000 -0.004169 0.000000
# 3 -0.002999 -0.002224 0.017565 0.000000 -0.001419 0.000000
# 4 0.000000 0.000000 0.000000 0.031381 0.000000 0.010755
# 5 0.017117 -0.004169 -0.001419 0.000000 0.051359 0.000000
# 6 0.000000 0.000000 0.000000 0.010755 0.000000 0.047633
#
#
# Mechanical properties :
#
#
# Convention : Reuss Voigt Hill
#
# Bulk Modulus (GPa) = 34.82698 54.28390 44.55544
# Shear Modulus (GPa) = 22.98970 30.06804 26.52887
#
# Velocity S-wave (km/s) = 3.29175 3.76455 3.53606
# Velocity P-wave (km/s) = 5.55539 6.66943 6.13774
#
# Compressibility (1/GPa) = 0.02871337
#
# Stress axis : x y z
#
# Youngs Moduli (GPa) = 36.20290 125.91754 56.93107
#
# Poissons Ratio (x) = 0.87949 0.17073
# Poissons Ratio (y) = 0.25287 0.12662
# Poissons Ratio (z) = 0.10857 0.28006
#
# Static dielectric constant tensor:
#      x y z
#    x 3.561040 0.000000 -0.115920 
#    y 0.000000 4.131930 0.000000 
#    z -0.115920 0.000000 3.897480 
# 
# 
# High freq. dielectric constant tensor:
#      x y z
#    x 1.793500 0.000000 -0.004710 
#    y 0.000000 1.848150 0.000000 
#    z -0.004710 0.000000 1.831250 
# 
# From -- ./inp_files/136990.got.cif
#   From: 2010.06.25/outbox.cif.g09.slc.cpg/sg12_69_cif.got.tgz:136990.got - 2010.06.28 00:19:55.
