data_PCOD8101682
_publ_section_title
;
Structure prediction by ZEFSAII (Michael W. Deem and Ramdas Pophale) SiO2 
 PCOD8101682
Probable space group: C 2/M
;
_chemical_formula_sum "Si O2"
_cell_formula_units_Z 40
_cell_length_a 13.102696
_cell_length_b 9.145969
_cell_length_c 17.414715
_cell_angle_alpha 90.000000
_cell_angle_beta 91.644099
_cell_angle_gamma 90.000000
_cell_volume 2086.065487
_symmetry_space_group_name_H-M "C 2/M"
_symmetry_group_IT_number 12
_symmetry_cell_setting 'monoclinic'
loop_
_space_group_symop_operation_xyz
x,y,z
-x,y,-z
-x,-y,-z
x,-y,z
1/2+x,1/2+y,z
1/2-x,1/2+y,-z
1/2-x,1/2-y,-z
1/2+x,1/2-y,z
loop_
_atom_site_type_symbol
_atom_site_label
_atom_site_fract_x
_atom_site_fract_y
_atom_site_fract_z
Si Si1 0.129187 0.000000 0.585218
Si Si2 0.745031 0.750190 0.332388
Si Si3 0.608154 0.500000 0.403807
Si Si4 0.609790 0.836055 0.790177
Si Si5 0.390005 0.165270 0.808207
Si Si6 0.761229 0.825730 0.919117
O O1 0.196237 0.858704 0.609012
O O2 0.118190 0.000000 0.494584
O O3 0.014017 0.000000 0.620223
O O4 0.665807 0.643631 0.373594
O O5 0.833648 0.662541 0.290341
O O6 0.685094 0.838369 0.265941
O O7 0.497413 0.767768 0.780420
O O8 0.672046 0.762818 0.861551
O O9 0.595027 0.000000 0.817010
O O10 0.362966 0.271951 0.878213
O O11 0.396364 0.000000 0.840036
O O12 0.763875 0.000000 0.928262
O O13 0.750000 0.750000 0.000000
#
# Coordination Sequence:
#
# PCOD8101682 Si02
#       6
#     4   8   4   8   8   8
#     4  11  24  40  59  97 118 163 209 249 311 371
#     4  11  20  40  61  86 121 160 200 252 306 360
#     4  11  24  40  63  85 132 161 199 257 311 369
#     4   9  19  36  59  82 108 153 201 237 299 358
#     4  10  20  36  59  84 110 149 200 250 290 353
#     4  10  21  37  56  81 117 154 192 240 300 357
#
# _framework density 19.174852999999999
#
# number of rings (size 3 to 8) (size 9 to 14) (size 15 to 20)
#    0.000    1.800    2.000    2.400    1.400    0.800 
#    1.800    4.000    0.000    4.800    0.000    0.000 
#    0.000    0.000    0.000    0.000    0.000    0.000 
#
# Total GULP energy -247789.219485 kJ/mol
# GULP energy per Si atom -12389.460974 kJ/mol
# Density = 1.913121 g / cm^3
# Si number density = 19.174853 Si / 1000 Ang^3
#
#
#
# Elastic Constant Matrix: (Units=GPa)
#
#
# Indices 1 2 3 4 5 6 
#
# 1 130.1552 44.0867 39.3738 0.0000 -23.9587 0.0000
# 2 44.0867 99.0422 37.6093 0.0000 -6.4624 0.0000
# 3 39.3738 37.6093 102.4508 0.0000 -13.6024 0.0000
# 4 0.0000 0.0000 0.0000 34.0911 0.0000 -4.5592
# 5 -23.9587 -6.4624 -13.6024 0.0000 24.9324 0.0000
# 6 0.0000 0.0000 0.0000 -4.5592 0.0000 28.0200
#
#
#
# Elastic Compliance Matrix: (Units=1/GPa)
#
#
# Indices 1 2 3 4 5 6 
#
# 1 0.011068 -0.003697 -0.001737 0.000000 0.008730 0.000000
# 2 -0.003697 0.012980 -0.003632 0.000000 -0.002170 0.000000
# 3 -0.001737 -0.003632 0.012307 0.000000 0.004103 0.000000
# 4 0.000000 0.000000 0.000000 0.029986 0.000000 0.004879
# 5 0.008730 -0.002170 0.004103 0.000000 0.050173 0.000000
# 6 0.000000 0.000000 0.000000 0.004879 0.000000 0.036483
#
#
# Mechanical properties :
#
#
# Convention : Reuss Voigt Hill
#
# Bulk Modulus (GPa) = 54.88148 63.75418 59.31783
# Shear Modulus (GPa) = 28.21613 31.44727 29.83170
#
# Velocity S-wave (km/s) = 3.84020 4.05412 3.94861
# Velocity P-wave (km/s) = 6.95317 7.43206 7.19660
#
# Compressibility (1/GPa) = 0.01822108
#
# Stress axis : x y z
#
# Youngs Moduli (GPa) = 90.35048 77.04070 81.25724
#
# Poissons Ratio (x) = 0.28485 0.14117
# Poissons Ratio (y) = 0.33406 0.29514
# Poissons Ratio (z) = 0.15697 0.27982
#
# Static dielectric constant tensor:
#      x y z
#    x 4.077620 0.000000 -0.027100 
#    y 0.000000 3.427780 0.000000 
#    z -0.027100 0.000000 3.374470 
# 
# 
# High freq. dielectric constant tensor:
#      x y z
#    x 1.761210 0.000000 -0.003850 
#    y 0.000000 1.737990 0.000000 
#    z -0.003850 0.000000 1.742920 
# 
# From -- ./inp_files/211387.got.cif
#   From: 2010.06.25/outbox.cif.g09.slc.cpg/sg12_106_cif.got.tgz:211387.got - 2010.06.28 00:19:55.
