data_PCOD8101794
_publ_section_title
;
Structure prediction by ZEFSAII (Michael W. Deem and Ramdas Pophale) SiO2 
 PCOD8101794
Probable space group: C 2/M
;
_chemical_formula_sum "Si O2"
_cell_formula_units_Z 48
_cell_length_a 14.047516
_cell_length_b 17.340421
_cell_length_c 17.159287
_cell_angle_alpha 90.000000
_cell_angle_beta 144.746659
_cell_angle_gamma 90.000000
_cell_volume 2412.566663
_symmetry_space_group_name_H-M "C 2/M"
_symmetry_group_IT_number 12
_symmetry_cell_setting 'monoclinic'
loop_
_space_group_symop_operation_xyz
x,y,z
-x,y,-z
-x,-y,-z
x,-y,z
1/2+x,1/2+y,z
1/2-x,1/2+y,-z
1/2-x,1/2-y,-z
1/2+x,1/2-y,z
loop_
_atom_site_type_symbol
_atom_site_label
_atom_site_fract_x
_atom_site_fract_y
_atom_site_fract_z
Si Si1 0.317840 0.410084 0.893326
Si Si2 0.878946 0.192787 0.547880
Si Si3 0.647127 0.089951 0.940349
Si Si4 0.302086 0.832800 0.722805
Si Si5 0.354554 0.590345 0.230713
Si Si6 0.628948 0.189980 0.648793
O O1 0.319862 0.500000 0.878153
O O2 0.262043 0.390679 0.943385
O O3 0.188655 0.376699 0.745182
O O4 0.500000 0.375189 0.000000
O O5 0.750000 0.250000 0.500000
O O6 0.804533 0.145935 0.424983
O O7 0.962349 0.127634 0.658592
O O8 0.034884 0.243909 0.631408
O O9 0.490034 0.145323 0.831781
O O10 0.593764 0.000000 0.904521
O O11 0.745913 0.112218 0.083587
O O12 0.238621 0.880597 0.754346
O O13 0.284026 0.738737 0.717249
O O14 0.379924 0.500000 0.253974
O O15 0.500000 0.153594 0.500000
#
# Coordination Sequence:
#
# PCOD8101794 Si02
#       6
#     8   8   8   8   8   8
#     4  10  22  40  59  81 112 150 193 239 286 338
#     4  10  21  37  55  81 117 153 190 230 276 336
#     4  10  21  37  58  86 117 149 188 234 285 344
#     4  10  20  36  59  86 117 148 184 234 288 343
#     4  10  21  37  58  86 118 151 189 235 289 344
#     4   9  20  37  56  81 111 145 187 233 282 335
#
# _framework density 19.895824999999999
#
# number of rings (size 3 to 8) (size 9 to 14) (size 15 to 20)
#    0.000    2.167    0.000    3.500    0.000    9.000 
#    0.000    5.833    0.000    0.000    0.000    0.000 
#    0.000    0.000    0.000    0.000    0.000    0.000 
#
# Total GULP energy -297439.057097 kJ/mol
# GULP energy per Si atom -12393.294046 kJ/mol
# Density = 1.985054 g / cm^3
# Si number density = 19.895825 Si / 1000 Ang^3
#
#
#
# Elastic Constant Matrix: (Units=GPa)
#
#
# Indices 1 2 3 4 5 6 
#
# 1 106.3097 46.7965 76.6826 0.0009 6.4928 0.0008
# 2 46.7965 56.7246 73.1734 0.0003 -4.0260 0.0012
# 3 76.6826 73.1734 162.1525 0.0004 -2.4791 0.0028
# 4 0.0009 0.0003 0.0004 45.5811 0.0004 1.7523
# 5 6.4928 -4.0260 -2.4791 0.0004 23.0999 0.0017
# 6 0.0008 0.0012 0.0028 1.7523 0.0017 28.1003
#
#
#
# Elastic Compliance Matrix: (Units=1/GPa)
#
#
# Indices 1 2 3 4 5 6 
#
# 1 0.016645 -0.009385 -0.003739 0.000000 -0.006715 0.000001
# 2 -0.009385 0.048141 -0.017145 0.000000 0.009188 -0.000001
# 3 -0.003739 -0.017145 0.015668 0.000000 -0.000256 -0.000001
# 4 0.000000 0.000000 0.000000 0.021992 0.000000 -0.001371
# 5 -0.006715 0.009188 -0.000256 0.000000 0.046752 -0.000003
# 6 0.000001 -0.000001 -0.000001 -0.001371 -0.000003 0.035672
#
#
# Mechanical properties :
#
#
# Convention : Reuss Voigt Hill
#
# Bulk Modulus (GPa) = 50.21310 79.83242 65.02276
# Shear Modulus (GPa) = 19.83757 27.92521 23.88139
#
# Velocity S-wave (km/s) = 3.16107 3.75049 3.46832
# Velocity P-wave (km/s) = 6.21417 7.67901 6.98510
#
# Compressibility (1/GPa) = 0.01991512
#
# Stress axis : x y z
#
# Youngs Moduli (GPa) = 60.07891 20.77237 63.82278
#
# Poissons Ratio (x) = 0.19495 0.23863
# Poissons Ratio (y) = 0.56384 1.09427
# Poissons Ratio (z) = 0.22463 0.35615
#
# Static dielectric constant tensor:
#      x y z
#    x 3.655000 0.000000 0.018160 
#    y 0.000000 3.139360 0.000000 
#    z 0.018160 0.000000 3.861130 
# 
# 
# High freq. dielectric constant tensor:
#      x y z
#    x 1.774300 0.000000 -0.002880 
#    y 0.000000 1.763840 0.000000 
#    z -0.002880 0.000000 1.790350 
# 
# From -- ./inp_files/271780.got.cif
#   From: 2010.06.25/outbox.cif.g09.slc.cpg/sg12_136_cif.got.tgz:271780.got - 2010.06.28 00:19:55.
