data_PCOD8101139
_publ_section_title
;
Structure prediction by ZEFSAII (Michael W. Deem and Ramdas Pophale) SiO2 
 PCOD8101139
Probable space group: C 2/M
;
_chemical_formula_sum "Si O2"
_cell_formula_units_Z 48
_cell_length_a 18.403798
_cell_length_b 30.753187
_cell_length_c 10.135357
_cell_angle_alpha 90.000000
_cell_angle_beta 153.901405
_cell_angle_gamma 90.000000
_cell_volume 2523.524520
_symmetry_space_group_name_H-M "C 2/M"
_symmetry_group_IT_number 12
_symmetry_cell_setting 'monoclinic'
loop_
_space_group_symop_operation_xyz
x,y,z
-x,y,-z
-x,-y,-z
x,-y,z
1/2+x,1/2+y,z
1/2-x,1/2+y,-z
1/2-x,1/2-y,-z
1/2+x,1/2-y,z
loop_
_atom_site_type_symbol
_atom_site_label
_atom_site_fract_x
_atom_site_fract_y
_atom_site_fract_z
Si Si1 0.846649 0.950933 0.344674
Si Si2 0.110469 0.375620 0.879529
Si Si3 0.537432 0.548908 0.913351
Si Si4 0.153467 0.206269 0.153263
Si Si5 0.515300 0.206489 0.870739
Si Si6 0.735370 0.876991 0.794895
O O1 0.883525 0.949926 0.561837
O O2 0.000000 0.937204 0.500000
O O3 0.791643 0.000000 0.215140
O O4 0.696983 0.917477 0.083886
O O5 0.126815 0.332397 0.994205
O O6 0.184838 0.365252 0.859330
O O7 0.916685 0.384783 0.551113
O O8 0.606968 0.500000 0.040244
O O9 0.500000 0.567014 0.000000
O O10 0.671808 0.577617 0.058992
O O11 0.331114 0.210682 0.512455
O O12 0.149529 0.163059 0.059217
O O13 0.118174 0.249359 0.008728
O O14 0.000000 0.201512 0.000000
O O15 0.500000 0.197861 0.000000
#
# Coordination Sequence:
#
# PCOD8101139 Si02
#       6
#     8   8   8   8   8   8
#     4  10  20  37  58  83 113 146 188 232 275 334
#     4  10  22  37  55  84 113 146 187 233 282 340
#     4  10  21  37  58  85 115 148 190 234 280 336
#     4  10  20  36  57  80 109 147 187 231 281 335
#     4  10  21  37  56  80 110 144 188 233 281 337
#     4  10  21  37  56  81 116 149 187 231 283 339
#
# _framework density 19.021017000000001
#
# number of rings (size 3 to 8) (size 9 to 14) (size 15 to 20)
#    0.000    2.000    1.667    2.500    0.000    6.667 
#    0.000    1.667    0.000    3.500    0.000    0.000 
#    0.000    0.000    0.000    0.000    0.000    0.000 
#
# Total GULP energy -297482.307685 kJ/mol
# GULP energy per Si atom -12395.096154 kJ/mol
# Density = 1.897772 g / cm^3
# Si number density = 19.021017 Si / 1000 Ang^3
#
#
#
# Elastic Constant Matrix: (Units=GPa)
#
#
# Indices 1 2 3 4 5 6 
#
# 1 64.5276 41.9017 26.1956 0.0000 -4.6117 0.0000
# 2 41.9017 147.4784 62.7589 0.0000 12.0960 0.0000
# 3 26.1956 62.7589 80.2855 0.0000 1.7741 0.0000
# 4 0.0000 0.0000 0.0000 34.8394 0.0000 3.8177
# 5 -4.6117 12.0960 1.7741 0.0000 26.2882 0.0000
# 6 0.0000 0.0000 0.0000 3.8177 0.0000 34.7106
#
#
#
# Elastic Compliance Matrix: (Units=1/GPa)
#
#
# Indices 1 2 3 4 5 6 
#
# 1 0.020383 -0.005102 -0.002797 0.000000 0.006112 0.000000
# 2 -0.005102 0.011910 -0.007515 0.000000 -0.005868 0.000000
# 3 -0.002797 -0.007515 0.019206 0.000000 0.001671 0.000000
# 4 0.000000 0.000000 0.000000 0.029053 0.000000 -0.003195
# 5 0.006112 -0.005868 0.001671 0.000000 0.041699 0.000000
# 6 0.000000 0.000000 0.000000 -0.003195 0.000000 0.029161
#
#
# Mechanical properties :
#
#
# Convention : Reuss Voigt Hill
#
# Bulk Modulus (GPa) = 48.38160 61.55600 54.96880
# Shear Modulus (GPa) = 26.43663 29.92997 28.18330
#
# Velocity S-wave (km/s) = 3.73213 3.97107 3.85345
# Velocity P-wave (km/s) = 6.63798 7.31151 6.98287
#
# Compressibility (1/GPa) = 0.02066901
#
# Stress axis : x y z
#
# Youngs Moduli (GPa) = 49.06107 83.96521 52.06688
#
# Poissons Ratio (x) = 0.42840 0.14564
# Poissons Ratio (y) = 0.25032 0.39130
# Poissons Ratio (z) = 0.13724 0.63103
#
# Static dielectric constant tensor:
#      x y z
#    x 3.495690 0.000000 -0.128200 
#    y 0.000000 3.758600 0.000000 
#    z -0.128200 0.000000 3.461880 
# 
# 
# High freq. dielectric constant tensor:
#      x y z
#    x 1.735560 0.000000 -0.009410 
#    y 0.000000 1.755360 0.000000 
#    z -0.009410 0.000000 1.731350 
# 
# From -- ./inp_files/123508.got.cif
#   From: 2010.06.25/outbox.cif.g09.slc.cpg/sg12_62_cif.got.tgz:123508.got - 2010.06.28 00:19:55.
