data_PCOD8101206
_publ_section_title
;
Structure prediction by ZEFSAII (Michael W. Deem and Ramdas Pophale) SiO2 
 PCOD8101206
Probable space group: C 2/M
;
_chemical_formula_sum "Si O2"
_cell_formula_units_Z 64
_cell_length_a 29.232417
_cell_length_b 9.008686
_cell_length_c 14.624534
_cell_angle_alpha 90.000000
_cell_angle_beta 119.325266
_cell_angle_gamma 90.000000
_cell_volume 3357.775595
_symmetry_space_group_name_H-M "C 2/M"
_symmetry_group_IT_number 12
_symmetry_cell_setting 'monoclinic'
loop_
_space_group_symop_operation_xyz
x,y,z
-x,y,-z
-x,-y,-z
x,-y,z
1/2+x,1/2+y,z
1/2-x,1/2+y,-z
1/2-x,1/2-y,-z
1/2+x,1/2-y,z
loop_
_atom_site_type_symbol
_atom_site_label
_atom_site_fract_x
_atom_site_fract_y
_atom_site_fract_z
Si Si1 0.881690 0.171686 0.757141
Si Si2 0.755992 0.826623 0.909318
Si Si3 0.644969 0.827354 0.727697
Si Si4 0.868187 0.826038 0.951211
Si Si5 0.694109 0.175946 0.451796
Si Si6 0.030261 0.168365 0.297817
Si Si7 0.622492 0.672912 0.523915
Si Si8 0.075743 0.673084 0.831991
O O1 0.885672 0.217857 0.866480
O O2 0.838747 0.276074 0.668787
O O3 0.937862 0.197140 0.764682
O O4 0.864053 0.000000 0.728012
O O5 0.706661 0.788858 0.796056
O O6 0.808665 0.770415 0.910601
O O7 0.758085 0.000000 0.931444
O O8 0.750000 0.750000 0.000000
O O9 0.618617 0.727293 0.624037
O O10 0.617613 0.782649 0.795803
O O11 0.635661 0.000000 0.695688
O O12 0.872142 0.000000 0.971131
O O13 0.909086 0.750657 0.058907
O O14 0.750000 0.250000 0.500000
O O15 0.667251 0.232313 0.518250
O O16 0.699442 0.000000 0.460670
O O17 0.066830 0.201218 0.420959
O O18 0.981739 0.278597 0.256154
O O19 0.009411 0.000000 0.279975
O O20 0.637561 0.500000 0.533702
O O21 0.075570 0.500000 0.849963
#
# Coordination Sequence:
#
# PCOD8101206 Si02
#       8
#     8   8   8   8   8   8   8   8
#     4   9  20  39  60  85 115 149 193 243 292 345
#     4  10  20  36  57  82 115 154 191 232 287 344
#     4  10  22  38  56  85 120 154 190 236 291 345
#     4  10  21  37  60  86 114 153 195 235 287 347
#     4  11  22  37  58  85 118 155 194 238 286 343
#     4   9  20  40  61  81 113 149 190 243 295 349
#     4  10  22  40  61  87 115 150 194 241 292 347
#     4  11  23  38  58  84 117 153 196 243 289 345
#
# _framework density 19.060237000000001
#
# number of rings (size 3 to 8) (size 9 to 14) (size 15 to 20)
#    0.000    2.000    1.250    2.625    1.750    5.500 
#    0.000    5.000    0.000    0.000    0.000    0.000 
#    0.000    0.000    0.000    0.000    0.000    0.000 
#
# Total GULP energy -396925.727713 kJ/mol
# GULP energy per Si atom -12403.928991 kJ/mol
# Density = 1.901686 g / cm^3
# Si number density = 19.060237 Si / 1000 Ang^3
#
#
#
# Elastic Constant Matrix: (Units=GPa)
#
#
# Indices 1 2 3 4 5 6 
#
# 1 55.7016 29.2925 32.8035 0.0000 12.9432 0.0000
# 2 29.2925 75.1692 42.6180 0.0000 -0.8711 0.0000
# 3 32.8035 42.6180 108.4103 0.0000 -8.7280 0.0000
# 4 0.0000 0.0000 0.0000 36.1770 0.0000 0.2450
# 5 12.9432 -0.8711 -8.7280 0.0000 28.9345 0.0000
# 6 0.0000 0.0000 0.0000 0.2450 0.0000 31.8088
#
#
#
# Elastic Compliance Matrix: (Units=1/GPa)
#
#
# Indices 1 2 3 4 5 6 
#
# 1 0.030017 -0.007730 -0.007321 0.000000 -0.015869 0.000000
# 2 -0.007730 0.019178 -0.004997 0.000000 0.002528 0.000000
# 3 -0.007321 -0.004997 0.013995 0.000000 0.007346 0.000000
# 4 0.000000 0.000000 0.000000 0.027643 0.000000 -0.000213
# 5 -0.015869 0.002528 0.007346 0.000000 0.043952 0.000000
# 6 0.000000 0.000000 0.000000 -0.000213 0.000000 0.031439
#
#
# Mechanical properties :
#
#
# Convention : Reuss Voigt Hill
#
# Bulk Modulus (GPa) = 43.30176 49.85657 46.57917
# Shear Modulus (GPa) = 23.36245 28.35521 25.85883
#
# Velocity S-wave (km/s) = 3.50482 3.86121 3.68732
# Velocity P-wave (km/s) = 6.25668 6.78916 6.52835
#
# Compressibility (1/GPa) = 0.02309375
#
# Stress axis : x y z
#
# Youngs Moduli (GPa) = 33.31442 52.14363 71.45271
#
# Poissons Ratio (x) = 0.40308 0.52314
# Poissons Ratio (y) = 0.25753 0.35702
# Poissons Ratio (z) = 0.24391 0.26054
#
# Static dielectric constant tensor:
#      x y z
#    x 3.603150 0.000000 -0.176160 
#    y 0.000000 3.433280 0.000000 
#    z -0.176160 0.000000 7.333420 
# 
# 
# High freq. dielectric constant tensor:
#      x y z
#    x 1.743970 0.000000 -0.000670 
#    y 0.000000 1.739120 0.000000 
#    z -0.000670 0.000000 1.745410 
# 
# From -- ./inp_files/244255.got.cif
#   From: 2010.06.25/outbox.cif.g09.slc.cpg/sg12_123_cif.got.tgz:244255.got - 2010.06.28 00:19:55.
