data_PCOD8101818
_publ_section_title
;
Structure prediction by ZEFSAII (Michael W. Deem and Ramdas Pophale) SiO2 
 PCOD8101818
Probable space group: C 2/M
;
_chemical_formula_sum "Si O2"
_cell_formula_units_Z 64
_cell_length_a 27.981698
_cell_length_b 14.328903
_cell_length_c 9.096655
_cell_angle_alpha 90.000000
_cell_angle_beta 64.631917
_cell_angle_gamma 90.000000
_cell_volume 3295.584887
_symmetry_space_group_name_H-M "C 2/M"
_symmetry_group_IT_number 12
_symmetry_cell_setting 'monoclinic'
loop_
_space_group_symop_operation_xyz
x,y,z
-x,y,-z
-x,-y,-z
x,-y,z
1/2+x,1/2+y,z
1/2-x,1/2+y,-z
1/2-x,1/2-y,-z
1/2+x,1/2-y,z
loop_
_atom_site_type_symbol
_atom_site_label
_atom_site_fract_x
_atom_site_fract_y
_atom_site_fract_z
Si Si1 0.554250 0.891667 0.642214
Si Si2 0.623927 0.741329 0.050252
Si Si3 0.005775 0.770701 0.163071
Si Si4 0.778212 0.336081 0.534131
Si Si5 0.868146 0.728481 0.625826
Si Si6 0.865582 0.603519 0.203071
Si Si7 0.170834 0.897400 0.780411
Si Si8 0.907119 0.111421 0.377347
O O1 0.503488 0.825422 0.732520
O O2 0.587829 0.851624 0.461378
O O3 0.587439 0.876054 0.746165
O O4 0.538801 0.000000 0.634769
O O5 0.564965 0.697847 0.125404
O O6 0.642819 0.765642 0.187740
O O7 0.628008 0.832848 0.946274
O O8 0.664566 0.666071 0.931884
O O9 0.966169 0.854618 0.259407
O O10 0.000000 0.748817 0.000000
O O11 0.750000 0.250000 0.500000
O O12 0.813927 0.303239 0.622462
O O13 0.810758 0.386078 0.362642
O O14 0.732118 0.403594 0.653156
O O15 0.887414 0.830418 0.544505
O O16 0.869165 0.500000 0.135340
O O17 0.133017 0.858895 0.699997
O O18 0.151199 0.000000 0.847926
O O19 0.906611 0.000000 0.409552
#
# Coordination Sequence:
#
# PCOD8101818 Si02
#       8
#     8   8   8   8   8   8   8   8
#     4   9  19  37  60  83 113 155 200 233 275 341
#     4  12  23  38  57  88 125 150 189 242 297 339
#     4  11  20  36  59  87 117 156 195 238 285 337
#     4  11  19  40  66  82 107 151 196 232 285 349
#     4  10  23  39  60  86 121 152 185 243 293 344
#     4  10  20  36  59  87 114 149 193 239 283 341
#     4  11  22  38  63  88 113 151 200 244 286 345
#     4  10  21  39  61  87 115 156 204 238 277 342
#
# _framework density 19.419920999999999
#
# number of rings (size 3 to 8) (size 9 to 14) (size 15 to 20)
#    0.000    1.500    5.000    1.125    0.000    5.500 
#    0.000    1.250    0.000    0.000    0.000    0.000 
#    0.000    0.000    0.000    0.000    0.000    0.000 
#
# Total GULP energy -396788.492922 kJ/mol
# GULP energy per Si atom -12399.640404 kJ/mol
# Density = 1.937572 g / cm^3
# Si number density = 19.419921 Si / 1000 Ang^3
#
#
#
# Elastic Constant Matrix: (Units=GPa)
#
#
# Indices 1 2 3 4 5 6 
#
# 1 61.7699 4.3151 33.3701 0.0000 -8.9732 0.0000
# 2 4.3151 96.5850 40.7511 0.0000 1.1459 0.0000
# 3 33.3701 40.7511 112.4388 0.0000 8.3187 0.0000
# 4 0.0000 0.0000 0.0000 11.6703 0.0000 -4.0157
# 5 -8.9732 1.1459 8.3187 0.0000 35.0047 0.0000
# 6 0.0000 0.0000 0.0000 -4.0157 0.0000 19.6943
#
#
#
# Elastic Compliance Matrix: (Units=1/GPa)
#
#
# Indices 1 2 3 4 5 6 
#
# 1 0.021188 0.002178 -0.007608 0.000000 0.007168 0.000000
# 2 0.002178 0.012462 -0.005267 0.000000 0.001402 0.000000
# 3 -0.007608 -0.005267 0.013428 0.000000 -0.004969 0.000000
# 4 0.000000 0.000000 0.000000 0.092153 0.000000 0.018790
# 5 0.007168 0.001402 -0.004969 0.000000 0.031540 0.000000
# 6 0.000000 0.000000 0.000000 0.018790 0.000000 0.054607
#
#
# Mechanical properties :
#
#
# Convention : Reuss Voigt Hill
#
# Bulk Modulus (GPa) = 38.93294 47.51848 43.22571
# Shear Modulus (GPa) = 19.58220 26.09769 22.83995
#
# Velocity S-wave (km/s) = 3.17891 3.66985 3.43317
# Velocity P-wave (km/s) = 5.79357 6.51760 6.16622
#
# Compressibility (1/GPa) = 0.02568519
#
# Stress axis : x y z
#
# Youngs Moduli (GPa) = 47.19545 80.24555 74.47023
#
# Poissons Ratio (x) = -0.17481 0.56659
# Poissons Ratio (y) = -0.10281 0.39222
# Poissons Ratio (z) = 0.35908 0.42263
#
# Static dielectric constant tensor:
#      x y z
#    x 1.415610 0.000000 1.024480 
#    y 0.000000 3.458330 0.000000 
#    z 1.024480 0.000000 2.734670 
# 
# 
# High freq. dielectric constant tensor:
#      x y z
#    x 1.745160 0.000000 -0.015920 
#    y 0.000000 1.761450 0.000000 
#    z -0.015920 0.000000 1.751890 
# 
# From -- ./inp_files/111612.got.cif
#   From: 2010.06.25/outbox.cif.g09.slc.cpg/sg12_56_cif.got.tgz:111612.got - 2010.06.28 00:19:55.
