data_PCOD8101722
_publ_section_title
;
Structure prediction by ZEFSAII (Michael W. Deem and Ramdas Pophale) SiO2 
 PCOD8101722
Probable space group: C 2/M
;
_chemical_formula_sum "Si O2"
_cell_formula_units_Z 48
_cell_length_a 17.191760
_cell_length_b 30.951060
_cell_length_c 9.459808
_cell_angle_alpha 90.000000
_cell_angle_beta 30.461759
_cell_angle_gamma 90.000000
_cell_volume 2551.846811
_symmetry_space_group_name_H-M "C 2/M"
_symmetry_group_IT_number 12
_symmetry_cell_setting 'monoclinic'
loop_
_space_group_symop_operation_xyz
x,y,z
-x,y,-z
-x,-y,-z
x,-y,z
1/2+x,1/2+y,z
1/2-x,1/2+y,-z
1/2-x,1/2-y,-z
1/2+x,1/2-y,z
loop_
_atom_site_type_symbol
_atom_site_label
_atom_site_fract_x
_atom_site_fract_y
_atom_site_fract_z
Si Si1 0.406470 0.593708 0.002717
Si Si2 0.549720 0.335320 0.579875
Si Si3 0.950169 0.500000 0.417952
Si Si4 0.092503 0.665783 0.999035
Si Si5 0.095459 0.000000 0.991162
Si Si6 0.546147 0.093484 0.590069
Si Si7 0.924744 0.257426 0.762174
O O1 0.436751 0.546177 0.880409
O O2 0.228095 0.600153 0.318488
O O3 0.500000 0.597439 0.000000
O O4 0.459891 0.631238 0.816828
O O5 0.500000 0.346083 0.500000
O O6 0.730418 0.339782 0.317193
O O7 0.502108 0.286701 0.694523
O O8 0.770724 0.500000 0.674296
O O9 0.008690 0.545939 0.264941
O O10 0.000000 0.500000 0.500000
O O11 0.056186 0.709201 0.141131
O O12 0.000000 0.667067 0.000000
O O13 0.043700 0.625937 0.170785
O O14 0.000000 0.000000 0.000000
O O15 0.500000 0.100553 0.500000
O O16 0.000000 0.275356 0.500000
O O17 0.750000 0.250000 0.000000
#
# Coordination Sequence:
#
# PCOD8101722 Si02
#       7
#     8   8   4   8   4   8   8
#     4  10  20  36  59  85 113 151 194 234 278 333
#     4  11  23  40  58  84 117 147 189 237 284 342
#     4   8  16  32  54  86 112 142 200 240 264 330
#     4  12  25  39  58  90 121 147 189 242 289 341
#     4   8  16  32  54  80 112 148 188 230 276 332
#     4  10  20  36  62  85 113 157 196 234 282 340
#     4  11  23  44  65  83 112 155 192 230 289 348
#
# _framework density 18.809906999999999
#
# number of rings (size 3 to 8) (size 9 to 14) (size 15 to 20)
#    0.000    1.667    3.333    2.500    2.333    1.333 
#    0.000    1.667    0.000    0.000    0.000    0.000 
#    0.000    0.000    0.000    0.000    0.000    0.000 
#
# Total GULP energy -297400.377448 kJ/mol
# GULP energy per Si atom -12391.682394 kJ/mol
# Density = 1.876709 g / cm^3
# Si number density = 18.809907 Si / 1000 Ang^3
#
#
#
# Elastic Constant Matrix: (Units=GPa)
#
#
# Indices 1 2 3 4 5 6 
#
# 1 100.9378 36.1689 21.4462 0.0000 -18.6788 0.0000
# 2 36.1689 167.4804 53.4315 0.0000 11.1869 0.0000
# 3 21.4462 53.4315 79.3912 -0.0001 -15.0614 0.0000
# 4 0.0000 0.0000 -0.0001 11.0104 0.0000 -5.6150
# 5 -18.6788 11.1869 -15.0614 0.0000 37.0417 0.0000
# 6 0.0000 0.0000 0.0000 -5.6150 0.0000 40.9790
#
#
#
# Elastic Compliance Matrix: (Units=1/GPa)
#
#
# Indices 1 2 3 4 5 6 
#
# 1 0.012369 -0.003228 0.000216 0.000000 0.007299 0.000000
# 2 -0.003228 0.009301 -0.006750 0.000000 -0.007181 0.000000
# 3 0.000216 -0.006750 0.018950 0.000000 0.009853 0.000000
# 4 0.000000 0.000000 0.000000 0.097647 0.000000 0.013380
# 5 0.007299 -0.007181 0.009853 0.000000 0.036852 0.000000
# 6 0.000000 0.000000 0.000000 0.013380 0.000000 0.026236
#
#
# Mechanical properties :
#
#
# Convention : Reuss Voigt Hill
#
# Bulk Modulus (GPa) = 47.40373 63.32251 55.36312
# Shear Modulus (GPa) = 21.93845 33.59039 27.76442
#
# Velocity S-wave (km/s) = 3.41885 4.23044 3.84611
# Velocity P-wave (km/s) = 6.39069 7.58944 7.01572
#
# Compressibility (1/GPa) = 0.02109539
#
# Stress axis : x y z
#
# Youngs Moduli (GPa) = 80.85029 107.51443 52.77120
#
# Poissons Ratio (x) = 0.34700 -0.01139
# Poissons Ratio (y) = 0.26095 0.35622
# Poissons Ratio (z) = -0.01745 0.72575
#
# Static dielectric constant tensor:
#      x y z
#    x 3.577750 0.000000 -0.120820 
#    y 0.000000 4.616840 0.000000 
#    z -0.120820 0.000000 3.763440 
# 
# 
# High freq. dielectric constant tensor:
#      x y z
#    x 1.740170 0.000000 -0.026350 
#    y 0.000000 1.758660 0.000000 
#    z -0.026350 0.000000 1.709780 
# 
# From -- ./inp_files/80643.got.cif
#   From: 2010.06.25/outbox.cif.g09.slc.cpg/sg12_41_cif.got.tgz:80643.got - 2010.06.28 00:19:55.
