data_PCOD8101325
_publ_section_title
;
Structure prediction by ZEFSAII (Michael W. Deem and Ramdas Pophale) SiO2 
 PCOD8101325
Probable space group: C 2/M
;
_chemical_formula_sum "Si O2"
_cell_formula_units_Z 56
_cell_length_a 11.734701
_cell_length_b 14.006271
_cell_length_c 18.785591
_cell_angle_alpha 90.000000
_cell_angle_beta 112.350660
_cell_angle_gamma 90.000000
_cell_volume 2855.629865
_symmetry_space_group_name_H-M "C 2/M"
_symmetry_group_IT_number 12
_symmetry_cell_setting 'monoclinic'
loop_
_space_group_symop_operation_xyz
x,y,z
-x,y,-z
-x,-y,-z
x,-y,z
1/2+x,1/2+y,z
1/2-x,1/2+y,-z
1/2-x,1/2-y,-z
1/2+x,1/2-y,z
loop_
_atom_site_type_symbol
_atom_site_label
_atom_site_fract_x
_atom_site_fract_y
_atom_site_fract_z
Si Si1 0.709510 0.108973 0.943335
Si Si2 0.168441 0.305542 0.338181
Si Si3 0.565772 0.891843 0.174926
Si Si4 0.107747 0.609693 0.472087
Si Si5 0.659299 0.604103 0.375489
Si Si6 0.070154 0.893120 0.583491
Si Si7 0.363270 0.220307 0.940135
O O1 0.577899 0.115518 0.875004
O O2 0.800639 0.175924 0.919896
O O3 0.757831 0.000000 0.955562
O O4 0.706806 0.147996 0.023454
O O5 0.088134 0.358542 0.260357
O O6 0.106471 0.326935 0.400213
O O7 0.166828 0.191534 0.322089
O O8 0.310076 0.334778 0.366996
O O9 0.642451 0.826066 0.139123
O O10 0.612284 0.000000 0.176568
O O11 0.082953 0.500000 0.444833
O O12 0.242004 0.622118 0.538481
O O13 0.000000 0.645226 0.500000
O O14 0.686393 0.500000 0.345888
O O15 0.521141 0.603192 0.371967
O O16 0.000000 0.844836 0.500000
O O17 0.113150 0.000000 0.571626
O O18 0.500000 0.236267 0.000000
#
# Coordination Sequence:
#
# PCOD8101325 Si02
#       7
#     8   8   8   8   8   8   8
#     4   9  18  35  60  89 121 154 187 224 271 334
#     4  12  23  35  61  83 111 149 199 240 296 345
#     4  10  21  37  57  85 116 147 189 237 283 333
#     4  10  21  37  57  83 110 140 189 247 298 349
#     4  10  23  39  54  77 109 144 189 242 294 347
#     4  10  20  36  58  80 104 138 188 243 288 341
#     4   9  18  35  60  87 117 153 190 225 270 329
#
# _framework density 19.610385000000001
#
# number of rings (size 3 to 8) (size 9 to 14) (size 15 to 20)
#    0.000    2.000    1.429    2.143    2.000    3.143 
#    0.000    0.714    0.000    3.429    0.000    0.000 
#    0.000    0.000    0.000    0.000    0.000    0.000 
#
# Total GULP energy -347204.598051 kJ/mol
# GULP energy per Si atom -12400.164216 kJ/mol
# Density = 1.956575 g / cm^3
# Si number density = 19.610385 Si / 1000 Ang^3
#
#
#
# Elastic Constant Matrix: (Units=GPa)
#
#
# Indices 1 2 3 4 5 6 
#
# 1 84.8397 52.0248 27.4055 0.0000 -11.4768 0.0000
# 2 52.0248 164.8352 39.7690 0.0000 -3.7080 0.0000
# 3 27.4055 39.7690 69.7417 0.0000 -7.0343 0.0000
# 4 0.0000 0.0000 0.0000 25.8465 0.0000 -0.1897
# 5 -11.4768 -3.7080 -7.0343 0.0000 13.7944 0.0000
# 6 0.0000 0.0000 0.0000 -0.1897 0.0000 35.3652
#
#
#
# Elastic Compliance Matrix: (Units=1/GPa)
#
#
# Indices 1 2 3 4 5 6 
#
# 1 0.016994 -0.004375 -0.003031 0.000000 0.011417 0.000000
# 2 -0.004375 0.008161 -0.003247 0.000000 -0.003102 0.000000
# 3 -0.003031 -0.003247 0.017963 0.000000 0.005765 0.000000
# 4 0.000000 0.000000 0.000000 0.038692 0.000000 0.000208
# 5 0.011417 -0.003102 0.005765 0.000000 0.084098 0.000000
# 6 0.000000 0.000000 0.000000 0.000208 0.000000 0.028278
#
#
# Mechanical properties :
#
#
# Convention : Reuss Voigt Hill
#
# Bulk Modulus (GPa) = 45.85088 61.97947 53.91517
# Shear Modulus (GPa) = 22.44540 28.34901 25.39720
#
# Velocity S-wave (km/s) = 3.38682 3.80625 3.60264
# Velocity P-wave (km/s) = 6.22300 7.14078 6.69763
#
# Compressibility (1/GPa) = 0.02180983
#
# Stress axis : x y z
#
# Youngs Moduli (GPa) = 58.84599 122.52974 55.66970
#
# Poissons Ratio (x) = 0.53610 0.16875
# Poissons Ratio (y) = 0.25747 0.18078
# Poissons Ratio (z) = 0.17838 0.39791
#
# Static dielectric constant tensor:
#      x y z
#    x 3.505920 0.000000 0.036040 
#    y 0.000000 3.911480 0.000000 
#    z 0.036040 0.000000 3.250430 
# 
# 
# High freq. dielectric constant tensor:
#      x y z
#    x 1.759920 0.000000 0.008260 
#    y 0.000000 1.783160 0.000000 
#    z 0.008260 0.000000 1.729080 
# 
# From -- ./inp_files/262815.got.cif
#   From: 2010.06.25/outbox.cif.g09.slc.cpg/sg12_132_cif.got.tgz:262815.got - 2010.06.28 00:19:55.
