data_PCOD8101556
_publ_section_title
;
Structure prediction by ZEFSAII (Michael W. Deem and Ramdas Pophale) SiO2 
 PCOD8101556
Probable space group: C 2/M
;
_chemical_formula_sum "Si O2"
_cell_formula_units_Z 40
_cell_length_a 19.295229
_cell_length_b 7.933210
_cell_length_c 29.225759
_cell_angle_alpha 90.000000
_cell_angle_beta 26.751014
_cell_angle_gamma 90.000000
_cell_volume 2013.666030
_symmetry_space_group_name_H-M "C 2/M"
_symmetry_group_IT_number 12
_symmetry_cell_setting 'monoclinic'
loop_
_space_group_symop_operation_xyz
x,y,z
-x,y,-z
-x,-y,-z
x,-y,z
1/2+x,1/2+y,z
1/2-x,1/2+y,-z
1/2-x,1/2-y,-z
1/2+x,1/2-y,z
loop_
_atom_site_type_symbol
_atom_site_label
_atom_site_fract_x
_atom_site_fract_y
_atom_site_fract_z
Si Si1 0.570148 0.189375 0.909012
Si Si2 0.779553 0.309021 0.032789
Si Si3 0.017440 0.684297 0.249126
Si Si4 0.063565 0.000000 0.389033
Si Si5 0.246352 0.000000 0.371370
Si Si6 0.600394 0.192625 0.298804
O O1 0.718783 0.306990 0.819332
O O2 0.619070 0.000000 0.863705
O O3 0.500000 0.175608 0.000000
O O4 0.435005 0.280105 0.959137
O O5 0.829555 0.500000 0.002777
O O6 0.628050 0.297517 0.153313
O O7 0.750000 0.250000 0.000000
O O8 0.097219 0.500000 0.204389
O O9 0.006798 0.749542 0.307961
O O10 0.848233 0.666347 0.325071
O O11 0.063587 0.827790 0.359853
O O12 0.206886 0.000000 0.340467
O O13 0.906577 0.000000 0.509268
O O14 0.555369 0.000000 0.340223
#
# Coordination Sequence:
#
# PCOD8101556 Si02
#       6
#     8   8   8   4   4   8
#     4  10  20  36  58  85 126 171 209 250 307 377
#     4  11  23  35  57  89 128 174 213 250 313 383
#     4   9  21  41  60  87 130 159 209 266 315 379
#     4  11  24  46  75  90 125 171 218 271 340 385
#     4   9  24  48  68  89 127 175 201 276 346 379
#     4  11  23  39  66 100 126 166 218 270 318 387
#
# _framework density 19.864267000000002
#
# number of rings (size 3 to 8) (size 9 to 14) (size 15 to 20)
#    0.600    1.200    3.000    0.600    4.200    2.800 
#    0.000    3.000    0.000    0.000    0.000    0.000 
#    0.000    0.000    0.000    0.000    0.000    0.000 
#
# Total GULP energy -247786.353939 kJ/mol
# GULP energy per Si atom -12389.317697 kJ/mol
# Density = 1.981906 g / cm^3
# Si number density = 19.864267 Si / 1000 Ang^3
#
#
#
# Elastic Constant Matrix: (Units=GPa)
#
#
# Indices 1 2 3 4 5 6 
#
# 1 174.0868 36.8735 32.2830 0.0276 0.2309 -0.0549
# 2 36.8735 71.6175 21.7570 0.0395 12.0321 -0.0547
# 3 32.2830 21.7570 50.7165 -0.0025 0.8233 -0.0104
# 4 0.0276 0.0395 -0.0025 18.5918 -0.0037 4.7040
# 5 0.2309 12.0321 0.8233 -0.0037 35.8808 0.0116
# 6 -0.0549 -0.0547 -0.0104 4.7040 0.0116 28.7917
#
#
#
# Elastic Compliance Matrix: (Units=1/GPa)
#
#
# Indices 1 2 3 4 5 6 
#
# 1 0.006925 -0.002738 -0.003249 -0.000007 0.000948 0.000008
# 2 -0.002738 0.018182 -0.005961 -0.000046 -0.005943 0.000037
# 3 -0.003249 -0.005961 0.024319 0.000024 0.001462 -0.000013
# 4 -0.000007 -0.000046 0.000024 0.056107 0.000024 -0.009167
# 5 0.000948 -0.005943 0.001462 0.000024 0.029823 -0.000025
# 6 0.000008 0.000037 -0.000013 -0.009167 -0.000025 0.036230
#
#
# Mechanical properties :
#
#
# Convention : Reuss Voigt Hill
#
# Bulk Modulus (GPa) = 39.16814 53.13867 46.15340
# Shear Modulus (GPa) = 24.51073 30.35334 27.43204
#
# Velocity S-wave (km/s) = 3.51652 3.91325 3.72018
# Velocity P-wave (km/s) = 6.02068 6.87219 6.46048
#
# Compressibility (1/GPa) = 0.02553095
#
# Stress axis : x y z
#
# Youngs Moduli (GPa) = 144.39479 54.99941 41.12007
#
# Poissons Ratio (x) = 0.15058 0.13361
# Poissons Ratio (y) = 0.39534 0.24510
# Poissons Ratio (z) = 0.46916 0.32784
#
# Static dielectric constant tensor:
#      x y z
#    x 3.858140 0.000000 -0.006780 
#    y 0.000000 3.438330 -0.000020 
#    z -0.006780 -0.000020 3.180100 
# 
# 
# High freq. dielectric constant tensor:
#      x y z
#    x 1.793070 0.000000 -0.004390 
#    y 0.000000 1.754530 0.000000 
#    z -0.004390 0.000000 1.758940 
# 
# From -- ./inp_files/362601.got.cif
#   From: 2010.06.25/outbox.cif.g09.slc.cpg/sg12_182_cif.got.tgz:362601.got - 2010.06.28 00:19:55.
