data_PCOD8101439
_publ_section_title
;
Structure prediction by ZEFSAII (Michael W. Deem and Ramdas Pophale) SiO2 
 PCOD8101439
Probable space group: C 2/M
;
_chemical_formula_sum "Si O2"
_cell_formula_units_Z 52
_cell_length_a 13.302712
_cell_length_b 13.130299
_cell_length_c 18.777464
_cell_angle_alpha 90.000000
_cell_angle_beta 58.916857
_cell_angle_gamma 90.000000
_cell_volume 2808.911428
_symmetry_space_group_name_H-M "C 2/M"
_symmetry_group_IT_number 12
_symmetry_cell_setting 'monoclinic'
loop_
_space_group_symop_operation_xyz
x,y,z
-x,y,-z
-x,-y,-z
x,-y,z
1/2+x,1/2+y,z
1/2-x,1/2+y,-z
1/2-x,1/2-y,-z
1/2+x,1/2-y,z
loop_
_atom_site_type_symbol
_atom_site_label
_atom_site_fract_x
_atom_site_fract_y
_atom_site_fract_z
Si Si1 0.689703 0.712236 0.801747
Si Si2 0.000000 0.253639 0.500000
Si Si3 0.082726 0.117160 0.594340
Si Si4 0.082505 0.785637 0.097698
Si Si5 0.758536 0.117907 0.070570
Si Si6 0.365739 0.617879 0.772668
Si Si7 0.786469 0.618193 0.625562
O O1 0.553727 0.738429 0.858147
O O2 0.730253 0.637395 0.849634
O O3 0.758066 0.818895 0.779745
O O4 0.712946 0.655160 0.719862
O O5 0.926795 0.184491 0.472541
O O6 0.909100 0.323160 0.576159
O O7 0.209009 0.137833 0.583525
O O8 0.982455 0.147193 0.687069
O O9 0.070490 0.000000 0.575854
O O10 0.147027 0.677236 0.079536
O O11 0.113770 0.857440 0.152541
O O12 0.123409 0.844604 0.011882
O O13 0.736624 0.000000 0.064327
O O14 0.333320 0.500000 0.776114
O O15 0.815575 0.500000 0.624166
#
# Coordination Sequence:
#
# PCOD8101439 Si02
#       7
#     8   4   8   8   8   8   8
#     4  11  21  37  58  84 115 149 190 231 277 332
#     4  12  22  40  60  84 114 146 186 242 278 336
#     4  10  21  38  60  84 110 145 188 232 284 336
#     4  10  21  37  59  82 116 153 187 231 280 329
#     4  10  22  37  56  87 117 148 190 233 275 328
#     4  10  20  36  58  83 111 147 189 232 280 333
#     4  11  23  38  58  84 115 152 186 228 285 339
#
# _framework density 18.512509999999999
#
# number of rings (size 3 to 8) (size 9 to 14) (size 15 to 20)
#    0.000    1.538    3.077    2.308    0.000    3.077 
#    0.000    0.000    0.000    6.462    0.000    0.000 
#    0.000    0.000    0.000    0.000    0.000    0.000 
#
# Total GULP energy -322542.331758 kJ/mol
# GULP energy per Si atom -12405.474298 kJ/mol
# Density = 1.847037 g / cm^3
# Si number density = 18.512510 Si / 1000 Ang^3
#
#
#
# Elastic Constant Matrix: (Units=GPa)
#
#
# Indices 1 2 3 4 5 6 
#
# 1 60.0537 43.5865 9.0594 0.0000 -6.0924 0.0000
# 2 43.5865 111.6280 32.9191 0.0000 -3.0532 0.0000
# 3 9.0594 32.9191 64.5047 0.0000 -7.8061 0.0000
# 4 0.0000 0.0000 0.0000 21.6821 0.0000 2.3484
# 5 -6.0924 -3.0532 -7.8061 0.0000 33.5860 0.0000
# 6 0.0000 0.0000 0.0000 2.3484 0.0000 19.8344
#
#
#
# Elastic Compliance Matrix: (Units=1/GPa)
#
#
# Indices 1 2 3 4 5 6 
#
# 1 0.023875 -0.009848 0.002149 0.000000 0.003935 0.000000
# 2 -0.009848 0.014611 -0.006306 0.000000 -0.001924 0.000000
# 3 0.002149 -0.006306 0.018929 0.000000 0.004216 0.000000
# 4 0.000000 0.000000 0.000000 0.046720 0.000000 -0.005532
# 5 0.003935 -0.001924 0.004216 0.000000 0.031293 0.000000
# 6 0.000000 0.000000 0.000000 -0.005532 0.000000 0.051072
#
#
# Mechanical properties :
#
#
# Convention : Reuss Voigt Hill
#
# Bulk Modulus (GPa) = 34.00887 45.25738 39.63312
# Shear Modulus (GPa) = 22.29036 25.06193 23.67614
#
# Velocity S-wave (km/s) = 3.47374 3.68337 3.58009
# Velocity P-wave (km/s) = 5.87365 6.52607 6.20844
#
# Compressibility (1/GPa) = 0.02940410
#
# Stress axis : x y z
#
# Youngs Moduli (GPa) = 41.88562 68.44291 52.82798
#
# Poissons Ratio (x) = 0.67404 -0.11353
# Poissons Ratio (y) = 0.41250 0.33314
# Poissons Ratio (z) = -0.09001 0.43160
#
# Static dielectric constant tensor:
#      x y z
#    x 3.339200 0.000000 0.010950 
#    y 0.000000 3.338060 0.000000 
#    z 0.010950 0.000000 3.475530 
# 
# 
# High freq. dielectric constant tensor:
#      x y z
#    x 1.718210 0.000000 0.001400 
#    y 0.000000 1.720330 0.000000 
#    z 0.001400 0.000000 1.729400 
# 
# From -- ./inp_files/304636.got.cif
#   From: 2010.06.25/outbox.cif.g09.slc.cpg/sg12_153_cif.got.tgz:304636.got - 2010.06.28 00:19:55.
