data_PCOD8101361
_publ_section_title
;
Structure prediction by ZEFSAII (Michael W. Deem and Ramdas Pophale) SiO2 
 PCOD8101361
Probable space group: C 2/M
;
_chemical_formula_sum "Si O2"
_cell_formula_units_Z 48
_cell_length_a 27.090821
_cell_length_b 9.123266
_cell_length_c 15.429830
_cell_angle_alpha 90.000000
_cell_angle_beta 40.753030
_cell_angle_gamma 90.000000
_cell_volume 2489.508810
_symmetry_space_group_name_H-M "C 2/M"
_symmetry_group_IT_number 12
_symmetry_cell_setting 'monoclinic'
loop_
_space_group_symop_operation_xyz
x,y,z
-x,y,-z
-x,-y,-z
x,-y,z
1/2+x,1/2+y,z
1/2-x,1/2+y,-z
1/2-x,1/2-y,-z
1/2+x,1/2-y,z
loop_
_atom_site_type_symbol
_atom_site_label
_atom_site_fract_x
_atom_site_fract_y
_atom_site_fract_z
Si Si1 0.950285 0.674127 0.987444
Si Si2 0.208540 0.330716 0.477708
Si Si3 0.535006 0.673269 0.364176
Si Si4 0.777429 0.326907 0.223915
Si Si5 0.032310 0.668263 0.707488
Si Si6 0.792654 0.172185 0.866312
O O1 0.955423 0.500000 0.981268
O O2 0.984111 0.732427 0.851960
O O3 0.864155 0.726262 0.112751
O O4 0.000000 0.739579 0.000000
O O5 0.233235 0.500000 0.443184
O O6 0.250000 0.250000 0.500000
O O7 0.229241 0.257198 0.359387
O O8 0.119948 0.314724 0.613414
O O9 0.500000 0.731900 0.500000
O O10 0.528335 0.500000 0.366999
O O11 0.486652 0.739302 0.351349
O O12 0.621229 0.726276 0.245618
O O13 0.770187 0.500000 0.250417
O O14 0.744176 0.281553 0.175462
O O15 0.010727 0.500000 0.718265
O O16 0.785925 0.000000 0.889388
O O17 0.750000 0.250000 0.000000
#
# Coordination Sequence:
#
# PCOD8101361 Si02
#       6
#     8   8   8   8   8   8
#     4   9  17  32  55  80 106 138 178 223 268 317
#     4  11  23  38  58  84 113 145 182 226 275 330
#     4  10  21  37  56  79 109 145 184 227 277 329
#     4  10  20  36  58  81 109 147 186 227 276 326
#     4  10  21  37  58  83 108 141 186 228 269 321
#     4  10  21  36  56  82 112 149 189 229 277 331
#
# _framework density 19.280911
#
# number of rings (size 3 to 8) (size 9 to 14) (size 15 to 20)
#    0.000    2.000    0.000    3.500    0.000    8.333 
#    0.000    0.833    0.000    2.000    0.000    0.000 
#    0.000    0.000    0.000    0.000    0.000    0.000 
#
# Total GULP energy -297698.213787 kJ/mol
# GULP energy per Si atom -12404.092241 kJ/mol
# Density = 1.923703 g / cm^3
# Si number density = 19.280911 Si / 1000 Ang^3
#
#
#
# Elastic Constant Matrix: (Units=GPa)
#
#
# Indices 1 2 3 4 5 6 
#
# 1 108.5601 30.9552 21.5762 0.0019 9.2524 -0.0009
# 2 30.9552 41.7312 32.9921 -0.0014 4.4288 0.0004
# 3 21.5762 32.9921 113.8781 0.0019 12.1133 -0.0009
# 4 0.0019 -0.0014 0.0019 30.9491 0.0003 2.2261
# 5 9.2524 4.4288 12.1133 0.0003 38.8822 0.0001
# 6 -0.0009 0.0004 -0.0009 2.2261 0.0001 26.3227
#
#
#
# Elastic Compliance Matrix: (Units=1/GPa)
#
#
# Indices 1 2 3 4 5 6 
#
# 1 0.011840 -0.009035 0.000584 -0.000001 -0.001970 0.000001
# 2 -0.009035 0.037998 -0.009376 0.000003 0.000743 -0.000002
# 3 0.000584 -0.009376 0.011675 -0.000001 -0.002708 0.000001
# 4 -0.000001 0.000003 -0.000001 0.032509 0.000000 -0.002749
# 5 -0.001970 0.000743 -0.002708 0.000000 0.026947 0.000000
# 6 0.000001 -0.000002 0.000001 -0.002749 0.000000 0.038223
#
#
# Mechanical properties :
#
#
# Convention : Reuss Voigt Hill
#
# Bulk Modulus (GPa) = 38.67076 48.35740 43.51408
# Shear Modulus (GPa) = 24.57432 31.14051 27.85742
#
# Velocity S-wave (km/s) = 3.57395 4.02318 3.80520
# Velocity P-wave (km/s) = 6.09351 6.83493 6.47484
#
# Compressibility (1/GPa) = 0.02585933
#
# Stress axis : x y z
#
# Youngs Moduli (GPa) = 84.46249 26.31698 85.65240
#
# Poissons Ratio (x) = 0.23777 -0.05001
# Poissons Ratio (y) = 0.76310 0.80306
# Poissons Ratio (z) = -0.04931 0.24674
#
# Static dielectric constant tensor:
#      x y z
#    x 3.613180 -0.000020 -0.011700 
#    y -0.000020 3.273690 -0.000020 
#    z -0.011700 -0.000020 3.805520 
# 
# 
# High freq. dielectric constant tensor:
#      x y z
#    x 1.767640 0.000000 -0.000270 
#    y 0.000000 1.723860 0.000000 
#    z -0.000270 0.000000 1.769690 
# 
# From -- ./inp_files/244666.got.cif
#   From: 2010.06.25/outbox.cif.g09.slc.cpg/sg12_123_cif.got.tgz:244666.got - 2010.06.28 00:19:55.
