data_PCOD8101238
_publ_section_title
;
Structure prediction by ZEFSAII (Michael W. Deem and Ramdas Pophale) SiO2 
 PCOD8101238
Probable space group: C 2/M
;
_chemical_formula_sum "Si O2"
_cell_formula_units_Z 56
_cell_length_a 30.020442
_cell_length_b 18.182328
_cell_length_c 9.590069
_cell_angle_alpha 90.000000
_cell_angle_beta 145.615406
_cell_angle_gamma 90.000000
_cell_volume 2956.247498
_symmetry_space_group_name_H-M "C 2/M"
_symmetry_group_IT_number 12
_symmetry_cell_setting 'monoclinic'
loop_
_space_group_symop_operation_xyz
x,y,z
-x,y,-z
-x,-y,-z
x,-y,z
1/2+x,1/2+y,z
1/2-x,1/2+y,-z
1/2-x,1/2-y,-z
1/2+x,1/2-y,z
loop_
_atom_site_type_symbol
_atom_site_label
_atom_site_fract_x
_atom_site_fract_y
_atom_site_fract_z
Si Si1 0.331723 0.083382 0.450331
Si Si2 0.952416 0.195346 0.517110
Si Si3 0.448871 0.414261 0.735106
Si Si4 0.770688 0.086554 0.282179
Si Si5 0.985386 0.669923 0.803553
Si Si6 0.225950 0.169311 0.978708
Si Si7 0.358608 0.084268 0.838050
O O1 0.419983 0.106134 0.635240
O O2 0.322505 0.088074 0.591637
O O3 0.316676 0.000000 0.359176
O O4 0.266866 0.140086 0.224492
O O5 0.985155 0.127876 0.695104
O O6 0.867271 0.170149 0.243389
O O7 0.000000 0.210238 0.500000
O O8 0.953750 0.266485 0.620292
O O9 0.451234 0.500000 0.704992
O O10 0.360216 0.386147 0.541049
O O11 0.500000 0.393910 0.000000
O O12 0.743233 0.114693 0.061353
O O13 0.709643 0.117253 0.238793
O O14 0.768146 0.000000 0.278840
O O15 0.064856 0.635236 0.945896
O O16 0.000000 0.699135 0.000000
O O17 0.250000 0.250000 0.000000
O O18 0.380968 0.000000 0.934065
#
# Coordination Sequence:
#
# PCOD8101238 Si02
#       7
#     8   8   8   8   8   8   8
#     4  10  20  37  60  85 112 149 188 230 279 334
#     4  11  24  38  56  82 116 149 189 233 278 329
#     4   9  19  38  62  82 107 147 193 238 285 330
#     4   9  19  36  58  84 111 144 182 230 283 335
#     4  10  20  36  57  83 117 153 184 225 281 338
#     4  11  22  38  55  77 115 150 183 226 274 330
#     4   9  19  35  59  89 116 141 184 233 278 336
#
# _framework density 18.942934000000001
#
# number of rings (size 3 to 8) (size 9 to 14) (size 15 to 20)
#    0.000    2.143    1.429    1.286    2.000    3.714 
#    0.000    2.143    0.000    3.429    0.000    0.000 
#    0.000    0.000    0.000    0.000    0.000    0.000 
#
# Total GULP energy -347159.347945 kJ/mol
# GULP energy per Si atom -12398.548141 kJ/mol
# Density = 1.889982 g / cm^3
# Si number density = 18.942934 Si / 1000 Ang^3
#
#
#
# Elastic Constant Matrix: (Units=GPa)
#
#
# Indices 1 2 3 4 5 6 
#
# 1 111.0733 19.5751 23.5669 0.0000 4.0414 0.0000
# 2 19.5751 41.7057 23.6447 0.0000 3.8558 0.0000
# 3 23.5669 23.6447 82.9206 0.0000 -0.5110 0.0000
# 4 0.0000 0.0000 0.0000 35.1694 0.0000 -1.4296
# 5 4.0414 3.8558 -0.5110 0.0000 15.0665 0.0000
# 6 0.0000 0.0000 0.0000 -1.4296 0.0000 24.9388
#
#
#
# Elastic Compliance Matrix: (Units=1/GPa)
#
#
# Indices 1 2 3 4 5 6 
#
# 1 0.010086 -0.003494 -0.001882 0.000000 -0.001875 0.000000
# 2 -0.003494 0.030708 -0.007808 0.000000 -0.007186 0.000000
# 3 -0.001882 -0.007808 0.014839 0.000000 0.003006 0.000000
# 4 0.000000 0.000000 0.000000 0.028500 0.000000 0.001634
# 5 -0.001875 -0.007186 0.003006 0.000000 0.068817 0.000000
# 6 0.000000 0.000000 0.000000 0.001634 0.000000 0.040192
#
#
# Mechanical properties :
#
#
# Convention : Reuss Voigt Hill
#
# Bulk Modulus (GPa) = 34.16801 41.03034 37.59917
# Shear Modulus (GPa) = 21.80876 26.29580 24.05228
#
# Velocity S-wave (km/s) = 3.39674 3.72984 3.56718
# Velocity P-wave (km/s) = 5.78449 6.34476 6.07109
#
# Compressibility (1/GPa) = 0.02926714
#
# Stress axis : x y z
#
# Youngs Moduli (GPa) = 99.14408 32.56441 67.38772
#
# Poissons Ratio (x) = 0.11377 0.12682
# Poissons Ratio (y) = 0.34639 0.52615
# Poissons Ratio (z) = 0.18658 0.25426
#
# Static dielectric constant tensor:
#      x y z
#    x 3.490570 0.000000 -0.011170 
#    y 0.000000 3.442810 0.000000 
#    z -0.011170 0.000000 3.782430 
# 
# 
# High freq. dielectric constant tensor:
#      x y z
#    x 1.729300 0.000000 -0.000250 
#    y 0.000000 1.738720 0.000000 
#    z -0.000250 0.000000 1.742050 
# 
# From -- ./inp_files/75912.got.cif
#   From: 2010.06.25/outbox.cif.g09.slc.cpg/sg12_38_cif.got.tgz:75912.got - 2010.06.28 00:19:55.
