data_PCOD8101852
_publ_section_title
;
Structure prediction by ZEFSAII (Michael W. Deem and Ramdas Pophale) SiO2 
 PCOD8101852
Probable space group: C 2/M
;
_chemical_formula_sum "Si O2"
_cell_formula_units_Z 64
_cell_length_a 28.597232
_cell_length_b 8.798453
_cell_length_c 18.003181
_cell_angle_alpha 90.000000
_cell_angle_beta 43.196820
_cell_angle_gamma 90.000000
_cell_volume 3100.682043
_symmetry_space_group_name_H-M "C 2/M"
_symmetry_group_IT_number 12
_symmetry_cell_setting 'monoclinic'
loop_
_space_group_symop_operation_xyz
x,y,z
-x,y,-z
-x,-y,-z
x,-y,z
1/2+x,1/2+y,z
1/2-x,1/2+y,-z
1/2-x,1/2-y,-z
1/2+x,1/2-y,z
loop_
_atom_site_type_symbol
_atom_site_label
_atom_site_fract_x
_atom_site_fract_y
_atom_site_fract_z
Si Si1 0.821679 0.320747 0.894714
Si Si2 0.940193 0.325916 0.351790
Si Si3 0.785491 0.678518 0.528732
Si Si4 0.787055 0.326888 0.251337
Si Si5 0.678095 0.325742 0.261543
Si Si6 0.562028 0.173507 0.477644
Si Si7 0.565033 0.176616 0.973391
Si Si8 0.436073 0.321977 0.866685
O O1 0.817299 0.500000 0.908370
O O2 0.836713 0.278990 0.792107
O O3 0.881218 0.263527 0.879434
O O4 0.750000 0.250000 0.000000
O O5 0.945430 0.500000 0.317665
O O6 0.863207 0.263100 0.438010
O O7 0.964765 0.311554 0.407838
O O8 0.987497 0.221405 0.246225
O O9 0.784685 0.500000 0.522145
O O10 0.750000 0.750000 0.500000
O O11 0.746675 0.719049 0.649048
O O12 0.773661 0.500000 0.291781
O O13 0.753516 0.298819 0.208720
O O14 0.867542 0.293080 0.153718
O O15 0.668216 0.500000 0.248878
O O16 0.625916 0.281972 0.387568
O O17 0.500000 0.230653 0.500000
O O18 0.583520 0.000000 0.435137
O O19 0.571570 0.277218 0.038991
O O20 0.559125 0.000000 0.003073
O O21 0.500000 0.228007 0.000000
O O22 0.424054 0.500000 0.871504
#
# Coordination Sequence:
#
# PCOD8101852 Si02
#       8
#     8   8   8   8   8   8   8   8
#     4  12  25  43  67  94 129 171 218 267 319 384
#     4  10  22  41  63  91 130 175 216 260 321 389
#     4  11  24  41  65  94 128 170 215 265 324 385
#     4  10  22  41  65  95 129 166 210 264 321 385
#     4  11  22  37  61  93 128 164 207 259 319 381
#     4  10  20  36  59  87 120 163 210 254 309 374
#     4  10  23  44  69  94 126 172 219 266 325 391
#     4  12  26  43  66  98 134 171 216 273 328 383
#
# _framework density 20.640619999999998
#
# number of rings (size 3 to 8) (size 9 to 14) (size 15 to 20)
#    0.000    1.250    1.250    4.500    1.750    5.000 
#    0.000    0.000    0.000    0.000    0.000    0.000 
#    0.000    0.000    0.000    0.000    0.000    0.000 
#
# Total GULP energy -396955.823122 kJ/mol
# GULP energy per Si atom -12404.869473 kJ/mol
# Density = 2.059364 g / cm^3
# Si number density = 20.640620 Si / 1000 Ang^3
#
#
#
# Elastic Constant Matrix: (Units=GPa)
#
#
# Indices 1 2 3 4 5 6 
#
# 1 128.3868 44.6446 39.1510 0.0084 -8.5590 -0.0047
# 2 44.6446 107.3425 42.8040 0.0505 -3.1360 -0.0309
# 3 39.1510 42.8040 99.6998 0.0246 -9.2631 -0.0208
# 4 0.0084 0.0505 0.0246 37.8895 -0.0102 2.5824
# 5 -8.5590 -3.1360 -9.2631 -0.0102 36.1023 0.0050
# 6 -0.0047 -0.0309 -0.0208 2.5824 0.0050 32.5763
#
#
#
# Elastic Compliance Matrix: (Units=1/GPa)
#
#
# Indices 1 2 3 4 5 6 
#
# 1 0.009658 -0.003035 -0.002357 0.000004 0.001421 -0.000004
# 2 -0.003035 0.012197 -0.004111 -0.000014 -0.000715 0.000010
# 3 -0.002357 -0.004111 0.012944 -0.000002 0.002405 0.000004
# 4 0.000004 -0.000014 -0.000002 0.026536 0.000007 -0.002104
# 5 0.001421 -0.000715 0.002405 0.000007 0.028591 -0.000004
# 6 -0.000004 0.000010 0.000004 -0.002104 -0.000004 0.030864
#
#
# Mechanical properties :
#
#
# Convention : Reuss Voigt Hill
#
# Bulk Modulus (GPa) = 63.32402 65.40316 64.36359
# Shear Modulus (GPa) = 34.46819 35.23558 34.85189
#
# Velocity S-wave (km/s) = 4.09090 4.13619 4.11361
# Velocity P-wave (km/s) = 7.28422 7.38689 7.33573
#
# Compressibility (1/GPa) = 0.01579180
#
# Stress axis : x y z
#
# Youngs Moduli (GPa) = 103.54030 81.98889 77.25431
#
# Poissons Ratio (x) = 0.24886 0.18212
# Poissons Ratio (y) = 0.31428 0.31759
# Poissons Ratio (z) = 0.24409 0.33705
#
# Static dielectric constant tensor:
#      x y z
#    x 3.890840 0.000070 -0.067810 
#    y 0.000070 3.827020 -0.000080 
#    z -0.067810 -0.000080 3.698760 
# 
# 
# High freq. dielectric constant tensor:
#      x y z
#    x 1.821760 0.000000 -0.004690 
#    y 0.000000 1.802670 0.000000 
#    z -0.004690 0.000000 1.814110 
# 
# From -- ./inp_files/295559.got.cif
#   From: 2010.06.25/outbox.cif.g09.slc.cpg/sg12_148_cif.got.tgz:295559.got - 2010.06.28 00:19:55.
