data_PCOD8101109
_publ_section_title
;
Structure prediction by ZEFSAII (Michael W. Deem and Ramdas Pophale) SiO2 
 PCOD8101109
Probable space group: C 2/M
;
_chemical_formula_sum "Si O2"
_cell_formula_units_Z 56
_cell_length_a 17.897110
_cell_length_b 9.149465
_cell_length_c 18.511646
_cell_angle_alpha 90.000000
_cell_angle_beta 104.061458
_cell_angle_gamma 90.000000
_cell_volume 2940.433415
_symmetry_space_group_name_H-M "C 2/M"
_symmetry_group_IT_number 12
_symmetry_cell_setting 'monoclinic'
loop_
_space_group_symop_operation_xyz
x,y,z
-x,y,-z
-x,-y,-z
x,-y,z
1/2+x,1/2+y,z
1/2-x,1/2+y,-z
1/2-x,1/2-y,-z
1/2+x,1/2-y,z
loop_
_atom_site_type_symbol
_atom_site_label
_atom_site_fract_x
_atom_site_fract_y
_atom_site_fract_z
Si Si1 0.196656 0.171799 0.136138
Si Si2 0.440543 0.832571 0.421823
Si Si3 0.085537 0.670745 0.000506
Si Si4 0.127056 0.669946 0.847708
Si Si5 0.229353 0.327683 0.568947
Si Si6 0.483293 0.326587 0.288110
Si Si7 0.651768 0.673433 0.283100
O O1 0.145586 0.245219 0.063461
O O2 0.284432 0.212648 0.141174
O O3 0.173608 0.234656 0.209264
O O4 0.182389 0.000000 0.128578
O O5 0.500000 0.810236 0.500000
O O6 0.356654 0.784215 0.428812
O O7 0.466302 0.728183 0.363969
O O8 0.439409 0.000000 0.394266
O O9 0.096614 0.500000 0.017499
O O10 0.100795 0.712120 0.921511
O O11 0.000000 0.723122 0.000000
O O12 0.112787 0.500000 0.827361
O O13 0.079181 0.765481 0.781175
O O14 0.238069 0.500000 0.559571
O O15 0.250000 0.250000 0.500000
O O16 0.286690 0.268144 0.644294
O O17 0.479691 0.500000 0.286359
O O18 0.567347 0.269047 0.284300
O O19 0.654921 0.500000 0.282499
#
# Coordination Sequence:
#
# PCOD8101109 Si02
#       7
#     8   8   8   8   8   8   8
#     4  10  20  36  58  79 103 141 184 222 264 320
#     4  10  21  37  57  81 110 145 181 218 268 327
#     4  10  21  36  54  80 113 144 176 221 274 322
#     4  10  21  37  56  78 108 145 179 217 272 328
#     4  10  20  36  57  79 108 143 178 219 264 314
#     4  11  22  35  55  81 107 138 179 226 269 314
#     4   9  19  35  53  76 106 139 175 218 269 317
#
# _framework density 19.044813000000001
#
# number of rings (size 3 to 8) (size 9 to 14) (size 15 to 20)
#    0.000    2.000    0.000    3.429    0.000    4.571 
#    0.000    2.143    0.000    0.000    0.000    0.000 
#    0.000    0.000    0.000    0.000    0.000    0.000 
#
# Total GULP energy -347326.832175 kJ/mol
# GULP energy per Si atom -12404.529721 kJ/mol
# Density = 1.900147 g / cm^3
# Si number density = 19.044813 Si / 1000 Ang^3
#
#
#
# Elastic Constant Matrix: (Units=GPa)
#
#
# Indices 1 2 3 4 5 6 
#
# 1 156.8327 48.7938 72.6439 0.0000 -9.4623 0.0000
# 2 48.7938 44.2189 43.7283 0.0000 0.8879 0.0000
# 3 72.6439 43.7283 118.0275 0.0000 -1.4240 0.0000
# 4 0.0000 0.0000 0.0000 -7.9780 0.0000 -93.3010
# 5 -9.4623 0.8879 -1.4240 0.0000 39.9690 0.0000
# 6 0.0000 0.0000 0.0000 -93.3010 0.0000 -172.0815
#
#
#
# Elastic Compliance Matrix: (Units=1/GPa)
#
#
# Indices 1 2 3 4 5 6 
#
# 1 0.010790 -0.008558 -0.003438 0.000000 0.002622 0.000000
# 2 -0.008558 0.042544 -0.010535 0.000000 -0.003347 0.000000
# 3 -0.003438 -0.010535 0.014491 0.000000 -0.000064 0.000000
# 4 0.000000 0.000000 0.000000 0.023469 0.000000 -0.012725
# 5 0.002622 -0.003347 -0.000064 0.000000 0.025712 0.000000
# 6 0.000000 0.000000 0.000000 -0.012725 0.000000 0.001088
#
#
# Mechanical properties :
#
#
# Convention : Reuss Voigt Hill
#
# Bulk Modulus (GPa) = 43.93435 72.15679 58.04557
# Shear Modulus (GPa) = 29.28333 -17.75723 5.76305
#
# Velocity S-wave (km/s) = 3.92548 -3.05682 1.74144
# Velocity P-wave (km/s) = 6.60794 5.05087 5.88116
#
# Compressibility (1/GPa) = 0.02276124
#
# Stress axis : x y z
#
# Youngs Moduli (GPa) = 92.68009 23.50505 69.00699
#
# Poissons Ratio (x) = 0.20117 0.23728
# Poissons Ratio (y) = 0.79320 0.72699
# Poissons Ratio (z) = 0.31868 0.24763
#
# Static dielectric constant tensor:
#      x y z
#    x 3.766680 0.000000 0.021960 
#    y 0.000000 3.273660 0.000000 
#    z 0.021960 0.000000 3.439940 
# 
# 
# High freq. dielectric constant tensor:
#      x y z
#    x 1.762260 0.000000 -0.000350 
#    y 0.000000 1.718820 0.000000 
#    z -0.000350 0.000000 1.757800 
# 
# From -- ./inp_files/275265.got.cif
#   From: 2010.06.25/outbox.cif.g09.slc.cpg/sg12_138_cif.got.tgz:275265.got - 2010.06.28 00:19:55.
