data_PCOD8101145
_publ_section_title
;
Structure prediction by ZEFSAII (Michael W. Deem and Ramdas Pophale) SiO2 
 PCOD8101145
Probable space group: C 2/M
;
_chemical_formula_sum "Si O2"
_cell_formula_units_Z 48
_cell_length_a 19.667544
_cell_length_b 17.518395
_cell_length_c 11.582486
_cell_angle_alpha 90.000000
_cell_angle_beta 41.944113
_cell_angle_gamma 90.000000
_cell_volume 2667.387974
_symmetry_space_group_name_H-M "C 2/M"
_symmetry_group_IT_number 12
_symmetry_cell_setting 'monoclinic'
loop_
_space_group_symop_operation_xyz
x,y,z
-x,y,-z
-x,-y,-z
x,-y,z
1/2+x,1/2+y,z
1/2-x,1/2+y,-z
1/2-x,1/2-y,-z
1/2+x,1/2-y,z
loop_
_atom_site_type_symbol
_atom_site_label
_atom_site_fract_x
_atom_site_fract_y
_atom_site_fract_z
Si Si1 0.023757 0.312477 0.600938
Si Si2 0.557321 0.647687 0.601033
Si Si3 0.859815 0.089083 0.732923
Si Si4 0.201472 0.666656 0.074773
Si Si5 0.407634 0.589426 0.190464
Si Si6 0.207625 0.590625 0.313120
O O1 0.073571 0.238232 0.596977
O O2 0.102224 0.383043 0.506306
O O3 0.000000 0.288380 0.500000
O O4 0.919263 0.334343 0.797159
O O5 0.441208 0.632140 0.710744
O O6 0.633196 0.614749 0.408590
O O7 0.583557 0.608192 0.687074
O O8 0.881345 0.000000 0.715694
O O9 0.748645 0.110545 0.919430
O O10 0.225002 0.633480 0.171014
O O11 0.250000 0.750000 0.000000
O O12 0.413336 0.500000 0.166718
O O13 0.299503 0.617702 0.278790
O O14 0.500000 0.627055 0.000000
O O15 0.203098 0.500000 0.298736
#
# Coordination Sequence:
#
# PCOD8101145 Si02
#       6
#     8   8   8   8   8   8
#     4  10  20  36  57  80 111 149 182 230 282 326
#     4  11  19  36  54  81 113 145 180 228 284 333
#     4  11  20  31  55  85 109 141 180 228 281 332
#     4  11  20  35  56  81 112 144 182 231 281 329
#     4  10  21  36  56  83 114 147 186 232 277 331
#     4  10  22  38  57  82 113 150 191 232 277 334
#
# _framework density 17.995132999999999
#
# number of rings (size 3 to 8) (size 9 to 14) (size 15 to 20)
#    0.000    1.500    3.333    4.500    0.000    5.667 
#    0.000    0.000    0.000    0.000    0.000    3.500 
#    0.000    0.000    0.000    0.000    0.000    0.000 
#
# Total GULP energy -297635.722258 kJ/mol
# GULP energy per Si atom -12401.488427 kJ/mol
# Density = 1.795418 g / cm^3
# Si number density = 17.995133 Si / 1000 Ang^3
#
#
#
# Elastic Constant Matrix: (Units=GPa)
#
#
# Indices 1 2 3 4 5 6 
#
# 1 78.8340 20.9225 55.0865 0.0000 -3.3802 0.0000
# 2 20.9225 77.0853 36.5025 0.0000 -8.9592 0.0000
# 3 55.0865 36.5025 149.1707 0.0000 -13.4210 0.0000
# 4 0.0000 0.0000 0.0000 33.1100 0.0000 -0.9069
# 5 -3.3802 -8.9592 -13.4210 0.0000 24.3762 0.0000
# 6 0.0000 0.0000 0.0000 -0.9069 0.0000 21.4500
#
#
#
# Elastic Compliance Matrix: (Units=1/GPa)
#
#
# Indices 1 2 3 4 5 6 
#
# 1 0.017402 -0.002041 -0.006078 0.000000 -0.001684 0.000000
# 2 -0.002041 0.015218 -0.002622 0.000000 0.003866 0.000000
# 3 -0.006078 -0.002622 0.009919 0.000000 0.003654 0.000000
# 4 0.000000 0.000000 0.000000 0.030237 0.000000 0.001278
# 5 -0.001684 0.003866 0.003654 0.000000 0.044223 0.000000
# 6 0.000000 0.000000 0.000000 0.001278 0.000000 0.046674
#
#
# Mechanical properties :
#
#
# Convention : Reuss Voigt Hill
#
# Bulk Modulus (GPa) = 47.49328 58.90143 53.19735
# Shear Modulus (GPa) = 26.01814 28.62581 27.32197
#
# Velocity S-wave (km/s) = 3.80655 3.99275 3.90076
# Velocity P-wave (km/s) = 6.76530 7.35248 7.06500
#
# Compressibility (1/GPa) = 0.02105561
#
# Stress axis : x y z
#
# Youngs Moduli (GPa) = 57.46620 65.71320 100.81829
#
# Poissons Ratio (x) = 0.13409 0.61280
# Poissons Ratio (y) = 0.11726 0.26439
# Poissons Ratio (z) = 0.34929 0.17233
#
# Static dielectric constant tensor:
#      x y z
#    x 3.142630 0.000000 -0.112990 
#    y 0.000000 3.324010 0.000000 
#    z -0.112990 0.000000 3.736740 
# 
# 
# High freq. dielectric constant tensor:
#      x y z
#    x 1.667240 0.000000 -0.005980 
#    y 0.000000 1.700870 0.000000 
#    z -0.005980 0.000000 1.710120 
# 
# From -- ./inp_files/168328.got.cif
#   From: 2010.06.25/outbox.cif.g09.slc.cpg/sg12_85_cif.got.tgz:168328.got - 2010.06.28 00:19:55.
