data_PCOD8101348
_publ_section_title
;
Structure prediction by ZEFSAII (Michael W. Deem and Ramdas Pophale) SiO2 
 PCOD8101348
Probable space group: C 2/M
;
_chemical_formula_sum "Si O2"
_cell_formula_units_Z 56
_cell_length_a 17.951762
_cell_length_b 8.505610
_cell_length_c 28.897741
_cell_angle_alpha 90.000000
_cell_angle_beta 141.199462
_cell_angle_gamma 90.000000
_cell_volume 2764.868915
_symmetry_space_group_name_H-M "C 2/M"
_symmetry_group_IT_number 12
_symmetry_cell_setting 'monoclinic'
loop_
_space_group_symop_operation_xyz
x,y,z
-x,y,-z
-x,-y,-z
x,-y,z
1/2+x,1/2+y,z
1/2-x,1/2+y,-z
1/2-x,1/2-y,-z
1/2+x,1/2-y,z
loop_
_atom_site_type_symbol
_atom_site_label
_atom_site_fract_x
_atom_site_fract_y
_atom_site_fract_z
Si Si1 0.367469 0.687543 0.427001
Si Si2 0.505311 0.186261 0.138568
Si Si3 0.231146 0.187162 0.717828
Si Si4 0.947403 0.183459 0.289635
Si Si5 0.296209 0.816078 0.570156
Si Si6 0.402612 0.817319 0.991961
Si Si7 0.348963 0.183383 0.149180
O O1 0.500000 0.751754 0.500000
O O2 0.366666 0.500000 0.425962
O O3 0.320472 0.753466 0.355318
O O4 0.282225 0.754549 0.425934
O O5 0.636840 0.256740 0.210489
O O6 0.418747 0.242098 0.137542
O O7 0.513626 0.000000 0.140667
O O8 0.454130 0.248022 0.065199
O O9 0.147727 0.245384 0.719074
O O10 0.236032 0.000000 0.719040
O O11 0.896571 0.214394 0.214453
O O12 0.067421 0.277646 0.355507
O O13 0.973248 0.000000 0.308909
O O14 0.250000 0.750000 0.500000
O O15 0.277838 0.000000 0.560026
O O16 0.289750 0.713137 0.924636
O O17 0.365449 0.000000 0.977342
O O18 0.500000 0.790982 0.000000
O O19 0.372532 0.000000 0.170263
#
# Coordination Sequence:
#
# PCOD8101348 Si02
#       7
#     8   8   8   8   8   8   8
#     4   9  17  31  54  82 108 140 185 228 266 315
#     4   9  18  33  54  80 108 142 185 229 274 325
#     4   9  17  32  55  80 105 139 187 233 268 314
#     4  11  22  37  59  84 111 145 185 228 272 323
#     4  11  22  37  59  85 114 146 181 226 276 326
#     4  10  20  36  58  81 107 143 188 232 272 323
#     4  11  22  36  56  82 113 145 178 224 280 333
#
# _framework density 20.254124000000001
#
# number of rings (size 3 to 8) (size 9 to 14) (size 15 to 20)
#    0.000    2.000    0.000    4.286    0.000    7.143 
#    0.000    0.714    0.000   19.714    0.000    0.000 
#    0.000    0.000    0.000    0.000    0.000    0.000 
#
# Total GULP energy -347296.380791 kJ/mol
# GULP energy per Si atom -12403.442171 kJ/mol
# Density = 2.020802 g / cm^3
# Si number density = 20.254124 Si / 1000 Ang^3
#
#
#
# Elastic Constant Matrix: (Units=GPa)
#
#
# Indices 1 2 3 4 5 6 
#
# 1 157.6937 18.9262 67.5520 0.0000 -7.8271 0.0000
# 2 18.9262 24.4823 6.4952 0.0001 -1.6006 0.0000
# 3 67.5520 6.4952 164.6001 0.0000 -6.9017 0.0000
# 4 0.0000 0.0001 0.0000 26.4513 0.0000 1.7596
# 5 -7.8271 -1.6006 -6.9017 0.0000 48.5775 0.0000
# 6 0.0000 0.0000 0.0000 1.7596 0.0000 24.3555
#
#
#
# Elastic Compliance Matrix: (Units=1/GPa)
#
#
# Indices 1 2 3 4 5 6 
#
# 1 0.008424 -0.005615 -0.003206 0.000000 0.000717 0.000000
# 2 -0.005615 0.045083 0.000553 0.000000 0.000659 0.000000
# 3 -0.003206 0.000553 0.007392 0.000000 0.000552 0.000000
# 4 0.000000 0.000000 0.000000 0.037988 0.000000 -0.002745
# 5 0.000717 0.000659 0.000552 0.000000 0.020801 0.000000
# 6 0.000000 0.000000 0.000000 -0.002745 0.000000 0.041257
#
#
# Mechanical properties :
#
#
# Convention : Reuss Voigt Hill
#
# Bulk Modulus (GPa) = 22.54075 59.19141 40.86608
# Shear Modulus (GPa) = 26.00531 36.79704 31.40118
#
# Velocity S-wave (km/s) = 3.58711 4.26698 3.94173
# Velocity P-wave (km/s) = 5.32068 7.31874 6.39819
#
# Compressibility (1/GPa) = 0.04436409
#
# Stress axis : x y z
#
# Youngs Moduli (GPa) = 118.70695 22.18138 135.27694
#
# Poissons Ratio (x) = 0.12455 0.43365
# Poissons Ratio (y) = 0.66654 -0.07482
# Poissons Ratio (z) = 0.38053 -0.01227
#
# Static dielectric constant tensor:
#      x y z
#    x 3.948150 0.000000 -0.218120 
#    y 0.000000 3.199500 0.000000 
#    z -0.218120 0.000000 3.809700 
# 
# 
# High freq. dielectric constant tensor:
#      x y z
#    x 1.811540 0.000000 -0.001440 
#    y 0.000000 1.746460 0.000000 
#    z -0.001440 0.000000 1.810400 
# 
# From -- ./inp_files/275084.got.cif
#   From: 2010.06.25/outbox.cif.g09.slc.cpg/sg12_138_cif.got.tgz:275084.got - 2010.06.28 00:19:55.
