data_PCOD8101454
_publ_section_title
;
Structure prediction by ZEFSAII (Michael W. Deem and Ramdas Pophale) SiO2 
 PCOD8101454
Probable space group: C 2/M
;
_chemical_formula_sum "Si O2"
_cell_formula_units_Z 48
_cell_length_a 8.986871
_cell_length_b 9.972489
_cell_length_c 25.132050
_cell_angle_alpha 90.000000
_cell_angle_beta 86.351404
_cell_angle_gamma 90.000000
_cell_volume 2247.806018
_symmetry_space_group_name_H-M "C 2/M"
_symmetry_group_IT_number 12
_symmetry_cell_setting 'monoclinic'
loop_
_space_group_symop_operation_xyz
x,y,z
-x,y,-z
-x,-y,-z
x,-y,z
1/2+x,1/2+y,z
1/2-x,1/2+y,-z
1/2-x,1/2-y,-z
1/2+x,1/2-y,z
loop_
_atom_site_type_symbol
_atom_site_label
_atom_site_fract_x
_atom_site_fract_y
_atom_site_fract_z
Si Si1 0.343218 0.353131 0.031236
Si Si2 0.822481 0.726979 0.374893
Si Si3 0.888223 0.654568 0.792259
Si Si4 0.582033 0.652186 0.852529
Si Si5 0.432878 0.852114 0.554133
Si Si6 0.430850 0.646830 0.695767
O O1 0.265258 0.500000 0.032775
O O2 0.357387 0.302854 0.091440
O O3 0.500000 0.365189 0.000000
O O4 0.250000 0.250000 0.000000
O O5 0.718705 0.784345 0.423565
O O6 0.717623 0.645508 0.336957
O O7 0.946643 0.636505 0.400899
O O8 0.916634 0.840870 0.341491
O O9 0.947332 0.500000 0.788621
O O10 0.711862 0.655087 0.805598
O O11 0.924284 0.730001 0.736750
O O12 0.961103 0.737215 0.838978
O O13 0.515336 0.500000 0.857255
O O14 0.500000 0.777626 0.500000
O O15 0.385691 0.000000 0.537609
O O16 0.436184 0.500000 0.724017
#
# Coordination Sequence:
#
# PCOD8101454 Si02
#       6
#     8   8   8   8   8   8
#     4  10  21  37  59  87 117 152 193 236 284 340
#     4  10  22  37  57  84 114 146 189 233 278 335
#     4  11  24  39  59  86 114 149 193 238 286 341
#     4  10  22  40  59  84 119 153 190 237 287 340
#     4  10  20  36  58  83 113 148 185 228 278 332
#     4  11  23  39  59  83 114 151 190 235 286 338
#
# _framework density 21.354157000000001
#
# number of rings (size 3 to 8) (size 9 to 14) (size 15 to 20)
#    0.000    1.667    0.000    4.000    0.000    9.000 
#    0.000    0.000    0.000    8.000    0.000    0.000 
#    0.000    0.000    0.000    0.000    0.000    0.000 
#
# Total GULP energy -297498.270226 kJ/mol
# GULP energy per Si atom -12395.761259 kJ/mol
# Density = 2.130555 g / cm^3
# Si number density = 21.354157 Si / 1000 Ang^3
#
#
#
# Elastic Constant Matrix: (Units=GPa)
#
#
# Indices 1 2 3 4 5 6 
#
# 1 71.0423 22.0593 7.4611 0.0000 -4.4679 0.0000
# 2 22.0593 121.2733 25.4121 0.0000 7.3693 0.0000
# 3 7.4611 25.4121 93.6721 0.0000 -3.5624 0.0000
# 4 0.0000 0.0000 0.0000 31.2436 0.0000 9.1945
# 5 -4.4679 7.3693 -3.5624 0.0000 36.5970 0.0000
# 6 0.0000 0.0000 0.0000 9.1945 0.0000 45.7531
#
#
#
# Elastic Compliance Matrix: (Units=1/GPa)
#
#
# Indices 1 2 3 4 5 6 
#
# 1 0.015140 -0.002826 -0.000349 0.000000 0.002383 0.000000
# 2 -0.002826 0.009418 -0.002424 0.000000 -0.002477 0.000000
# 3 -0.000349 -0.002424 0.011420 0.000000 0.001557 0.000000
# 4 0.000000 0.000000 0.000000 0.034018 0.000000 -0.006836
# 5 0.002383 -0.002477 0.001557 0.000000 0.028266 0.000000
# 6 0.000000 0.000000 0.000000 -0.006836 0.000000 0.023230
#
#
# Mechanical properties :
#
#
# Convention : Reuss Voigt Hill
#
# Bulk Modulus (GPa) = 40.35297 43.98365 42.16831
# Shear Modulus (GPa) = 35.47330 38.12240 36.79785
#
# Velocity S-wave (km/s) = 4.08019 4.22980 4.15567
# Velocity P-wave (km/s) = 6.41368 6.67060 6.54340
#
# Compressibility (1/GPa) = 0.02478132
#
# Stress axis : x y z
#
# Youngs Moduli (GPa) = 66.04995 106.17564 87.56408
#
# Poissons Ratio (x) = 0.30002 0.03053
# Poissons Ratio (y) = 0.18664 0.21228
# Poissons Ratio (z) = 0.02303 0.25739
#
# Static dielectric constant tensor:
#      x y z
#    x 3.762230 0.000000 -0.095860 
#    y 0.000000 4.037430 0.000000 
#    z -0.095860 0.000000 3.970750 
# 
# 
# High freq. dielectric constant tensor:
#      x y z
#    x 1.834520 0.000000 -0.004580 
#    y 0.000000 1.831770 0.000000 
#    z -0.004580 0.000000 1.849890 
# 
# From -- ./inp_files/331998.got.cif
#   From: 2010.06.25/outbox.cif.g09.slc.cpg/sg12_166_cif.got.tgz:331998.got - 2010.06.28 00:19:55.
