data_PCOD8101120
_publ_section_title
;
Structure prediction by ZEFSAII (Michael W. Deem and Ramdas Pophale) SiO2 
 PCOD8101120
Probable space group: C 2/M
;
_chemical_formula_sum "Si O2"
_cell_formula_units_Z 64
_cell_length_a 14.755661
_cell_length_b 8.936593
_cell_length_c 25.404881
_cell_angle_alpha 90.000000
_cell_angle_beta 87.178389
_cell_angle_gamma 90.000000
_cell_volume 3345.961759
_symmetry_space_group_name_H-M "C 2/M"
_symmetry_group_IT_number 12
_symmetry_cell_setting 'monoclinic'
loop_
_space_group_symop_operation_xyz
x,y,z
-x,y,-z
-x,-y,-z
x,-y,z
1/2+x,1/2+y,z
1/2-x,1/2+y,-z
1/2-x,1/2-y,-z
1/2+x,1/2-y,z
loop_
_atom_site_type_symbol
_atom_site_label
_atom_site_fract_x
_atom_site_fract_y
_atom_site_fract_z
Si Si1 0.737955 0.674514 0.076265
Si Si2 0.737043 0.824440 0.444608
Si Si3 0.069574 0.670640 0.381078
Si Si4 0.428636 0.322070 0.246860
Si Si5 0.603050 0.176654 0.005239
Si Si6 0.728602 0.823579 0.804550
Si Si7 0.112686 0.673718 0.261227
Si Si8 0.891700 0.823898 0.364843
O O1 0.722477 0.500000 0.067840
O O2 0.648754 0.756857 0.056512
O O3 0.745847 0.717324 0.136781
O O4 0.831896 0.724621 0.045236
O O5 0.750000 0.750000 0.500000
O O6 0.637584 0.787030 0.425908
O O7 0.808193 0.757169 0.400326
O O8 0.752557 0.000000 0.450481
O O9 0.036865 0.500000 0.386516
O O10 0.117988 0.697005 0.323715
O O11 0.983415 0.775652 0.391299
O O12 0.422527 0.500000 0.239948
O O13 0.372203 0.237715 0.203489
O O14 0.532221 0.270067 0.237749
O O15 0.390963 0.265936 0.304708
O O16 0.598581 0.000000 0.012201
O O17 0.500000 0.238951 0.000000
O O18 0.793690 0.734750 0.763654
O O19 0.733537 0.000000 0.793893
O O20 0.100173 0.500000 0.246884
O O21 0.886496 0.000000 0.363782
#
# Coordination Sequence:
#
# PCOD8101120 Si02
#       8
#     8   8   8   8   8   8   8   8
#     4   9  20  36  52  77 110 139 174 219 263 310
#     4  10  21  36  52  74 103 134 169 211 260 312
#     4   9  19  36  56  76 101 133 171 215 262 312
#     4  10  20  36  57  81 108 141 180 220 266 321
#     4   9  18  35  58  79 101 136 180 221 263 312
#     4  11  22  35  52  79 116 150 179 218 265 315
#     4  10  20  36  57  80 106 140 181 223 267 317
#     4   9  19  36  56  76 102 135 172 214 259 311
#
# _framework density 19.127534000000001
#
# number of rings (size 3 to 8) (size 9 to 14) (size 15 to 20)
#    0.000    2.375    0.000    1.875    0.000    6.750 
#    0.000    5.000    0.000    0.000    0.000    0.000 
#    0.000    0.000    0.000    0.000    0.000    0.000 
#
# Total GULP energy -396834.858252 kJ/mol
# GULP energy per Si atom -12401.089320 kJ/mol
# Density = 1.908400 g / cm^3
# Si number density = 19.127534 Si / 1000 Ang^3
#
#
#
# Elastic Constant Matrix: (Units=GPa)
#
#
# Indices 1 2 3 4 5 6 
#
# 1 85.3002 18.6334 27.0950 0.0000 18.4938 0.0000
# 2 18.6334 39.4481 28.3062 0.0000 8.1013 0.0000
# 3 27.0950 28.3062 61.8092 0.0000 23.8148 0.0000
# 4 0.0000 0.0000 0.0000 30.5437 0.0000 4.2634
# 5 18.4938 8.1013 23.8148 0.0000 28.1615 0.0000
# 6 0.0000 0.0000 0.0000 4.2634 0.0000 35.8822
#
#
#
# Elastic Compliance Matrix: (Units=1/GPa)
#
#
# Indices 1 2 3 4 5 6 
#
# 1 0.014728 -0.004189 -0.001892 0.000000 -0.006867 0.000000
# 2 -0.004189 0.039549 -0.019211 0.000000 0.007620 0.000000
# 3 -0.001892 -0.019211 0.034410 0.000000 -0.022329 0.000000
# 4 0.000000 0.000000 0.000000 0.033292 0.000000 -0.003956
# 5 -0.006867 0.007620 -0.022329 0.000000 0.056710 0.000000
# 6 0.000000 0.000000 0.000000 -0.003956 0.000000 0.028339
#
#
# Mechanical properties :
#
#
# Convention : Reuss Voigt Hill
#
# Bulk Modulus (GPa) = 26.24550 37.18073 31.71312
# Shear Modulus (GPa) = 18.49703 26.41899 22.45801
#
# Velocity S-wave (km/s) = 3.11310 3.72048 3.43026
# Velocity P-wave (km/s) = 5.16458 6.15926 5.68373
#
# Compressibility (1/GPa) = 0.03810177
#
# Stress axis : x y z
#
# Youngs Moduli (GPa) = 67.89693 25.28519 29.06147
#
# Poissons Ratio (x) = 0.10592 0.05499
# Poissons Ratio (y) = 0.28442 0.55831
# Poissons Ratio (z) = 0.12847 0.48577
#
# Static dielectric constant tensor:
#      x y z
#    x 3.627800 0.000000 -0.024480 
#    y 0.000000 3.402170 0.000000 
#    z -0.024480 0.000000 3.499110 
# 
# 
# High freq. dielectric constant tensor:
#      x y z
#    x 1.752200 0.000000 0.006090 
#    y 0.000000 1.738260 0.000000 
#    z 0.006090 0.000000 1.737550 
# 
# From -- ./inp_files/338683.got.cif
#   From: 2010.06.25/outbox.cif.g09.slc.cpg/sg12_170_cif.got.tgz:338683.got - 2010.06.28 00:19:55.
