data_PCOD8101573
_publ_section_title
;
Structure prediction by ZEFSAII (Michael W. Deem and Ramdas Pophale) SiO2 
 PCOD8101573
Probable space group: C 2/M
;
_chemical_formula_sum "Si O2"
_cell_formula_units_Z 56
_cell_length_a 19.038940
_cell_length_b 16.537222
_cell_length_c 29.127192
_cell_angle_alpha 90.000000
_cell_angle_beta 161.554988
_cell_angle_gamma 90.000000
_cell_volume 2901.567686
_symmetry_space_group_name_H-M "C 2/M"
_symmetry_group_IT_number 12
_symmetry_cell_setting 'monoclinic'
loop_
_space_group_symop_operation_xyz
x,y,z
-x,y,-z
-x,-y,-z
x,-y,z
1/2+x,1/2+y,z
1/2-x,1/2+y,-z
1/2-x,1/2-y,-z
1/2+x,1/2-y,z
loop_
_atom_site_type_symbol
_atom_site_label
_atom_site_fract_x
_atom_site_fract_y
_atom_site_fract_z
Si Si1 0.398435 0.229874 0.388005
Si Si2 0.731329 0.407283 0.223062
Si Si3 0.034852 0.592391 0.724372
Si Si4 0.173482 0.594203 0.147118
Si Si5 0.617230 0.319681 0.443997
Si Si6 0.238605 0.162807 0.051971
Si Si7 0.467119 0.177393 0.102942
O O1 0.500000 0.211551 0.500000
O O2 0.372070 0.144432 0.346293
O O3 0.556089 0.287912 0.456429
O O4 0.162436 0.272460 0.248387
O O5 0.791290 0.500000 0.269641
O O6 0.800799 0.381623 0.214778
O O7 0.470896 0.392801 0.066348
O O8 0.072211 0.500000 0.761500
O O9 0.080235 0.648620 0.796341
O O10 0.780387 0.604335 0.551108
O O11 0.238257 0.500000 0.183833
O O12 0.394878 0.649658 0.279649
O O13 0.056493 0.609728 0.123597
O O14 0.000000 0.619027 0.000000
O O15 0.750000 0.250000 0.500000
O O16 0.329513 0.135032 0.058403
O O17 0.183814 0.258267 0.018287
#
# Coordination Sequence:
#
# PCOD8101573 Si02
#       7
#     8   8   8   8   8   8   8
#     4  10  20  38  58  81 113 149 196 243 292 350
#     4  10  21  36  53  82 120 156 193 240 293 350
#     4  11  22  36  58  88 120 153 195 245 298 354
#     4  10  23  42  63  88 121 158 199 247 300 358
#     4  11  22  39  62  88 115 158 195 246 297 355
#     4  10  20  36  58  86 118 156 198 245 290 353
#     4   9  21  37  59  85 115 153 202 249 289 351
#
# _framework density 19.299911999999999
#
# number of rings (size 3 to 8) (size 9 to 14) (size 15 to 20)
#    0.000    1.857    1.429    2.143    2.000    2.571 
#    0.000    0.000    0.000    4.714    0.000    0.000 
#    0.000    0.000    0.000    0.000    0.000    0.000 
#
# Total GULP energy -347255.643601 kJ/mol
# GULP energy per Si atom -12401.987271 kJ/mol
# Density = 1.925598 g / cm^3
# Si number density = 19.299912 Si / 1000 Ang^3
#
#
#
# Elastic Constant Matrix: (Units=GPa)
#
#
# Indices 1 2 3 4 5 6 
#
# 1 110.2219 46.4433 62.8774 -0.0247 2.3781 0.0192
# 2 46.4433 74.4339 48.2620 0.0181 -6.8097 0.0161
# 3 62.8774 48.2620 118.4786 -0.0056 -5.3835 0.0098
# 4 -0.0247 0.0181 -0.0056 25.4235 0.0258 0.3607
# 5 2.3781 -6.8097 -5.3835 0.0258 38.8872 0.0055
# 6 0.0192 0.0161 0.0098 0.3607 0.0055 27.2866
#
#
#
# Elastic Compliance Matrix: (Units=1/GPa)
#
#
# Indices 1 2 3 4 5 6 
#
# 1 0.014781 -0.005849 -0.005585 0.000020 -0.002701 -0.000005
# 2 -0.005849 0.020757 -0.005202 -0.000025 0.003272 -0.000007
# 3 -0.005585 -0.005202 0.013583 0.000000 0.001311 0.000002
# 4 0.000020 -0.000025 0.000000 0.039341 -0.000032 -0.000520
# 5 -0.002701 0.003272 0.001311 -0.000032 0.026635 -0.000005
# 6 -0.000005 -0.000007 0.000002 -0.000520 -0.000005 0.036655
#
#
# Mechanical properties :
#
#
# Convention : Reuss Voigt Hill
#
# Bulk Modulus (GPa) = 63.09624 68.69997 65.89811
# Shear Modulus (GPa) = 26.27328 28.02290 27.14809
#
# Velocity S-wave (km/s) = 3.69360 3.81461 3.75459
# Velocity P-wave (km/s) = 7.13819 7.42125 7.28109
#
# Compressibility (1/GPa) = 0.01584881
#
# Stress axis : x y z
#
# Youngs Moduli (GPa) = 67.65312 48.17704 73.62147
#
# Poissons Ratio (x) = 0.28178 0.41116
# Poissons Ratio (y) = 0.39570 0.38301
# Poissons Ratio (z) = 0.37783 0.25064
#
# Static dielectric constant tensor:
#      x y z
#    x 3.566880 0.000070 0.225350 
#    y 0.000070 3.378690 -0.000010 
#    z 0.225350 -0.000010 3.649220 
# 
# 
# High freq. dielectric constant tensor:
#      x y z
#    x 1.756630 0.000000 0.010210 
#    y 0.000000 1.744270 -0.000020 
#    z 0.010210 -0.000020 1.753610 
# 
# From -- ./inp_files/364437.got.cif
#   From: 2010.06.25/outbox.cif.g09.slc.cpg/sg12_183_cif.got.tgz:364437.got - 2010.06.28 00:19:55.
