data_PCOD8101896
_publ_section_title
;
Structure prediction by ZEFSAII (Michael W. Deem and Ramdas Pophale) SiO2 
 PCOD8101896
Probable space group: C 2/M
;
_chemical_formula_sum "Si O2"
_cell_formula_units_Z 48
_cell_length_a 27.628631
_cell_length_b 12.423699
_cell_length_c 21.349576
_cell_angle_alpha 90.000000
_cell_angle_beta 18.353218
_cell_angle_gamma 90.000000
_cell_volume 2307.472763
_symmetry_space_group_name_H-M "C 2/M"
_symmetry_group_IT_number 12
_symmetry_cell_setting 'monoclinic'
loop_
_space_group_symop_operation_xyz
x,y,z
-x,y,-z
-x,-y,-z
x,-y,z
1/2+x,1/2+y,z
1/2-x,1/2+y,-z
1/2-x,1/2-y,-z
1/2+x,1/2-y,z
loop_
_atom_site_type_symbol
_atom_site_label
_atom_site_fract_x
_atom_site_fract_y
_atom_site_fract_z
Si Si1 0.352415 0.879733 0.811893
Si Si2 0.622845 0.219676 0.705574
Si Si3 0.927359 0.876772 0.021193
Si Si4 0.103992 0.733615 0.431729
Si Si5 0.909626 0.724028 0.865244
Si Si6 0.635687 0.375364 0.509174
O O1 0.517911 0.859254 0.577248
O O2 0.359419 0.868597 0.878838
O O3 0.298142 0.000000 0.862132
O O4 0.234184 0.791191 0.930707
O O5 0.750000 0.250000 0.500000
O O6 0.488844 0.165535 0.827560
O O7 0.691533 0.142308 0.675000
O O8 0.554456 0.328752 0.818570
O O9 0.767774 0.813130 0.209979
O O10 0.898059 0.000000 0.038500
O O11 0.000000 0.865793 0.000000
O O12 0.130086 0.837343 0.443935
O O13 0.000000 0.767258 0.500000
O O14 0.016812 0.809241 0.697175
O O15 0.591932 0.500000 0.565514
#
# Coordination Sequence:
#
# PCOD8101896 Si02
#       6
#     8   8   8   8   8   8
#     4  10  20  36  59  89 125 160 201 255 311 365
#     4  10  21  39  60  88 121 158 209 254 299 365
#     4  11  23  41  65  91 126 167 204 251 316 375
#     4  11  23  39  60  91 124 158 208 258 305 370
#     4   9  20  36  58  89 123 160 203 256 306 371
#     4  10  21  39  60  84 119 163 208 255 310 366
#
# _framework density 20.801978999999999
#
# number of rings (size 3 to 8) (size 9 to 14) (size 15 to 20)
#    0.000    1.833    1.667    2.000    0.000    7.000 
#    0.000    1.667    0.000    4.000    0.000    0.000 
#    0.000    0.000    0.000    0.000    0.000    0.000 
#
# Total GULP energy -297492.374874 kJ/mol
# GULP energy per Si atom -12395.515620 kJ/mol
# Density = 2.075463 g / cm^3
# Si number density = 20.801979 Si / 1000 Ang^3
#
#
#
# Elastic Constant Matrix: (Units=GPa)
#
#
# Indices 1 2 3 4 5 6 
#
# 1 130.0704 24.5133 26.6383 -0.0006 -20.2504 0.0000
# 2 24.5133 67.7495 28.9266 -0.0015 4.7390 0.0004
# 3 26.6383 28.9266 100.8475 -0.0004 2.7933 0.0001
# 4 -0.0006 -0.0015 -0.0004 19.9944 0.0003 4.4887
# 5 -20.2504 4.7390 2.7933 0.0003 38.0151 0.0001
# 6 0.0000 0.0004 0.0001 4.4887 0.0001 8.5307
#
#
#
# Elastic Compliance Matrix: (Units=1/GPa)
#
#
# Indices 1 2 3 4 5 6 
#
# 1 0.009499 -0.003065 -0.001784 0.000000 0.005573 0.000000
# 2 -0.003065 0.017926 -0.004234 0.000002 -0.003556 -0.000002
# 3 -0.001784 -0.004234 0.011637 0.000000 -0.001278 0.000000
# 4 0.000000 0.000002 0.000000 0.056713 -0.000001 -0.029842
# 5 0.005573 -0.003556 -0.001278 -0.000001 0.029811 0.000000
# 6 0.000000 -0.000002 0.000000 -0.029842 0.000000 0.132925
#
#
# Mechanical properties :
#
#
# Convention : Reuss Voigt Hill
#
# Bulk Modulus (GPa) = 47.85650 50.98041 49.41846
# Shear Modulus (GPa) = 17.62783 27.88065 22.75424
#
# Velocity S-wave (km/s) = 2.91419 3.66497 3.31093
# Velocity P-wave (km/s) = 5.86336 6.51690 6.19875
#
# Compressibility (1/GPa) = 0.02089580
#
# Stress axis : x y z
#
# Youngs Moduli (GPa) = 105.27571 55.78627 85.93264
#
# Poissons Ratio (x) = 0.17098 0.15333
# Poissons Ratio (y) = 0.32266 0.36380
# Poissons Ratio (z) = 0.18785 0.23618
#
# Static dielectric constant tensor:
#      x y z
#    x 4.339830 0.000000 -0.350920 
#    y 0.000000 3.356250 0.000000 
#    z -0.350920 0.000000 3.991100 
# 
# 
# High freq. dielectric constant tensor:
#      x y z
#    x 1.835750 0.000000 -0.009980 
#    y 0.000000 1.774420 0.000000 
#    z -0.009980 0.000000 1.821440 
# 
# From -- ./inp_files/327944.got.cif
#   From: 2010.06.25/outbox.cif.g09.slc.cpg/sg12_164_cif.got.tgz:327944.got - 2010.06.28 00:19:55.
