data_PCOD8101083
_publ_section_title
;
Structure prediction by ZEFSAII (Michael W. Deem and Ramdas Pophale) SiO2 
 PCOD8101083
Probable space group: C 2/M
;
_chemical_formula_sum "Si O2"
_cell_formula_units_Z 64
_cell_length_a 14.776168
_cell_length_b 8.610314
_cell_length_c 27.115229
_cell_angle_alpha 90.000000
_cell_angle_beta 106.505462
_cell_angle_gamma 90.000000
_cell_volume 3307.644186
_symmetry_space_group_name_H-M "C 2/M"
_symmetry_group_IT_number 12
_symmetry_cell_setting 'monoclinic'
loop_
_space_group_symop_operation_xyz
x,y,z
-x,y,-z
-x,-y,-z
x,-y,z
1/2+x,1/2+y,z
1/2-x,1/2+y,-z
1/2-x,1/2-y,-z
1/2+x,1/2-y,z
loop_
_atom_site_type_symbol
_atom_site_label
_atom_site_fract_x
_atom_site_fract_y
_atom_site_fract_z
Si Si1 0.441556 0.182657 0.752637
Si Si2 0.956786 0.683636 0.942867
Si Si3 0.149537 0.183728 0.500632
Si Si4 0.258091 0.680548 0.761558
Si Si5 0.040526 0.816007 0.578188
Si Si6 0.930065 0.817757 0.307129
Si Si7 0.436816 0.184651 0.136143
Si Si8 0.228249 0.181909 0.123374
O O1 0.343781 0.275540 0.739240
O O2 0.488985 0.222601 0.708205
O O3 0.507911 0.244188 0.807166
O O4 0.421876 0.000000 0.753753
O O5 0.965043 0.500000 0.944168
O O6 0.848014 0.731079 0.921835
O O7 0.014901 0.753163 0.905570
O O8 0.000000 0.752696 0.000000
O O9 0.250000 0.250000 0.500000
O O10 0.118494 0.242933 0.550548
O O11 0.065814 0.241283 0.451060
O O12 0.158750 0.000000 0.501000
O O13 0.230659 0.500000 0.752568
O O14 0.169850 0.783936 0.732860
O O15 0.287558 0.722771 0.821827
O O16 0.069834 0.756138 0.636673
O O17 0.040265 0.000000 0.575912
O O18 0.952088 0.000000 0.307368
O O19 0.329885 0.245627 0.122016
O O20 0.437762 0.000000 0.136389
O O21 0.218772 0.000000 0.112354
#
# Coordination Sequence:
#
# PCOD8101083 Si02
#       8
#     8   8   8   8   8   8   8   8
#     4  11  21  37  58  81 111 151 189 231 284 337
#     4  10  21  37  57  82 110 141 180 227 279 337
#     4   9  17  35  60  82 108 147 190 230 276 332
#     4  11  22  37  56  83 112 148 193 234 279 339
#     4   8  18  36  56  79 113 151 184 225 281 336
#     4  11  22  37  57  85 118 151 189 236 285 337
#     4   9  18  35  56  77 106 141 176 221 276 329
#     4  10  20  36  57  78 105 141 181 225 276 331
#
# _framework density 19.349119000000002
#
# number of rings (size 3 to 8) (size 9 to 14) (size 15 to 20)
#    0.000    2.125    2.500    1.875    0.000    2.250 
#    0.000    6.875    0.000    0.000    0.000    0.000 
#    0.000    0.000    0.000    0.000    0.000    0.000 
#
# Total GULP energy -396810.765323 kJ/mol
# GULP energy per Si atom -12400.336416 kJ/mol
# Density = 1.930508 g / cm^3
# Si number density = 19.349119 Si / 1000 Ang^3
#
#
#
# Elastic Constant Matrix: (Units=GPa)
#
#
# Indices 1 2 3 4 5 6 
#
# 1 116.9540 16.0699 14.3926 0.0000 -13.1801 0.0000
# 2 16.0699 24.5137 27.1791 0.0000 0.3117 0.0000
# 3 14.3926 27.1791 83.3758 0.0000 -11.9818 0.0000
# 4 0.0000 0.0000 0.0000 20.7003 0.0000 0.8764
# 5 -13.1801 0.3117 -11.9818 0.0000 27.0703 0.0000
# 6 0.0000 0.0000 0.0000 0.8764 0.0000 32.2314
#
#
#
# Elastic Compliance Matrix: (Units=1/GPa)
#
#
# Indices 1 2 3 4 5 6 
#
# 1 0.010215 -0.009036 0.002042 0.000000 0.005981 0.000000
# 2 -0.009036 0.074874 -0.025207 0.000000 -0.016419 0.000000
# 3 0.002042 -0.025207 0.021405 0.000000 0.010758 0.000000
# 4 0.000000 0.000000 0.000000 0.048364 0.000000 -0.001315
# 5 0.005981 -0.016419 0.010758 0.000000 0.044804 0.000000
# 6 0.000000 0.000000 0.000000 -0.001315 0.000000 0.031061
#
#
# Mechanical properties :
#
#
# Convention : Reuss Voigt Hill
#
# Bulk Modulus (GPa) = 23.75855 37.79184 30.77519
# Shear Modulus (GPa) = 16.17307 27.14719 21.66013
#
# Velocity S-wave (km/s) = 2.89425 3.74975 3.34943
# Velocity P-wave (km/s) = 4.84505 6.19044 5.55860
#
# Compressibility (1/GPa) = 0.04209012
#
# Stress axis : x y z
#
# Youngs Moduli (GPa) = 97.89765 13.35581 46.71889
#
# Poissons Ratio (x) = 0.12069 -0.09539
# Poissons Ratio (y) = 0.88462 1.17765
# Poissons Ratio (z) = -0.19990 0.33666
#
# Static dielectric constant tensor:
#      x y z
#    x 3.704090 0.000000 -0.132470 
#    y 0.000000 3.167310 0.000000 
#    z -0.132470 0.000000 3.783340 
# 
# 
# High freq. dielectric constant tensor:
#      x y z
#    x 1.765130 0.000000 -0.003660 
#    y 0.000000 1.725180 0.000000 
#    z -0.003660 0.000000 1.752450 
# 
# From -- ./inp_files/359904.got.cif
#   From: 2010.06.25/outbox.cif.g09.slc.cpg/sg12_180_cif.got.tgz:359904.got - 2010.06.28 00:19:55.
