data_PCOD8101813
_publ_section_title
;
Structure prediction by ZEFSAII (Michael W. Deem and Ramdas Pophale) SiO2 
 PCOD8101813
Probable space group: C 2/M
;
_chemical_formula_sum "Si O2"
_cell_formula_units_Z 64
_cell_length_a 28.567779
_cell_length_b 9.014804
_cell_length_c 15.209171
_cell_angle_alpha 90.000000
_cell_angle_beta 53.524541
_cell_angle_gamma 90.000000
_cell_volume 3149.594300
_symmetry_space_group_name_H-M "C 2/M"
_symmetry_group_IT_number 12
_symmetry_cell_setting 'monoclinic'
loop_
_space_group_symop_operation_xyz
x,y,z
-x,y,-z
-x,-y,-z
x,-y,z
1/2+x,1/2+y,z
1/2-x,1/2+y,-z
1/2-x,1/2-y,-z
1/2+x,1/2-y,z
loop_
_atom_site_type_symbol
_atom_site_label
_atom_site_fract_x
_atom_site_fract_y
_atom_site_fract_z
Si Si1 0.135321 0.831111 0.005310
Si Si2 0.667938 0.331449 0.297776
Si Si3 0.996075 0.830240 0.905063
Si Si4 0.309440 0.174444 0.904794
Si Si5 0.307491 0.826680 0.401447
Si Si6 0.567411 0.175300 0.675998
Si Si7 0.953205 0.826397 0.480062
Si Si8 0.706278 0.168817 0.780164
O O1 0.179516 0.777917 0.881276
O O2 0.151878 0.000000 0.009676
O O3 0.070301 0.815247 0.046776
O O4 0.140387 0.730462 0.086109
O O5 0.662377 0.500000 0.268084
O O6 0.672784 0.218121 0.212625
O O7 0.611294 0.286780 0.415825
O O8 0.723736 0.314827 0.298329
O O9 0.035126 0.729414 0.799258
O O10 0.018024 0.000000 0.874064
O O11 0.000000 0.770405 0.000000
O O12 0.302151 0.000000 0.920355
O O13 0.250000 0.250000 0.000000
O O14 0.250000 0.750000 0.500000
O O15 0.364627 0.777208 0.392154
O O16 0.317476 0.783934 0.288434
O O17 0.296534 0.000000 0.422608
O O18 0.537401 0.245725 0.623507
O O19 0.561060 0.000000 0.677168
O O20 0.000000 0.769467 0.500000
O O21 0.962214 0.000000 0.453217
O O22 0.688376 0.000000 0.823469
#
# Coordination Sequence:
#
# PCOD8101813 Si02
#       8
#     8   8   8   8   8   8   8   8
#     4  11  23  38  60  89 120 157 204 251 303 368
#     4  10  21  38  61  88 120 158 206 259 308 365
#     4  10  23  43  66  92 125 167 213 257 306 369
#     4  12  24  39  60  89 125 163 202 251 310 369
#     4  10  22  39  61  91 123 159 200 246 303 364
#     4  11  24  41  63  94 131 165 206 260 314 371
#     4  10  23  43  66  90 120 166 216 261 312 370
#     4  10  20  36  59  86 119 157 196 247 306 365
#
# _framework density 20.320077000000001
#
# number of rings (size 3 to 8) (size 9 to 14) (size 15 to 20)
#    0.000    1.500    1.250    3.375    1.750    4.500 
#    0.000    0.000    0.000    0.000    0.000    0.000 
#    0.000    0.000    0.000    0.000    0.000    0.000 
#
# Total GULP energy -396936.379110 kJ/mol
# GULP energy per Si atom -12404.261847 kJ/mol
# Density = 2.027383 g / cm^3
# Si number density = 20.320077 Si / 1000 Ang^3
#
#
#
# Elastic Constant Matrix: (Units=GPa)
#
#
# Indices 1 2 3 4 5 6 
#
# 1 117.2179 49.6397 45.2665 0.0000 17.6378 0.0000
# 2 49.6397 96.4798 46.3004 0.0000 7.3529 0.0002
# 3 45.2665 46.3004 100.4512 0.0000 6.9240 0.0000
# 4 0.0000 0.0000 0.0000 37.6626 0.0000 3.5104
# 5 17.6378 7.3529 6.9240 0.0000 38.0892 0.0000
# 6 0.0000 0.0002 0.0000 3.5104 0.0000 29.1857
#
#
#
# Elastic Compliance Matrix: (Units=1/GPa)
#
#
# Indices 1 2 3 4 5 6 
#
# 1 0.012295 -0.004473 -0.003186 0.000000 -0.004251 0.000000
# 2 -0.004473 0.015018 -0.004911 0.000000 0.000065 0.000000
# 3 -0.003186 -0.004911 0.013658 0.000000 -0.000060 0.000000
# 4 0.000000 0.000000 0.000000 0.026853 0.000000 -0.003230
# 5 -0.004251 0.000065 -0.000060 0.000000 0.028221 0.000000
# 6 0.000000 0.000000 0.000000 -0.003230 0.000000 0.034652
#
#
# Mechanical properties :
#
#
# Convention : Reuss Voigt Hill
#
# Bulk Modulus (GPa) = 63.16354 66.28467 64.72411
# Shear Modulus (GPa) = 31.03381 32.51699 31.77540
#
# Velocity S-wave (km/s) = 3.91224 4.00464 3.95871
# Velocity P-wave (km/s) = 7.18048 7.35350 7.26750
#
# Compressibility (1/GPa) = 0.01583192
#
# Stress axis : x y z
#
# Youngs Moduli (GPa) = 81.33134 66.58608 73.21500
#
# Poissons Ratio (x) = 0.29785 0.23325
# Poissons Ratio (y) = 0.36381 0.35955
# Poissons Ratio (z) = 0.25911 0.32700
#
# Static dielectric constant tensor:
#      x y z
#    x 4.130020 0.000000 0.241160 
#    y 0.000000 3.694300 0.000000 
#    z 0.241160 0.000000 3.739070 
# 
# 
# High freq. dielectric constant tensor:
#      x y z
#    x 1.811540 0.000000 0.003830 
#    y 0.000000 1.789110 0.000000 
#    z 0.003830 0.000000 1.794290 
# 
# From -- ./inp_files/249784.got.cif
#   From: 2010.06.25/outbox.cif.g09.slc.cpg/sg12_125_cif.got.tgz:249784.got - 2010.06.28 00:19:55.
