data_PCOD8101934
_publ_section_title
;
Structure prediction by ZEFSAII (Michael W. Deem and Ramdas Pophale) SiO2 
 PCOD8101934
Probable space group: C 2/M
;
_chemical_formula_sum "Si O2"
_cell_formula_units_Z 64
_cell_length_a 9.677953
_cell_length_b 15.981491
_cell_length_c 32.491160
_cell_angle_alpha 90.000000
_cell_angle_beta 39.352995
_cell_angle_gamma 90.000000
_cell_volume 3186.553959
_symmetry_space_group_name_H-M "C 2/M"
_symmetry_group_IT_number 12
_symmetry_cell_setting 'monoclinic'
loop_
_space_group_symop_operation_xyz
x,y,z
-x,y,-z
-x,-y,-z
x,-y,z
1/2+x,1/2+y,z
1/2-x,1/2+y,-z
1/2-x,1/2-y,-z
1/2+x,1/2-y,z
loop_
_atom_site_type_symbol
_atom_site_label
_atom_site_fract_x
_atom_site_fract_y
_atom_site_fract_z
Si Si1 0.520322 0.594369 0.427717
Si Si2 0.337179 0.905477 0.070632
Si Si3 0.331225 0.748527 0.655342
Si Si4 0.852228 0.767784 0.743537
Si Si5 0.536707 0.318640 0.872599
Si Si6 0.641862 0.905528 0.577549
Si Si7 0.792028 0.828620 0.075336
Si Si8 0.631425 0.093961 0.845241
O O1 0.534731 0.500000 0.405357
O O2 0.534597 0.666302 0.389809
O O3 0.715309 0.607431 0.414768
O O4 0.289623 0.605460 0.503197
O O5 0.355775 0.864020 0.111892
O O6 0.088768 0.904087 0.110476
O O7 0.416620 0.000000 0.058059
O O8 0.500000 0.860986 0.000000
O O9 0.260947 0.736177 0.718560
O O10 0.457826 0.834997 0.618577
O O11 0.109586 0.755169 0.680759
O O12 0.739707 0.693624 0.795369
O O13 0.790447 0.855797 0.778422
O O14 0.342671 0.251865 0.908846
O O15 0.622742 0.317193 0.898509
O O16 0.541237 0.000000 0.600939
O O17 0.619112 0.904658 0.112720
O O18 0.000000 0.849260 0.000000
O O19 0.720276 0.000000 0.825081
#
# Coordination Sequence:
#
# PCOD8101934 Si02
#       8
#     8   8   8   8   8   8   8   8
#     4   9  19  38  63  93 126 157 193 248 304 355
#     4  10  20  36  60  84 108 142 188 244 304 364
#     4  12  21  39  61  91 119 162 209 243 290 352
#     4  11  24  37  56  80 116 158 199 236 281 352
#     4  11  21  38  53  79 113 145 187 237 293 346
#     4   9  19  38  64  93 124 156 197 246 304 357
#     4  11  21  34  59  83 104 140 187 243 300 360
#     4  10  22  40  55  77 116 154 185 239 308 354
#
# _framework density 20.084392000000001
#
# number of rings (size 3 to 8) (size 9 to 14) (size 15 to 20)
#    0.000    1.625    1.250    6.375    0.000    1.750 
#    0.000    1.250    0.000    1.500    0.000    0.000 
#    0.000    0.000    0.000    0.000    0.000    0.000 
#
# Total GULP energy -396673.249975 kJ/mol
# GULP energy per Si atom -12396.039062 kJ/mol
# Density = 2.003868 g / cm^3
# Si number density = 20.084392 Si / 1000 Ang^3
#
#
#
# Elastic Constant Matrix: (Units=GPa)
#
#
# Indices 1 2 3 4 5 6 
#
# 1 107.0876 24.9968 31.4808 0.0028 7.3855 0.0006
# 2 24.9968 97.1546 51.9124 0.0005 2.2848 0.0019
# 3 31.4808 51.9124 107.8158 0.0161 3.7180 -0.0038
# 4 0.0028 0.0005 0.0161 28.0204 0.0004 -5.5596
# 5 7.3855 2.2848 3.7180 0.0004 35.6932 -0.0017
# 6 0.0006 0.0019 -0.0038 -5.5596 -0.0017 24.6578
#
#
#
# Elastic Compliance Matrix: (Units=1/GPa)
#
#
# Indices 1 2 3 4 5 6 
#
# 1 0.010475 -0.001416 -0.002314 0.000000 -0.001836 -0.000001
# 2 -0.001416 0.014051 -0.006354 0.000003 0.000055 -0.000001
# 3 -0.002314 -0.006354 0.013026 -0.000007 -0.000471 0.000001
# 4 0.000000 0.000003 -0.000007 0.037360 0.000000 0.008423
# 5 -0.001836 0.000055 -0.000471 0.000000 0.028442 0.000002
# 6 -0.000001 -0.000001 0.000001 0.008423 0.000002 0.042454
#
#
# Mechanical properties :
#
#
# Convention : Reuss Voigt Hill
#
# Bulk Modulus (GPa) = 57.51809 58.75976 58.13892
# Shear Modulus (GPa) = 29.10862 31.25216 30.18039
#
# Velocity S-wave (km/s) = 3.81112 3.94895 3.88065
# Velocity P-wave (km/s) = 6.93300 7.07900 7.00638
#
# Compressibility (1/GPa) = 0.01738583
#
# Stress axis : x y z
#
# Youngs Moduli (GPa) = 95.46178 71.16981 76.76803
#
# Poissons Ratio (x) = 0.10076 0.17762
# Poissons Ratio (y) = 0.13515 0.48778
# Poissons Ratio (z) = 0.22087 0.45221
#
# Static dielectric constant tensor:
#      x y z
#    x 3.740490 -0.000010 -0.015940 
#    y -0.000010 3.747760 0.000010 
#    z -0.015940 0.000010 3.737700 
# 
# 
# High freq. dielectric constant tensor:
#      x y z
#    x 1.783750 0.000000 0.002870 
#    y 0.000000 1.781920 0.000000 
#    z 0.002870 0.000000 1.783460 
# 
# From -- ./inp_files/372908.got.cif
#   From: 2010.06.25/outbox.cif.g09.slc.cpg/sg12_187_cif.got.tgz:372908.got - 2010.06.28 00:19:55.
