data_PCOD8101233
_publ_section_title
;
Structure prediction by ZEFSAII (Michael W. Deem and Ramdas Pophale) SiO2 
 PCOD8101233
Probable space group: C 2/M
;
_chemical_formula_sum "Si O2"
_cell_formula_units_Z 64
_cell_length_a 29.553776
_cell_length_b 9.288232
_cell_length_c 16.221541
_cell_angle_alpha 90.000000
_cell_angle_beta 47.920408
_cell_angle_gamma 90.000000
_cell_volume 3304.970811
_symmetry_space_group_name_H-M "C 2/M"
_symmetry_group_IT_number 12
_symmetry_cell_setting 'monoclinic'
loop_
_space_group_symop_operation_xyz
x,y,z
-x,y,-z
-x,-y,-z
x,-y,z
1/2+x,1/2+y,z
1/2-x,1/2+y,-z
1/2-x,1/2-y,-z
1/2+x,1/2-y,z
loop_
_atom_site_type_symbol
_atom_site_label
_atom_site_fract_x
_atom_site_fract_y
_atom_site_fract_z
Si Si1 0.016731 0.833561 0.709640
Si Si2 0.949878 0.333672 0.493807
Si Si3 0.798091 0.830544 0.108705
Si Si4 0.659491 0.166559 0.256909
Si Si5 0.393948 0.838020 0.302112
Si Si6 0.778646 0.665259 0.539828
Si Si7 0.377922 0.665099 0.856749
Si Si8 0.308859 0.170376 0.253107
O O1 0.041071 0.762265 0.596953
O O2 0.049152 0.765795 0.750662
O O3 0.945247 0.807562 0.809644
O O4 0.033775 0.000000 0.684578
O O5 0.958250 0.500000 0.458503
O O6 0.882288 0.304510 0.612138
O O7 0.000000 0.288634 0.500000
O O8 0.727902 0.780641 0.190275
O O9 0.831260 0.736892 0.139344
O O10 0.805426 0.000000 0.118731
O O11 0.829706 0.787061 0.984662
O O12 0.630841 0.245086 0.214337
O O13 0.659653 0.000000 0.233361
O O14 0.351231 0.831003 0.436454
O O15 0.358069 0.790003 0.263474
O O16 0.418114 0.000000 0.260437
O O17 0.755673 0.500000 0.570729
O O18 0.750000 0.750000 0.500000
O O19 0.755835 0.749030 0.649056
O O20 0.368107 0.500000 0.844586
O O21 0.298113 0.000000 0.260912
#
# Coordination Sequence:
#
# PCOD8101233 Si02
#       8
#     8   8   8   8   8   8   8   8
#     4  11  23  36  56  85 115 151 192 233 284 339
#     4  10  20  36  57  83 116 150 183 229 283 340
#     4  10  22  39  59  83 113 151 192 237 285 337
#     4  10  21  37  60  86 111 147 191 229 283 346
#     4   9  20  37  56  79 112 151 189 230 278 336
#     4   9  17  31  52  77 108 145 181 223 276 331
#     4  10  22  40  58  81 115 150 189 238 288 335
#     4  10  21  37  56  83 114 147 191 238 284 335
#
# _framework density 19.36477
#
# number of rings (size 3 to 8) (size 9 to 14) (size 15 to 20)
#    0.000    2.125    1.250    2.250    1.750    5.250 
#    0.000    0.625    0.000    3.750    0.000    0.000 
#    0.000    0.000    0.000    0.000    0.000    0.000 
#
# Total GULP energy -396784.578097 kJ/mol
# GULP energy per Si atom -12399.518066 kJ/mol
# Density = 1.932069 g / cm^3
# Si number density = 19.364770 Si / 1000 Ang^3
#
#
#
# Elastic Constant Matrix: (Units=GPa)
#
#
# Indices 1 2 3 4 5 6 
#
# 1 76.7378 39.4299 16.4217 0.0001 -8.5205 0.0000
# 2 39.4299 81.9232 22.5809 0.0011 -0.8360 -0.0002
# 3 16.4217 22.5809 58.0192 0.0002 -11.6000 0.0000
# 4 0.0001 0.0011 0.0002 27.4248 0.0000 4.0218
# 5 -8.5205 -0.8360 -11.6000 0.0000 23.9271 0.0000
# 6 0.0000 -0.0002 0.0000 4.0218 0.0000 30.8130
#
#
#
# Elastic Compliance Matrix: (Units=1/GPa)
#
#
# Indices 1 2 3 4 5 6 
#
# 1 0.018201 -0.008517 -0.000665 0.000000 0.005861 0.000000
# 2 -0.008517 0.017777 -0.005526 -0.000001 -0.005091 0.000000
# 3 -0.000665 -0.005526 0.021580 0.000000 0.010032 0.000000
# 4 0.000000 -0.000001 0.000000 0.037175 0.000000 -0.004852
# 5 0.005861 -0.005091 0.010032 0.000000 0.048567 0.000000
# 6 0.000000 0.000000 0.000000 -0.004852 0.000000 0.033087
#
#
# Mechanical properties :
#
#
# Convention : Reuss Voigt Hill
#
# Bulk Modulus (GPa) = 35.53338 41.50502 38.51920
# Shear Modulus (GPa) = 23.23600 25.64951 24.44275
#
# Velocity S-wave (km/s) = 3.46773 3.64338 3.55664
# Velocity P-wave (km/s) = 5.86710 6.25929 6.06637
#
# Compressibility (1/GPa) = 0.02814255
#
# Stress axis : x y z
#
# Youngs Moduli (GPa) = 54.94278 56.25237 46.33849
#
# Poissons Ratio (x) = 0.47910 0.03081
# Poissons Ratio (y) = 0.46795 0.25606
# Poissons Ratio (z) = 0.03653 0.31085
#
# Static dielectric constant tensor:
#      x y z
#    x 3.502520 0.000000 -0.161740 
#    y 0.000000 3.545240 0.000000 
#    z -0.161740 0.000000 3.459100 
# 
# 
# High freq. dielectric constant tensor:
#      x y z
#    x 1.752370 0.000000 0.001130 
#    y 0.000000 1.754560 0.000000 
#    z 0.001130 0.000000 1.745170 
# 
# From -- ./inp_files/249700.got.cif
#   From: 2010.06.25/outbox.cif.g09.slc.cpg/sg12_125_cif.got.tgz:249700.got - 2010.06.28 00:19:55.
