data_PCOD8101228
_publ_section_title
;
Structure prediction by ZEFSAII (Michael W. Deem and Ramdas Pophale) SiO2 
 PCOD8101228
Probable space group: C 2/M
;
_chemical_formula_sum "Si O2"
_cell_formula_units_Z 64
_cell_length_a 23.825382
_cell_length_b 9.053416
_cell_length_c 28.053766
_cell_angle_alpha 90.000000
_cell_angle_beta 32.722159
_cell_angle_gamma 90.000000
_cell_volume 3271.086513
_symmetry_space_group_name_H-M "C 2/M"
_symmetry_group_IT_number 12
_symmetry_cell_setting 'monoclinic'
loop_
_space_group_symop_operation_xyz
x,y,z
-x,y,-z
-x,-y,-z
x,-y,z
1/2+x,1/2+y,z
1/2-x,1/2+y,-z
1/2-x,1/2-y,-z
1/2+x,1/2-y,z
loop_
_atom_site_type_symbol
_atom_site_label
_atom_site_fract_x
_atom_site_fract_y
_atom_site_fract_z
Si Si1 0.491062 0.670499 0.409784
Si Si2 0.075967 0.175213 0.248843
Si Si3 0.563861 0.325159 0.738041
Si Si4 0.688797 0.174922 0.921119
Si Si5 0.849538 0.168854 0.146306
Si Si6 0.272089 0.329231 0.607659
Si Si7 0.343307 0.170311 0.651287
Si Si8 0.522921 0.326864 0.097940
O O1 0.524369 0.500000 0.391703
O O2 0.524454 0.733850 0.334489
O O3 0.368091 0.690865 0.502983
O O4 0.546612 0.761382 0.412222
O O5 0.193314 0.234467 0.160392
O O6 0.009394 0.233762 0.251937
O O7 0.075897 0.000000 0.248813
O O8 0.581870 0.500000 0.723197
O O9 0.674311 0.247157 0.652697
O O10 0.510767 0.277640 0.825390
O O11 0.635117 0.230686 0.910951
O O12 0.683785 0.000000 0.926185
O O13 0.627570 0.240043 0.009991
O O14 0.734190 0.189670 0.248994
O O15 0.931384 0.219655 0.127542
O O16 0.869772 0.000000 0.116769
O O17 0.247918 0.500000 0.634474
O O18 0.295674 0.254222 0.640872
O O19 0.358024 0.000000 0.626737
O O20 0.545920 0.500000 0.079363
#
# Coordination Sequence:
#
# PCOD8101228 Si02
#       8
#     8   8   8   8   8   8   8   8
#     4  10  21  39  59  85 120 156 187 230 294 345
#     4   9  20  39  61  82 112 153 195 237 284 340
#     4  10  21  41  63  81 109 155 200 236 283 340
#     4  11  22  36  58  88 115 148 190 232 283 343
#     4  10  20  36  57  83 114 150 187 230 286 341
#     4  11  23  37  58  87 120 152 187 237 293 341
#     4  11  21  36  60  88 116 151 194 235 280 341
#     4  10  21  38  58  82 114 150 187 234 289 340
#
# _framework density 19.565363999999999
#
# number of rings (size 3 to 8) (size 9 to 14) (size 15 to 20)
#    0.000    1.750    2.500    1.875    0.000    6.500 
#    0.000    1.875    0.000    0.000    0.000    0.000 
#    0.000    0.000    0.000    0.000    0.000    0.000 
#
# Total GULP energy -396960.457237 kJ/mol
# GULP energy per Si atom -12405.014289 kJ/mol
# Density = 1.952083 g / cm^3
# Si number density = 19.565364 Si / 1000 Ang^3
#
#
#
# Elastic Constant Matrix: (Units=GPa)
#
#
# Indices 1 2 3 4 5 6 
#
# 1 121.4431 35.2409 41.8612 0.0118 -11.9813 -0.0143
# 2 35.2409 64.3699 43.6220 0.0026 -4.6038 -0.0021
# 3 41.8612 43.6220 107.8323 0.0035 -6.5766 -0.0014
# 4 0.0118 0.0026 0.0035 34.6167 -0.0023 -3.2883
# 5 -11.9813 -4.6038 -6.5766 -0.0023 19.2452 0.0050
# 6 -0.0143 -0.0021 -0.0014 -3.2883 0.0050 24.1399
#
#
#
# Elastic Compliance Matrix: (Units=1/GPa)
#
#
# Indices 1 2 3 4 5 6 
#
# 1 0.010636 -0.003963 -0.002226 -0.000002 0.004913 0.000004
# 2 -0.003963 0.022971 -0.007731 0.000000 0.000386 -0.000001
# 3 -0.002226 -0.007731 0.013346 0.000000 0.001325 -0.000001
# 4 -0.000002 0.000000 0.000000 0.029266 0.000001 0.003987
# 5 0.004913 0.000386 0.001325 0.000001 0.055565 -0.000008
# 6 0.000004 -0.000001 -0.000001 0.003987 -0.000008 0.041968
#
#
# Mechanical properties :
#
#
# Convention : Reuss Voigt Hill
#
# Bulk Modulus (GPa) = 52.31825 59.45484 55.88655
# Shear Modulus (GPa) = 24.04248 27.12844 25.58546
#
# Velocity S-wave (km/s) = 3.50927 3.72769 3.62012
# Velocity P-wave (km/s) = 6.57406 6.99866 6.78968
#
# Compressibility (1/GPa) = 0.01911379
#
# Stress axis : x y z
#
# Youngs Moduli (GPa) = 94.01635 43.53226 74.92820
#
# Poissons Ratio (x) = 0.17252 0.16681
# Poissons Ratio (y) = 0.37260 0.57925
# Poissons Ratio (z) = 0.20931 0.33654
#
# Static dielectric constant tensor:
#      x y z
#    x 3.560690 0.000000 -0.026570 
#    y 0.000000 3.413360 0.000010 
#    z -0.026570 0.000010 3.736700 
# 
# 
# High freq. dielectric constant tensor:
#      x y z
#    x 1.757350 0.000000 -0.000260 
#    y 0.000000 1.746970 0.000000 
#    z -0.000260 0.000000 1.776600 
# 
# From -- ./inp_files/382340.got.cif
#   From: 2010.06.25/outbox.cif.g09.slc.cpg/sg12_192_cif.got.tgz:382340.got - 2010.06.28 00:19:55.
