data_PCOD8101219
_publ_section_title
;
Structure prediction by ZEFSAII (Michael W. Deem and Ramdas Pophale) SiO2 
 PCOD8101219
Probable space group: C 2/M
;
_chemical_formula_sum "Si O2"
_cell_formula_units_Z 48
_cell_length_a 16.356007
_cell_length_b 13.084573
_cell_length_c 12.660886
_cell_angle_alpha 90.000000
_cell_angle_beta 108.712476
_cell_angle_gamma 90.000000
_cell_volume 2566.346670
_symmetry_space_group_name_H-M "C 2/M"
_symmetry_group_IT_number 12
_symmetry_cell_setting 'monoclinic'
loop_
_space_group_symop_operation_xyz
x,y,z
-x,y,-z
-x,-y,-z
x,-y,z
1/2+x,1/2+y,z
1/2-x,1/2+y,-z
1/2-x,1/2-y,-z
1/2+x,1/2-y,z
loop_
_atom_site_type_symbol
_atom_site_label
_atom_site_fract_x
_atom_site_fract_y
_atom_site_fract_z
Si Si1 0.388539 0.881642 0.306970
Si Si2 0.336783 0.730521 0.472533
Si Si3 0.832173 0.885622 0.276093
Si Si4 0.428141 0.382990 0.881687
Si Si5 0.011139 0.782488 0.302258
Si Si6 0.746421 0.714718 0.118136
O O1 0.358574 0.824692 0.402388
O O2 0.478578 0.834595 0.301092
O O3 0.319943 0.865900 0.183918
O O4 0.401719 0.000000 0.338500
O O5 0.250000 0.750000 0.500000
O O6 0.321727 0.628686 0.397282
O O7 0.415110 0.702038 0.581020
O O8 0.759029 0.817512 0.190609
O O9 0.929709 0.856583 0.285022
O O10 0.813650 0.000000 0.233252
O O11 0.415821 0.500000 0.836430
O O12 0.450625 0.306771 0.796099
O O13 0.342725 0.341096 0.899555
O O14 0.500000 0.378111 0.000000
O O15 0.750000 0.750000 0.000000
#
# Coordination Sequence:
#
# PCOD8101219 Si02
#       6
#     8   8   8   8   8   8
#     4  10  21  37  58  82 111 150 189 227 277 333
#     4  10  21  36  54  80 113 146 185 231 277 330
#     4  10  21  36  55  80 110 145 183 229 281 326
#     4  11  22  37  60  86 111 144 185 229 277 328
#     4  10  20  36  57  83 113 143 186 234 274 326
#     4  10  21  38  58  81 113 144 182 230 273 330
#
# _framework density 18.703628999999999
#
# number of rings (size 3 to 8) (size 9 to 14) (size 15 to 20)
#    0.000    2.167    0.000    7.000    0.000    6.667 
#    0.000    2.500    0.000    2.000    0.000    0.000 
#    0.000    0.000    0.000    0.000    0.000    0.000 
#
# Total GULP energy -297471.565637 kJ/mol
# GULP energy per Si atom -12394.648568 kJ/mol
# Density = 1.866106 g / cm^3
# Si number density = 18.703629 Si / 1000 Ang^3
#
#
#
# Elastic Constant Matrix: (Units=GPa)
#
#
# Indices 1 2 3 4 5 6 
#
# 1 84.6092 18.7696 39.5622 0.0000 0.7264 0.0000
# 2 18.7696 124.4671 30.5619 0.0000 1.3729 0.0000
# 3 39.5622 30.5619 119.3115 0.0000 -1.9344 0.0000
# 4 0.0000 0.0000 0.0000 10.4801 0.0000 -5.1746
# 5 0.7264 1.3729 -1.9344 0.0000 38.4003 0.0000
# 6 0.0000 0.0000 0.0000 -5.1746 0.0000 15.2679
#
#
#
# Elastic Compliance Matrix: (Units=1/GPa)
#
#
# Indices 1 2 3 4 5 6 
#
# 1 0.014122 -0.001038 -0.004424 0.000000 -0.000453 0.000000
# 2 -0.001038 0.008657 -0.001879 0.000000 -0.000385 0.000000
# 3 -0.004424 -0.001879 0.010341 0.000000 0.000672 0.000000
# 4 0.000000 0.000000 0.000000 0.114595 0.000000 0.038839
# 5 -0.000453 -0.000385 0.000672 0.000000 0.026098 0.000000
# 6 0.000000 0.000000 0.000000 0.038839 0.000000 0.078660
#
#
# Mechanical properties :
#
#
# Convention : Reuss Voigt Hill
#
# Bulk Modulus (GPa) = 54.24239 56.24167 55.24203
# Shear Modulus (GPa) = 18.29486 28.79594 23.54540
#
# Velocity S-wave (km/s) = 3.13092 3.92802 3.55190
# Velocity P-wave (km/s) = 6.49109 7.12093 6.81329
#
# Compressibility (1/GPa) = 0.01843577
#
# Stress axis : x y z
#
# Youngs Moduli (GPa) = 70.81211 115.51981 96.70566
#
# Poissons Ratio (x) = 0.11994 0.42783
# Poissons Ratio (y) = 0.07352 0.18174
# Poissons Ratio (z) = 0.31327 0.21710
#
# Static dielectric constant tensor:
#      x y z
#    x 3.516990 0.000000 0.084300 
#    y 0.000000 3.533240 0.000000 
#    z 0.084300 0.000000 3.597330 
# 
# 
# High freq. dielectric constant tensor:
#      x y z
#    x 1.728970 0.000000 0.007520 
#    y 0.000000 1.717110 0.000000 
#    z 0.007520 0.000000 1.739910 
# 
# From -- ./inp_files/143065.got.cif
#   From: 2010.06.25/outbox.cif.g09.slc.cpg/sg12_72_cif.got.tgz:143065.got - 2010.06.28 00:19:55.
