data_PCOD8101943
_publ_section_title
;
Structure prediction by ZEFSAII (Michael W. Deem and Ramdas Pophale) SiO2 
 PCOD8101943
Probable space group: C 2/M
;
_chemical_formula_sum "Si O2"
_cell_formula_units_Z 40
_cell_length_a 9.162335
_cell_length_b 22.215073
_cell_length_c 18.503066
_cell_angle_alpha 90.000000
_cell_angle_beta 149.001442
_cell_angle_gamma 90.000000
_cell_volume 1939.629381
_symmetry_space_group_name_H-M "C 2/M"
_symmetry_group_IT_number 12
_symmetry_cell_setting 'monoclinic'
loop_
_space_group_symop_operation_xyz
x,y,z
-x,y,-z
-x,-y,-z
x,-y,z
1/2+x,1/2+y,z
1/2-x,1/2+y,-z
1/2-x,1/2-y,-z
1/2+x,1/2-y,z
loop_
_atom_site_type_symbol
_atom_site_label
_atom_site_fract_x
_atom_site_fract_y
_atom_site_fract_z
Si Si1 0.313292 0.067971 0.120241
Si Si2 0.617777 0.283983 0.130202
Si Si3 0.717111 0.064643 0.424493
Si Si4 0.733692 0.805541 0.439277
Si Si5 0.908947 0.656781 0.040245
O O1 0.463853 0.072537 0.260655
O O2 0.473572 0.105112 0.126007
O O3 0.295891 0.000000 0.084103
O O4 0.000000 0.095047 0.000000
O O5 0.595878 0.214108 0.143652
O O6 0.944854 0.302531 0.270803
O O7 0.500000 0.292349 0.000000
O O8 0.424388 0.323883 0.102495
O O9 0.732418 0.127312 0.477371
O O10 0.000000 0.057931 0.500000
O O11 0.675833 0.000000 0.450186
O O12 0.750000 0.750000 0.500000
O O13 0.000000 0.800419 0.500000
O O14 0.000000 0.632927 0.000000
#
# Coordination Sequence:
#
# PCOD8101943 Si02
#       5
#     8   8   8   8   8
#     4  10  20  36  60  85 111 150 199 244 286 347
#     4  10  22  39  58  81 117 165 199 233 299 368
#     4   9  19  36  58  82 111 153 194 233 289 354
#     4  11  25  38  60  92 124 151 196 261 300 346
#     4  10  21  33  59  84 117 153 195 239 293 352
#
# _framework density 20.622496000000002
#
# number of rings (size 3 to 8) (size 9 to 14) (size 15 to 20)
#    0.000    2.000    0.000    3.000   14.000    1.200 
#    0.000    0.000    0.000    0.600    0.000    0.000 
#    0.000    0.000    0.000    0.000    0.000    0.000 
#
# Total GULP energy -247771.996628 kJ/mol
# GULP energy per Si atom -12388.599831 kJ/mol
# Density = 2.057556 g / cm^3
# Si number density = 20.622496 Si / 1000 Ang^3
#
#
#
# Elastic Constant Matrix: (Units=GPa)
#
#
# Indices 1 2 3 4 5 6 
#
# 1 86.7278 50.3687 15.2606 0.0003 10.1514 0.0006
# 2 50.3687 206.5277 14.6256 0.0015 -8.3155 -0.0002
# 3 15.2606 14.6256 85.1447 -0.0381 30.3139 -0.0109
# 4 0.0003 0.0015 -0.0381 18.7065 0.0025 -4.0123
# 5 10.1514 -8.3155 30.3139 0.0025 30.6753 0.0012
# 6 0.0006 -0.0002 -0.0109 -4.0123 0.0012 38.0805
#
#
#
# Elastic Compliance Matrix: (Units=1/GPa)
#
#
# Indices 1 2 3 4 5 6 
#
# 1 0.014379 -0.003761 0.000194 0.000001 -0.005970 0.000000
# 2 -0.003761 0.006117 -0.002175 -0.000006 0.005053 -0.000001
# 3 0.000194 -0.002175 0.019002 0.000044 -0.019432 0.000011
# 4 0.000001 -0.000006 0.000044 0.054693 -0.000050 0.005763
# 5 -0.005970 0.005053 -0.019432 -0.000050 0.055148 -0.000012
# 6 0.000000 -0.000001 0.000011 0.005763 -0.000012 0.026867
#
#
# Mechanical properties :
#
#
# Convention : Reuss Voigt Hill
#
# Bulk Modulus (GPa) = 35.69686 59.87889 47.78788
# Shear Modulus (GPa) = 25.37703 37.36883 31.37293
#
# Velocity S-wave (km/s) = 3.51173 4.26143 3.90461
# Velocity P-wave (km/s) = 5.81293 7.30149 6.59932
#
# Compressibility (1/GPa) = 0.02801366
#
# Stress axis : x y z
#
# Youngs Moduli (GPa) = 69.54501 163.48695 52.62615
#
# Poissons Ratio (x) = 0.61487 -0.01023
# Poissons Ratio (y) = 0.26156 0.11449
# Poissons Ratio (z) = -0.01352 0.35566
#
# Static dielectric constant tensor:
#      x y z
#    x 3.714570 -0.000070 0.220420 
#    y -0.000070 4.673030 0.000040 
#    z 0.220420 0.000040 3.850980 
# 
# 
# High freq. dielectric constant tensor:
#      x y z
#    x 1.762230 0.000000 0.033140 
#    y 0.000000 1.842190 0.000000 
#    z 0.033140 0.000000 1.797650 
# 
# From -- ./inp_files/39350.got.cif
#   From: 2010.06.25/outbox.cif.g09.slc.cpg/sg12_20_cif.got.tgz:39350.got - 2010.06.28 00:19:55.
