data_PCOD8101983
_publ_section_title
;
Structure prediction by ZEFSAII (Michael W. Deem and Ramdas Pophale) SiO2 
 PCOD8101983
Probable space group: C 2/M
;
_chemical_formula_sum "Si O2"
_cell_formula_units_Z 56
_cell_length_a 9.998044
_cell_length_b 18.134443
_cell_length_c 18.293512
_cell_angle_alpha 90.000000
_cell_angle_beta 61.543709
_cell_angle_gamma 90.000000
_cell_volume 2916.047415
_symmetry_space_group_name_H-M "C 2/M"
_symmetry_group_IT_number 12
_symmetry_cell_setting 'monoclinic'
loop_
_space_group_symop_operation_xyz
x,y,z
-x,y,-z
-x,-y,-z
x,-y,z
1/2+x,1/2+y,z
1/2-x,1/2+y,-z
1/2-x,1/2-y,-z
1/2+x,1/2-y,z
loop_
_atom_site_type_symbol
_atom_site_label
_atom_site_fract_x
_atom_site_fract_y
_atom_site_fract_z
Si Si1 0.875785 0.579587 0.593855
Si Si2 0.350899 0.285276 0.830172
Si Si3 0.115054 0.086730 0.071199
Si Si4 0.320136 0.226337 0.556670
Si Si5 0.834218 0.290824 0.268346
Si Si6 0.029439 0.582491 0.270771
Si Si7 0.788239 0.132520 0.102902
O O1 0.792652 0.500000 0.628785
O O2 0.763515 0.643654 0.594462
O O3 0.949686 0.608489 0.650651
O O4 0.000000 0.566837 0.500000
O O5 0.321848 0.363102 0.878755
O O6 0.281723 0.291223 0.767946
O O7 0.531735 0.269379 0.777111
O O8 0.263297 0.217879 0.892908
O O9 0.958464 0.124657 0.087927
O O10 0.100179 0.000000 0.097222
O O11 0.228170 0.093997 0.972310
O O12 0.500000 0.227077 0.500000
O O13 0.250000 0.250000 0.500000
O O14 0.266691 0.280270 0.633628
O O15 0.907062 0.370711 0.258642
O O16 0.967879 0.500000 0.285649
O O17 0.189082 0.589193 0.187863
#
# Coordination Sequence:
#
# PCOD8101983 Si02
#       7
#     8   8   8   8   8   8   8
#     4   9  18  33  55  84 111 143 190 238 284 346
#     4  11  22  39  59  87 121 160 204 241 301 364
#     4  11  22  37  61  90 122 155 202 260 309 356
#     4  11  21  37  59  86 116 151 193 242 295 348
#     4  11  22  38  60  86 119 158 201 244 289 370
#     4  10  20  36  60  86 117 155 198 248 301 351
#     4  10  20  39  60  86 118 161 205 246 301 368
#
# _framework density 19.204077999999999
#
# number of rings (size 3 to 8) (size 9 to 14) (size 15 to 20)
#    0.000    1.571    1.429    6.429    0.000    0.571 
#    0.000    0.000    0.000    7.714    0.000    0.000 
#    0.000    0.000    0.000    0.000    0.000    0.000 
#
# Total GULP energy -347040.626301 kJ/mol
# GULP energy per Si atom -12394.308082 kJ/mol
# Density = 1.916037 g / cm^3
# Si number density = 19.204078 Si / 1000 Ang^3
#
#
#
# Elastic Constant Matrix: (Units=GPa)
#
#
# Indices 1 2 3 4 5 6 
#
# 1 75.5369 34.4579 40.0706 0.0000 19.5998 0.0000
# 2 34.4579 115.2479 28.3440 0.0000 10.6062 0.0000
# 3 40.0706 28.3440 118.7032 0.0000 12.9015 0.0000
# 4 0.0000 0.0000 0.0000 -16.7632 0.0000 22.0714
# 5 19.5998 10.6062 12.9015 0.0000 33.9940 0.0000
# 6 0.0000 0.0000 0.0000 22.0714 0.0000 18.7407
#
#
#
# Elastic Compliance Matrix: (Units=1/GPa)
#
#
# Indices 1 2 3 4 5 6 
#
# 1 0.019762 -0.003956 -0.004821 0.000000 -0.008330 0.000000
# 2 -0.003956 0.010160 -0.001037 0.000000 -0.000496 0.000000
# 3 -0.004821 -0.001037 0.010391 0.000000 -0.000840 0.000000
# 4 0.000000 0.000000 0.000000 -0.023388 0.000000 0.027544
# 5 -0.008330 -0.000496 -0.000840 0.000000 0.034693 0.000000
# 6 0.000000 0.000000 0.000000 0.027544 0.000000 0.020920
#
#
# Mechanical properties :
#
#
# Convention : Reuss Voigt Hill
#
# Bulk Modulus (GPa) = 48.34398 57.24813 52.79606
# Shear Modulus (GPa) = 50.47329 20.96867 35.72098
#
# Velocity S-wave (km/s) = 5.13222 3.30795 4.31753
# Velocity P-wave (km/s) = 7.76840 6.66822 7.23924
#
# Compressibility (1/GPa) = 0.02068510
#
# Stress axis : x y z
#
# Youngs Moduli (GPa) = 50.60143 98.42097 96.23986
#
# Poissons Ratio (x) = 0.38939 0.46398
# Poissons Ratio (y) = 0.20020 0.09977
# Poissons Ratio (z) = 0.24395 0.10203
#
# Static dielectric constant tensor:
#      x y z
#    x 3.128290 0.000000 0.070110 
#    y 0.000000 3.930600 0.000000 
#    z 0.070110 0.000000 3.816070 
# 
# 
# High freq. dielectric constant tensor:
#      x y z
#    x 1.715590 0.000000 0.008610 
#    y 0.000000 1.756370 0.000000 
#    z 0.008610 0.000000 1.767100 
# 
# From -- ./inp_files/257065.got.cif
#   From: 2010.06.25/outbox.cif.g09.slc.cpg/sg12_129_cif.got.tgz:257065.got - 2010.06.28 00:19:55.
