data_PCOD8101037
_publ_section_title
;
Structure prediction by ZEFSAII (Michael W. Deem and Ramdas Pophale) SiO2 
 PCOD8101037
Probable space group: C 2/M
;
_chemical_formula_sum "Si O2"
_cell_formula_units_Z 64
_cell_length_a 28.502399
_cell_length_b 8.970495
_cell_length_c 18.705851
_cell_angle_alpha 90.000000
_cell_angle_beta 41.680199
_cell_angle_gamma 90.000000
_cell_volume 3180.378711
_symmetry_space_group_name_H-M "C 2/M"
_symmetry_group_IT_number 12
_symmetry_cell_setting 'monoclinic'
loop_
_space_group_symop_operation_xyz
x,y,z
-x,y,-z
-x,-y,-z
x,-y,z
1/2+x,1/2+y,z
1/2-x,1/2+y,-z
1/2-x,1/2-y,-z
1/2+x,1/2-y,z
loop_
_atom_site_type_symbol
_atom_site_label
_atom_site_fract_x
_atom_site_fract_y
_atom_site_fract_z
Si Si1 0.030368 0.175478 0.789973
Si Si2 0.684134 0.667514 0.106988
Si Si3 0.706374 0.825512 0.818578
Si Si4 0.452010 0.677184 0.392081
Si Si5 0.626524 0.666230 0.023297
Si Si6 0.917776 0.328481 0.679825
Si Si7 0.150001 0.672073 0.390946
Si Si8 0.070650 0.324737 0.880402
O O1 0.044629 0.234482 0.693519
O O2 0.081112 0.253365 0.789838
O O3 0.042461 0.000000 0.778380
O O4 0.952008 0.220267 0.905630
O O5 0.702612 0.500000 0.112000
O O6 0.654493 0.762247 0.206224
O O7 0.750000 0.750000 0.000000
O O8 0.626863 0.663029 0.108921
O O9 0.685253 0.776664 0.923316
O O10 0.774978 0.739226 0.715184
O O11 0.639960 0.779060 0.845559
O O12 0.722257 0.000000 0.798946
O O13 0.453396 0.500000 0.394744
O O14 0.516435 0.736605 0.366237
O O15 0.379285 0.739514 0.507328
O O16 0.641514 0.500000 0.976376
O O17 0.926700 0.500000 0.692658
O O18 0.908547 0.313049 0.605174
O O19 0.160908 0.500000 0.398638
O O20 0.064986 0.500000 0.877126
O O21 0.000000 0.263410 0.000000
#
# Coordination Sequence:
#
# PCOD8101037 Si02
#       8
#     8   8   8   8   8   8   8   8
#     4  10  21  38  61  90 119 152 195 241 295 355
#     4  11  22  36  53  81 121 160 202 247 298 357
#     4  11  23  39  61  90 122 158 200 247 301 360
#     4  11  23  42  65  91 121 157 204 254 297 351
#     4  10  20  36  56  82 120 157 192 241 296 354
#     4  11  23  39  60  87 120 159 204 250 298 355
#     4  11  25  43  61  87 121 160 205 251 299 355
#     4  10  21  38  60  91 125 154 193 245 298 357
#
# _framework density 20.123391000000002
#
# number of rings (size 3 to 8) (size 9 to 14) (size 15 to 20)
#    0.000    1.375    2.500    3.000    0.000    9.750 
#    0.000    0.625    0.000    0.000    0.000    0.000 
#    0.000    0.000    0.000    0.000    0.000    0.000 
#
# Total GULP energy -396866.860074 kJ/mol
# GULP energy per Si atom -12402.089377 kJ/mol
# Density = 2.007759 g / cm^3
# Si number density = 20.123391 Si / 1000 Ang^3
#
#
#
# Elastic Constant Matrix: (Units=GPa)
#
#
# Indices 1 2 3 4 5 6 
#
# 1 66.6153 29.1726 28.0968 0.0041 6.9295 -0.0045
# 2 29.1726 95.2715 46.6200 0.0102 4.8999 -0.0023
# 3 28.0968 46.6200 108.6997 0.0014 8.9316 -0.0075
# 4 0.0041 0.0102 0.0014 36.6813 0.0005 0.1735
# 5 6.9295 4.8999 8.9316 0.0005 23.8869 0.0002
# 6 -0.0045 -0.0023 -0.0075 0.1735 0.0002 33.4459
#
#
#
# Elastic Compliance Matrix: (Units=1/GPa)
#
#
# Indices 1 2 3 4 5 6 
#
# 1 0.018305 -0.004114 -0.002682 -0.000001 -0.003463 0.000002
# 2 -0.004114 0.014218 -0.005048 -0.000003 0.000165 -0.000001
# 3 -0.002682 -0.005048 0.012286 0.000001 -0.002780 0.000002
# 4 -0.000001 -0.000003 0.000001 0.027263 0.000000 -0.000141
# 5 -0.003463 0.000165 -0.002780 0.000000 0.043874 -0.000001
# 6 0.000002 -0.000001 0.000002 -0.000141 -0.000001 0.029900
#
#
# Mechanical properties :
#
#
# Convention : Reuss Voigt Hill
#
# Bulk Modulus (GPa) = 47.34837 53.15167 50.25002
# Shear Modulus (GPa) = 28.31656 29.91597 29.11626
#
# Velocity S-wave (km/s) = 3.75526 3.85986 3.80792
# Velocity P-wave (km/s) = 6.51021 6.80698 6.66025
#
# Compressibility (1/GPa) = 0.02112005
#
# Stress axis : x y z
#
# Youngs Moduli (GPa) = 54.63003 70.33419 81.39067
#
# Poissons Ratio (x) = 0.28938 0.21831
# Poissons Ratio (y) = 0.22477 0.41085
# Poissons Ratio (z) = 0.14653 0.35504
#
# Static dielectric constant tensor:
#      x y z
#    x 3.713680 0.000010 0.076860 
#    y 0.000010 3.692140 0.000110 
#    z 0.076860 0.000110 3.557180 
# 
# 
# High freq. dielectric constant tensor:
#      x y z
#    x 1.782810 0.000000 0.004030 
#    y 0.000000 1.789670 0.000000 
#    z 0.004030 0.000000 1.784610 
# 
# From -- ./inp_files/295644.got.cif
#   From: 2010.06.25/outbox.cif.g09.slc.cpg/sg12_148_cif.got.tgz:295644.got - 2010.06.28 00:19:55.
