data_PCOD8101367
_publ_section_title
;
Structure prediction by ZEFSAII (Michael W. Deem and Ramdas Pophale) SiO2 
 PCOD8101367
Probable space group: C 2/M
;
_chemical_formula_sum "Si O2"
_cell_formula_units_Z 48
_cell_length_a 15.840391
_cell_length_b 8.627532
_cell_length_c 29.054900
_cell_angle_alpha 90.000000
_cell_angle_beta 36.430661
_cell_angle_gamma 90.000000
_cell_volume 2358.024306
_symmetry_space_group_name_H-M "C 2/M"
_symmetry_group_IT_number 12
_symmetry_cell_setting 'monoclinic'
loop_
_space_group_symop_operation_xyz
x,y,z
-x,y,-z
-x,-y,-z
x,-y,z
1/2+x,1/2+y,z
1/2-x,1/2+y,-z
1/2-x,1/2-y,-z
1/2+x,1/2-y,z
loop_
_atom_site_type_symbol
_atom_site_label
_atom_site_fract_x
_atom_site_fract_y
_atom_site_fract_z
Si Si1 0.809410 0.323946 0.856900
Si Si2 0.894474 0.316138 0.681545
Si Si3 0.667037 0.182868 0.836465
Si Si4 0.118823 0.181414 0.410291
Si Si5 0.577686 0.182358 0.688403
Si Si6 0.648545 0.821018 0.008270
O O1 0.792896 0.500000 0.881842
O O2 0.751285 0.300920 0.831757
O O3 0.975655 0.278488 0.777610
O O4 0.711740 0.213670 0.930640
O O5 0.873749 0.500000 0.694178
O O6 0.742699 0.224683 0.755096
O O7 0.935718 0.269490 0.611567
O O8 0.012741 0.256332 0.667655
O O9 0.506771 0.243808 0.912227
O O10 0.681048 0.000000 0.842239
O O11 0.267274 0.249701 0.366389
O O12 0.000000 0.214103 0.500000
O O13 0.134600 0.000000 0.392114
O O14 0.589087 0.000000 0.677513
O O15 0.641543 0.000000 0.019189
O O16 0.750000 0.750000 0.000000
#
# Coordination Sequence:
#
# PCOD8101367 Si02
#       6
#     8   8   8   8   8   8
#     4  10  20  36  58  81 110 149 190 236 287 338
#     4  10  21  38  60  86 116 152 192 241 292 346
#     4  10  21  38  58  80 110 149 190 236 285 336
#     4  10  21  38  61  87 116 153 192 233 288 355
#     4   8  18  37  58  82 116 153 188 231 290 344
#     4  11  24  37  52  79 114 150 191 236 282 336
#
# _framework density 20.356024000000001
#
# number of rings (size 3 to 8) (size 9 to 14) (size 15 to 20)
#    0.000    2.167    0.000    3.500    2.333    5.667 
#    0.000    4.167    0.000    0.000    0.000    0.000 
#    0.000    0.000    0.000    0.000    0.000    0.000 
#
# Total GULP energy -297320.148280 kJ/mol
# GULP energy per Si atom -12388.339512 kJ/mol
# Density = 2.030969 g / cm^3
# Si number density = 20.356024 Si / 1000 Ang^3
#
#
#
# Elastic Constant Matrix: (Units=GPa)
#
#
# Indices 1 2 3 4 5 6 
#
# 1 76.8613 19.1550 35.1032 -0.0002 -7.1567 -0.0007
# 2 19.1550 33.7592 26.1265 -0.0004 -6.1898 -0.0009
# 3 35.1032 26.1265 106.0338 0.0000 -10.7537 0.0002
# 4 -0.0002 -0.0004 0.0000 27.6483 0.0000 7.2703
# 5 -7.1567 -6.1898 -10.7537 0.0000 37.5849 -0.0001
# 6 -0.0007 -0.0009 0.0002 7.2703 -0.0001 28.9916
#
#
#
# Elastic Compliance Matrix: (Units=1/GPa)
#
#
# Indices 1 2 3 4 5 6 
#
# 1 0.016377 -0.006166 -0.003799 0.000000 0.001016 0.000000
# 2 -0.006166 0.039388 -0.007338 0.000000 0.003213 0.000001
# 3 -0.003799 -0.007338 0.012669 0.000000 0.001693 0.000000
# 4 0.000000 0.000000 0.000000 0.038722 0.000000 -0.009710
# 5 0.001016 0.003213 0.001693 0.000000 0.027813 0.000000
# 6 0.000000 0.000001 0.000000 -0.009710 0.000000 0.036928
#
#
# Mechanical properties :
#
#
# Convention : Reuss Voigt Hill
#
# Bulk Modulus (GPa) = 29.56198 41.93596 35.74897
# Shear Modulus (GPa) = 22.95910 27.92960 25.44435
#
# Velocity S-wave (km/s) = 3.36203 3.70815 3.53932
# Velocity P-wave (km/s) = 5.44289 6.24338 5.85682
#
# Compressibility (1/GPa) = 0.03382724
#
# Stress axis : x y z
#
# Youngs Moduli (GPa) = 61.06188 25.38842 78.93558
#
# Poissons Ratio (x) = 0.15653 0.29991
# Poissons Ratio (y) = 0.37648 0.57924
# Poissons Ratio (z) = 0.23200 0.18630
#
# Static dielectric constant tensor:
#      x y z
#    x 3.761320 0.000000 -0.310930 
#    y 0.000000 3.237980 0.000000 
#    z -0.310930 0.000000 3.327630 
# 
# 
# High freq. dielectric constant tensor:
#      x y z
#    x 1.791380 0.000000 -0.001410 
#    y 0.000000 1.776420 0.000000 
#    z -0.001410 0.000000 1.807720 
# 
# From -- ./inp_files/360248.got.cif
#   From: 2010.06.25/outbox.cif.g09.slc.cpg/sg12_181_cif.got.tgz:360248.got - 2010.06.28 00:19:55.
