data_PCOD8101377
_publ_section_title
;
Structure prediction by ZEFSAII (Michael W. Deem and Ramdas Pophale) SiO2 
 PCOD8101377
Probable space group: C 2/M
;
_chemical_formula_sum "Si O2"
_cell_formula_units_Z 64
_cell_length_a 22.881054
_cell_length_b 11.138735
_cell_length_c 25.371596
_cell_angle_alpha 90.000000
_cell_angle_beta 149.321750
_cell_angle_gamma 90.000000
_cell_volume 3299.241921
_symmetry_space_group_name_H-M "C 2/M"
_symmetry_group_IT_number 12
_symmetry_cell_setting 'monoclinic'
loop_
_space_group_symop_operation_xyz
x,y,z
-x,y,-z
-x,-y,-z
x,-y,z
1/2+x,1/2+y,z
1/2-x,1/2+y,-z
1/2-x,1/2-y,-z
1/2+x,1/2-y,z
loop_
_atom_site_type_symbol
_atom_site_label
_atom_site_fract_x
_atom_site_fract_y
_atom_site_fract_z
Si Si1 0.002746 0.143064 0.877265
Si Si2 0.954175 0.220715 0.298824
Si Si3 0.168359 0.131002 0.697857
Si Si4 0.329832 0.861827 0.490328
Si Si5 0.866738 0.368633 0.398144
Si Si6 0.385657 0.752808 0.883853
Si Si7 0.274100 0.363392 0.891613
Si Si8 0.080669 0.863155 0.299044
O O1 0.908142 0.198425 0.843397
O O2 0.974091 0.193819 0.796653
O O3 0.996271 0.000000 0.876755
O O4 0.131176 0.185605 0.993074
O O5 0.917601 0.137189 0.319271
O O6 0.846436 0.297323 0.195906
O O7 0.063539 0.298095 0.400015
O O8 0.991449 0.143146 0.277552
O O9 0.161236 0.251691 0.657896
O O10 0.301383 0.131916 0.818060
O O11 0.143843 0.000000 0.651431
O O12 0.326429 0.841087 0.425373
O O13 0.205497 0.808118 0.411906
O O14 0.344373 0.000000 0.517319
O O15 0.815303 0.500000 0.339122
O O16 0.000000 0.385436 0.500000
O O17 0.326022 0.649696 0.873196
O O18 0.500000 0.800078 0.000000
O O19 0.246074 0.500000 0.881480
O O20 0.105781 0.000000 0.304028
#
# Coordination Sequence:
#
# PCOD8101377 Si02
#       8
#     8   8   8   8   8   8   8   8
#     4   9  17  33  56  82 108 136 179 234 286 330
#     4  11  21  35  51  74 109 147 186 223 267 330
#     4  11  23  36  54  82 116 152 185 223 277 335
#     4  10  20  36  58  82 104 135 179 230 283 330
#     4  10  20  37  60  86 110 137 179 230 283 334
#     4   9  18  33  55  82 111 142 177 222 278 339
#     4   9  18  31  54  85 110 135 174 233 292 333
#     4  10  21  35  52  72 102 145 190 230 270 323
#
# _framework density 19.398395000000001
#
# number of rings (size 3 to 8) (size 9 to 14) (size 15 to 20)
#    0.000    2.125    1.250    2.250    0.000    6.000 
#    0.000    0.000    0.000    7.500    0.000    0.000 
#    0.000    0.000    0.000    0.000    0.000    0.000 
#
# Total GULP energy -396427.746252 kJ/mol
# GULP energy per Si atom -12388.367070 kJ/mol
# Density = 1.935424 g / cm^3
# Si number density = 19.398395 Si / 1000 Ang^3
#
#
#
# Elastic Constant Matrix: (Units=GPa)
#
#
# Indices 1 2 3 4 5 6 
#
# 1 91.2643 20.0014 43.5678 0.0000 9.3821 0.0000
# 2 20.0014 77.7090 38.3406 0.0000 -3.0067 0.0000
# 3 43.5678 38.3406 119.3521 -0.0001 10.3979 0.0000
# 4 0.0000 0.0000 -0.0001 14.1652 -0.0001 -3.3903
# 5 9.3821 -3.0067 10.3979 -0.0001 31.2838 0.0000
# 6 0.0000 0.0000 0.0000 -3.3903 0.0000 18.2743
#
#
#
# Elastic Compliance Matrix: (Units=1/GPa)
#
#
# Indices 1 2 3 4 5 6 
#
# 1 0.013600 -0.001523 -0.004230 0.000000 -0.002819 0.000000
# 2 -0.001523 0.015779 -0.004825 0.000000 0.003577 0.000000
# 3 -0.004230 -0.004825 0.011742 0.000000 -0.003098 0.000000
# 4 0.000000 0.000000 0.000000 0.073876 0.000000 0.013706
# 5 -0.002819 0.003577 -0.003098 0.000000 0.034184 0.000000
# 6 0.000000 0.000000 0.000000 0.013706 0.000000 0.057264
#
#
# Mechanical properties :
#
#
# Convention : Reuss Voigt Hill
#
# Bulk Modulus (GPa) = 50.08172 54.68279 52.38225
# Shear Modulus (GPa) = 21.34414 25.17236 23.25825
#
# Velocity S-wave (km/s) = 3.32068 3.60620 3.46638
# Velocity P-wave (km/s) = 6.36993 6.75205 6.56377
#
# Compressibility (1/GPa) = 0.01996737
#
# Stress axis : x y z
#
# Youngs Moduli (GPa) = 73.53005 63.37430 85.16187
#
# Poissons Ratio (x) = 0.09650 0.36021
# Poissons Ratio (y) = 0.11196 0.41088
# Poissons Ratio (z) = 0.31101 0.30576
#
# Static dielectric constant tensor:
#      x y z
#    x 3.506180 0.000000 0.156820 
#    y 0.000000 3.231630 0.000000 
#    z 0.156820 0.000000 3.883510 
# 
# 
# High freq. dielectric constant tensor:
#      x y z
#    x 1.751930 0.000000 0.014630 
#    y 0.000000 1.723300 0.000000 
#    z 0.014630 0.000000 1.772240 
# 
# From -- ./inp_files/367822.got.cif
#   From: 2010.06.25/outbox.cif.g09.slc.cpg/sg12_184_cif.got.tgz:367822.got - 2010.06.28 00:19:55.
