data_PCOD8101090
_publ_section_title
;
Structure prediction by ZEFSAII (Michael W. Deem and Ramdas Pophale) SiO2 
 PCOD8101090
Probable space group: C 2/M
;
_chemical_formula_sum "Si O2"
_cell_formula_units_Z 64
_cell_length_a 14.770039
_cell_length_b 9.368418
_cell_length_c 33.079360
_cell_angle_alpha 90.000000
_cell_angle_beta 134.277803
_cell_angle_gamma 90.000000
_cell_volume 3277.145572
_symmetry_space_group_name_H-M "C 2/M"
_symmetry_group_IT_number 12
_symmetry_cell_setting 'monoclinic'
loop_
_space_group_symop_operation_xyz
x,y,z
-x,y,-z
-x,-y,-z
x,-y,z
1/2+x,1/2+y,z
1/2-x,1/2+y,-z
1/2-x,1/2-y,-z
1/2+x,1/2-y,z
loop_
_atom_site_type_symbol
_atom_site_label
_atom_site_fract_x
_atom_site_fract_y
_atom_site_fract_z
Si Si1 0.211045 0.834656 0.929084
Si Si2 0.466317 0.659451 0.554345
Si Si3 0.118538 0.664929 0.659643
Si Si4 0.935663 0.335506 0.055730
Si Si5 0.102631 0.331030 0.748079
Si Si6 0.351344 0.331290 0.675624
Si Si7 0.275024 0.164915 0.859616
Si Si8 0.297074 0.339011 0.431109
O O1 0.096445 0.749977 0.913635
O O2 0.207162 0.799663 0.880587
O O3 0.187203 0.000000 0.929530
O O4 0.345106 0.787758 0.990557
O O5 0.445078 0.500000 0.564166
O O6 0.495783 0.759303 0.601749
O O7 0.583700 0.663270 0.560893
O O8 0.342125 0.708993 0.490167
O O9 0.092277 0.500000 0.645175
O O10 0.127055 0.707398 0.708984
O O11 0.249648 0.708108 0.678623
O O12 0.915715 0.500000 0.059850
O O13 0.078079 0.302424 0.087551
O O14 0.087985 0.500000 0.750347
O O15 0.222947 0.271074 0.809464
O O16 0.980170 0.249264 0.727231
O O17 0.374716 0.500000 0.679775
O O18 0.306480 0.271651 0.617926
O O19 0.253017 0.000000 0.840011
O O20 0.239830 0.500000 0.414329
#
# Coordination Sequence:
#
# PCOD8101090 Si02
#       8
#     8   8   8   8   8   8   8   8
#     4   9  18  34  57  84 114 145 175 213 262 311
#     4   8  14  26  49  78 105 133 168 210 260 319
#     4   9  20  37  55  75 103 137 173 218 270 317
#     4   9  18  34  57  85 114 143 177 215 258 311
#     4  11  24  40  55  75 105 141 181 224 267 312
#     4  10  20  36  57  79 103 136 177 220 266 317
#     4  10  21  37  56  78 107 144 182 219 260 309
#     4   8  14  27  48  77 108 135 165 208 264 320
#
# _framework density 19.529191999999998
#
# number of rings (size 3 to 8) (size 9 to 14) (size 15 to 20)
#    0.000    2.750    0.000    1.875    0.000    5.500 
#    0.000    6.875    0.000    3.750    0.000    0.000 
#    0.000    0.000    0.000    0.000    0.000    0.000 
#
# Total GULP energy -396758.036184 kJ/mol
# GULP energy per Si atom -12398.688631 kJ/mol
# Density = 1.948474 g / cm^3
# Si number density = 19.529192 Si / 1000 Ang^3
#
#
#
# Elastic Constant Matrix: (Units=GPa)
#
#
# Indices 1 2 3 4 5 6 
#
# 1 51.2929 28.7018 20.3019 0.0000 -10.3103 0.0000
# 2 28.7018 70.8371 42.6920 0.0000 -8.8583 0.0000
# 3 20.3019 42.6920 87.0637 0.0000 -14.7809 0.0000
# 4 0.0000 0.0000 0.0000 36.2402 0.0000 0.7807
# 5 -10.3103 -8.8583 -14.7809 0.0000 23.5765 0.0000
# 6 0.0000 0.0000 0.0000 0.7807 0.0000 26.0613
#
#
#
# Elastic Compliance Matrix: (Units=1/GPa)
#
#
# Indices 1 2 3 4 5 6 
#
# 1 0.026559 -0.009722 -0.000083 0.000000 0.007910 0.000000
# 2 -0.009722 0.023647 -0.009559 0.000000 -0.001360 0.000000
# 3 -0.000083 -0.009559 0.017432 0.000000 0.007301 0.000000
# 4 0.000000 0.000000 0.000000 0.027611 0.000000 -0.000827
# 5 0.007910 -0.001360 0.007301 0.000000 0.049940 0.000000
# 6 0.000000 0.000000 0.000000 -0.000827 0.000000 0.038396
#
#
# Mechanical properties :
#
#
# Convention : Reuss Voigt Hill
#
# Bulk Modulus (GPa) = 34.59083 43.62057 39.10570
# Shear Modulus (GPa) = 21.55628 25.00878 23.28253
#
# Velocity S-wave (km/s) = 3.32595 3.58241 3.45656
# Velocity P-wave (km/s) = 5.70088 6.28459 5.99984
#
# Compressibility (1/GPa) = 0.02890940
#
# Stress axis : x y z
#
# Youngs Moduli (GPa) = 37.65242 42.28827 57.36528
#
# Poissons Ratio (x) = 0.41112 0.00477
# Poissons Ratio (y) = 0.36605 0.54837
# Poissons Ratio (z) = 0.00313 0.40425
#
# Static dielectric constant tensor:
#      x y z
#    x 3.461420 0.000000 -0.036410 
#    y 0.000000 3.557320 0.000000 
#    z -0.036410 0.000000 3.699770 
# 
# 
# High freq. dielectric constant tensor:
#      x y z
#    x 1.750940 0.000000 0.000090 
#    y 0.000000 1.755240 0.000000 
#    z 0.000090 0.000000 1.759200 
# 
# From -- ./inp_files/375689.got.cif
#   From: 2010.06.25/outbox.cif.g09.slc.cpg/sg12_188_cif.got.tgz:375689.got - 2010.06.28 00:19:55.
