data_PCOD8101893
_publ_section_title
;
Structure prediction by ZEFSAII (Michael W. Deem and Ramdas Pophale) SiO2 
 PCOD8101893
Probable space group: C 2/M
;
_chemical_formula_sum "Si O2"
_cell_formula_units_Z 48
_cell_length_a 24.065314
_cell_length_b 8.844708
_cell_length_c 11.451935
_cell_angle_alpha 90.000000
_cell_angle_beta 111.658020
_cell_angle_gamma 90.000000
_cell_volume 2265.468797
_symmetry_space_group_name_H-M "C 2/M"
_symmetry_group_IT_number 12
_symmetry_cell_setting 'monoclinic'
loop_
_space_group_symop_operation_xyz
x,y,z
-x,y,-z
-x,-y,-z
x,-y,z
1/2+x,1/2+y,z
1/2-x,1/2+y,-z
1/2-x,1/2-y,-z
1/2+x,1/2-y,z
loop_
_atom_site_type_symbol
_atom_site_label
_atom_site_fract_x
_atom_site_fract_y
_atom_site_fract_z
Si Si1 0.384171 0.821490 0.598374
Si Si2 0.441286 0.328524 0.030695
Si Si3 0.263797 0.674880 0.134091
Si Si4 0.667815 0.678501 0.216525
Si Si5 0.117933 0.826008 0.641271
Si Si6 0.521279 0.823344 0.712616
O O1 0.343140 0.746851 0.664837
O O2 0.360085 0.765049 0.455233
O O3 0.452875 0.768406 0.667110
O O4 0.377775 0.000000 0.602943
O O5 0.432370 0.500000 0.070053
O O6 0.445338 0.215430 0.141613
O O7 0.500000 0.315725 0.000000
O O8 0.385965 0.274764 0.910419
O O9 0.245690 0.500000 0.112796
O O10 0.228058 0.753716 0.210723
O O11 0.333771 0.694782 0.217860
O O12 0.250000 0.750000 0.000000
O O13 0.673871 0.500000 0.232993
O O14 0.054105 0.761560 0.632500
O O15 0.110269 0.000000 0.600595
O O16 0.525640 0.000000 0.690472
#
# Coordination Sequence:
#
# PCOD8101893 Si02
#       6
#     8   8   8   8   8   8
#     4  11  24  41  62  92 128 163 204 255 310 366
#     4  10  20  36  59  89 124 160 201 248 299 361
#     4  11  25  45  67  93 124 160 205 256 308 364
#     4  11  23  40  65  94 125 165 208 252 306 365
#     4  11  25  43  64  89 121 165 211 252 304 368
#     4  11  23  38  61  93 128 163 204 256 311 363
#
# _framework density 21.187669
#
# number of rings (size 3 to 8) (size 9 to 14) (size 15 to 20)
#    0.000    1.167    1.667    4.000    0.000   13.000 
#    0.000    0.000    0.000    0.000    0.000    0.000 
#    0.000    0.000    0.000    0.000    0.000    0.000 
#
# Total GULP energy -297778.407473 kJ/mol
# GULP energy per Si atom -12407.433645 kJ/mol
# Density = 2.113944 g / cm^3
# Si number density = 21.187669 Si / 1000 Ang^3
#
#
#
# Elastic Constant Matrix: (Units=GPa)
#
#
# Indices 1 2 3 4 5 6 
#
# 1 89.0466 40.9744 22.4789 0.0000 -19.3648 0.0000
# 2 40.9744 101.9177 45.1955 0.0000 -6.6548 0.0000
# 3 22.4789 45.1955 106.9378 0.0000 -20.9170 0.0000
# 4 0.0000 0.0000 0.0000 40.1845 0.0000 -8.0554
# 5 -19.3648 -6.6548 -20.9170 0.0000 34.1380 0.0000
# 6 0.0000 0.0000 0.0000 -8.0554 0.0000 35.0602
#
#
#
# Elastic Compliance Matrix: (Units=1/GPa)
#
#
# Indices 1 2 3 4 5 6 
#
# 1 0.015616 -0.006152 0.000927 0.000000 0.008227 0.000000
# 2 -0.006152 0.014522 -0.005650 0.000000 -0.004121 0.000000
# 3 0.000927 -0.005650 0.012988 0.000000 0.007382 0.000000
# 4 0.000000 0.000000 0.000000 0.026087 0.000000 0.005994
# 5 0.008227 -0.004121 0.007382 0.000000 0.037679 0.000000
# 6 0.000000 0.000000 0.000000 0.005994 0.000000 0.029899
#
#
# Mechanical properties :
#
#
# Convention : Reuss Voigt Hill
#
# Bulk Modulus (GPa) = 46.78369 57.24443 52.01406
# Shear Modulus (GPa) = 30.18091 34.49341 32.33716
#
# Velocity S-wave (km/s) = 3.77829 4.03922 3.91093
# Velocity P-wave (km/s) = 6.41580 6.98786 6.70793
#
# Compressibility (1/GPa) = 0.02137497
#
# Stress axis : x y z
#
# Youngs Moduli (GPa) = 64.03703 68.86288 76.99160
#
# Poissons Ratio (x) = 0.42364 -0.07134
# Poissons Ratio (y) = 0.39395 0.43502
# Poissons Ratio (z) = -0.05933 0.38909
#
# Static dielectric constant tensor:
#      x y z
#    x 3.924730 0.000000 0.067320 
#    y 0.000000 3.835300 0.000000 
#    z 0.067320 0.000000 3.766510 
# 
# 
# High freq. dielectric constant tensor:
#      x y z
#    x 1.835660 0.000000 -0.006390 
#    y 0.000000 1.836540 0.000000 
#    z -0.006390 0.000000 1.838580 
# 
# From -- ./inp_files/172437.got.cif
#   From: 2010.06.25/outbox.cif.g09.slc.cpg/sg12_87_cif.got.tgz:172437.got - 2010.06.28 00:19:55.
