data_PCOD8101165
_publ_section_title
;
Structure prediction by ZEFSAII (Michael W. Deem and Ramdas Pophale) SiO2 
 PCOD8101165
Probable space group: C 2/M
;
_chemical_formula_sum "Si O2"
_cell_formula_units_Z 64
_cell_length_a 27.517752
_cell_length_b 20.867527
_cell_length_c 12.591771
_cell_angle_alpha 90.000000
_cell_angle_beta 26.154869
_cell_angle_gamma 90.000000
_cell_volume 3187.214656
_symmetry_space_group_name_H-M "C 2/M"
_symmetry_group_IT_number 12
_symmetry_cell_setting 'monoclinic'
loop_
_space_group_symop_operation_xyz
x,y,z
-x,y,-z
-x,-y,-z
x,-y,z
1/2+x,1/2+y,z
1/2-x,1/2+y,-z
1/2-x,1/2-y,-z
1/2+x,1/2-y,z
loop_
_atom_site_type_symbol
_atom_site_label
_atom_site_fract_x
_atom_site_fract_y
_atom_site_fract_z
Si Si1 0.616724 0.927040 0.824054
Si Si2 0.771530 0.155024 0.387545
Si Si3 0.350102 0.332669 0.834732
Si Si4 0.115715 0.688920 0.237178
Si Si5 0.549480 0.348459 0.135009
Si Si6 0.809574 0.355505 0.124259
Si Si7 0.614370 0.574010 0.417738
Si Si8 0.356589 0.725888 0.421127
O O1 0.714549 0.906148 0.553149
O O2 0.612808 0.883895 0.937087
O O3 0.639276 0.000000 0.811345
O O4 0.500000 0.917225 0.000000
O O5 0.672791 0.198970 0.532860
O O6 0.844173 0.193418 0.330595
O O7 0.857111 0.129847 0.131346
O O8 0.376554 0.262255 0.736918
O O9 0.388709 0.331602 0.878788
O O10 0.411478 0.383379 0.636847
O O11 0.219020 0.347764 0.087854
O O12 0.000000 0.658261 0.500000
O O13 0.117795 0.680547 0.105976
O O14 0.466710 0.406902 0.325383
O O15 0.479979 0.287731 0.224116
O O16 0.738778 0.413421 0.212406
O O17 0.729842 0.301273 0.325477
O O18 0.597812 0.500000 0.420816
#
# Coordination Sequence:
#
# PCOD8101165 Si02
#       8
#     8   8   8   8   8   8   8   8
#     4  10  22  39  57  80 112 149 189 231 277 334
#     4  10  21  36  57  83 112 146 189 231 274 331
#     4  10  22  35  52  83 114 145 183 228 277 336
#     4  10  20  36  57  81 111 142 183 233 281 328
#     4  11  21  34  55  83 114 143 184 236 280 322
#     4   9  19  37  60  82 107 147 190 227 277 339
#     4  10  21  38  58  79 111 156 193 222 272 340
#     4   9  20  36  54  82 115 145 178 227 284 338
#
# _framework density 20.080228000000002
#
# number of rings (size 3 to 8) (size 9 to 14) (size 15 to 20)
#    0.000    2.125    0.000    2.625    0.000    9.500 
#    0.000    0.000    0.000   15.375    0.000    0.000 
#    0.000    0.000    0.000    0.000    0.000    0.000 
#
# Total GULP energy -396713.528980 kJ/mol
# GULP energy per Si atom -12397.297781 kJ/mol
# Density = 2.003452 g / cm^3
# Si number density = 20.080228 Si / 1000 Ang^3
#
#
#
# Elastic Constant Matrix: (Units=GPa)
#
#
# Indices 1 2 3 4 5 6 
#
# 1 105.9591 25.4748 42.5205 0.0000 5.5257 0.0000
# 2 25.4748 83.3467 26.2333 0.0000 6.9963 0.0000
# 3 42.5205 26.2333 118.6665 0.0001 11.6862 0.0000
# 4 0.0000 0.0000 0.0001 15.4432 0.0000 1.2585
# 5 5.5257 6.9963 11.6862 0.0000 29.2708 0.0000
# 6 0.0000 0.0000 0.0000 1.2585 0.0000 23.0348
#
#
#
# Elastic Compliance Matrix: (Units=1/GPa)
#
#
# Indices 1 2 3 4 5 6 
#
# 1 0.011444 -0.002362 -0.003561 0.000000 -0.000174 0.000000
# 2 -0.002362 0.013499 -0.001940 0.000000 -0.002006 0.000000
# 3 -0.003561 -0.001940 0.010430 0.000000 -0.003028 0.000000
# 4 0.000000 0.000000 0.000000 0.065043 0.000000 -0.003554
# 5 -0.000174 -0.002006 -0.003028 0.000000 0.035885 0.000000
# 6 0.000000 0.000000 0.000000 -0.003554 0.000000 0.043607
#
#
# Mechanical properties :
#
#
# Convention : Reuss Voigt Hill
#
# Bulk Modulus (GPa) = 50.90174 55.15883 53.03029
# Shear Modulus (GPa) = 24.72999 27.79934 26.26466
#
# Velocity S-wave (km/s) = 3.51316 3.72481 3.62053
# Velocity P-wave (km/s) = 6.46998 6.78438 6.62904
#
# Compressibility (1/GPa) = 0.01964569
#
# Stress axis : x y z
#
# Youngs Moduli (GPa) = 87.38454 74.07864 95.87597
#
# Poissons Ratio (x) = 0.17499 0.34143
# Poissons Ratio (y) = 0.20643 0.18602
# Poissons Ratio (z) = 0.31119 0.14373
#
# Static dielectric constant tensor:
#      x y z
#    x 3.830630 0.000000 -0.048300 
#    y 0.000000 3.372160 0.000000 
#    z -0.048300 0.000000 3.676690 
# 
# 
# High freq. dielectric constant tensor:
#      x y z
#    x 1.800120 0.000000 -0.003230 
#    y 0.000000 1.748860 0.000000 
#    z -0.003230 0.000000 1.783620 
# 
# From -- ./inp_files/184697.got.cif
#   From: 2010.06.25/outbox.cif.g09.slc.cpg/sg12_93_cif.got.tgz:184697.got - 2010.06.28 00:19:55.
