data_PCOD8101944
_publ_section_title
;
Structure prediction by ZEFSAII (Michael W. Deem and Ramdas Pophale) SiO2 
 PCOD8101944
Probable space group: C 2/M
;
_chemical_formula_sum "Si O2"
_cell_formula_units_Z 40
_cell_length_a 15.877458
_cell_length_b 14.987801
_cell_length_c 8.447839
_cell_angle_alpha 90.000000
_cell_angle_beta 116.986467
_cell_angle_gamma 90.000000
_cell_volume 1791.420972
_symmetry_space_group_name_H-M "C 2/M"
_symmetry_group_IT_number 12
_symmetry_cell_setting 'monoclinic'
loop_
_space_group_symop_operation_xyz
x,y,z
-x,y,-z
-x,-y,-z
x,-y,z
1/2+x,1/2+y,z
1/2-x,1/2+y,-z
1/2-x,1/2-y,-z
1/2+x,1/2-y,z
loop_
_atom_site_type_symbol
_atom_site_label
_atom_site_fract_x
_atom_site_fract_y
_atom_site_fract_z
Si Si1 0.666335 0.662286 0.358849
Si Si2 0.930432 0.397722 0.218838
Si Si3 0.901635 0.766287 0.005053
Si Si4 0.519532 0.599071 0.693988
Si Si5 0.370888 0.155084 0.517948
O O1 0.580732 0.592422 0.297439
O O2 0.639336 0.738905 0.463374
O O3 0.767695 0.615438 0.480251
O O4 0.676581 0.703174 0.188881
O O5 0.905017 0.500000 0.159051
O O6 0.878750 0.333327 0.048504
O O7 0.894282 0.370239 0.359451
O O8 0.044370 0.383729 0.302051
O O9 0.907299 0.834085 0.158734
O O10 0.000000 0.766393 0.000000
O O11 0.500000 0.633277 0.500000
O O12 0.564283 0.500000 0.731534
#
# Coordination Sequence:
#
# PCOD8101944 Si02
#       5
#     8   8   8   8   8
#     4  10  21  36  61  85 119 152 195 248 296 347
#     4  11  22  38  61  86 122 164 200 241 293 356
#     4  10  20  37  58  88 115 152 197 245 297 353
#     4  10  20  36  60  85 112 152 195 243 299 354
#     4  10  20  38  58  86 113 156 201 236 291 352
#
# _framework density 22.328641999999999
#
# number of rings (size 3 to 8) (size 9 to 14) (size 15 to 20)
#    0.000    1.800    4.000    2.400    0.000    6.400 
#    0.000    0.000    0.000    4.800    0.000    0.000 
#    0.000    0.000    0.000    0.000    0.000    0.000 
#
# Total GULP energy -247848.051820 kJ/mol
# GULP energy per Si atom -12392.402591 kJ/mol
# Density = 2.227782 g / cm^3
# Si number density = 22.328642 Si / 1000 Ang^3
#
#
#
# Elastic Constant Matrix: (Units=GPa)
#
#
# Indices 1 2 3 4 5 6 
#
# 1 64.5088 22.7077 12.6759 0.0000 6.8287 0.0000
# 2 22.7077 121.1255 44.8516 0.0000 -13.8227 0.0000
# 3 12.6759 44.8516 78.0418 0.0000 -15.6342 0.0000
# 4 0.0000 0.0000 0.0000 10.8472 0.0000 -2.9278
# 5 6.8287 -13.8227 -15.6342 0.0000 22.5466 0.0000
# 6 0.0000 0.0000 0.0000 -2.9278 0.0000 21.0729
#
#
#
# Elastic Compliance Matrix: (Units=1/GPa)
#
#
# Indices 1 2 3 4 5 6 
#
# 1 0.018322 -0.003456 -0.002933 0.000000 -0.009702 0.000000
# 2 -0.003456 0.011274 -0.005021 0.000000 0.004477 0.000000
# 3 -0.002933 -0.005021 0.018276 0.000000 0.010483 0.000000
# 4 0.000000 0.000000 0.000000 0.095782 0.000000 0.013308
# 5 -0.009702 0.004477 0.010483 0.000000 0.057304 0.000000
# 6 0.000000 0.000000 0.000000 0.013308 0.000000 0.049303
#
#
# Mechanical properties :
#
#
# Convention : Reuss Voigt Hill
#
# Bulk Modulus (GPa) = 39.91882 47.12739 43.52310
# Shear Modulus (GPa) = 17.76629 23.12273 20.44451
#
# Velocity S-wave (km/s) = 2.82383 3.22151 3.02920
# Velocity P-wave (km/s) = 5.34310 5.91520 5.63641
#
# Compressibility (1/GPa) = 0.02505084
#
# Stress axis : x y z
#
# Youngs Moduli (GPa) = 54.58034 88.70033 54.71703
#
# Poissons Ratio (x) = 0.30653 0.16050
# Poissons Ratio (y) = 0.18862 0.27474
# Poissons Ratio (z) = 0.16010 0.44538
#
# Static dielectric constant tensor:
#      x y z
#    x 4.015800 0.000000 0.057950 
#    y 0.000000 3.854660 0.000000 
#    z 0.057950 0.000000 4.572420 
# 
# 
# High freq. dielectric constant tensor:
#      x y z
#    x 1.864590 0.000000 -0.009130 
#    y 0.000000 1.863790 0.000000 
#    z -0.009130 0.000000 1.871880 
# 
# From -- ./inp_files/59234.got.cif
#   From: 2010.06.25/outbox.cif.g09.slc.cpg/sg12_30_cif.got.tgz:59234.got - 2010.06.28 00:19:55.
