data_PCOD8101428
_publ_section_title
;
Structure prediction by ZEFSAII (Michael W. Deem and Ramdas Pophale) SiO2 
 PCOD8101428
Probable space group: C 2/M
;
_chemical_formula_sum "Si O2"
_cell_formula_units_Z 48
_cell_length_a 19.499353
_cell_length_b 16.360353
_cell_length_c 26.235839
_cell_angle_alpha 90.000000
_cell_angle_beta 18.290975
_cell_angle_gamma 90.000000
_cell_volume 2626.758462
_symmetry_space_group_name_H-M "C 2/M"
_symmetry_group_IT_number 12
_symmetry_cell_setting 'monoclinic'
loop_
_space_group_symop_operation_xyz
x,y,z
-x,y,-z
-x,-y,-z
x,-y,z
1/2+x,1/2+y,z
1/2-x,1/2+y,-z
1/2-x,1/2-y,-z
1/2+x,1/2-y,z
loop_
_atom_site_type_symbol
_atom_site_label
_atom_site_fract_x
_atom_site_fract_y
_atom_site_fract_z
Si Si1 0.333270 0.773920 0.161672
Si Si2 0.015873 0.329344 0.787305
Si Si3 0.275248 0.408327 0.682041
Si Si4 0.344884 0.237079 0.488799
Si Si5 0.684596 0.905544 0.410429
Si Si6 0.041514 0.176178 0.099836
O O1 0.304746 0.854672 0.214877
O O2 0.429175 0.696547 0.125130
O O3 0.101392 0.750623 0.301969
O O4 0.500000 0.797734 0.000000
O O5 0.968066 0.256135 0.859289
O O6 0.090937 0.406865 0.767851
O O7 0.220593 0.307095 0.607623
O O8 0.794258 0.350423 0.912715
O O9 0.500000 0.372198 0.500000
O O10 0.309878 0.500000 0.677407
O O11 0.250000 0.250000 0.500000
O O12 0.312531 0.149165 0.539948
O O13 0.500000 0.876098 0.500000
O O14 0.914116 0.896376 0.218673
O O15 0.650563 0.000000 0.450381
#
# Coordination Sequence:
#
# PCOD8101428 Si02
#       6
#     8   8   8   8   8   8
#     4  11  21  35  57  84 118 154 196 247 297 355
#     4   9  18  33  55  81 110 149 197 243 282 345
#     4  10  20  36  58  82 113 156 199 238 290 355
#     4  11  21  36  58  86 119 155 197 249 299 352
#     4  10  20  37  63  88 115 158 206 247 294 355
#     4   9  18  33  56  84 111 145 199 246 285 343
#
# _framework density 18.273472999999999
#
# number of rings (size 3 to 8) (size 9 to 14) (size 15 to 20)
#    0.000    2.000    3.333    1.000    0.000    2.333 
#    0.000    1.667    0.000    4.000    0.000    0.000 
#    0.000    0.000    0.000    0.000    0.000    0.000 
#
# Total GULP energy -297438.098302 kJ/mol
# GULP energy per Si atom -12393.254096 kJ/mol
# Density = 1.823188 g / cm^3
# Si number density = 18.273473 Si / 1000 Ang^3
#
#
#
# Elastic Constant Matrix: (Units=GPa)
#
#
# Indices 1 2 3 4 5 6 
#
# 1 129.9985 42.8435 56.6442 0.0335 -9.8951 -0.0166
# 2 42.8435 69.4188 31.7202 0.0915 8.1182 -0.0334
# 3 56.6442 31.7202 149.9217 -0.0818 -7.0132 -0.0839
# 4 0.0335 0.0915 -0.0818 18.1474 -0.0965 -0.1685
# 5 -9.8951 8.1182 -7.0132 -0.0965 40.5600 0.0313
# 6 -0.0166 -0.0334 -0.0839 -0.1685 0.0313 19.3521
#
#
#
# Elastic Compliance Matrix: (Units=1/GPa)
#
#
# Indices 1 2 3 4 5 6 
#
# 1 0.011147 -0.006012 -0.002778 0.000015 0.003442 -0.000018
# 2 -0.006012 0.019795 -0.002188 -0.000129 -0.005808 0.000028
# 3 -0.002778 -0.002188 0.008238 0.000060 0.001185 0.000028
# 4 0.000015 -0.000129 0.000060 0.055111 0.000171 0.000480
# 5 0.003442 -0.005808 0.001185 0.000171 0.026862 -0.000044
# 6 -0.000018 0.000028 0.000028 0.000480 -0.000044 0.051678
#
#
# Mechanical properties :
#
#
# Convention : Reuss Voigt Hill
#
# Bulk Modulus (GPa) = 58.06517 67.97276 63.01897
# Shear Modulus (GPa) = 24.93386 30.15396 27.54391
#
# Velocity S-wave (km/s) = 3.69790 4.06661 3.88663
# Velocity P-wave (km/s) = 7.07653 7.70247 7.39612
#
# Compressibility (1/GPa) = 0.01722203
#
# Stress axis : x y z
#
# Youngs Moduli (GPa) = 89.71416 50.51692 121.38369
#
# Poissons Ratio (x) = 0.30373 0.33724
# Poissons Ratio (y) = 0.53940 0.26563
# Poissons Ratio (z) = 0.24925 0.11055
#
# Static dielectric constant tensor:
#      x y z
#    x 3.431210 -0.000120 -0.208630 
#    y -0.000120 3.041910 0.000940 
#    z -0.208630 0.000940 3.683000 
# 
# 
# High freq. dielectric constant tensor:
#      x y z
#    x 1.702790 -0.000010 -0.014210 
#    y -0.000010 1.679460 0.000070 
#    z -0.014210 0.000070 1.723150 
# 
# From -- ./inp_files/75106.got.cif
#   From: 2010.06.25/outbox.cif.g09.slc.cpg/sg12_38_cif.got.tgz:75106.got - 2010.06.28 00:19:55.
