data_PCOD8101994
_publ_section_title
;
Structure prediction by ZEFSAII (Michael W. Deem and Ramdas Pophale) SiO2 
 PCOD8101994
Probable space group: C 2/M
;
_chemical_formula_sum "Si O2"
_cell_formula_units_Z 64
_cell_length_a 32.384705
_cell_length_b 8.692204
_cell_length_c 10.817071
_cell_angle_alpha 90.000000
_cell_angle_beta 93.558388
_cell_angle_gamma 90.000000
_cell_volume 3039.075137
_symmetry_space_group_name_H-M "C 2/M"
_symmetry_group_IT_number 12
_symmetry_cell_setting 'monoclinic'
loop_
_space_group_symop_operation_xyz
x,y,z
-x,y,-z
-x,-y,-z
x,-y,z
1/2+x,1/2+y,z
1/2-x,1/2+y,-z
1/2-x,1/2-y,-z
1/2+x,1/2-y,z
loop_
_atom_site_type_symbol
_atom_site_label
_atom_site_fract_x
_atom_site_fract_y
_atom_site_fract_z
Si Si1 0.021820 0.318409 0.629415
Si Si2 0.888781 0.178147 0.367175
Si Si3 0.343189 0.319781 0.594991
Si Si4 0.887719 0.821701 0.852610
Si Si5 0.689355 0.323552 0.800688
Si Si6 0.024757 0.321845 0.130748
Si Si7 0.687904 0.178156 0.054366
Si Si8 0.735654 0.318972 0.285270
O O1 0.021247 0.500000 0.623162
O O2 0.068979 0.266103 0.647715
O O3 0.000000 0.251795 0.500000
O O4 0.999333 0.262384 0.751056
O O5 0.864046 0.254074 0.477959
O O6 0.858457 0.198706 0.245086
O O7 0.899273 0.000000 0.393666
O O8 0.339128 0.500000 0.572533
O O9 0.374021 0.280038 0.711774
O O10 0.296673 0.257982 0.615714
O O11 0.935199 0.781589 0.877150
O O12 0.860555 0.720726 0.941719
O O13 0.880317 0.000000 0.882075
O O14 0.698125 0.500000 0.835922
O O15 0.720710 0.271540 0.696118
O O16 0.700808 0.215136 0.917096
O O17 0.036791 0.500000 0.149348
O O18 0.000000 0.295388 0.000000
O O19 0.714827 0.283862 0.149268
O O20 0.695830 0.000000 0.084974
O O21 0.743285 0.500000 0.298505
#
# Coordination Sequence:
#
# PCOD8101994 Si02
#       8
#     8   8   8   8   8   8   8   8
#     4  10  22  40  61  86 118 155 199 247 294 352
#     4  10  22  39  60  85 115 152 193 238 289 346
#     4   8  17  36  59  83 112 146 188 236 284 339
#     4  10  20  36  60  87 114 146 189 239 287 345
#     4  11  23  37  54  83 120 153 192 241 289 342
#     4  10  22  38  56  83 118 155 192 240 298 355
#     4  11  22  37  59  83 114 155 195 237 289 347
#     4  10  20  37  60  85 114 151 195 239 287 344
#
# _framework density 21.059038999999999
#
# number of rings (size 3 to 8) (size 9 to 14) (size 15 to 20)
#    0.000    2.000    0.000    4.125    1.750    2.500 
#    0.000    3.125    0.000    0.000    0.000    0.000 
#    0.000    0.000    0.000    0.000    0.000    0.000 
#
# Total GULP energy -396756.059903 kJ/mol
# GULP energy per Si atom -12398.626872 kJ/mol
# Density = 2.101111 g / cm^3
# Si number density = 21.059039 Si / 1000 Ang^3
#
#
#
# Elastic Constant Matrix: (Units=GPa)
#
#
# Indices 1 2 3 4 5 6 
#
# 1 121.0740 17.7252 14.4142 0.0000 -11.3697 0.0000
# 2 17.7252 45.3456 11.2139 0.0000 -1.1733 0.0000
# 3 14.4142 11.2139 70.8415 0.0000 -13.8258 0.0000
# 4 0.0000 0.0000 0.0000 17.5754 0.0000 -3.8710
# 5 -11.3697 -1.1733 -13.8258 0.0000 25.6229 0.0000
# 6 0.0000 0.0000 0.0000 -3.8710 0.0000 37.2699
#
#
#
# Elastic Compliance Matrix: (Units=1/GPa)
#
#
# Indices 1 2 3 4 5 6 
#
# 1 0.009158 -0.003329 -0.000641 0.000000 0.003566 0.000000
# 2 -0.003329 0.024185 -0.003603 0.000000 -0.002314 0.000000
# 3 -0.000641 -0.003603 0.016463 0.000000 0.008434 0.000000
# 4 0.000000 0.000000 0.000000 0.058230 0.000000 0.006048
# 5 0.003566 -0.002314 0.008434 0.000000 0.045054 0.000000
# 6 0.000000 0.000000 0.000000 0.006048 0.000000 0.027459
#
#
# Mechanical properties :
#
#
# Convention : Reuss Voigt Hill
#
# Bulk Modulus (GPa) = 28.85059 35.99640 32.42349
# Shear Modulus (GPa) = 24.12573 29.02082 26.57328
#
# Velocity S-wave (km/s) = 3.38838 3.71626 3.55610
# Velocity P-wave (km/s) = 5.38867 5.96191 5.68252
#
# Compressibility (1/GPa) = 0.03466134
#
# Stress axis : x y z
#
# Youngs Moduli (GPa) = 109.19557 41.34757 60.74372
#
# Poissons Ratio (x) = 0.13765 0.03891
# Poissons Ratio (y) = 0.36352 0.21883
# Poissons Ratio (z) = 0.06994 0.14896
#
# Static dielectric constant tensor:
#      x y z
#    x 4.008990 0.000000 -0.297020 
#    y 0.000000 3.540560 0.000000 
#    z -0.297020 0.000000 4.011630 
# 
# 
# High freq. dielectric constant tensor:
#      x y z
#    x 1.838430 0.000000 -0.010000 
#    y 0.000000 1.804970 0.000000 
#    z -0.010000 0.000000 1.824770 
# 
# From -- ./inp_files/187562.got.cif
#   From: 2010.06.25/outbox.cif.g09.slc.cpg/sg12_94_cif.got.tgz:187562.got - 2010.06.28 00:19:55.
