data_PCOD8101992
_publ_section_title
;
Structure prediction by ZEFSAII (Michael W. Deem and Ramdas Pophale) SiO2 
 PCOD8101992
Probable space group: C 2/M
;
_chemical_formula_sum "Si O2"
_cell_formula_units_Z 56
_cell_length_a 29.330965
_cell_length_b 8.767226
_cell_length_c 11.844979
_cell_angle_alpha 90.000000
_cell_angle_beta 108.949670
_cell_angle_gamma 90.000000
_cell_volume 2880.872818
_symmetry_space_group_name_H-M "C 2/M"
_symmetry_group_IT_number 12
_symmetry_cell_setting 'monoclinic'
loop_
_space_group_symop_operation_xyz
x,y,z
-x,y,-z
-x,-y,-z
x,-y,z
1/2+x,1/2+y,z
1/2-x,1/2+y,-z
1/2-x,1/2-y,-z
1/2+x,1/2-y,z
loop_
_atom_site_type_symbol
_atom_site_label
_atom_site_fract_x
_atom_site_fract_y
_atom_site_fract_z
Si Si1 0.204280 0.321059 0.522689
Si Si2 0.726651 0.320749 0.769809
Si Si3 0.152228 0.322351 0.861932
Si Si4 0.837481 0.677718 0.874089
Si Si5 0.624370 0.324375 0.310302
Si Si6 0.561121 0.819864 0.641414
Si Si7 0.462980 0.676444 0.608218
O O1 0.210839 0.500000 0.531131
O O2 0.250000 0.250000 0.500000
O O3 0.199020 0.259732 0.644872
O O4 0.157191 0.280388 0.414960
O O5 0.723083 0.500000 0.751440
O O6 0.699401 0.270428 0.861409
O O7 0.782107 0.267989 0.818991
O O8 0.163243 0.500000 0.852758
O O9 0.105584 0.268639 0.754890
O O10 0.142913 0.286412 0.985541
O O11 0.841809 0.500000 0.847798
O O12 0.870755 0.772801 0.815308
O O13 0.640208 0.500000 0.335829
O O14 0.569404 0.300789 0.306359
O O15 0.512127 0.770072 0.665012
O O16 0.565722 0.737290 0.524536
O O17 0.560480 0.000000 0.621202
O O18 0.475533 0.500000 0.598628
#
# Coordination Sequence:
#
# PCOD8101992 Si02
#       7
#     8   8   8   8   8   8   8
#     4  12  23  36  56  82 115 150 185 231 280 331
#     4  11  22  36  57  85 113 151 195 234 283 336
#     4  10  22  39  58  83 113 150 194 237 282 336
#     4  10  22  39  57  79 114 155 194 235 279 333
#     4  11  23  38  58  85 115 151 192 231 283 342
#     4  10  20  36  60  87 112 142 185 232 283 339
#     4  10  21  37  59  86 115 144 180 230 286 342
#
# _framework density 19.438552999999999
#
# number of rings (size 3 to 8) (size 9 to 14) (size 15 to 20)
#    0.000    1.429    1.429    5.143    0.000    6.857 
#    0.000    0.714    0.000    4.286    0.000    0.000 
#    0.000    0.000    0.000    0.000    0.000    0.000 
#
# Total GULP energy -347336.874132 kJ/mol
# GULP energy per Si atom -12404.888362 kJ/mol
# Density = 1.939431 g / cm^3
# Si number density = 19.438553 Si / 1000 Ang^3
#
#
#
# Elastic Constant Matrix: (Units=GPa)
#
#
# Indices 1 2 3 4 5 6 
#
# 1 106.8208 32.8393 44.9409 0.0000 -21.0211 0.0000
# 2 32.8393 77.3198 29.8456 0.0000 -9.2346 0.0000
# 3 44.9409 29.8456 96.0124 0.0000 -10.7575 0.0000
# 4 0.0000 0.0000 0.0000 28.2078 0.0000 -7.6811
# 5 -21.0211 -9.2346 -10.7575 0.0000 25.5370 0.0000
# 6 0.0000 0.0000 0.0000 -7.6811 0.0000 31.0945
#
#
#
# Elastic Compliance Matrix: (Units=1/GPa)
#
#
# Indices 1 2 3 4 5 6 
#
# 1 0.013907 -0.003131 -0.004597 0.000000 0.008379 0.000000
# 2 -0.003131 0.015716 -0.003224 0.000000 0.001748 0.000000
# 3 -0.004597 -0.003224 0.013659 0.000000 0.000804 0.000000
# 4 0.000000 0.000000 0.000000 0.038008 0.000000 0.009389
# 5 0.008379 0.001748 0.000804 0.000000 0.047027 0.000000
# 6 0.000000 0.000000 0.000000 0.009389 0.000000 0.034479
#
#
# Mechanical properties :
#
#
# Convention : Reuss Voigt Hill
#
# Bulk Modulus (GPa) = 46.77785 55.04496 50.91141
# Shear Modulus (GPa) = 26.06503 28.46969 27.26736
#
# Velocity S-wave (km/s) = 3.66579 3.83116 3.74939
# Velocity P-wave (km/s) = 6.48337 6.92454 6.70758
#
# Compressibility (1/GPa) = 0.02137764
#
# Stress axis : x y z
#
# Youngs Moduli (GPa) = 71.90545 63.62772 73.20920
#
# Poissons Ratio (x) = 0.19924 0.33657
# Poissons Ratio (y) = 0.22516 0.23602
# Poissons Ratio (z) = 0.33058 0.20513
#
# Static dielectric constant tensor:
#      x y z
#    x 3.643020 0.000000 -0.065250 
#    y 0.000000 3.626390 0.000000 
#    z -0.065250 0.000000 3.584370 
# 
# 
# High freq. dielectric constant tensor:
#      x y z
#    x 1.758680 0.000000 -0.010000 
#    y 0.000000 1.765290 0.000000 
#    z -0.010000 0.000000 1.749960 
# 
# From -- ./inp_files/186824.got.cif
#   From: 2010.06.25/outbox.cif.g09.slc.cpg/sg12_94_cif.got.tgz:186824.got - 2010.06.28 00:19:55.
