data_PCOD8101913
_publ_section_title
;
Structure prediction by ZEFSAII (Michael W. Deem and Ramdas Pophale) SiO2 
 PCOD8101913
Probable space group: C 2/M
;
_chemical_formula_sum "Si O2"
_cell_formula_units_Z 56
_cell_length_a 26.075263
_cell_length_b 14.834662
_cell_length_c 11.631832
_cell_angle_alpha 90.000000
_cell_angle_beta 140.893542
_cell_angle_gamma 90.000000
_cell_volume 2838.055427
_symmetry_space_group_name_H-M "C 2/M"
_symmetry_group_IT_number 12
_symmetry_cell_setting 'monoclinic'
loop_
_space_group_symop_operation_xyz
x,y,z
-x,y,-z
-x,-y,-z
x,-y,z
1/2+x,1/2+y,z
1/2-x,1/2+y,-z
1/2-x,1/2-y,-z
1/2+x,1/2-y,z
loop_
_atom_site_type_symbol
_atom_site_label
_atom_site_fract_x
_atom_site_fract_y
_atom_site_fract_z
Si Si1 0.880486 0.686661 0.071229
Si Si2 0.832034 0.099656 0.623325
Si Si3 0.913126 0.744632 0.887215
Si Si4 0.090354 0.233811 0.643214
Si Si5 0.657997 0.100087 0.382016
Si Si6 0.051143 0.395728 0.413405
Si Si7 0.208827 0.105797 0.708301
O O1 0.867905 0.749213 0.160820
O O2 0.956495 0.619003 0.219596
O O3 0.902164 0.755139 0.004688
O O4 0.799779 0.630065 0.905495
O O5 0.899872 0.162746 0.796095
O O6 0.754496 0.101540 0.574424
O O7 0.805524 0.130780 0.449802
O O8 0.870016 0.000000 0.683635
O O9 0.851800 0.666908 0.741506
O O10 0.000000 0.708010 0.000000
O O11 0.081687 0.331746 0.568415
O O12 0.144231 0.163096 0.668214
O O13 0.000000 0.191840 0.500000
O O14 0.607380 0.131615 0.403780
O O15 0.630510 0.000000 0.295493
O O16 0.064653 0.500000 0.472402
O O17 0.194689 0.000000 0.706662
#
# Coordination Sequence:
#
# PCOD8101913 Si02
#       7
#     8   8   8   8   8   8   8
#     4  11  23  38  60  92 123 155 197 243 295 360
#     4  10  23  40  61  89 119 158 203 242 291 354
#     4  12  23  37  63  89 124 159 188 243 306 349
#     4  10  24  42  61  87 121 155 206 248 292 351
#     4  10  20  36  59  92 122 152 193 240 297 360
#     4  10  21  38  63  91 125 159 190 242 300 356
#     4  11  23  41  65  86 117 160 203 249 293 345
#
# _framework density 19.731819000000002
#
# number of rings (size 3 to 8) (size 9 to 14) (size 15 to 20)
#    0.000    1.429    2.857    2.143    4.000    4.571 
#    0.000    0.714    0.000    0.000    0.000    0.000 
#    0.000    0.000    0.000    0.000    0.000    0.000 
#
# Total GULP energy -347177.282503 kJ/mol
# GULP energy per Si atom -12399.188661 kJ/mol
# Density = 1.968691 g / cm^3
# Si number density = 19.731819 Si / 1000 Ang^3
#
#
#
# Elastic Constant Matrix: (Units=GPa)
#
#
# Indices 1 2 3 4 5 6 
#
# 1 120.7630 48.3062 34.3923 0.0000 -7.8993 0.0000
# 2 48.3062 94.6073 45.0389 0.0000 -11.2355 0.0000
# 3 34.3923 45.0389 74.9196 0.0000 -20.8563 0.0000
# 4 0.0000 0.0000 0.0000 -14.4313 0.0000 13.3640
# 5 -7.8993 -11.2355 -20.8563 0.0000 28.5556 0.0000
# 6 0.0000 0.0000 0.0000 13.3640 0.0000 25.7935
#
#
#
# Elastic Compliance Matrix: (Units=1/GPa)
#
#
# Indices 1 2 3 4 5 6 
#
# 1 0.010682 -0.004360 -0.002432 0.000000 -0.000537 0.000000
# 2 -0.004360 0.016604 -0.008155 0.000000 -0.000630 0.000000
# 3 -0.002432 -0.008155 0.022953 0.000000 0.012883 0.000000
# 4 0.000000 0.000000 0.000000 -0.046827 0.000000 0.024262
# 5 -0.000537 -0.000630 0.012883 0.000000 0.044032 0.000000
# 6 0.000000 0.000000 0.000000 0.024262 0.000000 0.026199
#
#
# Mechanical properties :
#
#
# Convention : Reuss Voigt Hill
#
# Bulk Modulus (GPa) = 49.15422 60.64052 54.89737
# Shear Modulus (GPa) = 45.32216 18.82041 32.07128
#
# Velocity S-wave (km/s) = 4.79781 3.09173 4.03595
# Velocity P-wave (km/s) = 7.46037 6.59880 7.04277
#
# Compressibility (1/GPa) = 0.02034413
#
# Stress axis : x y z
#
# Youngs Moduli (GPa) = 93.61237 60.22615 43.56707
#
# Poissons Ratio (x) = 0.26261 0.10595
# Poissons Ratio (y) = 0.40818 0.35531
# Poissons Ratio (z) = 0.22766 0.49117
#
# Static dielectric constant tensor:
#      x y z
#    x 3.766530 0.000000 -0.010960 
#    y 0.000000 3.453400 0.000000 
#    z -0.010960 0.000000 3.505790 
# 
# 
# High freq. dielectric constant tensor:
#      x y z
#    x 1.784990 0.000000 0.002580 
#    y 0.000000 1.760710 0.000000 
#    z 0.002580 0.000000 1.760940 
# 
# From -- ./inp_files/183561.got.cif
#   From: 2010.06.25/outbox.cif.g09.slc.cpg/sg12_92_cif.got.tgz:183561.got - 2010.06.28 00:19:55.
