data_PCOD8101888
_publ_section_title
;
Structure prediction by ZEFSAII (Michael W. Deem and Ramdas Pophale) SiO2 
 PCOD8101888
Probable space group: C 2/M
;
_chemical_formula_sum "Si O2"
_cell_formula_units_Z 48
_cell_length_a 14.874720
_cell_length_b 8.482267
_cell_length_c 20.372267
_cell_angle_alpha 90.000000
_cell_angle_beta 68.256516
_cell_angle_gamma 90.000000
_cell_volume 2387.517000
_symmetry_space_group_name_H-M "C 2/M"
_symmetry_group_IT_number 12
_symmetry_cell_setting 'monoclinic'
loop_
_space_group_symop_operation_xyz
x,y,z
-x,y,-z
-x,-y,-z
x,-y,z
1/2+x,1/2+y,z
1/2-x,1/2+y,-z
1/2-x,1/2-y,-z
1/2+x,1/2-y,z
loop_
_atom_site_type_symbol
_atom_site_label
_atom_site_fract_x
_atom_site_fract_y
_atom_site_fract_z
Si Si1 0.262261 0.683095 0.829201
Si Si2 0.018669 0.682813 0.420860
Si Si3 0.449792 0.813322 0.078267
Si Si4 0.406811 0.318103 0.333837
Si Si5 0.540734 0.183765 0.187802
Si Si6 0.781291 0.819009 0.672528
O O1 0.285791 0.500000 0.835100
O O2 0.162601 0.734959 0.890696
O O3 0.344634 0.789342 0.839668
O O4 0.251744 0.718618 0.755022
O O5 0.994363 0.500000 0.417293
O O6 0.130023 0.710245 0.372407
O O7 0.000000 0.737679 0.500000
O O8 0.946446 0.783321 0.395497
O O9 0.502709 0.748319 0.128936
O O10 0.461066 0.000000 0.074769
O O11 0.500000 0.739493 0.000000
O O12 0.378897 0.500000 0.335347
O O13 0.491467 0.278376 0.259904
O O14 0.311143 0.216036 0.347534
O O15 0.515387 0.000000 0.202748
O O16 0.812276 0.000000 0.655338
#
# Coordination Sequence:
#
# PCOD8101888 Si02
#       6
#     8   8   8   8   8   8
#     4  10  20  36  59  89 119 155 201 248 299 357
#     4  11  25  44  65  92 125 159 199 251 306 361
#     4   9  19  37  59  84 120 162 200 244 302 360
#     4  12  24  39  63  92 123 162 205 250 301 359
#     4  11  21  36  60  89 119 157 205 252 301 357
#     4  11  22  39  64  93 123 160 203 251 303 358
#
# _framework density 20.104568
#
# number of rings (size 3 to 8) (size 9 to 14) (size 15 to 20)
#    0.000    1.333    3.333    3.000    0.000    3.333 
#    0.000    0.000    0.000    3.500    0.000    0.000 
#    0.000    0.000    0.000    0.000    0.000    0.000 
#
# Total GULP energy -297748.884489 kJ/mol
# GULP energy per Si atom -12406.203520 kJ/mol
# Density = 2.005881 g / cm^3
# Si number density = 20.104568 Si / 1000 Ang^3
#
#
#
# Elastic Constant Matrix: (Units=GPa)
#
#
# Indices 1 2 3 4 5 6 
#
# 1 88.9222 4.1052 -0.6243 0.0000 10.7273 0.0000
# 2 4.1052 49.0223 18.8288 0.0000 5.8871 0.0000
# 3 -0.6243 18.8288 72.4950 0.0000 9.9088 0.0000
# 4 0.0000 0.0000 0.0000 10.5556 0.0000 -7.0314
# 5 10.7273 5.8871 9.9088 0.0000 32.8825 0.0000
# 6 0.0000 0.0000 0.0000 -7.0314 0.0000 32.7013
#
#
#
# Elastic Compliance Matrix: (Units=1/GPa)
#
#
# Indices 1 2 3 4 5 6 
#
# 1 0.011767 -0.000841 0.000859 0.000000 -0.003947 0.000000
# 2 -0.000841 0.022900 -0.005665 0.000000 -0.002118 0.000000
# 3 0.000859 -0.005665 0.015824 0.000000 -0.004035 0.000000
# 4 0.000000 0.000000 0.000000 0.110575 0.000000 0.023776
# 5 -0.003947 -0.002118 -0.004035 0.000000 0.033294 0.000000
# 6 0.000000 0.000000 0.000000 0.023776 0.000000 0.035692
#
#
# Mechanical properties :
#
#
# Convention : Reuss Voigt Hill
#
# Bulk Modulus (GPa) = 25.51282 28.33988 26.92635
# Shear Modulus (GPa) = 19.65319 27.76988 23.71153
#
# Velocity S-wave (km/s) = 3.12997 3.72058 3.43798
# Velocity P-wave (km/s) = 5.07739 5.70822 5.40202
#
# Compressibility (1/GPa) = 0.03919598
#
# Stress axis : x y z
#
# Youngs Moduli (GPa) = 84.98475 43.66871 63.19378
#
# Poissons Ratio (x) = 0.03674 -0.05431
# Poissons Ratio (y) = 0.07151 0.35802
# Poissons Ratio (z) = -0.07303 0.24740
#
# Static dielectric constant tensor:
#      x y z
#    x 3.679690 0.000000 0.047600 
#    y 0.000000 3.425410 0.000000 
#    z 0.047600 0.000000 3.781690 
# 
# 
# High freq. dielectric constant tensor:
#      x y z
#    x 1.798630 0.000000 0.001420 
#    y 0.000000 1.770660 0.000000 
#    z 0.001420 0.000000 1.781940 
# 
# From -- ./inp_files/308265.got.cif
#   From: 2010.06.25/outbox.cif.g09.slc.cpg/sg12_155_cif.got.tgz:308265.got - 2010.06.28 00:19:55.
