data_PCOD8101183
_publ_section_title
;
Structure prediction by ZEFSAII (Michael W. Deem and Ramdas Pophale) SiO2 
 PCOD8101183
Probable space group: C 2/M
;
_chemical_formula_sum "Si O2"
_cell_formula_units_Z 64
_cell_length_a 28.820391
_cell_length_b 9.291692
_cell_length_c 19.441733
_cell_angle_alpha 90.000000
_cell_angle_beta 139.918907
_cell_angle_gamma 90.000000
_cell_volume 3352.190059
_symmetry_space_group_name_H-M "C 2/M"
_symmetry_group_IT_number 12
_symmetry_cell_setting 'monoclinic'
loop_
_space_group_symop_operation_xyz
x,y,z
-x,y,-z
-x,-y,-z
x,-y,z
1/2+x,1/2+y,z
1/2-x,1/2+y,-z
1/2-x,1/2-y,-z
1/2+x,1/2-y,z
loop_
_atom_site_type_symbol
_atom_site_label
_atom_site_fract_x
_atom_site_fract_y
_atom_site_fract_z
Si Si1 0.545356 0.834115 0.114875
Si Si2 0.478097 0.170672 0.179441
Si Si3 0.356976 0.338530 0.979655
Si Si4 0.347396 0.328869 0.392538
Si Si5 0.907793 0.332197 0.330969
Si Si6 0.718000 0.841987 0.904171
Si Si7 0.546460 0.833265 0.401030
Si Si8 0.182432 0.665444 0.193432
O O1 0.523827 0.771853 0.165320
O O2 0.631881 0.814994 0.203461
O O3 0.523267 0.000000 0.091792
O O4 0.500000 0.762816 0.000000
O O5 0.517179 0.218437 0.293944
O O6 0.464953 0.000000 0.165276
O O7 0.401413 0.251874 0.088379
O O8 0.388155 0.500000 0.006969
O O9 0.273482 0.344480 0.904381
O O10 0.360526 0.255092 0.912180
O O11 0.355183 0.500000 0.401587
O O12 0.389798 0.265732 0.375483
O O13 0.383827 0.262777 0.502189
O O14 0.263609 0.280393 0.298945
O O15 0.893630 0.500000 0.333478
O O16 0.856882 0.281628 0.210243
O O17 0.988906 0.308792 0.397176
O O18 0.704885 0.000000 0.920016
O O19 0.750000 0.750000 0.000000
O O20 0.569025 0.000000 0.423418
O O21 0.184362 0.500000 0.171264
#
# Coordination Sequence:
#
# PCOD8101183 Si02
#       8
#     8   8   8   8   8   8   8   8
#     4   9  16  31  59  87 108 139 185 231 267 319
#     4  10  20  37  60  83 110 147 189 227 271 335
#     4  11  21  33  53  82 115 146 175 223 281 328
#     4  11  23  37  57  82 110 145 186 235 278 320
#     4  10  20  37  56  77 108 145 187 229 271 327
#     4  10  21  34  50  76 111 147 182 223 271 325
#     4  10  22  38  58  80 107 148 189 229 275 327
#     4  10  20  36  57  82 109 143 185 226 272 327
#
# _framework density 19.091996999999999
#
# number of rings (size 3 to 8) (size 9 to 14) (size 15 to 20)
#    0.000    1.875    2.500    1.875    0.000    5.500 
#    0.000    1.875    0.000    0.000    0.000    0.000 
#    0.000    0.000    0.000    0.000    0.000    0.000 
#
# Total GULP energy -396715.647466 kJ/mol
# GULP energy per Si atom -12397.363983 kJ/mol
# Density = 1.904854 g / cm^3
# Si number density = 19.091997 Si / 1000 Ang^3
#
#
#
# Elastic Constant Matrix: (Units=GPa)
#
#
# Indices 1 2 3 4 5 6 
#
# 1 65.7366 16.0072 24.2117 0.0000 4.9617 0.0000
# 2 16.0072 63.2912 49.4576 0.0000 0.7501 0.0000
# 3 24.2117 49.4576 123.8054 0.0000 8.5247 0.0000
# 4 0.0000 0.0000 0.0000 33.8221 0.0000 -1.0442
# 5 4.9617 0.7501 8.5247 0.0000 20.7166 0.0000
# 6 0.0000 0.0000 0.0000 -1.0442 0.0000 18.0911
#
#
#
# Elastic Compliance Matrix: (Units=1/GPa)
#
#
# Indices 1 2 3 4 5 6 
#
# 1 0.016835 -0.002639 -0.002024 0.000000 -0.003103 0.000000
# 2 -0.002639 0.023571 -0.009144 0.000000 0.003541 0.000000
# 3 -0.002024 -0.009144 0.012422 0.000000 -0.004295 0.000000
# 4 0.000000 0.000000 0.000000 0.029619 0.000000 0.001710
# 5 -0.003103 0.003541 -0.004295 0.000000 0.050653 0.000000
# 6 0.000000 0.000000 0.000000 0.001710 0.000000 0.055374
#
#
# Mechanical properties :
#
#
# Convention : Reuss Voigt Hill
#
# Bulk Modulus (GPa) = 39.66254 48.02070 43.84162
# Shear Modulus (GPa) = 22.27251 25.40307 23.83779
#
# Velocity S-wave (km/s) = 3.41924 3.65164 3.53735
# Velocity P-wave (km/s) = 6.03389 6.55639 6.30056
#
# Compressibility (1/GPa) = 0.02521270
#
# Stress axis : x y z
#
# Youngs Moduli (GPa) = 59.40121 42.42565 80.50531
#
# Poissons Ratio (x) = 0.11197 0.16296
# Poissons Ratio (y) = 0.15677 0.73612
# Poissons Ratio (z) = 0.12024 0.38793
#
# Static dielectric constant tensor:
#      x y z
#    x 3.603350 0.000000 0.091780 
#    y 0.000000 3.357640 0.000000 
#    z 0.091780 0.000000 3.572780 
# 
# 
# High freq. dielectric constant tensor:
#      x y z
#    x 1.738540 0.000000 0.006800 
#    y 0.000000 1.722300 0.000000 
#    z 0.006800 0.000000 1.743360 
# 
# From -- ./inp_files/295674.got.cif
#   From: 2010.06.25/outbox.cif.g09.slc.cpg/sg12_148_cif.got.tgz:295674.got - 2010.06.28 00:19:55.
