data_PCOD8101249
_publ_section_title
;
Structure prediction by ZEFSAII (Michael W. Deem and Ramdas Pophale) SiO2 
 PCOD8101249
Probable space group: C 2/M
;
_chemical_formula_sum "Si O2"
_cell_formula_units_Z 32
_cell_length_a 15.386233
_cell_length_b 8.706972
_cell_length_c 13.217738
_cell_angle_alpha 90.000000
_cell_angle_beta 88.580365
_cell_angle_gamma 90.000000
_cell_volume 1770.203798
_symmetry_space_group_name_H-M "C 2/M"
_symmetry_group_IT_number 12
_symmetry_cell_setting 'monoclinic'
loop_
_space_group_symop_operation_xyz
x,y,z
-x,y,-z
-x,-y,-z
x,-y,z
1/2+x,1/2+y,z
1/2-x,1/2+y,-z
1/2-x,1/2-y,-z
1/2+x,1/2-y,z
loop_
_atom_site_type_symbol
_atom_site_label
_atom_site_fract_x
_atom_site_fract_y
_atom_site_fract_z
Si Si1 0.615171 0.674337 0.211779
Si Si2 0.495574 0.674510 0.387892
Si Si3 0.726211 0.318816 0.893227
Si Si4 0.058775 0.319400 0.801941
O O1 0.623652 0.500000 0.171232
O O2 0.591644 0.676528 0.332758
O O3 0.704605 0.763266 0.192296
O O4 0.535261 0.758881 0.155259
O O5 0.500000 0.747432 0.500000
O O6 0.459912 0.500000 0.395250
O O7 0.430763 0.772893 0.317633
O O8 0.727360 0.500000 0.899435
O O9 0.631303 0.262688 0.865877
O O10 0.750000 0.250000 0.000000
O O11 0.066660 0.500000 0.815634
#
# Coordination Sequence:
#
# PCOD8101249 Si02
#       4
#     8   8   8   8
#     4   9  19  37  58  83 114 146 184 230 275 327
#     4   8  16  34  59  83 112 148 183 225 276 326
#     4  12  24  39  58  82 111 147 188 231 279 330
#     4  10  20  36  57  84 115 147 185 228 274 329
#
# _framework density 18.077013999999998
#
# number of rings (size 3 to 8) (size 9 to 14) (size 15 to 20)
#    1.500    0.750    0.000    4.500    0.000    1.500 
#    0.000    6.250    0.000    0.000    0.000    0.000 
#    0.000    0.000    0.000    0.000    0.000    0.000 
#
# Total GULP energy -198246.886963 kJ/mol
# GULP energy per Si atom -12390.430435 kJ/mol
# Density = 1.803587 g / cm^3
# Si number density = 18.077014 Si / 1000 Ang^3
#
#
#
# Elastic Constant Matrix: (Units=GPa)
#
#
# Indices 1 2 3 4 5 6 
#
# 1 53.8692 19.9383 -5.4003 0.0000 -4.2897 0.0000
# 2 19.9383 142.7178 18.1980 0.0000 -0.3258 0.0000
# 3 -5.4003 18.1980 50.7996 0.0000 4.0188 0.0000
# 4 0.0000 0.0000 0.0000 28.3113 0.0000 -0.1620
# 5 -4.2897 -0.3258 4.0188 0.0000 25.0537 0.0000
# 6 0.0000 0.0000 0.0000 -0.1620 0.0000 35.0792
#
#
#
# Elastic Compliance Matrix: (Units=1/GPa)
#
#
# Indices 1 2 3 4 5 6 
#
# 1 0.020299 -0.003222 0.003079 0.000000 0.002940 0.000000
# 2 -0.003222 0.007860 -0.003163 0.000000 0.000058 0.000000
# 3 0.003079 -0.003163 0.021378 0.000000 -0.002943 0.000000
# 4 0.000000 0.000000 0.000000 0.035322 0.000000 0.000163
# 5 0.002940 0.000058 -0.002943 0.000000 0.040891 0.000000
# 6 0.000000 0.000000 0.000000 0.000163 0.000000 0.028508
#
#
# Mechanical properties :
#
#
# Convention : Reuss Voigt Hill
#
# Bulk Modulus (GPa) = 23.29532 34.76207 29.02869
# Shear Modulus (GPa) = 28.54244 31.99888 30.27066
#
# Velocity S-wave (km/s) = 3.97789 4.21187 4.09655
# Velocity P-wave (km/s) = 5.83205 6.55171 6.20233
#
# Compressibility (1/GPa) = 0.04292708
#
# Stress axis : x y z
#
# Youngs Moduli (GPa) = 49.26414 127.22049 46.77608
#
# Poissons Ratio (x) = 0.40988 -0.14404
# Poissons Ratio (y) = 0.15872 0.14795
# Poissons Ratio (z) = -0.15171 0.40239
#
# Static dielectric constant tensor:
#      x y z
#    x 3.221460 0.000000 -0.055380 
#    y 0.000000 3.388220 0.000000 
#    z -0.055380 0.000000 3.221240 
# 
# 
# High freq. dielectric constant tensor:
#      x y z
#    x 1.681830 0.000000 -0.003450 
#    y 0.000000 1.712920 0.000000 
#    z -0.003450 0.000000 1.686080 
# 
# From -- ./inp_files/138353.got.cif
#   From: 2010.06.25/outbox.cif.g09.slc.cpg/sg12_70_cif.got.tgz:138353.got - 2010.06.28 00:19:55.
