data_PCOD8101152
_publ_section_title
;
Structure prediction by ZEFSAII (Michael W. Deem and Ramdas Pophale) SiO2 
 PCOD8101152
Probable space group: C 2/M
;
_chemical_formula_sum "Si O2"
_cell_formula_units_Z 64
_cell_length_a 28.600805
_cell_length_b 8.885943
_cell_length_c 15.409486
_cell_angle_alpha 90.000000
_cell_angle_beta 57.029995
_cell_angle_gamma 90.000000
_cell_volume 3285.556186
_symmetry_space_group_name_H-M "C 2/M"
_symmetry_group_IT_number 12
_symmetry_cell_setting 'monoclinic'
loop_
_space_group_symop_operation_xyz
x,y,z
-x,y,-z
-x,-y,-z
x,-y,z
1/2+x,1/2+y,z
1/2-x,1/2+y,-z
1/2-x,1/2-y,-z
1/2+x,1/2-y,z
loop_
_atom_site_type_symbol
_atom_site_label
_atom_site_fract_x
_atom_site_fract_y
_atom_site_fract_z
Si Si1 0.369113 0.172915 0.979209
Si Si2 0.138068 0.175949 0.519261
Si Si3 0.863949 0.823899 0.286175
Si Si4 0.936545 0.823083 0.567690
Si Si5 0.137269 0.326348 0.210770
Si Si6 0.746680 0.677539 0.156006
Si Si7 0.745027 0.177506 0.343630
Si Si8 0.562367 0.321214 0.943043
O O1 0.387039 0.194522 0.861267
O O2 0.373958 0.000000 0.003353
O O3 0.305829 0.229207 0.057558
O O4 0.410697 0.271238 0.994037
O O5 0.114335 0.215380 0.639056
O O6 0.092137 0.220708 0.494441
O O7 0.192840 0.276419 0.454528
O O8 0.154011 0.000000 0.496319
O O9 0.800645 0.768206 0.336854
O O10 0.903816 0.750839 0.172851
O O11 0.865441 0.000000 0.269146
O O12 0.905105 0.746305 0.678791
O O13 0.000000 0.764700 0.500000
O O14 0.934316 0.000000 0.586550
O O15 0.144493 0.500000 0.228089
O O16 0.197864 0.250979 0.149039
O O17 0.738803 0.500000 0.160852
O O18 0.740062 0.732871 0.260040
O O19 0.744535 0.000000 0.325788
O O20 0.562324 0.500000 0.940936
O O21 0.500000 0.257075 0.000000
#
# Coordination Sequence:
#
# PCOD8101152 Si02
#       8
#     8   8   8   8   8   8   8   8
#     4  10  23  40  59  86 119 155 192 235 292 349
#     4  10  20  36  57  80 114 151 188 232 281 344
#     4   9  19  35  55  83 115 148 185 233 286 334
#     4  10  22  39  59  84 114 153 198 239 283 337
#     4  11  23  39  60  87 119 152 190 240 293 346
#     4  11  21  36  59  86 116 152 191 233 290 353
#     4  11  20  33  56  84 115 147 184 233 289 345
#     4  10  21  38  61  87 115 151 197 242 286 336
#
# _framework density 19.479199999999999
#
# number of rings (size 3 to 8) (size 9 to 14) (size 15 to 20)
#    0.000    1.750    2.500    1.875    0.000    3.000 
#    0.000    3.750    0.000    0.000    0.000    0.000 
#    0.000    0.000    0.000    0.000    0.000    0.000 
#
# Total GULP energy -396852.128595 kJ/mol
# GULP energy per Si atom -12401.629019 kJ/mol
# Density = 1.943486 g / cm^3
# Si number density = 19.479200 Si / 1000 Ang^3
#
#
#
# Elastic Constant Matrix: (Units=GPa)
#
#
# Indices 1 2 3 4 5 6 
#
# 1 144.3299 38.5872 82.2709 0.0000 -13.8809 0.0000
# 2 38.5872 36.0767 27.1430 0.0000 -6.3120 -0.0002
# 3 82.2709 27.1430 103.0059 0.0000 8.8745 0.0001
# 4 0.0000 0.0000 0.0000 25.0333 0.0000 3.0576
# 5 -13.8809 -6.3120 8.8745 0.0000 31.7385 0.0000
# 6 0.0000 -0.0002 0.0001 3.0576 0.0000 25.2195
#
#
#
# Elastic Compliance Matrix: (Units=1/GPa)
#
#
# Indices 1 2 3 4 5 6 
#
# 1 0.016718 -0.006970 -0.012323 0.000000 0.009371 0.000000
# 2 -0.006970 0.040630 -0.005711 0.000000 0.006629 0.000000
# 3 -0.012323 -0.005711 0.022151 0.000000 -0.012719 0.000000
# 4 0.000000 0.000000 0.000000 0.040547 0.000000 -0.004916
# 5 0.009371 0.006629 -0.012719 0.000000 0.040481 0.000000
# 6 0.000000 0.000000 0.000000 -0.004916 0.000000 0.040248
#
#
# Mechanical properties :
#
#
# Convention : Reuss Voigt Hill
#
# Bulk Modulus (GPa) = 33.90802 64.37941 49.14371
# Shear Modulus (GPa) = 19.18557 25.42569 22.30563
#
# Velocity S-wave (km/s) = 3.14176 3.61678 3.38760
# Velocity P-wave (km/s) = 5.53226 7.11080 6.37061
#
# Compressibility (1/GPa) = 0.02949155
#
# Stress axis : x y z
#
# Youngs Moduli (GPa) = 59.81674 24.61243 45.14398
#
# Poissons Ratio (x) = 0.17155 0.55632
# Poissons Ratio (y) = 0.41692 0.25780
# Poissons Ratio (z) = 0.73713 0.14055
#
# Static dielectric constant tensor:
#      x y z
#    x 3.696710 0.000000 -0.068900 
#    y 0.000000 3.382330 0.000000 
#    z -0.068900 0.000000 3.702430 
# 
# 
# High freq. dielectric constant tensor:
#      x y z
#    x 1.761020 0.000000 0.006820 
#    y 0.000000 1.742460 0.000000 
#    z 0.006820 0.000000 1.768470 
# 
# From -- ./inp_files/249093.got.cif
#   From: 2010.06.25/outbox.cif.g09.slc.cpg/sg12_125_cif.got.tgz:249093.got - 2010.06.28 00:19:55.
