data_PCOD8101981
_publ_section_title
;
Structure prediction by ZEFSAII (Michael W. Deem and Ramdas Pophale) SiO2 
 PCOD8101981
Probable space group: C 2/M
;
_chemical_formula_sum "Si O2"
_cell_formula_units_Z 64
_cell_length_a 13.244536
_cell_length_b 14.304157
_cell_length_c 19.104809
_cell_angle_alpha 90.000000
_cell_angle_beta 59.446599
_cell_angle_gamma 90.000000
_cell_volume 3116.903967
_symmetry_space_group_name_H-M "C 2/M"
_symmetry_group_IT_number 12
_symmetry_cell_setting 'monoclinic'
loop_
_space_group_symop_operation_xyz
x,y,z
-x,y,-z
-x,-y,-z
x,-y,z
1/2+x,1/2+y,z
1/2-x,1/2+y,-z
1/2-x,1/2-y,-z
1/2+x,1/2-y,z
loop_
_atom_site_type_symbol
_atom_site_label
_atom_site_fract_x
_atom_site_fract_y
_atom_site_fract_z
Si Si1 0.923812 0.897384 0.109081
Si Si2 0.586567 0.782544 0.024518
Si Si3 0.399131 0.287695 0.582857
Si Si4 0.715202 0.818898 0.111483
Si Si5 0.456927 0.236350 0.715369
Si Si6 0.190638 0.395220 0.441589
Si Si7 0.823963 0.391431 0.390510
Si Si8 0.912661 0.896953 0.268814
O O1 0.817142 0.894732 0.090268
O O2 0.865350 0.887633 0.206491
O O3 0.021724 0.817168 0.063381
O O4 0.983692 0.000000 0.080122
O O5 0.615846 0.840290 0.086168
O O6 0.500000 0.837289 0.000000
O O7 0.712478 0.771581 0.941495
O O8 0.500000 0.337394 0.500000
O O9 0.429800 0.288800 0.653013
O O10 0.397854 0.179593 0.558804
O O11 0.277471 0.341737 0.617752
O O12 0.656529 0.807187 0.208123
O O13 0.553136 0.155840 0.671499
O O14 0.491015 0.317909 0.756661
O O15 0.142570 0.500000 0.443531
O O16 0.208199 0.377228 0.517252
O O17 0.313396 0.377755 0.360824
O O18 0.831519 0.500000 0.367250
O O19 0.966877 0.000000 0.262344
#
# Coordination Sequence:
#
# PCOD8101981 Si02
#       8
#     8   8   8   8   8   8   8   8
#     4  10  20  37  61  90 120 151 197 254 303 351
#     4   9  19  37  59  88 124 156 191 240 302 365
#     4  12  23  37  63  90 118 159 214 249 299 359
#     4  10  21  34  59  92 118 156 200 238 297 363
#     4  12  23  38  63  86 125 160 204 251 302 360
#     4  10  20  38  60  84 118 156 200 253 301 350
#     4  11  25  42  58  84 125 165 201 250 306 356
#     4  10  20  36  60  86 116 156 201 251 304 353
#
# _framework density 20.533197000000001
#
# number of rings (size 3 to 8) (size 9 to 14) (size 15 to 20)
#    0.000    1.500    3.750    1.875    0.000    4.250 
#    0.000    0.000    0.000    0.375    0.000    2.625 
#    0.000    0.000    0.000    0.000    0.000    0.000 
#
# Total GULP energy -396469.259209 kJ/mol
# GULP energy per Si atom -12389.664350 kJ/mol
# Density = 2.048646 g / cm^3
# Si number density = 20.533197 Si / 1000 Ang^3
#
#
#
# Elastic Constant Matrix: (Units=GPa)
#
#
# Indices 1 2 3 4 5 6 
#
# 1 101.2210 29.0947 39.6807 0.0000 15.9641 0.0000
# 2 29.0947 81.3910 17.9283 0.0000 4.8339 0.0000
# 3 39.6807 17.9283 126.9387 0.0000 -3.5405 0.0000
# 4 0.0000 0.0000 0.0000 10.6136 0.0000 1.6698
# 5 15.9641 4.8339 -3.5405 0.0000 40.1465 0.0000
# 6 0.0000 0.0000 0.0000 1.6698 0.0000 13.7746
#
#
#
# Elastic Compliance Matrix: (Units=1/GPa)
#
#
# Indices 1 2 3 4 5 6 
#
# 1 0.013196 -0.003583 -0.003763 0.000000 -0.005148 0.000000
# 2 -0.003583 0.013769 -0.000833 0.000000 -0.000307 0.000000
# 3 -0.003763 -0.000833 0.009239 0.000000 0.002411 0.000000
# 4 0.000000 0.000000 0.000000 0.096050 0.000000 -0.011644
# 5 -0.005148 -0.000307 0.002411 0.000000 0.027205 0.000000
# 6 0.000000 0.000000 0.000000 -0.011644 0.000000 0.074009
#
#
# Mechanical properties :
#
#
# Convention : Reuss Voigt Hill
#
# Bulk Modulus (GPa) = 50.38612 53.66199 52.02406
# Shear Modulus (GPa) = 19.49767 27.76342 23.63055
#
# Velocity S-wave (km/s) = 3.08485 3.68111 3.39609
# Velocity P-wave (km/s) = 6.10578 6.65270 6.38510
#
# Compressibility (1/GPa) = 0.01984673
#
# Stress axis : x y z
#
# Youngs Moduli (GPa) = 75.78004 72.62795 108.23734
#
# Poissons Ratio (x) = 0.26020 0.40726
# Poissons Ratio (y) = 0.27149 0.09019
# Poissons Ratio (z) = 0.28513 0.06052
#
# Static dielectric constant tensor:
#      x y z
#    x 3.753710 0.000000 0.118250 
#    y 0.000000 3.564560 0.000000 
#    z 0.118250 0.000000 4.041590 
# 
# 
# High freq. dielectric constant tensor:
#      x y z
#    x 1.800170 0.000000 0.004220 
#    y 0.000000 1.771800 0.000000 
#    z 0.004220 0.000000 1.823960 
# 
# From -- ./inp_files/270266.got.cif
#   From: 2010.06.25/outbox.cif.g09.slc.cpg/sg12_136_cif.got.tgz:270266.got - 2010.06.28 00:19:55.
