data_PCOD8101369
_publ_section_title
;
Structure prediction by ZEFSAII (Michael W. Deem and Ramdas Pophale) SiO2 
 PCOD8101369
Probable space group: C 2/M
;
_chemical_formula_sum "Si O2"
_cell_formula_units_Z 56
_cell_length_a 30.212418
_cell_length_b 9.113361
_cell_length_c 18.781794
_cell_angle_alpha 90.000000
_cell_angle_beta 34.435828
_cell_angle_gamma 90.000000
_cell_volume 2924.290879
_symmetry_space_group_name_H-M "C 2/M"
_symmetry_group_IT_number 12
_symmetry_cell_setting 'monoclinic'
loop_
_space_group_symop_operation_xyz
x,y,z
-x,y,-z
-x,-y,-z
x,-y,z
1/2+x,1/2+y,z
1/2-x,1/2+y,-z
1/2-x,1/2-y,-z
1/2+x,1/2-y,z
loop_
_atom_site_type_symbol
_atom_site_label
_atom_site_fract_x
_atom_site_fract_y
_atom_site_fract_z
Si Si1 0.801691 0.329478 0.329063
Si Si2 0.344177 0.831932 0.431531
Si Si3 0.776378 0.827591 0.892635
Si Si4 0.581085 0.673798 0.928400
Si Si5 0.626191 0.168426 0.008951
Si Si6 0.505406 0.166760 0.289466
Si Si7 0.048652 0.173469 0.368474
O O1 0.802535 0.500000 0.308132
O O2 0.712721 0.273105 0.448384
O O3 0.841725 0.295296 0.351320
O O4 0.846752 0.241552 0.209269
O O5 0.431391 0.797263 0.339077
O O6 0.319112 0.000000 0.478368
O O7 0.861287 0.770118 0.753273
O O8 0.778048 0.000000 0.907098
O O9 0.750000 0.750000 0.000000
O O10 0.716581 0.793591 0.906868
O O11 0.587244 0.500000 0.918803
O O12 0.500000 0.727179 0.000000
O O13 0.588344 0.728156 0.999659
O O14 0.581865 0.197210 0.141566
O O15 0.616270 0.000000 0.997050
O O16 0.503433 0.273750 0.358773
O O17 0.503738 0.000000 0.319399
O O18 0.000000 0.237588 0.500000
O O19 0.047405 0.000000 0.372316
#
# Coordination Sequence:
#
# PCOD8101369 Si02
#       7
#     8   8   8   8   8   8   8
#     4  10  20  36  58  81 110 152 192 233 287 344
#     4   9  19  35  56  82 113 147 187 234 286 344
#     4  10  20  37  61  85 115 153 194 244 294 350
#     4  11  24  39  56  83 119 153 191 242 292 343
#     4  10  21  37  59  86 114 152 200 243 290 351
#     4  10  20  36  58  84 113 146 188 237 287 344
#     4  10  22  38  56  83 119 153 189 239 295 350
#
# _framework density 19.149941999999999
#
# number of rings (size 3 to 8) (size 9 to 14) (size 15 to 20)
#    0.000    2.000    1.429    1.714    0.000    6.000 
#    0.000    1.429    0.000    0.000    0.000    0.000 
#    0.000    0.000    0.000    0.000    0.000    0.000 
#
# Total GULP energy -347267.104558 kJ/mol
# GULP energy per Si atom -12402.396591 kJ/mol
# Density = 1.910636 g / cm^3
# Si number density = 19.149942 Si / 1000 Ang^3
#
#
#
# Elastic Constant Matrix: (Units=GPa)
#
#
# Indices 1 2 3 4 5 6 
#
# 1 79.1268 24.1737 35.5982 -0.0105 -4.7445 0.0011
# 2 24.1737 44.8811 28.1983 -0.0233 0.9918 0.0060
# 3 35.5982 28.1983 105.1604 -0.0194 -2.7348 0.0067
# 4 -0.0105 -0.0233 -0.0194 27.3068 0.0024 5.0982
# 5 -4.7445 0.9918 -2.7348 0.0024 27.8942 0.0012
# 6 0.0011 0.0060 0.0067 5.0982 0.0012 32.4150
#
#
#
# Elastic Compliance Matrix: (Units=1/GPa)
#
#
# Indices 1 2 3 4 5 6 
#
# 1 0.016498 -0.006590 -0.003748 -0.000003 0.002673 0.000002
# 2 -0.006590 0.029505 -0.005752 0.000020 -0.002734 -0.000007
# 3 -0.003748 -0.005752 0.012341 0.000003 0.000777 -0.000002
# 4 -0.000003 0.000020 0.000003 0.037729 -0.000004 -0.005934
# 5 0.002673 -0.002734 0.000777 -0.000004 0.036478 0.000000
# 6 0.000002 -0.000007 -0.000002 -0.005934 0.000000 0.031783
#
#
# Mechanical properties :
#
#
# Convention : Reuss Voigt Hill
#
# Bulk Modulus (GPa) = 38.22178 45.01209 41.61694
# Shear Modulus (GPa) = 24.36238 26.93639 25.64939
#
# Velocity S-wave (km/s) = 3.57065 3.75454 3.66375
# Velocity P-wave (km/s) = 6.08292 6.50781 6.29895
#
# Compressibility (1/GPa) = 0.02616309
#
# Stress axis : x y z
#
# Youngs Moduli (GPa) = 60.61428 33.89261 81.03332
#
# Poissons Ratio (x) = 0.22336 0.30372
# Poissons Ratio (y) = 0.39946 0.46609
# Poissons Ratio (z) = 0.22719 0.19495
#
# Static dielectric constant tensor:
#      x y z
#    x 3.475790 -0.000020 -0.160180 
#    y -0.000020 3.466270 0.000030 
#    z -0.160180 0.000030 3.665410 
# 
# 
# High freq. dielectric constant tensor:
#      x y z
#    x 1.746620 0.000000 -0.008540 
#    y 0.000000 1.738500 0.000000 
#    z -0.008540 0.000000 1.751330 
# 
# From -- ./inp_files/292434.got.cif
#   From: 2010.06.25/outbox.cif.g09.slc.cpg/sg12_147_cif.got.tgz:292434.got - 2010.06.28 00:19:55.
