data_PCOD8101873
_publ_section_title
;
Structure prediction by ZEFSAII (Michael W. Deem and Ramdas Pophale) SiO2 
 PCOD8101873
Probable space group: C 2/M
;
_chemical_formula_sum "Si O2"
_cell_formula_units_Z 64
_cell_length_a 30.761716
_cell_length_b 8.889420
_cell_length_c 14.212465
_cell_angle_alpha 90.000000
_cell_angle_beta 57.032769
_cell_angle_gamma 90.000000
_cell_volume 3260.663610
_symmetry_space_group_name_H-M "C 2/M"
_symmetry_group_IT_number 12
_symmetry_cell_setting 'monoclinic'
loop_
_space_group_symop_operation_xyz
x,y,z
-x,y,-z
-x,-y,-z
x,-y,z
1/2+x,1/2+y,z
1/2-x,1/2+y,-z
1/2-x,1/2-y,-z
1/2+x,1/2-y,z
loop_
_atom_site_type_symbol
_atom_site_label
_atom_site_fract_x
_atom_site_fract_y
_atom_site_fract_z
Si Si1 0.648714 0.825413 0.234224
Si Si2 0.736246 0.674676 0.242186
Si Si3 0.895795 0.176274 0.234770
Si Si4 0.722539 0.677996 0.620708
Si Si5 0.969392 0.321170 0.626226
Si Si6 0.573096 0.675644 0.010943
Si Si7 0.014833 0.678025 0.768732
Si Si8 0.166756 0.328111 0.999481
O O1 0.680615 0.727792 0.270903
O O2 0.589813 0.765785 0.306852
O O3 0.672478 0.798614 0.103245
O O4 0.651932 0.000000 0.259207
O O5 0.733803 0.500000 0.271601
O O6 0.749346 0.768373 0.318737
O O7 0.778435 0.708164 0.112170
O O8 0.836832 0.232717 0.308328
O O9 0.919099 0.219971 0.106423
O O10 0.927711 0.261052 0.278300
O O11 0.899534 0.000000 0.249256
O O12 0.726465 0.500000 0.610124
O O13 0.750000 0.750000 0.500000
O O14 0.970903 0.500000 0.625175
O O15 0.000000 0.256372 0.500000
O O16 0.996445 0.259525 0.689044
O O17 0.562115 0.500000 0.035897
O O18 0.523733 0.765586 0.105334
O O19 0.624190 0.716776 0.008500
O O20 0.015552 0.500000 0.768533
O O21 0.149006 0.500000 0.001297
#
# Coordination Sequence:
#
# PCOD8101873 Si02
#       8
#     8   8   8   8   8   8   8   8
#     4  10  20  37  60  86 121 158 195 244 300 357
#     4  11  23  38  60  91 123 154 197 247 298 361
#     4  10  23  41  60  87 121 155 193 243 300 360
#     4  11  24  44  65  87 119 159 204 251 301 356
#     4   9  19  37  59  83 113 151 197 244 288 341
#     4  11  21  36  60  87 120 158 195 239 302 363
#     4  11  22  37  60  90 121 155 199 246 295 355
#     4  10  20  36  59  88 121 154 195 246 298 358
#
# _framework density 19.627905999999999
#
# number of rings (size 3 to 8) (size 9 to 14) (size 15 to 20)
#    0.000    1.625    2.500    2.250    0.000    5.500 
#    0.000    1.250    0.000    2.625    0.000    0.000 
#    0.000    0.000    0.000    0.000    0.000    0.000 
#
# Total GULP energy -396959.561035 kJ/mol
# GULP energy per Si atom -12404.986282 kJ/mol
# Density = 1.958323 g / cm^3
# Si number density = 19.627906 Si / 1000 Ang^3
#
#
#
# Elastic Constant Matrix: (Units=GPa)
#
#
# Indices 1 2 3 4 5 6 
#
# 1 157.1375 41.8777 59.9987 0.0000 4.4823 0.0000
# 2 41.8777 49.1896 32.7917 0.0000 3.9744 0.0000
# 3 59.9987 32.7917 126.7754 0.0000 16.7847 0.0000
# 4 0.0000 0.0000 0.0000 25.0351 0.0000 -0.3044
# 5 4.4823 3.9744 16.7847 0.0000 10.3947 0.0000
# 6 0.0000 0.0000 0.0000 -0.3044 0.0000 39.0607
#
#
#
# Elastic Compliance Matrix: (Units=1/GPa)
#
#
# Indices 1 2 3 4 5 6 
#
# 1 0.009058 -0.005833 -0.003251 0.000000 0.003574 0.000000
# 2 -0.005833 0.028331 -0.004409 0.000000 -0.001198 0.000000
# 3 -0.003251 -0.004409 0.012921 0.000000 -0.017775 0.000000
# 4 0.000000 0.000000 0.000000 0.039948 0.000000 0.000311
# 5 0.003574 -0.001198 -0.017775 0.000000 0.123822 0.000000
# 6 0.000000 0.000000 0.000000 0.000311 0.000000 0.025604
#
#
# Mechanical properties :
#
#
# Convention : Reuss Voigt Hill
#
# Bulk Modulus (GPa) = 42.87553 66.93763 54.90658
# Shear Modulus (GPa) = 18.21866 28.12705 23.17286
#
# Velocity S-wave (km/s) = 3.04995 3.78962 3.43972
# Velocity P-wave (km/s) = 5.85615 7.30244 6.61892
#
# Compressibility (1/GPa) = 0.02332333
#
# Stress axis : x y z
#
# Youngs Moduli (GPa) = 110.40269 35.29664 77.39587
#
# Poissons Ratio (x) = 0.20588 0.25164
# Poissons Ratio (y) = 0.64395 0.34125
# Poissons Ratio (z) = 0.35895 0.15563
#
# Static dielectric constant tensor:
#      x y z
#    x 3.609680 0.000000 -0.074710 
#    y 0.000000 3.426610 0.000000 
#    z -0.074710 0.000000 3.666780 
# 
# 
# High freq. dielectric constant tensor:
#      x y z
#    x 1.777530 0.000000 -0.001200 
#    y 0.000000 1.752570 0.000000 
#    z -0.001200 0.000000 1.766730 
# 
# From -- ./inp_files/249665.got.cif
#   From: 2010.06.25/outbox.cif.g09.slc.cpg/sg12_125_cif.got.tgz:249665.got - 2010.06.28 00:19:55.
