data_PCOD8101168
_publ_section_title
;
Structure prediction by ZEFSAII (Michael W. Deem and Ramdas Pophale) SiO2 
 PCOD8101168
Probable space group: C 2/M
;
_chemical_formula_sum "Si O2"
_cell_formula_units_Z 56
_cell_length_a 29.318356
_cell_length_b 8.704122
_cell_length_c 20.237426
_cell_angle_alpha 90.000000
_cell_angle_beta 33.018720
_cell_angle_gamma 90.000000
_cell_volume 2814.148708
_symmetry_space_group_name_H-M "C 2/M"
_symmetry_group_IT_number 12
_symmetry_cell_setting 'monoclinic'
loop_
_space_group_symop_operation_xyz
x,y,z
-x,y,-z
-x,-y,-z
x,-y,z
1/2+x,1/2+y,z
1/2-x,1/2+y,-z
1/2-x,1/2-y,-z
1/2+x,1/2-y,z
loop_
_atom_site_type_symbol
_atom_site_label
_atom_site_fract_x
_atom_site_fract_y
_atom_site_fract_z
Si Si1 0.216707 0.180092 0.719102
Si Si2 0.995677 0.317898 0.801418
Si Si3 0.961352 0.320114 0.696165
Si Si4 0.383454 0.678095 0.560850
Si Si5 0.829798 0.175802 0.772004
Si Si6 0.154833 0.319288 0.926824
Si Si7 0.325519 0.181798 0.366687
O O1 0.314082 0.224654 0.605974
O O2 0.164851 0.228255 0.846594
O O3 0.176172 0.266119 0.706665
O O4 0.209598 0.000000 0.716153
O O5 0.992601 0.500000 0.806307
O O6 0.970009 0.258385 0.760227
O O7 0.087707 0.256606 0.707504
O O8 0.928800 0.257420 0.936354
O O9 0.980103 0.500000 0.668810
O O10 0.868408 0.283252 0.782217
O O11 0.025423 0.227908 0.572650
O O12 0.366848 0.500000 0.565542
O O13 0.377548 0.710319 0.645703
O O14 0.732060 0.215732 0.882191
O O15 0.842005 0.000000 0.778684
O O16 0.152518 0.500000 0.912818
O O17 0.250000 0.250000 0.500000
O O18 0.320516 0.000000 0.376946
#
# Coordination Sequence:
#
# PCOD8101168 Si02
#       7
#     8   8   8   8   8   8   8
#     4  11  22  37  58  86 117 145 180 231 287 337
#     4   9  21  39  58  80 109 147 190 233 274 328
#     4  11  21  33  53  83 116 148 185 233 286 332
#     4  10  20  36  57  81 111 149 192 232 276 334
#     4   9  19  34  54  79 108 145 189 233 278 334
#     4   9  19  40  62  79 106 148 194 231 271 329
#     4  11  22  39  62  87 115 149 188 229 279 334
#
# _framework density 19.899443999999999
#
# number of rings (size 3 to 8) (size 9 to 14) (size 15 to 20)
#    0.000    2.000    0.000    4.714    0.000    6.857 
#    0.000    7.857    0.000    0.000    0.000    0.000 
#    0.000    0.000    0.000    0.000    0.000    0.000 
#
# Total GULP energy -347298.727703 kJ/mol
# GULP energy per Si atom -12403.525989 kJ/mol
# Density = 1.985415 g / cm^3
# Si number density = 19.899444 Si / 1000 Ang^3
#
#
#
# Elastic Constant Matrix: (Units=GPa)
#
#
# Indices 1 2 3 4 5 6 
#
# 1 145.6757 34.1409 56.3556 0.0037 0.6141 -0.0007
# 2 34.1409 55.8217 28.1300 -0.0045 0.9904 0.0080
# 3 56.3556 28.1300 112.7351 -0.0021 -16.5893 -0.0003
# 4 0.0037 -0.0045 -0.0021 25.2971 0.0042 0.6646
# 5 0.6141 0.9904 -16.5893 0.0042 19.9683 -0.0039
# 6 -0.0007 0.0080 -0.0003 0.6646 -0.0039 33.6631
#
#
#
# Elastic Compliance Matrix: (Units=1/GPa)
#
#
# Indices 1 2 3 4 5 6 
#
# 1 0.009388 -0.003468 -0.004380 -0.000002 -0.003756 0.000001
# 2 -0.003468 0.022422 -0.004568 0.000005 -0.004800 -0.000006
# 3 -0.004380 -0.004568 0.013959 -0.000001 0.011959 0.000003
# 4 -0.000002 0.000005 -0.000001 0.039551 -0.000010 -0.000781
# 5 -0.003756 -0.004800 0.011959 -0.000010 0.060368 0.000008
# 6 0.000001 -0.000006 0.000003 -0.000781 0.000008 0.029722
#
#
# Mechanical properties :
#
#
# Convention : Reuss Voigt Hill
#
# Bulk Modulus (GPa) = 47.76019 61.27618 54.51818
# Shear Modulus (GPa) = 24.12900 28.82611 26.47755
#
# Velocity S-wave (km/s) = 3.48594 3.81016 3.65165
# Velocity P-wave (km/s) = 6.34470 7.08634 6.72575
#
# Compressibility (1/GPa) = 0.02093794
#
# Stress axis : x y z
#
# Youngs Moduli (GPa) = 106.52378 44.59922 71.63584
#
# Poissons Ratio (x) = 0.15465 0.31378
# Poissons Ratio (y) = 0.36938 0.32721
# Poissons Ratio (z) = 0.46660 0.20372
#
# Static dielectric constant tensor:
#      x y z
#    x 3.781410 -0.000030 -0.056190 
#    y -0.000030 3.443290 0.000030 
#    z -0.056190 0.000030 3.675350 
# 
# 
# High freq. dielectric constant tensor:
#      x y z
#    x 1.785010 0.000000 -0.001520 
#    y 0.000000 1.762970 0.000000 
#    z -0.001520 0.000000 1.776190 
# 
# From -- ./inp_files/292423.got.cif
#   From: 2010.06.25/outbox.cif.g09.slc.cpg/sg12_147_cif.got.tgz:292423.got - 2010.06.28 00:19:55.
