data_PCOD8101117
_publ_section_title
;
Structure prediction by ZEFSAII (Michael W. Deem and Ramdas Pophale) SiO2 
 PCOD8101117
Probable space group: C 2/M
;
_chemical_formula_sum "Si O2"
_cell_formula_units_Z 48
_cell_length_a 30.797020
_cell_length_b 8.906497
_cell_length_c 9.314955
_cell_angle_alpha 90.000000
_cell_angle_beta 90.896628
_cell_angle_gamma 90.000000
_cell_volume 2554.719376
_symmetry_space_group_name_H-M "C 2/M"
_symmetry_group_IT_number 12
_symmetry_cell_setting 'monoclinic'
loop_
_space_group_symop_operation_xyz
x,y,z
-x,y,-z
-x,-y,-z
x,-y,z
1/2+x,1/2+y,z
1/2-x,1/2+y,-z
1/2-x,1/2-y,-z
1/2+x,1/2-y,z
loop_
_atom_site_type_symbol
_atom_site_label
_atom_site_fract_x
_atom_site_fract_y
_atom_site_fract_z
Si Si1 0.002847 0.678713 0.338417
Si Si2 0.326451 0.323821 0.846395
Si Si3 0.669705 0.676874 0.825509
Si Si4 0.419298 0.175338 0.161155
Si Si5 0.584994 0.174580 0.170511
Si Si6 0.245348 0.321754 0.654264
O O1 0.004051 0.500000 0.334812
O O2 0.046585 0.741909 0.267039
O O3 0.000000 0.740621 0.500000
O O4 0.961099 0.735165 0.248554
O O5 0.332256 0.500000 0.835318
O O6 0.369935 0.251942 0.783800
O O7 0.285557 0.266318 0.753463
O O8 0.319268 0.274724 0.010856
O O9 0.674704 0.500000 0.801472
O O10 0.621151 0.728179 0.784319
O O11 0.701278 0.764823 0.722150
O O12 0.410092 0.000000 0.189582
O O13 0.427789 0.206428 0.994341
O O14 0.591222 0.000000 0.200450
O O15 0.244162 0.500000 0.641156
O O16 0.250000 0.250000 0.500000
#
# Coordination Sequence:
#
# PCOD8101117 Si02
#       6
#     8   8   8   8   8   8
#     4   9  17  29  47  73 102 132 170 214 256 301
#     4   9  20  37  56  78 105 136 172 217 264 311
#     4  10  20  36  57  80 105 135 174 218 263 310
#     4   9  17  31  51  74 101 133 170 212 258 306
#     4   9  17  30  51  76 100 131 171 213 257 306
#     4  11  23  38  55  78 108 141 175 212 259 312
#
# _framework density 18.788755999999999
#
# number of rings (size 3 to 8) (size 9 to 14) (size 15 to 20)
#    0.000    2.500    0.000    2.000    0.000    5.333 
#    0.000    2.500    0.000    5.000    0.000    0.000 
#    0.000    0.000    0.000    0.000    0.000    0.000 
#
# Total GULP energy -297657.402887 kJ/mol
# GULP energy per Si atom -12402.391787 kJ/mol
# Density = 1.874599 g / cm^3
# Si number density = 18.788756 Si / 1000 Ang^3
#
#
#
# Elastic Constant Matrix: (Units=GPa)
#
#
# Indices 1 2 3 4 5 6 
#
# 1 141.2710 33.3263 73.2416 0.0000 -26.7372 0.0000
# 2 33.3263 38.1028 28.8446 0.0000 -7.5823 0.0000
# 3 73.2416 28.8446 102.1016 0.0000 -22.5698 0.0000
# 4 0.0000 0.0000 0.0000 22.5883 0.0000 -1.6488
# 5 -26.7372 -7.5823 -22.5698 0.0000 20.7266 0.0000
# 6 0.0000 0.0000 0.0000 -1.6488 0.0000 31.9006
#
#
#
# Elastic Compliance Matrix: (Units=1/GPa)
#
#
# Indices 1 2 3 4 5 6 
#
# 1 0.012990 -0.005145 -0.006028 0.000000 0.008312 0.000000
# 2 -0.005145 0.035526 -0.006506 0.000000 -0.000725 0.000000
# 3 -0.006028 -0.006506 0.018058 0.000000 0.009508 0.000000
# 4 0.000000 0.000000 0.000000 0.044438 0.000000 0.002297
# 5 0.008312 -0.000725 0.009508 0.000000 0.069057 0.000000
# 6 0.000000 0.000000 0.000000 0.002297 0.000000 0.031466
#
#
# Mechanical properties :
#
#
# Convention : Reuss Voigt Hill
#
# Bulk Modulus (GPa) = 32.03423 61.36672 46.70048
# Shear Modulus (GPa) = 19.43268 24.78061 22.10664
#
# Velocity S-wave (km/s) = 3.21950 3.63561 3.43387
# Velocity P-wave (km/s) = 5.55940 7.09619 6.37428
#
# Compressibility (1/GPa) = 0.03121661
#
# Stress axis : x y z
#
# Youngs Moduli (GPa) = 76.97952 28.14879 55.37740
#
# Poissons Ratio (x) = 0.14482 0.33380
# Poissons Ratio (y) = 0.39605 0.36028
# Poissons Ratio (z) = 0.46402 0.18314
#
# Static dielectric constant tensor:
#      x y z
#    x 3.638980 0.000000 0.021820 
#    y 0.000000 3.224650 0.000000 
#    z 0.021820 0.000000 3.663840 
# 
# 
# High freq. dielectric constant tensor:
#      x y z
#    x 1.744090 0.000000 -0.002290 
#    y 0.000000 1.707830 0.000000 
#    z -0.002290 0.000000 1.727330 
# 
# From -- ./inp_files/108674.got.cif
#   From: 2010.06.25/outbox.cif.g09.slc.cpg/sg12_55_cif.got.tgz:108674.got - 2010.06.28 00:19:55.
