data_PCOD8101938
_publ_section_title
;
Structure prediction by ZEFSAII (Michael W. Deem and Ramdas Pophale) SiO2 
 PCOD8101938
Probable space group: C 2/M
;
_chemical_formula_sum "Si O2"
_cell_formula_units_Z 60
_cell_length_a 14.534950
_cell_length_b 14.394599
_cell_length_c 14.630719
_cell_angle_alpha 90.000000
_cell_angle_beta 84.514003
_cell_angle_gamma 90.000000
_cell_volume 3047.087792
_symmetry_space_group_name_H-M "C 2/M"
_symmetry_group_IT_number 12
_symmetry_cell_setting 'monoclinic'
loop_
_space_group_symop_operation_xyz
x,y,z
-x,y,-z
-x,-y,-z
x,-y,z
1/2+x,1/2+y,z
1/2-x,1/2+y,-z
1/2-x,1/2-y,-z
1/2+x,1/2-y,z
loop_
_atom_site_type_symbol
_atom_site_label
_atom_site_fract_x
_atom_site_fract_y
_atom_site_fract_z
Si Si1 0.964056 0.785247 0.811078
Si Si2 0.143136 0.399072 0.186368
Si Si3 0.908245 0.606677 0.466897
Si Si4 0.857338 0.731671 0.307477
Si Si5 0.755811 0.396240 0.634256
Si Si6 0.219814 0.893977 0.201557
Si Si7 0.000000 0.739104 0.000000
Si Si8 0.195549 0.656102 0.990695
O O1 0.935270 0.677717 0.808289
O O2 0.885596 0.855124 0.780407
O O3 0.060485 0.788285 0.749356
O O4 0.981717 0.807362 0.916057
O O5 0.095128 0.500000 0.200636
O O6 0.208168 0.382115 0.266533
O O7 0.202071 0.397730 0.086702
O O8 0.925195 0.500000 0.441144
O O9 0.890529 0.653439 0.372449
O O10 0.830419 0.620251 0.549396
O O11 0.000000 0.652236 0.500000
O O12 0.815617 0.813571 0.373726
O O13 0.785695 0.679741 0.246745
O O14 0.712968 0.500000 0.627816
O O15 0.253708 0.901024 0.093751
O O16 0.222021 0.000000 0.241420
O O17 0.911242 0.673489 0.026968
O O18 0.250000 0.750000 0.000000
#
# Coordination Sequence:
#
# PCOD8101938 Si02
#       8
#     8   8   8   8   8   8   4   8
#     4  11  23  39  60  89 127 167 208 261 307 367
#     4  10  20  36  60  87 116 155 206 257 308 357
#     4  10  22  40  65  97 123 151 201 262 314 373
#     4  12  23  41  67  92 125 170 207 250 318 378
#     4  10  21  39  63  90 120 157 204 254 305 368
#     4  12  25  41  62  93 131 169 210 261 314 375
#     4  10  20  36  60  84 118 168 208 254 304 360
#     4  11  19  38  60  84 124 164 209 257 311 365
#
# _framework density 19.690932
#
# number of rings (size 3 to 8) (size 9 to 14) (size 15 to 20)
#    0.000    1.200    5.333    2.000    0.000    2.667 
#    0.000    2.000    0.000    0.400    0.000    0.000 
#    0.000    0.000    0.000    0.000    0.000    0.000 
#
# Total GULP energy -371818.567230 kJ/mol
# GULP energy per Si atom -12393.952241 kJ/mol
# Density = 1.964611 g / cm^3
# Si number density = 19.690932 Si / 1000 Ang^3
#
#
#
# Elastic Constant Matrix: (Units=GPa)
#
#
# Indices 1 2 3 4 5 6 
#
# 1 94.7088 33.7829 17.9394 0.0000 -2.4493 0.0000
# 2 33.7829 81.3252 7.8059 0.0000 -8.4113 0.0000
# 3 17.9394 7.8059 75.0536 0.0000 2.0316 0.0000
# 4 0.0000 0.0000 0.0000 27.3779 0.0000 -0.6817
# 5 -2.4493 -8.4113 2.0316 0.0000 22.6019 0.0000
# 6 0.0000 0.0000 0.0000 -0.6817 0.0000 25.3176
#
#
#
# Elastic Compliance Matrix: (Units=1/GPa)
#
#
# Indices 1 2 3 4 5 6 
#
# 1 0.012860 -0.005129 -0.002533 0.000000 -0.000287 0.000000
# 2 -0.005129 0.014996 -0.000471 0.000000 0.005067 0.000000
# 3 -0.002533 -0.000471 0.014024 0.000000 -0.001710 0.000000
# 4 0.000000 0.000000 0.000000 0.036550 0.000000 0.000984
# 5 -0.000287 0.005067 -0.001710 0.000000 0.046253 0.000000
# 6 0.000000 0.000000 0.000000 0.000984 0.000000 0.039525
#
#
# Mechanical properties :
#
#
# Convention : Reuss Voigt Hill
#
# Bulk Modulus (GPa) = 39.03809 41.12713 40.08261
# Shear Modulus (GPa) = 26.45326 27.83009 27.14167
#
# Velocity S-wave (km/s) = 3.66925 3.76353 3.71669
# Velocity P-wave (km/s) = 6.14977 6.31009 6.23044
#
# Compressibility (1/GPa) = 0.02561601
#
# Stress axis : x y z
#
# Youngs Moduli (GPa) = 77.75752 66.68353 71.30396
#
# Poissons Ratio (x) = 0.34202 0.18059
# Poissons Ratio (y) = 0.39881 0.03358
# Poissons Ratio (z) = 0.19694 0.03140
#
# Static dielectric constant tensor:
#      x y z
#    x 3.669610 0.000000 -0.028670 
#    y 0.000000 3.642650 0.000000 
#    z -0.028670 0.000000 3.858870 
# 
# 
# High freq. dielectric constant tensor:
#      x y z
#    x 1.760260 0.000000 -0.004320 
#    y 0.000000 1.760410 0.000000 
#    z -0.004320 0.000000 1.775400 
# 
# From -- ./inp_files/214840.got.cif
#   From: 2010.06.25/outbox.cif.g09.slc.cpg/sg12_108_cif.got.tgz:214840.got - 2010.06.28 00:19:55.
