data_PCOD8101900
_publ_section_title
;
Structure prediction by ZEFSAII (Michael W. Deem and Ramdas Pophale) SiO2 
 PCOD8101900
Probable space group: C 2/M
;
_chemical_formula_sum "Si O2"
_cell_formula_units_Z 48
_cell_length_a 9.391553
_cell_length_b 22.639578
_cell_length_c 11.067542
_cell_angle_alpha 90.000000
_cell_angle_beta 110.555536
_cell_angle_gamma 90.000000
_cell_volume 2203.367424
_symmetry_space_group_name_H-M "C 2/M"
_symmetry_group_IT_number 12
_symmetry_cell_setting 'monoclinic'
loop_
_space_group_symop_operation_xyz
x,y,z
-x,y,-z
-x,-y,-z
x,-y,z
1/2+x,1/2+y,z
1/2-x,1/2+y,-z
1/2-x,1/2-y,-z
1/2+x,1/2-y,z
loop_
_atom_site_type_symbol
_atom_site_label
_atom_site_fract_x
_atom_site_fract_y
_atom_site_fract_z
Si Si1 0.725986 0.931813 0.724052
Si Si2 0.370438 0.272615 0.132515
Si Si3 0.040614 0.898828 0.882742
Si Si4 0.330610 0.779174 0.704164
Si Si5 0.165841 0.673210 0.541399
Si Si6 0.141710 0.568148 0.969062
O O1 0.652431 0.891627 0.597330
O O2 0.670441 0.907500 0.840263
O O3 0.908375 0.924222 0.757494
O O4 0.679470 0.000000 0.690087
O O5 0.464892 0.327894 0.110728
O O6 0.492048 0.221453 0.201602
O O7 0.278576 0.296331 0.219793
O O8 0.250000 0.250000 0.000000
O O9 0.210630 0.921066 0.902030
O O10 0.000000 0.926395 0.000000
O O11 0.290953 0.713240 0.644871
O O12 0.298919 0.828600 0.591902
O O13 0.000000 0.704226 0.500000
O O14 0.105618 0.500000 0.943181
O O15 0.000000 0.598147 0.000000
#
# Coordination Sequence:
#
# PCOD8101900 Si02
#       6
#     8   8   8   8   8   8
#     4  10  21  39  66  93 122 169 227 270 313 379
#     4  12  24  39  65  97 128 160 205 268 327 385
#     4  10  20  36  59  89 132 166 208 259 323 387
#     4  11  24  43  63  94 126 172 211 257 321 387
#     4  11  23  41  67  86 127 173 220 258 308 387
#     4   9  19  35  59  92 131 169 207 263 330 381
#
# _framework density 21.784835999999999
#
# number of rings (size 3 to 8) (size 9 to 14) (size 15 to 20)
#    0.000    1.500    3.333    2.000    2.333    5.000 
#    0.000    0.000    0.000    3.000    0.000    0.000 
#    0.000    0.000    0.000    0.000    0.000    0.000 
#
# Total GULP energy -297460.215716 kJ/mol
# GULP energy per Si atom -12394.175655 kJ/mol
# Density = 2.173525 g / cm^3
# Si number density = 21.784836 Si / 1000 Ang^3
#
#
#
# Elastic Constant Matrix: (Units=GPa)
#
#
# Indices 1 2 3 4 5 6 
#
# 1 137.3205 11.1518 50.4722 0.0000 -0.3340 0.0000
# 2 11.1518 72.9194 33.7892 0.0000 -4.1476 0.0000
# 3 50.4722 33.7892 102.9478 0.0000 -0.3867 0.0000
# 4 0.0000 0.0000 0.0000 36.5883 0.0000 1.2645
# 5 -0.3340 -4.1476 -0.3867 0.0000 40.5427 0.0000
# 6 0.0000 0.0000 0.0000 1.2645 0.0000 26.6838
#
#
#
# Elastic Compliance Matrix: (Units=1/GPa)
#
#
# Indices 1 2 3 4 5 6 
#
# 1 0.008921 0.000788 -0.004632 0.000000 0.000110 0.000000
# 2 0.000788 0.016348 -0.005746 0.000000 0.001624 0.000000
# 3 -0.004632 -0.005746 0.013869 0.000000 -0.000494 0.000000
# 4 0.000000 0.000000 0.000000 0.027376 0.000000 -0.001297
# 5 0.000110 0.001624 -0.000494 0.000000 0.024828 0.000000
# 6 0.000000 0.000000 0.000000 -0.001297 0.000000 0.037537
#
#
# Mechanical properties :
#
#
# Convention : Reuss Voigt Hill
#
# Bulk Modulus (GPa) = 50.10464 56.00156 53.05310
# Shear Modulus (GPa) = 32.31823 35.28126 33.79975
#
# Velocity S-wave (km/s) = 3.85583 4.02871 3.94322
# Velocity P-wave (km/s) = 6.54774 6.88499 6.71848
#
# Compressibility (1/GPa) = 0.01995823
#
# Stress axis : x y z
#
# Youngs Moduli (GPa) = 112.09537 61.16874 72.10469
#
# Poissons Ratio (x) = -0.04822 0.33399
# Poissons Ratio (y) = -0.08837 0.41432
# Poissons Ratio (z) = 0.51923 0.35148
#
# Static dielectric constant tensor:
#      x y z
#    x 4.298240 0.000000 -0.034750 
#    y 0.000000 3.555410 0.000000 
#    z -0.034750 0.000000 4.047770 
# 
# 
# High freq. dielectric constant tensor:
#      x y z
#    x 1.867110 0.000000 0.010730 
#    y 0.000000 1.828260 0.000000 
#    z 0.010730 0.000000 1.846060 
# 
# From -- ./inp_files/122422.got.cif
#   From: 2010.06.25/outbox.cif.g09.slc.cpg/sg12_62_cif.got.tgz:122422.got - 2010.06.28 00:19:55.
