data_PCOD8101863
_publ_section_title
;
Structure prediction by ZEFSAII (Michael W. Deem and Ramdas Pophale) SiO2 
 PCOD8101863
Probable space group: C 2/M
;
_chemical_formula_sum "Si O2"
_cell_formula_units_Z 44
_cell_length_a 28.255138
_cell_length_b 9.810154
_cell_length_c 14.460276
_cell_angle_alpha 90.000000
_cell_angle_beta 31.293090
_cell_angle_gamma 90.000000
_cell_volume 2081.925633
_symmetry_space_group_name_H-M "C 2/M"
_symmetry_group_IT_number 12
_symmetry_cell_setting 'monoclinic'
loop_
_space_group_symop_operation_xyz
x,y,z
-x,y,-z
-x,-y,-z
x,-y,z
1/2+x,1/2+y,z
1/2-x,1/2+y,-z
1/2-x,1/2-y,-z
1/2+x,1/2-y,z
loop_
_atom_site_type_symbol
_atom_site_label
_atom_site_fract_x
_atom_site_fract_y
_atom_site_fract_z
Si Si1 0.000000 0.778365 0.500000
Si Si2 0.838017 0.156262 0.248385
Si Si3 0.872869 0.655836 0.352375
Si Si4 0.669937 0.845163 0.911248
Si Si5 0.298890 0.351162 0.849555
Si Si6 0.007743 0.346413 0.683016
O O1 0.908407 0.861731 0.674822
O O2 0.025505 0.694338 0.548235
O O3 0.893441 0.242672 0.232438
O O4 0.732715 0.155721 0.448571
O O5 0.851779 0.233200 0.128868
O O6 0.874602 0.000000 0.181389
O O7 0.904592 0.500000 0.275387
O O8 0.927469 0.723284 0.347670
O O9 0.768106 0.817325 0.795263
O O10 0.665099 0.000000 0.878196
O O11 0.597306 0.825169 0.115046
O O12 0.260453 0.500000 0.939747
O O13 0.250000 0.250000 0.000000
O O14 0.039858 0.500000 0.634440
#
# Coordination Sequence:
#
# PCOD8101863 Si02
#       6
#     4   8   8   8   8   8
#     4  12  22  40  66  96 129 164 213 272 321 362
#     4  10  20  36  59  88 117 154 199 254 317 368
#     4   9  19  37  59  85 116 155 205 252 303 374
#     4  10  21  39  59  86 122 162 204 251 308 374
#     4  11  24  42  63  92 128 167 211 259 315 376
#     4  10  21  37  61  90 120 163 214 256 308 377
#
# _framework density 21.134281000000001
#
# number of rings (size 3 to 8) (size 9 to 14) (size 15 to 20)
#    0.000    1.818    1.818    2.182    0.000    2.909 
#    0.000    6.364    0.000    0.000    0.000    0.000 
#    0.000    0.000    0.000    0.000    0.000    0.000 
#
# Total GULP energy -272628.611838 kJ/mol
# GULP energy per Si atom -12392.209629 kJ/mol
# Density = 2.108618 g / cm^3
# Si number density = 21.134281 Si / 1000 Ang^3
#
#
#
# Elastic Constant Matrix: (Units=GPa)
#
#
# Indices 1 2 3 4 5 6 
#
# 1 173.3838 79.3745 36.9325 0.0000 -0.6628 0.0000
# 2 79.3745 126.5163 34.9796 0.0000 17.6854 0.0000
# 3 36.9325 34.9796 48.5985 0.0000 -0.6690 0.0000
# 4 0.0000 0.0000 0.0000 20.2275 0.0000 4.2730
# 5 -0.6628 17.6854 -0.6690 0.0000 36.2854 0.0000
# 6 0.0000 0.0000 0.0000 4.2730 0.0000 34.1406
#
#
#
# Elastic Compliance Matrix: (Units=1/GPa)
#
#
# Indices 1 2 3 4 5 6 
#
# 1 0.008695 -0.004983 -0.002986 0.000000 0.002533 0.000000
# 2 -0.004983 0.013697 -0.006167 0.000000 -0.006881 0.000000
# 3 -0.002986 -0.006167 0.027332 0.000000 0.003455 0.000000
# 4 0.000000 0.000000 0.000000 0.050780 0.000000 -0.006356
# 5 0.002533 -0.006881 0.003455 0.000000 0.031023 0.000000
# 6 0.000000 0.000000 0.000000 -0.006356 0.000000 0.030086
#
#
# Mechanical properties :
#
#
# Convention : Reuss Voigt Hill
#
# Bulk Modulus (GPa) = 46.61461 72.34133 59.47797
# Shear Modulus (GPa) = 25.37618 31.27818 28.32718
#
# Velocity S-wave (km/s) = 3.46889 3.85122 3.66504
# Velocity P-wave (km/s) = 6.17645 7.35388 6.79073
#
# Compressibility (1/GPa) = 0.02145250
#
# Stress axis : x y z
#
# Youngs Moduli (GPa) = 115.01376 73.00645 36.58746
#
# Poissons Ratio (x) = 0.36382 0.10924
# Poissons Ratio (y) = 0.57316 0.22562
# Poissons Ratio (z) = 0.34340 0.45019
#
# Static dielectric constant tensor:
#      x y z
#    x 4.053590 0.000000 -0.189880 
#    y 0.000000 3.845650 0.000000 
#    z -0.189880 0.000000 3.649760 
# 
# 
# High freq. dielectric constant tensor:
#      x y z
#    x 1.844400 0.000000 -0.013310 
#    y 0.000000 1.816160 0.000000 
#    z -0.013310 0.000000 1.816930 
# 
# From -- ./inp_files/295004.got.cif
#   From: 2010.06.25/outbox.cif.g09.slc.cpg/sg12_148_cif.got.tgz:295004.got - 2010.06.28 00:19:55.
