data_PCOD8101422
_publ_section_title
;
Structure prediction by ZEFSAII (Michael W. Deem and Ramdas Pophale) SiO2 
 PCOD8101422
Probable space group: C 2/M
;
_chemical_formula_sum "Si O2"
_cell_formula_units_Z 56
_cell_length_a 20.936705
_cell_length_b 9.016081
_cell_length_c 31.192626
_cell_angle_alpha 90.000000
_cell_angle_beta 28.577012
_cell_angle_gamma 90.000000
_cell_volume 2816.529957
_symmetry_space_group_name_H-M "C 2/M"
_symmetry_group_IT_number 12
_symmetry_cell_setting 'monoclinic'
loop_
_space_group_symop_operation_xyz
x,y,z
-x,y,-z
-x,-y,-z
x,-y,z
1/2+x,1/2+y,z
1/2-x,1/2+y,-z
1/2-x,1/2-y,-z
1/2+x,1/2-y,z
loop_
_atom_site_type_symbol
_atom_site_label
_atom_site_fract_x
_atom_site_fract_y
_atom_site_fract_z
Si Si1 0.863331 0.671774 0.055911
Si Si2 0.258013 0.831927 0.799522
Si Si3 0.869021 0.673223 0.954923
Si Si4 0.832892 0.325964 0.228523
Si Si5 0.762895 0.829129 0.561416
Si Si6 0.066946 0.665521 0.604257
Si Si7 0.845642 0.324493 0.595700
O O1 0.823453 0.500000 0.081110
O O2 0.752851 0.767655 0.146074
O O3 0.870540 0.729934 0.003063
O O4 0.000000 0.703146 0.000000
O O5 0.177144 0.728464 0.814466
O O6 0.410599 0.826263 0.696730
O O7 0.203391 0.000000 0.829685
O O8 0.840575 0.500000 0.970673
O O9 0.013539 0.707273 0.847913
O O10 0.750000 0.750000 0.000000
O O11 0.802565 0.500000 0.248337
O O12 0.723712 0.241756 0.321366
O O13 0.885506 0.783363 0.458775
O O14 0.625873 0.797763 0.616568
O O15 0.760948 0.731017 0.605160
O O16 0.779091 0.000000 0.565191
O O17 0.115456 0.500000 0.562152
O O18 0.837874 0.500000 0.603860
O O19 0.000000 0.272076 0.500000
#
# Coordination Sequence:
#
# PCOD8101422 Si02
#       7
#     8   8   8   8   8   8   8
#     4  10  20  40  63  84 117 155 194 241 296 350
#     4  11  22  36  59  90 119 150 194 244 296 351
#     4  10  23  42  64  90 123 162 200 251 307 361
#     4  11  23  41  62  86 119 158 201 248 298 357
#     4  10  20  36  58  82 112 152 197 240 289 351
#     4   9  20  37  55  81 118 152 187 240 297 347
#     4  11  24  40  58  84 120 157 196 246 300 353
#
# _framework density 19.882622000000001
#
# number of rings (size 3 to 8) (size 9 to 14) (size 15 to 20)
#    0.000    1.714    1.429    2.571    0.000    9.429 
#    0.000    4.286    0.000    0.000    0.000    0.000 
#    0.000    0.000    0.000    0.000    0.000    0.000 
#
# Total GULP energy -347235.997411 kJ/mol
# GULP energy per Si atom -12401.285622 kJ/mol
# Density = 1.983737 g / cm^3
# Si number density = 19.882622 Si / 1000 Ang^3
#
#
#
# Elastic Constant Matrix: (Units=GPa)
#
#
# Indices 1 2 3 4 5 6 
#
# 1 107.7468 40.9039 44.2752 -0.0093 8.2066 -0.2074
# 2 40.9039 78.2442 44.8575 0.0069 0.8788 -0.0847
# 3 44.2752 44.8575 88.4452 -0.0192 3.8702 -0.0205
# 4 -0.0093 0.0069 -0.0192 31.1895 0.0013 -1.0698
# 5 8.2066 0.8788 3.8702 0.0013 27.5300 0.0086
# 6 -0.2074 -0.0847 -0.0205 -1.0698 0.0086 28.5565
#
#
#
# Elastic Compliance Matrix: (Units=1/GPa)
#
#
# Indices 1 2 3 4 5 6 
#
# 1 0.012847 -0.004332 -0.004098 0.000005 -0.003115 0.000079
# 2 -0.004332 0.019495 -0.007796 -0.000010 0.001765 0.000020
# 3 -0.004098 -0.007796 0.017354 0.000010 -0.000969 -0.000040
# 4 0.000005 -0.000010 0.000010 0.032103 -0.000005 0.001203
# 5 -0.003115 0.001765 -0.000969 -0.000005 0.037333 -0.000029
# 6 0.000079 0.000020 -0.000040 0.001203 -0.000029 0.035064
#
#
# Mechanical properties :
#
#
# Convention : Reuss Voigt Hill
#
# Bulk Modulus (GPa) = 57.98919 59.38994 58.68957
# Shear Modulus (GPa) = 25.98825 27.08184 26.53504
#
# Velocity S-wave (km/s) = 3.61928 3.69465 3.65716
# Velocity P-wave (km/s) = 6.83335 6.93799 6.88587
#
# Compressibility (1/GPa) = 0.01724459
#
# Stress axis : x y z
#
# Youngs Moduli (GPa) = 77.84101 51.29604 57.62287
#
# Poissons Ratio (x) = 0.22219 0.23613
# Poissons Ratio (y) = 0.33717 0.44924
# Poissons Ratio (z) = 0.31898 0.39991
#
# Static dielectric constant tensor:
#      x y z
#    x 3.704810 -0.000060 0.074770 
#    y -0.000060 3.705450 0.000000 
#    z 0.074770 0.000000 3.630910 
# 
# 
# High freq. dielectric constant tensor:
#      x y z
#    x 1.777450 0.000000 0.002170 
#    y 0.000000 1.779480 0.000000 
#    z 0.002170 0.000000 1.775360 
# 
# From -- ./inp_files/380603.got.cif
#   From: 2010.06.25/outbox.cif.g09.slc.cpg/sg12_191_cif.got.tgz:380603.got - 2010.06.28 00:19:55.
