data_PCOD8101816
_publ_section_title
;
Structure prediction by ZEFSAII (Michael W. Deem and Ramdas Pophale) SiO2 
 PCOD8101816
Probable space group: C 2/M
;
_chemical_formula_sum "Si O2"
_cell_formula_units_Z 32
_cell_length_a 9.391996
_cell_length_b 17.550138
_cell_length_c 12.088565
_cell_angle_alpha 90.000000
_cell_angle_beta 56.753256
_cell_angle_gamma 90.000000
_cell_volume 1666.419243
_symmetry_space_group_name_H-M "C 2/M"
_symmetry_group_IT_number 12
_symmetry_cell_setting 'monoclinic'
loop_
_space_group_symop_operation_xyz
x,y,z
-x,y,-z
-x,-y,-z
x,-y,z
1/2+x,1/2+y,z
1/2-x,1/2+y,-z
1/2-x,1/2-y,-z
1/2+x,1/2-y,z
loop_
_atom_site_type_symbol
_atom_site_label
_atom_site_fract_x
_atom_site_fract_y
_atom_site_fract_z
Si Si1 0.494316 0.587558 0.158697
Si Si2 0.573711 0.173340 0.860518
Si Si3 0.771410 0.828145 0.109651
Si Si4 0.103017 0.088257 0.352607
O O1 0.540602 0.500000 0.112555
O O2 0.306949 0.607936 0.189253
O O3 0.491761 0.602618 0.290330
O O4 0.632183 0.643648 0.042792
O O5 0.425511 0.185923 0.832864
O O6 0.649728 0.250541 0.878020
O O7 0.714207 0.126701 0.735206
O O8 0.500000 0.127887 0.000000
O O9 0.000000 0.123671 0.500000
O O10 0.138299 0.000000 0.359007
#
# Coordination Sequence:
#
# PCOD8101816 Si02
#       4
#     8   8   8   8
#     4  10  20  36  59  86 120 155 190 238 297 343
#     4  12  21  36  62  87 119 152 195 244 288 341
#     4  11  21  35  59  91 121 148 192 248 293 337
#     4  10  23  42  60  84 121 158 192 237 294 351
#
# _framework density 19.202850000000002
#
# number of rings (size 3 to 8) (size 9 to 14) (size 15 to 20)
#    0.000    1.250    5.000    3.750    0.000    2.500 
#    0.000    6.250    0.000    4.500    0.000    0.000 
#    0.000    0.000    0.000    0.000    0.000    0.000 
#
# Total GULP energy -198274.906576 kJ/mol
# GULP energy per Si atom -12392.181661 kJ/mol
# Density = 1.915914 g / cm^3
# Si number density = 19.202850 Si / 1000 Ang^3
#
#
#
# Elastic Constant Matrix: (Units=GPa)
#
#
# Indices 1 2 3 4 5 6 
#
# 1 177.5130 48.8169 74.3209 0.0000 0.4077 0.0000
# 2 48.8169 71.8328 56.1914 0.0000 -2.0773 0.0000
# 3 74.3209 56.1914 147.8276 0.0000 2.1535 0.0000
# 4 0.0000 0.0000 0.0000 12.1718 0.0000 -7.3282
# 5 0.4077 -2.0773 2.1535 0.0000 28.2552 0.0000
# 6 0.0000 0.0000 0.0000 -7.3282 0.0000 27.5735
#
#
#
# Elastic Compliance Matrix: (Units=1/GPa)
#
#
# Indices 1 2 3 4 5 6 
#
# 1 0.007590 -0.003100 -0.002635 0.000000 -0.000137 0.000000
# 2 -0.003100 0.021196 -0.006529 0.000000 0.002101 0.000000
# 3 -0.002635 -0.006529 0.010589 0.000000 -0.001249 0.000000
# 4 0.000000 0.000000 0.000000 0.097808 0.000000 0.025994
# 5 -0.000137 0.002101 -0.001249 0.000000 0.035643 0.000000
# 6 0.000000 0.000000 0.000000 0.025994 0.000000 0.043175
#
#
# Mechanical properties :
#
#
# Convention : Reuss Voigt Hill
#
# Bulk Modulus (GPa) = 67.35685 83.98133 75.66909
# Shear Modulus (GPa) = 20.36835 28.12305 24.24570
#
# Velocity S-wave (km/s) = 3.26036 3.83106 3.55718
# Velocity P-wave (km/s) = 7.02324 7.96229 7.50746
#
# Compressibility (1/GPa) = 0.01484630
#
# Stress axis : x y z
#
# Youngs Moduli (GPa) = 131.75854 47.17840 94.43398
#
# Poissons Ratio (x) = 0.14627 0.24886
# Poissons Ratio (y) = 0.40850 0.61654
# Poissons Ratio (z) = 0.34721 0.30802
#
# Static dielectric constant tensor:
#      x y z
#    x 3.885190 0.000000 0.208240 
#    y 0.000000 3.627780 0.000000 
#    z 0.208240 0.000000 3.532500 
# 
# 
# High freq. dielectric constant tensor:
#      x y z
#    x 1.762240 0.000000 0.019700 
#    y 0.000000 1.748430 0.000000 
#    z 0.019700 0.000000 1.713220 
# 
# From -- ./inp_files/46734.got.cif
#   From: 2010.06.25/outbox.cif.g09.slc.cpg/sg12_24_cif.got.tgz:46734.got - 2010.06.28 00:19:55.
