data_PCOD8101505
_publ_section_title
;
Structure prediction by ZEFSAII (Michael W. Deem and Ramdas Pophale) SiO2 
 PCOD8101505
Probable space group: C 2/M
;
_chemical_formula_sum "Si O2"
_cell_formula_units_Z 56
_cell_length_a 19.181662
_cell_length_b 8.408874
_cell_length_c 27.165688
_cell_angle_alpha 90.000000
_cell_angle_beta 41.096928
_cell_angle_gamma 90.000000
_cell_volume 2880.258320
_symmetry_space_group_name_H-M "C 2/M"
_symmetry_group_IT_number 12
_symmetry_cell_setting 'monoclinic'
loop_
_space_group_symop_operation_xyz
x,y,z
-x,y,-z
-x,-y,-z
x,-y,z
1/2+x,1/2+y,z
1/2-x,1/2+y,-z
1/2-x,1/2-y,-z
1/2+x,1/2-y,z
loop_
_atom_site_type_symbol
_atom_site_label
_atom_site_fract_x
_atom_site_fract_y
_atom_site_fract_z
Si Si1 0.302865 0.319702 0.821162
Si Si2 0.264860 0.814579 0.736366
Si Si3 0.980210 0.686930 0.567870
Si Si4 0.677949 0.688003 0.081699
Si Si5 0.436704 0.311074 0.214256
Si Si6 0.521552 0.819494 0.710607
Si Si7 0.633772 0.314818 0.562172
O O1 0.265512 0.500000 0.832510
O O2 0.263656 0.218786 0.795494
O O3 0.269541 0.255582 0.893690
O O4 0.429120 0.310726 0.756798
O O5 0.367125 0.749272 0.651035
O O6 0.152599 0.746354 0.776019
O O7 0.265797 0.000000 0.727638
O O8 0.991590 0.500000 0.572789
O O9 0.000000 0.722638 0.500000
O O10 0.074124 0.786954 0.542665
O O11 0.676736 0.500000 0.082265
O O12 0.556656 0.748883 0.137535
O O13 0.750000 0.750000 0.000000
O O14 0.432727 0.500000 0.220227
O O15 0.404127 0.230949 0.283371
O O16 0.582903 0.804698 0.627856
O O17 0.478877 0.000000 0.738819
O O18 0.629468 0.500000 0.579431
O O19 0.750000 0.250000 0.500000
#
# Coordination Sequence:
#
# PCOD8101505 Si02
#       7
#     8   8   8   8   8   8   8
#     4  10  20  36  58  84 114 149 186 232 283 337
#     4  10  20  36  59  84 115 153 191 233 285 345
#     4  10  22  39  58  85 117 150 191 239 292 343
#     4   9  19  36  58  84 115 149 190 233 283 339
#     4   9  20  37  57  85 117 151 189 233 285 339
#     4  11  21  36  57  83 110 145 192 236 282 340
#     4  12  25  40  58  81 112 148 191 243 290 340
#
# _framework density 19.442701
#
# number of rings (size 3 to 8) (size 9 to 14) (size 15 to 20)
#    0.000    1.857    1.429    3.857    2.000    3.714 
#    0.000    0.714    0.000    4.286    0.000    0.000 
#    0.000    0.000    0.000    0.000    0.000    0.000 
#
# Total GULP energy -346905.393884 kJ/mol
# GULP energy per Si atom -12389.478353 kJ/mol
# Density = 1.939845 g / cm^3
# Si number density = 19.442701 Si / 1000 Ang^3
#
#
#
# Elastic Constant Matrix: (Units=GPa)
#
#
# Indices 1 2 3 4 5 6 
#
# 1 145.6342 21.7217 54.4417 0.0000 14.6208 -0.0008
# 2 21.7217 36.6672 13.7582 -0.0001 -0.0040 -0.0026
# 3 54.4417 13.7582 112.7170 0.0001 22.1289 0.0001
# 4 0.0000 -0.0001 0.0001 28.3392 0.0001 5.5903
# 5 14.6208 -0.0040 22.1289 0.0001 28.7103 0.0000
# 6 -0.0008 -0.0026 0.0001 5.5903 0.0000 27.2160
#
#
#
# Elastic Compliance Matrix: (Units=1/GPa)
#
#
# Indices 1 2 3 4 5 6 
#
# 1 0.008947 -0.004001 -0.003462 0.000000 -0.001888 0.000000
# 2 -0.004001 0.030618 -0.002599 -0.000001 0.004045 0.000003
# 3 -0.003462 -0.002599 0.012390 0.000000 -0.007787 0.000000
# 4 0.000000 -0.000001 0.000000 0.036777 0.000000 -0.007554
# 5 -0.001888 0.004045 -0.007787 0.000000 0.041795 0.000000
# 6 0.000000 0.000003 0.000000 -0.007554 0.000000 0.038295
#
#
# Mechanical properties :
#
#
# Convention : Reuss Voigt Hill
#
# Bulk Modulus (GPa) = 31.41629 52.76242 42.08935
# Shear Modulus (GPa) = 25.05548 30.52623 27.79085
#
# Velocity S-wave (km/s) = 3.59372 3.96670 3.78481
# Velocity P-wave (km/s) = 5.78042 6.94089 6.38706
#
# Compressibility (1/GPa) = 0.03183062
#
# Stress axis : x y z
#
# Youngs Moduli (GPa) = 111.76646 32.66018 80.71017
#
# Poissons Ratio (x) = 0.13069 0.27945
# Poissons Ratio (y) = 0.44723 0.20974
# Poissons Ratio (z) = 0.38697 0.08487
#
# Static dielectric constant tensor:
#      x y z
#    x 3.812370 0.000000 0.164780 
#    y 0.000000 3.359730 0.000000 
#    z 0.164780 0.000000 2.521580 
# 
# 
# High freq. dielectric constant tensor:
#      x y z
#    x 1.761570 0.000000 0.015340 
#    y 0.000000 1.747220 0.000000 
#    z 0.015340 0.000000 1.747940 
# 
# From -- ./inp_files/342271.got.cif
#   From: 2010.06.25/outbox.cif.g09.slc.cpg/sg12_172_cif.got.tgz:342271.got - 2010.06.28 00:19:55.
