data_PCOD8101740
_publ_section_title
;
Structure prediction by ZEFSAII (Michael W. Deem and Ramdas Pophale) SiO2 
 PCOD8101740
Probable space group: C 2/M
;
_chemical_formula_sum "Si O2"
_cell_formula_units_Z 64
_cell_length_a 30.246695
_cell_length_b 8.798984
_cell_length_c 18.945363
_cell_angle_alpha 90.000000
_cell_angle_beta 140.316929
_cell_angle_gamma 90.000000
_cell_volume 3219.599158
_symmetry_space_group_name_H-M "C 2/M"
_symmetry_group_IT_number 12
_symmetry_cell_setting 'monoclinic'
loop_
_space_group_symop_operation_xyz
x,y,z
-x,y,-z
-x,-y,-z
x,-y,z
1/2+x,1/2+y,z
1/2-x,1/2+y,-z
1/2-x,1/2-y,-z
1/2+x,1/2-y,z
loop_
_atom_site_type_symbol
_atom_site_label
_atom_site_fract_x
_atom_site_fract_y
_atom_site_fract_z
Si Si1 0.264517 0.179359 0.942359
Si Si2 0.798988 0.323441 0.461127
Si Si3 0.980529 0.674745 0.316119
Si Si4 0.349341 0.677625 0.662116
Si Si5 0.083780 0.323954 0.912542
Si Si6 0.610759 0.677625 0.539592
Si Si7 0.137188 0.677470 0.717414
Si Si8 0.988647 0.820340 0.907647
O O1 0.208065 0.231982 0.816377
O O2 0.263854 0.000000 0.950801
O O3 0.250000 0.250000 0.000000
O O4 0.338612 0.235232 0.005095
O O5 0.814175 0.500000 0.467459
O O6 0.718038 0.290080 0.373076
O O7 0.844342 0.269981 0.583446
O O8 0.821193 0.231460 0.418917
O O9 0.002738 0.500000 0.355824
O O10 0.961711 0.706550 0.212456
O O11 0.914766 0.715766 0.283114
O O12 0.043321 0.785770 0.410759
O O13 0.355100 0.500000 0.650245
O O14 0.415791 0.738981 0.786422
O O15 0.083604 0.500000 0.932763
O O16 0.052658 0.230555 0.938783
O O17 0.615777 0.500000 0.561212
O O18 0.603165 0.767442 0.603235
O O19 0.153870 0.500000 0.734271
O O20 0.986911 0.000000 0.908522
O O21 0.000000 0.752941 0.000000
#
# Coordination Sequence:
#
# PCOD8101740 Si02
#       8
#     8   8   8   8   8   8   8   8
#     4  11  22  40  63  90 122 157 201 251 297 353
#     4  10  20  36  59  85 114 153 194 240 298 358
#     4  10  21  40  62  85 117 156 197 245 300 361
#     4   9  19  37  60  85 113 147 194 248 297 352
#     4  10  22  40  62  90 120 155 201 246 296 356
#     4  12  25  38  55  87 124 157 198 246 294 357
#     4  11  23  41  62  86 117 158 199 247 305 358
#     4  10  22  39  58  85 119 153 194 245 298 353
#
# _framework density 19.878252
#
# number of rings (size 3 to 8) (size 9 to 14) (size 15 to 20)
#    0.000    1.625    1.250    3.375    0.000    8.250 
#    0.000    1.250    0.000    0.000    0.000    0.000 
#    0.000    0.000    0.000    0.000    0.000    0.000 
#
# Total GULP energy -396995.814772 kJ/mol
# GULP energy per Si atom -12406.119212 kJ/mol
# Density = 1.983301 g / cm^3
# Si number density = 19.878252 Si / 1000 Ang^3
#
#
#
# Elastic Constant Matrix: (Units=GPa)
#
#
# Indices 1 2 3 4 5 6 
#
# 1 120.7413 37.9661 49.6417 0.0000 -2.9613 0.0000
# 2 37.9661 45.8509 14.5021 0.0000 5.0811 0.0000
# 3 49.6417 14.5021 79.8449 0.0000 9.6027 0.0000
# 4 0.0000 0.0000 0.0000 32.4078 0.0000 -0.8011
# 5 -2.9613 5.0811 9.6027 0.0000 32.2666 0.0000
# 6 0.0000 0.0000 0.0000 -0.8011 0.0000 34.2747
#
#
#
# Elastic Compliance Matrix: (Units=1/GPa)
#
#
# Indices 1 2 3 4 5 6 
#
# 1 0.015050 -0.010502 -0.008105 0.000000 0.005447 0.000000
# 2 -0.010502 0.030661 0.001719 0.000000 -0.006304 0.000000
# 3 -0.008105 0.001719 0.018018 0.000000 -0.006377 0.000000
# 4 0.000000 0.000000 0.000000 0.030875 0.000000 0.000722
# 5 0.005447 -0.006304 -0.006377 0.000000 0.034382 0.000000
# 6 0.000000 0.000000 0.000000 0.000722 0.000000 0.029193
#
#
# Mechanical properties :
#
#
# Convention : Reuss Voigt Hill
#
# Bulk Modulus (GPa) = 33.38604 50.07299 41.72952
# Shear Modulus (GPa) = 24.75985 29.41163 27.08574
#
# Velocity S-wave (km/s) = 3.53310 3.85071 3.69532
# Velocity P-wave (km/s) = 5.78580 6.70934 6.26461
#
# Compressibility (1/GPa) = 0.02995264
#
# Stress axis : x y z
#
# Youngs Moduli (GPa) = 66.44361 32.61468 55.50022
#
# Poissons Ratio (x) = 0.34253 0.44982
# Poissons Ratio (y) = 0.69782 -0.09539
# Poissons Ratio (z) = 0.53851 -0.05606
#
# Static dielectric constant tensor:
#      x y z
#    x 3.699860 0.000000 0.072000 
#    y 0.000000 3.534880 0.000000 
#    z 0.072000 0.000000 3.747280 
# 
# 
# High freq. dielectric constant tensor:
#      x y z
#    x 1.785610 0.000000 0.004110 
#    y 0.000000 1.771530 0.000000 
#    z 0.004110 0.000000 1.778720 
# 
# From -- ./inp_files/295821.got.cif
#   From: 2010.06.25/outbox.cif.g09.slc.cpg/sg12_148_cif.got.tgz:295821.got - 2010.06.28 00:19:55.
