data_PCOD8101590
_publ_section_title
;
Structure prediction by ZEFSAII (Michael W. Deem and Ramdas Pophale) SiO2 
 PCOD8101590
Probable space group: C 2/M
;
_chemical_formula_sum "Si O2"
_cell_formula_units_Z 64
_cell_length_a 15.402490
_cell_length_b 8.974027
_cell_length_c 28.373553
_cell_angle_alpha 90.000000
_cell_angle_beta 57.043522
_cell_angle_gamma 90.000000
_cell_volume 3290.769685
_symmetry_space_group_name_H-M "C 2/M"
_symmetry_group_IT_number 12
_symmetry_cell_setting 'monoclinic'
loop_
_space_group_symop_operation_xyz
x,y,z
-x,y,-z
-x,-y,-z
x,-y,z
1/2+x,1/2+y,z
1/2-x,1/2+y,-z
1/2-x,1/2-y,-z
1/2+x,1/2-y,z
loop_
_atom_site_type_symbol
_atom_site_label
_atom_site_fract_x
_atom_site_fract_y
_atom_site_fract_z
Si Si1 0.045609 0.827721 0.627952
Si Si2 0.164014 0.824563 0.745286
Si Si3 0.235990 0.329736 0.868941
Si Si4 0.792915 0.323782 0.362407
Si Si5 0.344364 0.330841 0.742429
Si Si6 0.045342 0.673981 0.860835
Si Si7 0.941260 0.822945 0.562943
Si Si8 0.690707 0.174670 0.059878
O O1 0.145975 0.728609 0.609106
O O2 0.998851 0.767537 0.592851
O O3 0.963315 0.804324 0.694520
O O4 0.078028 0.000000 0.614143
O O5 0.150190 0.751208 0.698513
O O6 0.275964 0.782444 0.732590
O O7 0.073692 0.765721 0.805896
O O8 0.153484 0.000000 0.743250
O O9 0.234558 0.500000 0.887079
O O10 0.325782 0.305189 0.803433
O O11 0.124244 0.286104 0.879967
O O12 0.260188 0.224224 0.905313
O O13 0.796949 0.500000 0.355903
O O14 0.675994 0.263877 0.401611
O O15 0.310750 0.500000 0.738543
O O16 0.054643 0.500000 0.845776
O O17 0.929616 0.719704 0.909341
O O18 0.000000 0.757242 0.500000
O O19 0.940167 0.000000 0.561680
O O20 0.705351 0.000000 0.051260
O O21 0.750000 0.250000 0.000000
#
# Coordination Sequence:
#
# PCOD8101590 Si02
#       8
#     8   8   8   8   8   8   8   8
#     4  10  20  36  58  87 119 154 197 240 291 352
#     4  11  21  34  58  89 120 152 195 243 293 349
#     4   9  19  37  60  84 115 152 194 235 287 348
#     4  11  22  37  57  85 119 155 196 242 297 353
#     4   9  18  36  59  84 119 159 191 232 298 358
#     4   9  21  41  61  84 117 159 195 233 292 354
#     4   9  19  38  62  83 113 160 203 241 291 352
#     4  11  24  41  61  86 117 153 198 240 287 344
#
# _framework density 19.448336999999999
#
# number of rings (size 3 to 8) (size 9 to 14) (size 15 to 20)
#    0.000    2.125    1.250    2.625    1.750    4.500 
#    0.000    2.500    0.000    2.625    0.000    0.000 
#    0.000    0.000    0.000    0.000    0.000    0.000 
#
# Total GULP energy -396863.672626 kJ/mol
# GULP energy per Si atom -12401.989770 kJ/mol
# Density = 1.940407 g / cm^3
# Si number density = 19.448337 Si / 1000 Ang^3
#
#
#
# Elastic Constant Matrix: (Units=GPa)
#
#
# Indices 1 2 3 4 5 6 
#
# 1 139.4329 49.0179 76.3478 0.0000 3.4752 0.0000
# 2 49.0179 78.7542 51.3588 0.0000 -0.8725 0.0000
# 3 76.3478 51.3588 130.7030 0.0000 7.4573 0.0000
# 4 0.0000 0.0000 0.0000 17.5946 0.0000 3.0577
# 5 3.4752 -0.8725 7.4573 0.0000 22.3446 0.0000
# 6 0.0000 0.0000 0.0000 3.0577 0.0000 35.3754
#
#
#
# Elastic Compliance Matrix: (Units=1/GPa)
#
#
# Indices 1 2 3 4 5 6 
#
# 1 0.011280 -0.003674 -0.005135 0.000000 -0.000184 0.000000
# 2 -0.003674 0.018464 -0.005283 0.000000 0.003056 0.000000
# 3 -0.005135 -0.005283 0.012939 0.000000 -0.003726 0.000000
# 4 0.000000 0.000000 0.000000 0.057702 0.000000 -0.004988
# 5 -0.000184 0.003056 -0.003726 0.000000 0.046145 0.000000
# 6 0.000000 0.000000 0.000000 -0.004988 0.000000 0.028699
#
#
# Mechanical properties :
#
#
# Convention : Reuss Voigt Hill
#
# Bulk Modulus (GPa) = 68.97432 78.03767 73.50599
# Shear Modulus (GPa) = 24.01006 26.54065 25.27536
#
# Velocity S-wave (km/s) = 3.51744 3.69816 3.60893
# Velocity P-wave (km/s) = 7.21380 7.64512 7.43259
#
# Compressibility (1/GPa) = 0.01449815
#
# Stress axis : x y z
#
# Youngs Moduli (GPa) = 88.65531 54.15945 77.28680
#
# Poissons Ratio (x) = 0.19900 0.39683
# Poissons Ratio (y) = 0.32574 0.40834
# Poissons Ratio (z) = 0.45520 0.28615
#
# Static dielectric constant tensor:
#      x y z
#    x 3.578810 0.000000 -0.061600 
#    y 0.000000 3.337980 0.000000 
#    z -0.061600 0.000000 3.691610 
# 
# 
# High freq. dielectric constant tensor:
#      x y z
#    x 1.761650 0.000000 -0.000800 
#    y 0.000000 1.739490 0.000000 
#    z -0.000800 0.000000 1.757180 
# 
# From -- ./inp_files/375500.got.cif
#   From: 2010.06.25/outbox.cif.g09.slc.cpg/sg12_188_cif.got.tgz:375500.got - 2010.06.28 00:19:55.
