data_PCOD8101579
_publ_section_title
;
Structure prediction by ZEFSAII (Michael W. Deem and Ramdas Pophale) SiO2 
 PCOD8101579
Probable space group: C 2/M
;
_chemical_formula_sum "Si O2"
_cell_formula_units_Z 56
_cell_length_a 26.779694
_cell_length_b 9.193855
_cell_length_c 17.579211
_cell_angle_alpha 90.000000
_cell_angle_beta 141.298579
_cell_angle_gamma 90.000000
_cell_volume 2706.229867
_symmetry_space_group_name_H-M "C 2/M"
_symmetry_group_IT_number 12
_symmetry_cell_setting 'monoclinic'
loop_
_space_group_symop_operation_xyz
x,y,z
-x,y,-z
-x,-y,-z
x,-y,z
1/2+x,1/2+y,z
1/2-x,1/2+y,-z
1/2-x,1/2-y,-z
1/2+x,1/2-y,z
loop_
_atom_site_type_symbol
_atom_site_label
_atom_site_fract_x
_atom_site_fract_y
_atom_site_fract_z
Si Si1 0.790153 0.827568 0.621440
Si Si2 0.862634 0.332622 0.466626
Si Si3 0.249637 0.163629 0.923074
Si Si4 0.390252 0.667501 0.347537
Si Si5 0.494465 0.334100 0.329865
Si Si6 0.454357 0.172178 0.867867
Si Si7 0.925295 0.336378 0.119996
O O1 0.750000 0.750000 0.500000
O O2 0.728227 0.804329 0.617274
O O3 0.872098 0.756582 0.750215
O O4 0.802218 0.000000 0.618726
O O5 0.884847 0.500000 0.497489
O O6 0.887164 0.274132 0.414035
O O7 0.923351 0.247681 0.594628
O O8 0.183962 0.226543 0.788951
O O9 0.225189 0.000000 0.915102
O O10 0.250000 0.250000 0.000000
O O11 0.334904 0.171178 0.981576
O O12 0.379878 0.500000 0.362356
O O13 0.470237 0.681859 0.390644
O O14 0.505729 0.500000 0.321077
O O15 0.426944 0.266320 0.195947
O O16 0.515547 0.217532 0.874866
O O17 0.435669 0.000000 0.847690
O O18 0.500000 0.219792 0.000000
O O19 0.947260 0.500000 0.171138
#
# Coordination Sequence:
#
# PCOD8101579 Si02
#       7
#     8   8   8   8   8   8   8
#     4  11  25  45  67  93 124 162 211 263 314 373
#     4  11  25  41  60  88 120 155 198 247 302 359
#     4  10  20  36  58  86 121 158 197 240 288 349
#     4  10  22  38  58  87 122 157 199 243 291 355
#     4  11  22  38  60  89 121 158 201 245 294 355
#     4  10  23  42  66  95 126 163 209 260 316 375
#     4  10  21  37  60  89 121 159 201 244 295 357
#
# _framework density 20.692993000000001
#
# number of rings (size 3 to 8) (size 9 to 14) (size 15 to 20)
#    0.000    1.571    1.429    2.571    2.000   10.000 
#    0.000    0.000    0.000    0.000    0.000    0.000 
#    0.000    0.000    0.000    0.000    0.000    0.000 
#
# Total GULP energy -347058.950469 kJ/mol
# GULP energy per Si atom -12394.962517 kJ/mol
# Density = 2.064589 g / cm^3
# Si number density = 20.692993 Si / 1000 Ang^3
#
#
#
# Elastic Constant Matrix: (Units=GPa)
#
#
# Indices 1 2 3 4 5 6 
#
# 1 87.0481 46.5400 27.0207 0.0000 12.0176 0.0000
# 2 46.5400 103.5226 48.2341 0.0000 6.6363 0.0000
# 3 27.0207 48.2341 101.1913 0.0000 13.6295 0.0000
# 4 0.0000 0.0000 0.0000 32.4638 0.0000 2.3691
# 5 12.0176 6.6363 13.6295 0.0000 37.3105 0.0000
# 6 0.0000 0.0000 0.0000 2.3691 0.0000 31.3473
#
#
#
# Elastic Compliance Matrix: (Units=1/GPa)
#
#
# Indices 1 2 3 4 5 6 
#
# 1 0.015671 -0.006544 -0.000570 0.000000 -0.003675 0.000000
# 2 -0.006544 0.015150 -0.005674 0.000000 0.001486 0.000000
# 3 -0.000570 -0.005674 0.013230 0.000000 -0.003640 0.000000
# 4 0.000000 0.000000 0.000000 0.030974 0.000000 -0.002341
# 5 -0.003675 0.001486 -0.003640 0.000000 0.029051 0.000000
# 6 0.000000 0.000000 0.000000 -0.002341 0.000000 0.032078
#
#
# Mechanical properties :
#
#
# Convention : Reuss Voigt Hill
#
# Bulk Modulus (GPa) = 54.13064 59.48353 56.80708
# Shear Modulus (GPa) = 29.78168 31.55546 30.66857
#
# Velocity S-wave (km/s) = 3.79782 3.90928 3.85395
# Velocity P-wave (km/s) = 6.74143 7.01318 6.87865
#
# Compressibility (1/GPa) = 0.01847383
#
# Stress axis : x y z
#
# Youngs Moduli (GPa) = 63.81245 66.00614 75.58844
#
# Poissons Ratio (x) = 0.43193 0.04311
# Poissons Ratio (y) = 0.41757 0.42891
# Poissons Ratio (z) = 0.03640 0.37454
#
# Static dielectric constant tensor:
#      x y z
#    x 3.661050 0.000000 0.096910 
#    y 0.000000 3.715730 0.000000 
#    z 0.096910 0.000000 4.152460 
# 
# 
# High freq. dielectric constant tensor:
#      x y z
#    x 1.811700 0.000000 0.014280 
#    y 0.000000 1.805620 0.000000 
#    z 0.014280 0.000000 1.826710 
# 
# From -- ./inp_files/292547.got.cif
#   From: 2010.06.25/outbox.cif.g09.slc.cpg/sg12_147_cif.got.tgz:292547.got - 2010.06.28 00:19:55.
