data_PCOD8101977
_publ_section_title
;
Structure prediction by ZEFSAII (Michael W. Deem and Ramdas Pophale) SiO2 
 PCOD8101977
Probable space group: C 2/M
;
_chemical_formula_sum "Si O2"
_cell_formula_units_Z 48
_cell_length_a 27.339010
_cell_length_b 8.634894
_cell_length_c 15.498253
_cell_angle_alpha 90.000000
_cell_angle_beta 40.939481
_cell_angle_gamma 90.000000
_cell_volume 2397.381724
_symmetry_space_group_name_H-M "C 2/M"
_symmetry_group_IT_number 12
_symmetry_cell_setting 'monoclinic'
loop_
_space_group_symop_operation_xyz
x,y,z
-x,y,-z
-x,-y,-z
x,-y,z
1/2+x,1/2+y,z
1/2-x,1/2+y,-z
1/2-x,1/2-y,-z
1/2+x,1/2-y,z
loop_
_atom_site_type_symbol
_atom_site_label
_atom_site_fract_x
_atom_site_fract_y
_atom_site_fract_z
Si Si1 0.545642 0.181033 0.854486
Si Si2 0.537423 0.181266 0.541363
Si Si3 0.708108 0.682382 0.637010
Si Si4 0.792345 0.316104 0.692157
Si Si5 0.789438 0.817019 0.030241
Si Si6 0.039593 0.181657 0.191890
O O1 0.622019 0.274211 0.752246
O O2 0.499734 0.222416 0.830731
O O3 0.563834 0.000000 0.830255
O O4 0.500000 0.231010 0.000000
O O5 0.500000 0.217928 0.500000
O O6 0.622427 0.239758 0.424510
O O7 0.496338 0.280241 0.668487
O O8 0.531721 0.000000 0.572008
O O9 0.716105 0.500000 0.623277
O O10 0.750000 0.750000 0.500000
O O11 0.748198 0.750187 0.668620
O O12 0.788621 0.500000 0.698841
O O13 0.752712 0.248688 0.830056
O O14 0.783102 0.000000 0.035294
O O15 0.750000 0.750000 0.000000
O O16 0.874942 0.763524 0.919573
O O17 0.031983 0.000000 0.182379
#
# Coordination Sequence:
#
# PCOD8101977 Si02
#       6
#     8   8   8   8   8   8
#     4  11  24  41  61  86 117 154 199 249 300 357
#     4  10  20  36  60  86 115 154 195 236 285 344
#     4  11  22  38  61  87 119 157 197 243 294 352
#     4   9  19  36  57  81 111 149 190 230 278 339
#     4  10  21  38  59  84 113 147 189 233 281 338
#     4  11  23  38  59  87 118 152 191 240 296 353
#
# _framework density 20.021841999999999
#
# number of rings (size 3 to 8) (size 9 to 14) (size 15 to 20)
#    0.000    1.667    0.000    4.500    0.000    7.000 
#    0.000    3.333    0.000    0.000    0.000    0.000 
#    0.000    0.000    0.000    0.000    0.000    0.000 
#
# Total GULP energy -297719.449109 kJ/mol
# GULP energy per Si atom -12404.977046 kJ/mol
# Density = 1.997627 g / cm^3
# Si number density = 20.021842 Si / 1000 Ang^3
#
#
#
# Elastic Constant Matrix: (Units=GPa)
#
#
# Indices 1 2 3 4 5 6 
#
# 1 161.8960 23.1802 70.3251 0.0036 -2.0071 -0.0017
# 2 23.1802 34.5974 27.7039 0.0283 1.6348 -0.0045
# 3 70.3251 27.7039 168.9009 0.0107 0.0555 -0.0056
# 4 0.0036 0.0283 0.0107 31.7213 -0.0090 1.7120
# 5 -2.0071 1.6348 0.0555 -0.0090 44.2409 -0.0002
# 6 -0.0017 -0.0045 -0.0056 1.7120 -0.0002 23.0833
#
#
#
# Elastic Compliance Matrix: (Units=1/GPa)
#
#
# Indices 1 2 3 4 5 6 
#
# 1 0.007816 -0.003054 -0.002754 0.000003 0.000471 -0.000001
# 2 -0.003054 0.034534 -0.004392 -0.000030 -0.001409 0.000008
# 3 -0.002754 -0.004392 0.007788 0.000002 0.000028 0.000001
# 4 0.000003 -0.000030 0.000002 0.031651 0.000008 -0.002347
# 5 0.000471 -0.001409 0.000028 0.000008 0.022677 -0.000001
# 6 -0.000001 0.000008 0.000001 -0.002347 -0.000001 0.043495
#
#
# Mechanical properties :
#
#
# Convention : Reuss Voigt Hill
#
# Bulk Modulus (GPa) = 33.62749 67.53474 50.58112
# Shear Modulus (GPa) = 28.04677 36.08810 32.06744
#
# Velocity S-wave (km/s) = 3.74680 4.25012 4.00637
# Velocity P-wave (km/s) = 5.96237 7.60844 6.83514
#
# Compressibility (1/GPa) = 0.02973758
#
# Stress axis : x y z
#
# Youngs Moduli (GPa) = 127.94228 28.95707 128.40975
#
# Poissons Ratio (x) = 0.08844 0.35358
# Poissons Ratio (y) = 0.39074 0.56402
# Poissons Ratio (z) = 0.35230 0.12719
#
# Static dielectric constant tensor:
#      x y z
#    x 3.860280 -0.000080 -0.065910 
#    y -0.000080 4.070960 -0.000150 
#    z -0.065910 -0.000150 3.866730 
# 
# 
# High freq. dielectric constant tensor:
#      x y z
#    x 1.801920 0.000000 0.000030 
#    y 0.000000 1.763740 0.000000 
#    z 0.000030 0.000000 1.802450 
# 
# From -- ./inp_files/244607.got.cif
#   From: 2010.06.25/outbox.cif.g09.slc.cpg/sg12_123_cif.got.tgz:244607.got - 2010.06.28 00:19:55.
