data_PCOD8101747
_publ_section_title
;
Structure prediction by ZEFSAII (Michael W. Deem and Ramdas Pophale) SiO2 
 PCOD8101747
Probable space group: C 2/M
;
_chemical_formula_sum "Si O2"
_cell_formula_units_Z 48
_cell_length_a 20.482908
_cell_length_b 8.730109
_cell_length_c 31.220041
_cell_angle_alpha 90.000000
_cell_angle_beta 154.627550
_cell_angle_gamma 90.000000
_cell_volume 2392.193529
_symmetry_space_group_name_H-M "C 2/M"
_symmetry_group_IT_number 12
_symmetry_cell_setting 'monoclinic'
loop_
_space_group_symop_operation_xyz
x,y,z
-x,y,-z
-x,-y,-z
x,-y,z
1/2+x,1/2+y,z
1/2-x,1/2+y,-z
1/2-x,1/2-y,-z
1/2+x,1/2-y,z
loop_
_atom_site_type_symbol
_atom_site_label
_atom_site_fract_x
_atom_site_fract_y
_atom_site_fract_z
Si Si1 0.587871 0.320015 0.785289
Si Si2 0.387631 0.819585 0.107981
Si Si3 0.267897 0.681295 0.556895
Si Si4 0.846861 0.177909 0.884362
Si Si5 0.986002 0.317975 0.444082
Si Si6 0.660089 0.320354 0.218333
O O1 0.589240 0.500000 0.795281
O O2 0.627244 0.232564 0.851996
O O3 0.424039 0.263973 0.671355
O O4 0.710799 0.279707 0.821987
O O5 0.546957 0.768559 0.182344
O O6 0.372929 0.000000 0.097499
O O7 0.250000 0.750000 0.000000
O O8 0.262784 0.500000 0.550322
O O9 0.250000 0.750000 0.500000
O O10 0.128152 0.746833 0.501777
O O11 0.874644 0.220197 0.851393
O O12 0.802999 0.000000 0.863553
O O13 0.000000 0.219799 0.000000
O O14 0.992357 0.500000 0.448974
O O15 0.829744 0.262813 0.329717
O O16 0.000000 0.250074 0.500000
O O17 0.640570 0.500000 0.215950
#
# Coordination Sequence:
#
# PCOD8101747 Si02
#       6
#     8   8   8   8   8   8
#     4  11  23  39  61  89 121 156 197 244 292 346
#     4  12  25  41  62  87 118 154 195 244 296 352
#     4  10  21  37  59  87 118 154 194 237 286 342
#     4  10  21  37  58  84 115 153 195 238 288 348
#     4   9  17  32  55  80 109 148 191 231 275 334
#     4  10  20  36  59  85 115 152 194 238 286 344
#
# _framework density 20.065265
#
# number of rings (size 3 to 8) (size 9 to 14) (size 15 to 20)
#    0.000    1.667    0.000    5.000    0.000    7.667 
#    0.000    0.833    0.000    2.000    0.000    0.000 
#    0.000    0.000    0.000    0.000    0.000    0.000 
#
# Total GULP energy -297725.009448 kJ/mol
# GULP energy per Si atom -12405.208727 kJ/mol
# Density = 2.001960 g / cm^3
# Si number density = 20.065265 Si / 1000 Ang^3
#
#
#
# Elastic Constant Matrix: (Units=GPa)
#
#
# Indices 1 2 3 4 5 6 
#
# 1 105.3867 22.6746 25.2628 -0.0011 1.3170 0.0003
# 2 22.6746 64.6363 26.6148 -0.0015 1.7974 0.0013
# 3 25.2628 26.6148 115.8780 -0.0047 -0.7608 0.0006
# 4 -0.0011 -0.0015 -0.0047 22.3412 0.0010 5.2683
# 5 1.3170 1.7974 -0.7608 0.0010 45.8366 0.0000
# 6 0.0003 0.0013 0.0006 5.2683 0.0000 35.6943
#
#
#
# Elastic Compliance Matrix: (Units=1/GPa)
#
#
# Indices 1 2 3 4 5 6 
#
# 1 0.010527 -0.003028 -0.001601 0.000000 -0.000210 0.000000
# 2 -0.003028 0.017983 -0.003475 0.000000 -0.000676 -0.000001
# 3 -0.001601 -0.003475 0.009779 0.000002 0.000345 0.000000
# 4 0.000000 0.000000 0.000002 0.046374 -0.000001 -0.006845
# 5 -0.000210 -0.000676 0.000345 -0.000001 0.021855 0.000000
# 6 0.000000 -0.000001 0.000000 -0.006845 0.000000 0.029026
#
#
# Mechanical properties :
#
#
# Convention : Reuss Voigt Hill
#
# Bulk Modulus (GPa) = 45.28570 48.33393 46.80981
# Shear Modulus (GPa) = 31.42457 34.86433 33.14445
#
# Velocity S-wave (km/s) = 3.96171 4.17291 4.06868
# Velocity P-wave (km/s) = 6.59887 6.88173 6.74179
#
# Compressibility (1/GPa) = 0.02208203
#
# Stress axis : x y z
#
# Youngs Moduli (GPa) = 94.99659 55.60858 102.25888
#
# Poissons Ratio (x) = 0.16837 0.16371
# Poissons Ratio (y) = 0.28762 0.35531
# Poissons Ratio (z) = 0.15208 0.19322
#
# Static dielectric constant tensor:
#      x y z
#    x 3.795040 -0.000010 -0.003460 
#    y -0.000010 3.412220 -0.000010 
#    z -0.003460 -0.000010 3.867010 
# 
# 
# High freq. dielectric constant tensor:
#      x y z
#    x 1.801270 0.000000 -0.000970 
#    y 0.000000 1.758520 0.000000 
#    z -0.000970 0.000000 1.803720 
# 
# From -- ./inp_files/378561.got.cif
#   From: 2010.06.25/outbox.cif.g09.slc.cpg/sg12_190_cif.got.tgz:378561.got - 2010.06.28 00:19:55.
