data_PCOD8101424
_publ_section_title
;
Structure prediction by ZEFSAII (Michael W. Deem and Ramdas Pophale) SiO2 
 PCOD8101424
Probable space group: C 2/M
;
_chemical_formula_sum "Si O2"
_cell_formula_units_Z 64
_cell_length_a 18.493439
_cell_length_b 9.214501
_cell_length_c 32.070562
_cell_angle_alpha 90.000000
_cell_angle_beta 37.915132
_cell_angle_gamma 90.000000
_cell_volume 3358.253066
_symmetry_space_group_name_H-M "C 2/M"
_symmetry_group_IT_number 12
_symmetry_cell_setting 'monoclinic'
loop_
_space_group_symop_operation_xyz
x,y,z
-x,y,-z
-x,-y,-z
x,-y,z
1/2+x,1/2+y,z
1/2-x,1/2+y,-z
1/2-x,1/2-y,-z
1/2+x,1/2-y,z
loop_
_atom_site_type_symbol
_atom_site_label
_atom_site_fract_x
_atom_site_fract_y
_atom_site_fract_z
Si Si1 0.463490 0.171508 0.309883
Si Si2 0.386720 0.169953 0.179833
Si Si3 0.640713 0.160048 0.035645
Si Si4 0.130322 0.661755 0.943957
Si Si5 0.051310 0.329202 0.431876
Si Si6 0.202509 0.329826 0.688309
Si Si7 0.372605 0.828713 0.440451
Si Si8 0.271026 0.827560 0.814136
O O1 0.376579 0.233242 0.313668
O O2 0.425243 0.224870 0.372785
O O3 0.595346 0.227912 0.243338
O O4 0.461128 0.000000 0.307979
O O5 0.515299 0.227800 0.106761
O O6 0.368206 0.202134 0.237008
O O7 0.288675 0.256943 0.199015
O O8 0.374001 0.000000 0.175241
O O9 0.647472 0.000000 0.052598
O O10 0.750000 0.250000 0.000000
O O11 0.661728 0.152399 0.977365
O O12 0.137867 0.500000 0.919939
O O13 0.213307 0.774776 0.883098
O O14 0.000000 0.724916 0.000000
O O15 0.075194 0.500000 0.419087
O O16 0.173317 0.250010 0.367806
O O17 0.000000 0.282286 0.500000
O O18 0.958965 0.280511 0.438460
O O19 0.227126 0.500000 0.671708
O O20 0.250000 0.750000 0.500000
O O21 0.351726 0.000000 0.450987
O O22 0.261768 0.000000 0.814214
#
# Coordination Sequence:
#
# PCOD8101424 Si02
#       8
#     8   8   8   8   8   8   8   8
#     4   9  20  37  55  81 113 145 180 228 284 324
#     4  10  21  39  58  78 111 152 185 226 287 343
#     4  10  22  38  58  81 111 149 186 232 286 340
#     4  10  20  39  60  79 111 151 186 228 288 343
#     4  10  21  37  57  83 117 152 182 224 285 335
#     4  10  21  37  59  82 108 147 192 229 270 333
#     4  10  20  36  58  82 113 147 182 226 273 324
#     4  11  22  36  60  86 111 145 189 237 279 330
#
# _framework density 19.057528000000001
#
# number of rings (size 3 to 8) (size 9 to 14) (size 15 to 20)
#    0.000    2.000    1.250    1.875    1.750    3.500 
#    0.000    2.500    0.000    0.000    0.000    0.000 
#    0.000    0.000    0.000    0.000    0.000    0.000 
#
# Total GULP energy -396799.611997 kJ/mol
# GULP energy per Si atom -12399.987875 kJ/mol
# Density = 1.901415 g / cm^3
# Si number density = 19.057528 Si / 1000 Ang^3
#
#
#
# Elastic Constant Matrix: (Units=GPa)
#
#
# Indices 1 2 3 4 5 6 
#
# 1 166.5100 47.4496 86.0048 -0.0022 -10.5351 -0.0001
# 2 47.4496 50.6747 45.3022 -0.0033 -8.7766 -0.0030
# 3 86.0048 45.3022 147.3478 -0.0008 -5.0012 0.0000
# 4 -0.0022 -0.0033 -0.0008 27.8884 -0.0007 -11.2017
# 5 -10.5351 -8.7766 -5.0012 -0.0007 41.7499 0.0001
# 6 -0.0001 -0.0030 0.0000 -11.2017 0.0001 20.2037
#
#
#
# Elastic Compliance Matrix: (Units=1/GPa)
#
#
# Indices 1 2 3 4 5 6 
#
# 1 0.009615 -0.005333 -0.003945 0.000000 0.000833 -0.000001
# 2 -0.005333 0.031138 -0.006310 0.000006 0.004444 0.000008
# 3 -0.003945 -0.006310 0.010995 -0.000001 -0.001005 -0.000002
# 4 0.000000 0.000006 -0.000001 0.046130 0.000002 0.025577
# 5 0.000833 0.004444 -0.001005 0.000002 0.024976 0.000002
# 6 -0.000001 0.000008 -0.000002 0.025577 0.000002 0.063677
#
#
# Mechanical properties :
#
#
# Convention : Reuss Voigt Hill
#
# Bulk Modulus (GPa) = 48.60578 80.22731 64.41654
# Shear Modulus (GPa) = 22.26541 30.35345 26.30943
#
# Velocity S-wave (km/s) = 3.42179 3.99523 3.71958
# Velocity P-wave (km/s) = 6.41651 7.96689 7.23336
#
# Compressibility (1/GPa) = 0.02057369
#
# Stress axis : x y z
#
# Youngs Moduli (GPa) = 103.99952 32.11533 90.95172
#
# Poissons Ratio (x) = 0.17127 0.35876
# Poissons Ratio (y) = 0.55462 0.57388
# Poissons Ratio (z) = 0.41023 0.20264
#
# Static dielectric constant tensor:
#      x y z
#    x 3.630250 0.000000 0.043940 
#    y 0.000000 3.429410 0.000000 
#    z 0.043940 0.000000 3.623060 
# 
# 
# High freq. dielectric constant tensor:
#      x y z
#    x 1.755550 0.000000 0.002540 
#    y 0.000000 1.719640 0.000000 
#    z 0.002540 0.000000 1.755540 
# 
# From -- ./inp_files/377963.got.cif
#   From: 2010.06.25/outbox.cif.g09.slc.cpg/sg12_189_cif.got.tgz:377963.got - 2010.06.28 00:19:55.
