data_PCOD8101077
_publ_section_title
;
Structure prediction by ZEFSAII (Michael W. Deem and Ramdas Pophale) SiO2 
 PCOD8101077
Probable space group: C 2/M
;
_chemical_formula_sum "Si O2"
_cell_formula_units_Z 40
_cell_length_a 14.436611
_cell_length_b 9.349079
_cell_length_c 30.292857
_cell_angle_alpha 90.000000
_cell_angle_beta 147.183462
_cell_angle_gamma 90.000000
_cell_volume 2215.818527
_symmetry_space_group_name_H-M "C 2/M"
_symmetry_group_IT_number 12
_symmetry_cell_setting 'monoclinic'
loop_
_space_group_symop_operation_xyz
x,y,z
-x,y,-z
-x,-y,-z
x,-y,z
1/2+x,1/2+y,z
1/2-x,1/2+y,-z
1/2-x,1/2-y,-z
1/2+x,1/2-y,z
loop_
_atom_site_type_symbol
_atom_site_label
_atom_site_fract_x
_atom_site_fract_y
_atom_site_fract_z
Si Si1 0.529346 0.169252 0.796588
Si Si2 0.154506 0.665771 0.500274
Si Si3 0.771488 0.333401 0.370372
Si Si4 0.359959 0.162894 0.908573
Si Si5 0.091848 0.661185 0.919842
O O1 0.365219 0.234623 0.707836
O O2 0.699759 0.232961 0.843622
O O3 0.525242 0.215547 0.846077
O O4 0.527693 0.000000 0.788978
O O5 0.181002 0.500000 0.500619
O O6 0.250000 0.750000 0.500000
O O7 0.232574 0.704093 0.579306
O O8 0.953715 0.703272 0.421334
O O9 0.727601 0.500000 0.345871
O O10 0.433700 0.173386 0.889242
O O11 0.305316 0.000000 0.898349
O O12 0.500000 0.216852 0.000000
O O13 0.159371 0.500000 0.943042
O O14 0.250000 0.750000 0.000000
#
# Coordination Sequence:
#
# PCOD8101077 Si02
#       5
#     8   8   8   8   8
#     4  11  23  36  54  83 115 143 183 239 280 315
#     4   9  19  37  62  87 112 145 183 224 271 328
#     4   9  20  39  58  80 114 152 184 217 271 339
#     4  10  20  36  57  77 103 146 189 224 277 340
#     4  10  21  36  54  77 105 140 184 230 276 325
#
# _framework density 18.052019000000001
#
# number of rings (size 3 to 8) (size 9 to 14) (size 15 to 20)
#    0.000    2.200    2.000    1.800    0.000    5.200 
#    0.000    8.000    0.000    0.000    0.000    0.000 
#    0.000    0.000    0.000    0.000    0.000    0.000 
#
# Total GULP energy -248020.185272 kJ/mol
# GULP energy per Si atom -12401.009264 kJ/mol
# Density = 1.801093 g / cm^3
# Si number density = 18.052019 Si / 1000 Ang^3
#
#
#
# Elastic Constant Matrix: (Units=GPa)
#
#
# Indices 1 2 3 4 5 6 
#
# 1 129.1602 62.6052 66.0465 0.0000 -4.0436 0.0000
# 2 62.6052 93.8272 83.9974 0.0000 1.5156 0.0000
# 3 66.0465 83.9974 156.4366 0.0000 0.1092 0.0000
# 4 0.0000 0.0000 0.0000 34.9184 0.0000 0.3984
# 5 -4.0436 1.5156 0.1092 0.0000 21.3187 0.0000
# 6 0.0000 0.0000 0.0000 0.3984 0.0000 33.9087
#
#
#
# Elastic Compliance Matrix: (Units=1/GPa)
#
#
# Indices 1 2 3 4 5 6 
#
# 1 0.011761 -0.006632 -0.001406 0.000000 0.002709 0.000000
# 2 -0.006632 0.024305 -0.010248 0.000000 -0.002933 0.000000
# 3 -0.001406 -0.010248 0.012489 0.000000 0.000398 0.000000
# 4 0.000000 0.000000 0.000000 0.028642 0.000000 -0.000337
# 5 0.002709 -0.002933 0.000398 0.000000 0.047628 0.000000
# 6 0.000000 0.000000 0.000000 -0.000337 0.000000 0.029495
#
#
# Mechanical properties :
#
#
# Convention : Reuss Voigt Hill
#
# Bulk Modulus (GPa) = 83.46440 89.41358 86.43899
# Shear Modulus (GPa) = 25.65594 29.14749 27.40171
#
# Velocity S-wave (km/s) = 3.77400 4.02262 3.90029
# Velocity P-wave (km/s) = 8.08249 8.43883 8.26258
#
# Compressibility (1/GPa) = 0.01198116
#
# Stress axis : x y z
#
# Youngs Moduli (GPa) = 85.02740 41.14323 80.07348
#
# Poissons Ratio (x) = 0.27288 0.11259
# Poissons Ratio (y) = 0.56393 0.82062
# Poissons Ratio (z) = 0.11956 0.42165
#
# Static dielectric constant tensor:
#      x y z
#    x 3.398110 0.000000 -0.083760 
#    y 0.000000 3.331090 0.000000 
#    z -0.083760 0.000000 3.275720 
# 
# 
# High freq. dielectric constant tensor:
#      x y z
#    x 1.708430 0.000000 -0.004470 
#    y 0.000000 1.698820 0.000000 
#    z -0.004470 0.000000 1.699190 
# 
# From -- ./inp_files/211231.got.cif
#   From: 2010.06.25/outbox.cif.g09.slc.cpg/sg12_106_cif.got.tgz:211231.got - 2010.06.28 00:19:55.
