data_PCOD8101699
_publ_section_title
;
Structure prediction by ZEFSAII (Michael W. Deem and Ramdas Pophale) SiO2 
 PCOD8101699
Probable space group: C 2/M
;
_chemical_formula_sum "Si O2"
_cell_formula_units_Z 56
_cell_length_a 18.572036
_cell_length_b 8.932538
_cell_length_c 18.193385
_cell_angle_alpha 90.000000
_cell_angle_beta 112.153905
_cell_angle_gamma 90.000000
_cell_volume 2795.378413
_symmetry_space_group_name_H-M "C 2/M"
_symmetry_group_IT_number 12
_symmetry_cell_setting 'monoclinic'
loop_
_space_group_symop_operation_xyz
x,y,z
-x,y,-z
-x,-y,-z
x,-y,z
1/2+x,1/2+y,z
1/2-x,1/2+y,-z
1/2-x,1/2-y,-z
1/2+x,1/2-y,z
loop_
_atom_site_type_symbol
_atom_site_label
_atom_site_fract_x
_atom_site_fract_y
_atom_site_fract_z
Si Si1 0.771300 0.168739 0.435142
Si Si2 0.419272 0.173114 0.007092
Si Si3 0.943424 0.828824 0.536092
Si Si4 0.667382 0.178045 0.263943
Si Si5 0.785162 0.824162 0.868659
Si Si6 0.971193 0.822445 0.709888
Si Si7 0.890828 0.672300 0.164413
O O1 0.750000 0.250000 0.500000
O O2 0.862859 0.183077 0.462262
O O3 0.728833 0.238060 0.348155
O O4 0.742765 0.000000 0.432940
O O5 0.424445 0.199225 0.096014
O O6 0.401857 0.000000 0.981367
O O7 0.500000 0.223839 0.000000
O O8 0.348468 0.274253 0.952405
O O9 0.946048 0.759676 0.619278
O O10 0.000000 0.745752 0.500000
O O11 0.970087 0.000000 0.557152
O O12 0.698337 0.236922 0.199336
O O13 0.583209 0.244656 0.250375
O O14 0.661196 0.000000 0.257730
O O15 0.699577 0.780839 0.865364
O O16 0.792699 0.000000 0.857757
O O17 0.059779 0.774565 0.760473
O O18 0.961635 0.000000 0.712312
O O19 0.901050 0.500000 0.191625
#
# Coordination Sequence:
#
# PCOD8101699 Si02
#       7
#     8   8   8   8   8   8   8
#     4  10  20  36  59  84 114 153 197 248 300 352
#     4  10  21  40  66  91 118 158 199 239 293 355
#     4   9  19  35  56  83 117 152 194 247 296 346
#     4  11  23  38  60  86 119 160 203 249 301 361
#     4  11  24  40  61  90 124 159 197 248 295 345
#     4  11  22  37  62  89 118 158 203 250 296 353
#     4  10  23  41  60  88 128 161 192 242 299 352
#
# _framework density 20.033066000000002
#
# number of rings (size 3 to 8) (size 9 to 14) (size 15 to 20)
#    0.000    1.714    1.429    2.571    2.000    3.714 
#    0.000    0.000    0.000    2.143    0.000    0.000 
#    0.000    0.000    0.000    0.000    0.000    0.000 
#
# Total GULP energy -347209.818724 kJ/mol
# GULP energy per Si atom -12400.350669 kJ/mol
# Density = 1.998747 g / cm^3
# Si number density = 20.033066 Si / 1000 Ang^3
#
#
#
# Elastic Constant Matrix: (Units=GPa)
#
#
# Indices 1 2 3 4 5 6 
#
# 1 122.3136 37.3945 32.8061 0.0000 -2.1824 0.0000
# 2 37.3945 63.8037 29.2024 0.0000 5.8224 0.0000
# 3 32.8061 29.2024 88.0945 0.0000 9.5423 0.0000
# 4 0.0000 0.0000 0.0000 28.8360 0.0000 5.8746
# 5 -2.1824 5.8224 9.5423 0.0000 40.6855 0.0000
# 6 0.0000 0.0000 0.0000 5.8746 0.0000 27.4883
#
#
#
# Elastic Compliance Matrix: (Units=1/GPa)
#
#
# Indices 1 2 3 4 5 6 
#
# 1 0.010433 -0.005203 -0.002362 0.000000 0.001858 0.000000
# 2 -0.005203 0.021132 -0.004832 0.000000 -0.002170 0.000000
# 3 -0.002362 -0.004832 0.014131 0.000000 -0.002749 0.000000
# 4 0.000000 0.000000 0.000000 0.036258 0.000000 -0.007749
# 5 0.001858 -0.002170 -0.002749 0.000000 0.025634 0.000000
# 6 0.000000 0.000000 0.000000 -0.007749 0.000000 0.038035
#
#
# Mechanical properties :
#
#
# Convention : Reuss Voigt Hill
#
# Bulk Modulus (GPa) = 47.84395 52.55752 50.20073
# Shear Modulus (GPa) = 28.18735 31.05590 29.62162
#
# Velocity S-wave (km/s) = 3.75512 3.94157 3.84948
# Velocity P-wave (km/s) = 6.53725 6.85616 6.69860
#
# Compressibility (1/GPa) = 0.02090129
#
# Stress axis : x y z
#
# Youngs Moduli (GPa) = 95.84894 47.32057 70.76832
#
# Poissons Ratio (x) = 0.24622 0.16713
# Poissons Ratio (y) = 0.49873 0.34198
# Poissons Ratio (z) = 0.22636 0.22867
#
# Static dielectric constant tensor:
#      x y z
#    x 3.332140 0.000000 -0.312100 
#    y 0.000000 3.543960 0.000000 
#    z -0.312100 0.000000 3.518930 
# 
# 
# High freq. dielectric constant tensor:
#      x y z
#    x 1.793720 0.000000 0.002270 
#    y 0.000000 1.763820 0.000000 
#    z 0.002270 0.000000 1.794060 
# 
# From -- ./inp_files/275671.got.cif
#   From: 2010.06.25/outbox.cif.g09.slc.cpg/sg12_138_cif.got.tgz:275671.got - 2010.06.28 00:19:55.
