data_PCOD8101363
_publ_section_title
;
Structure prediction by ZEFSAII (Michael W. Deem and Ramdas Pophale) SiO2 
 PCOD8101363
Probable space group: C 2/M
;
_chemical_formula_sum "Si O2"
_cell_formula_units_Z 48
_cell_length_a 30.951866
_cell_length_b 16.687969
_cell_length_c 9.612577
_cell_angle_alpha 90.000000
_cell_angle_beta 32.114457
_cell_angle_gamma 90.000000
_cell_volume 2639.521365
_symmetry_space_group_name_H-M "C 2/M"
_symmetry_group_IT_number 12
_symmetry_cell_setting 'monoclinic'
loop_
_space_group_symop_operation_xyz
x,y,z
-x,y,-z
-x,-y,-z
x,-y,z
1/2+x,1/2+y,z
1/2-x,1/2+y,-z
1/2-x,1/2-y,-z
1/2+x,1/2-y,z
loop_
_atom_site_type_symbol
_atom_site_label
_atom_site_fract_x
_atom_site_fract_y
_atom_site_fract_z
Si Si1 0.477669 0.308700 0.712184
Si Si2 0.935500 0.697250 0.065069
Si Si3 0.802595 0.149722 0.106004
Si Si4 0.867566 0.906756 0.644234
Si Si5 0.294130 0.909634 0.384126
Si Si6 0.300232 0.697117 0.577565
O O1 0.500000 0.272552 0.500000
O O2 0.540053 0.379214 0.581765
O O3 0.484554 0.237828 0.804922
O O4 0.387701 0.345057 0.955360
O O5 0.886209 0.622084 0.139535
O O6 0.877505 0.762015 0.295972
O O7 0.000000 0.664237 0.000000
O O8 0.743875 0.094357 0.358012
O O9 0.763743 0.237655 0.191453
O O10 0.812738 0.108466 0.929304
O O11 0.827922 0.858957 0.626482
O O12 0.868541 0.000000 0.603632
O O13 0.242839 0.855128 0.421557
O O14 0.295217 0.000000 0.325963
#
# Coordination Sequence:
#
# PCOD8101363 Si02
#       6
#     8   8   8   8   8   8
#     4  10  20  36  58  81 109 151 181 218 275 331
#     4  11  20  39  58  80 109 145 195 225 263 335
#     4  10  20  38  58  80 112 149 190 216 267 340
#     4  11  23  35  54  89 118 141 178 228 283 323
#     4  11  22  36  59  84 111 145 182 235 279 310
#     4  11  20  37  60  81 110 151 184 223 274 329
#
# _framework density 18.185115
#
# number of rings (size 3 to 8) (size 9 to 14) (size 15 to 20)
#    0.000    1.333    5.000    2.500    0.000    4.000 
#    0.000    0.833    0.000    0.500    0.000    0.000 
#    0.000    0.000    0.000    0.000    0.000    0.000 
#
# Total GULP energy -297679.778424 kJ/mol
# GULP energy per Si atom -12403.324101 kJ/mol
# Density = 1.814372 g / cm^3
# Si number density = 18.185115 Si / 1000 Ang^3
#
#
#
# Elastic Constant Matrix: (Units=GPa)
#
#
# Indices 1 2 3 4 5 6 
#
# 1 97.9717 23.6707 30.7711 0.0000 -13.4751 0.0000
# 2 23.6707 87.5769 40.4097 0.0000 -12.7779 0.0000
# 3 30.7711 40.4097 58.8247 0.0000 -5.5158 0.0000
# 4 0.0000 0.0000 0.0000 20.1239 0.0000 -1.3162
# 5 -13.4751 -12.7779 -5.5158 0.0000 26.4005 0.0000
# 6 0.0000 0.0000 0.0000 -1.3162 0.0000 -61.7471
#
#
#
# Elastic Compliance Matrix: (Units=1/GPa)
#
#
# Indices 1 2 3 4 5 6 
#
# 1 0.012900 0.000261 -0.006424 0.000000 0.005368 0.000000
# 2 0.000261 0.017643 -0.011672 0.000000 0.006234 0.000000
# 3 -0.006424 -0.011672 0.028091 0.000000 -0.003059 0.000000
# 4 0.000000 0.000000 0.000000 0.049623 0.000000 -0.001058
# 5 0.005368 0.006234 -0.003059 0.000000 0.042996 0.000000
# 6 0.000000 0.000000 0.000000 -0.001058 0.000000 -0.016173
#
#
# Mechanical properties :
#
#
# Convention : Reuss Voigt Hill
#
# Bulk Modulus (GPa) = 43.54542 48.23069 45.88806
# Shear Modulus (GPa) = 28.02606 6.92359 17.47483
#
# Velocity S-wave (km/s) = 3.93001 1.95334 3.10327
# Velocity P-wave (km/s) = 6.67765 5.62735 6.17487
#
# Compressibility (1/GPa) = 0.02296453
#
# Stress axis : x y z
#
# Youngs Moduli (GPa) = 77.51959 56.67885 35.59858
#
# Poissons Ratio (x) = -0.01477 0.22867
# Poissons Ratio (y) = -0.02020 0.41550
# Poissons Ratio (z) = 0.49795 0.66155
#
# Static dielectric constant tensor:
#      x y z
#    x 3.547580 0.000000 0.010400 
#    y 0.000000 3.191530 0.000000 
#    z 0.010400 0.000000 3.501310 
# 
# 
# High freq. dielectric constant tensor:
#      x y z
#    x 1.719060 0.000000 0.000260 
#    y 0.000000 1.687860 0.000000 
#    z 0.000260 0.000000 1.708330 
# 
# From -- ./inp_files/74601.got.cif
#   From: 2010.06.25/outbox.cif.g09.slc.cpg/sg12_38_cif.got.tgz:74601.got - 2010.06.28 00:19:55.
