data_PCOD8101532
_publ_section_title
;
Structure prediction by ZEFSAII (Michael W. Deem and Ramdas Pophale) SiO2 
 PCOD8101532
Probable space group: C 2/M
;
_chemical_formula_sum "Si O2"
_cell_formula_units_Z 56
_cell_length_a 14.023525
_cell_length_b 24.681407
_cell_length_c 8.768927
_cell_angle_alpha 90.000000
_cell_angle_beta 74.382425
_cell_angle_gamma 90.000000
_cell_volume 2923.047954
_symmetry_space_group_name_H-M "C 2/M"
_symmetry_group_IT_number 12
_symmetry_cell_setting 'monoclinic'
loop_
_space_group_symop_operation_xyz
x,y,z
-x,y,-z
-x,-y,-z
x,-y,z
1/2+x,1/2+y,z
1/2-x,1/2+y,-z
1/2-x,1/2-y,-z
1/2+x,1/2-y,z
loop_
_atom_site_type_symbol
_atom_site_label
_atom_site_fract_x
_atom_site_fract_y
_atom_site_fract_z
Si Si1 0.614080 0.860912 0.486055
Si Si2 0.772161 0.336258 0.287986
Si Si3 0.808235 0.727129 0.768455
Si Si4 0.212767 0.865557 0.003982
Si Si5 0.225977 0.936111 0.711837
Si Si6 0.588579 0.632835 0.573204
Si Si7 0.467083 0.699741 0.850180
O O1 0.500000 0.869866 0.500000
O O2 0.629340 0.852256 0.660990
O O3 0.660144 0.807633 0.390578
O O4 0.672683 0.913956 0.404912
O O5 0.771689 0.273065 0.241335
O O6 0.675092 0.343951 0.432204
O O7 0.770553 0.375034 0.138918
O O8 0.755200 0.689336 0.913262
O O9 0.908032 0.752593 0.792960
O O10 0.220427 0.916841 0.890213
O O11 0.098764 0.854212 0.095074
O O12 0.130253 0.916596 0.657227
O O13 0.229108 0.000000 0.708345
O O14 0.500000 0.613268 0.500000
O O15 0.557021 0.681045 0.702310
O O16 0.500000 0.722412 0.000000
#
# Coordination Sequence:
#
# PCOD8101532 Si02
#       7
#     8   8   8   8   8   8   8
#     4  10  23  38  59  87 115 148 204 244 286 353
#     4  10  20  36  58  84 124 154 185 241 289 346
#     4  10  21  33  54  84 121 160 189 228 288 349
#     4  10  20  38  54  82 116 154 201 235 282 349
#     4  10  23  43  62  81 114 155 196 254 301 335
#     4  11  20  35  60  89 120 155 188 237 284 355
#     4  11  20  33  56  84 126 160 189 222 282 354
#
# _framework density 19.158083999999999
#
# number of rings (size 3 to 8) (size 9 to 14) (size 15 to 20)
#    0.000    1.714    4.286    2.143    2.000    2.857 
#    0.000    6.429    0.000    0.857    0.000    0.000 
#    0.000    0.000    0.000    0.000    0.000    0.000 
#
# Total GULP energy -347167.499575 kJ/mol
# GULP energy per Si atom -12398.839271 kJ/mol
# Density = 1.911448 g / cm^3
# Si number density = 19.158084 Si / 1000 Ang^3
#
#
#
# Elastic Constant Matrix: (Units=GPa)
#
#
# Indices 1 2 3 4 5 6 
#
# 1 116.6439 33.1206 43.7164 0.0000 23.6251 0.0000
# 2 33.1206 103.9973 36.0312 0.0000 15.1260 0.0000
# 3 43.7164 36.0312 115.8091 0.0000 28.7860 0.0000
# 4 0.0000 0.0000 0.0000 7.7645 0.0000 3.0600
# 5 23.6251 15.1260 28.7860 0.0000 35.1867 0.0000
# 6 0.0000 0.0000 0.0000 3.0600 0.0000 20.5888
#
#
#
# Elastic Compliance Matrix: (Units=1/GPa)
#
#
# Indices 1 2 3 4 5 6 
#
# 1 0.010955 -0.002002 -0.002383 0.000000 -0.004546 0.000000
# 2 -0.002002 0.011303 -0.002369 0.000000 -0.001577 0.000000
# 3 -0.002383 -0.002369 0.012076 0.000000 -0.007261 0.000000
# 4 0.000000 0.000000 0.000000 0.136805 0.000000 -0.020333
# 5 -0.004546 -0.001577 -0.007261 0.000000 0.038090 0.000000
# 6 0.000000 0.000000 0.000000 -0.020333 0.000000 0.051592
#
#
# Mechanical properties :
#
#
# Convention : Reuss Voigt Hill
#
# Bulk Modulus (GPa) = 48.01461 62.46520 55.23990
# Shear Modulus (GPa) = 17.77638 27.61347 22.69492
#
# Velocity S-wave (km/s) = 3.04941 3.80063 3.44556
# Velocity P-wave (km/s) = 6.12497 7.20664 6.68771
#
# Compressibility (1/GPa) = 0.02082699
#
# Stress axis : x y z
#
# Youngs Moduli (GPa) = 91.27988 88.46871 82.80688
#
# Poissons Ratio (x) = 0.17715 0.19730
# Poissons Ratio (y) = 0.18278 0.19617
# Poissons Ratio (z) = 0.21748 0.20959
#
# Static dielectric constant tensor:
#      x y z
#    x 3.755060 0.000000 0.261700 
#    y 0.000000 3.073750 0.000000 
#    z 0.261700 0.000000 3.984600 
# 
# 
# High freq. dielectric constant tensor:
#      x y z
#    x 1.747850 0.000000 0.013930 
#    y 0.000000 1.699540 0.000000 
#    z 0.013930 0.000000 1.767030 
# 
# From -- ./inp_files/65278.got.cif
#   From: 2010.06.25/outbox.cif.g09.slc.cpg/sg12_33_cif.got.tgz:65278.got - 2010.06.28 00:19:55.
