data_PCOD8101061
_publ_section_title
;
Structure prediction by ZEFSAII (Michael W. Deem and Ramdas Pophale) SiO2 
 PCOD8101061
Probable space group: C 2/M
;
_chemical_formula_sum "Si O2"
_cell_formula_units_Z 56
_cell_length_a 14.636568
_cell_length_b 28.526577
_cell_length_c 9.522437
_cell_angle_alpha 90.000000
_cell_angle_beta 46.017404
_cell_angle_gamma 90.000000
_cell_volume 2860.872283
_symmetry_space_group_name_H-M "C 2/M"
_symmetry_group_IT_number 12
_symmetry_cell_setting 'monoclinic'
loop_
_space_group_symop_operation_xyz
x,y,z
-x,y,-z
-x,-y,-z
x,-y,z
1/2+x,1/2+y,z
1/2-x,1/2+y,-z
1/2-x,1/2-y,-z
1/2+x,1/2-y,z
loop_
_atom_site_type_symbol
_atom_site_label
_atom_site_fract_x
_atom_site_fract_y
_atom_site_fract_z
Si Si1 0.747468 0.552686 0.110236
Si Si2 0.141450 0.232754 0.348755
Si Si3 0.511095 0.053642 0.332098
Si Si4 0.380669 0.901875 0.214925
Si Si5 0.855518 0.805288 0.123437
Si Si6 0.181245 0.832862 0.533448
Si Si7 0.404134 0.643357 0.795830
O O1 0.688927 0.500000 0.166284
O O2 0.813940 0.558295 0.191083
O O3 0.642944 0.592687 0.203081
O O4 0.847093 0.559330 0.877649
O O5 0.256515 0.265814 0.174411
O O6 0.168589 0.219191 0.481744
O O7 0.142117 0.185269 0.255645
O O8 0.000000 0.256612 0.500000
O O9 0.500000 0.076212 0.500000
O O10 0.412665 0.077997 0.332968
O O11 0.469040 0.000000 0.385184
O O12 0.296286 0.856832 0.331246
O O13 0.500000 0.882741 0.000000
O O14 0.796202 0.828805 0.324858
O O15 0.859347 0.845166 0.001273
O O16 0.000000 0.786020 0.000000
O O17 0.055204 0.862238 0.632060
#
# Coordination Sequence:
#
# PCOD8101061 Si02
#       7
#     8   8   8   8   8   8   8
#     4  10  20  37  60  85 116 155 201 242 288 352
#     4  10  20  39  60  85 119 157 196 246 296 354
#     4   9  19  35  56  82 117 153 189 243 298 341
#     4  10  20  36  56  85 114 154 194 243 289 348
#     4  10  22  39  60  86 120 161 196 239 303 365
#     4  10  21  38  59  82 122 153 186 243 301 348
#     4  10  21  39  60  84 121 158 190 243 301 344
#
# _framework density 19.574449000000001
#
# number of rings (size 3 to 8) (size 9 to 14) (size 15 to 20)
#    0.000    2.143    1.429    1.286    2.000    2.286 
#    5.143    2.143    0.000    3.857    0.000    0.000 
#    0.000    0.000    0.000    0.000    0.000    0.000 
#
# Total GULP energy -347073.094917 kJ/mol
# GULP energy per Si atom -12395.467676 kJ/mol
# Density = 1.952990 g / cm^3
# Si number density = 19.574449 Si / 1000 Ang^3
#
#
#
# Elastic Constant Matrix: (Units=GPa)
#
#
# Indices 1 2 3 4 5 6 
#
# 1 104.6083 51.8481 49.1734 0.0000 6.2021 0.0000
# 2 51.8481 86.4636 37.1659 0.0000 -15.6291 0.0000
# 3 49.1734 37.1659 101.3597 0.0000 11.7500 0.0000
# 4 0.0000 0.0000 0.0000 22.9471 0.0000 0.8656
# 5 6.2021 -15.6291 11.7500 0.0000 38.0533 0.0000
# 6 0.0000 0.0000 0.0000 0.8656 0.0000 19.1799
#
#
#
# Elastic Compliance Matrix: (Units=1/GPa)
#
#
# Indices 1 2 3 4 5 6 
#
# 1 0.016129 -0.008868 -0.003989 0.000000 -0.005039 0.000000
# 2 -0.008868 0.021004 -0.004737 0.000000 0.011535 0.000000
# 3 -0.003989 -0.004737 0.014196 0.000000 -0.005679 0.000000
# 4 0.000000 0.000000 0.000000 0.043653 0.000000 -0.001970
# 5 -0.005039 0.011535 -0.005679 0.000000 0.033591 0.000000
# 6 0.000000 0.000000 0.000000 -0.001970 0.000000 0.052227
#
#
# Mechanical properties :
#
#
# Convention : Reuss Voigt Hill
#
# Bulk Modulus (GPa) = 61.94957 63.20075 62.57516
# Shear Modulus (GPa) = 22.58691 26.31899 24.45295
#
# Velocity S-wave (km/s) = 3.40059 3.67080 3.53828
# Velocity P-wave (km/s) = 6.86554 7.09393 6.98067
#
# Compressibility (1/GPa) = 0.01614216
#
# Stress axis : x y z
#
# Youngs Moduli (GPa) = 62.00200 47.60941 70.44187
#
# Poissons Ratio (x) = 0.42219 0.28098
# Poissons Ratio (y) = 0.54982 0.33366
# Poissons Ratio (z) = 0.24731 0.22551
#
# Static dielectric constant tensor:
#      x y z
#    x 3.740150 0.000000 0.150560 
#    y 0.000000 3.216340 0.000000 
#    z 0.150560 0.000000 3.741540 
# 
# 
# High freq. dielectric constant tensor:
#      x y z
#    x 1.767570 0.000000 0.011830 
#    y 0.000000 1.733520 0.000000 
#    z 0.011830 0.000000 1.775050 
# 
# From -- ./inp_files/68150.got.cif
#   From: 2010.06.25/outbox.cif.g09.slc.cpg/sg12_35_cif.got.tgz:68150.got - 2010.06.28 00:19:55.
