data_PCOD8101946
_publ_section_title
;
Structure prediction by ZEFSAII (Michael W. Deem and Ramdas Pophale) SiO2 
 PCOD8101946
Probable space group: C 2/M
;
_chemical_formula_sum "Si O2"
_cell_formula_units_Z 56
_cell_length_a 20.413685
_cell_length_b 8.904546
_cell_length_c 15.952883
_cell_angle_alpha 90.000000
_cell_angle_beta 98.733960
_cell_angle_gamma 90.000000
_cell_volume 2866.202635
_symmetry_space_group_name_H-M "C 2/M"
_symmetry_group_IT_number 12
_symmetry_cell_setting 'monoclinic'
loop_
_space_group_symop_operation_xyz
x,y,z
-x,y,-z
-x,-y,-z
x,-y,z
1/2+x,1/2+y,z
1/2-x,1/2+y,-z
1/2-x,1/2-y,-z
1/2+x,1/2-y,z
loop_
_atom_site_type_symbol
_atom_site_label
_atom_site_fract_x
_atom_site_fract_y
_atom_site_fract_z
Si Si1 0.155302 0.673355 0.675083
Si Si2 0.320196 0.322737 0.493104
Si Si3 0.799081 0.173230 0.773364
Si Si4 0.950765 0.177906 0.061245
Si Si5 0.530702 0.174168 0.760148
Si Si6 0.311205 0.676982 0.966385
Si Si7 0.389983 0.174785 0.656229
O O1 0.147032 0.500000 0.646111
O O2 0.155393 0.776600 0.593578
O O3 0.221656 0.697702 0.741066
O O4 0.094334 0.727810 0.720128
O O5 0.312142 0.500000 0.497594
O O6 0.250000 0.250000 0.500000
O O7 0.374565 0.268319 0.570006
O O8 0.813987 0.226706 0.870267
O O9 0.841763 0.277320 0.721528
O O10 0.819426 0.000000 0.762864
O O11 0.974257 0.235677 0.155137
O O12 0.953577 0.000000 0.063125
O O13 0.877169 0.235063 0.025280
O O14 0.000000 0.241676 0.000000
O O15 0.465686 0.209451 0.693585
O O16 0.536498 0.000000 0.784056
O O17 0.303131 0.500000 0.970943
O O18 0.250000 0.750000 0.000000
O O19 0.378156 0.000000 0.635729
#
# Coordination Sequence:
#
# PCOD8101946 Si02
#       7
#     8   8   8   8   8   8   8
#     4  10  21  39  62  87 119 158 199 244 296 351
#     4  12  24  40  63  91 121 154 195 242 294 353
#     4  10  20  36  60  85 113 154 201 246 295 350
#     4  10  21  38  60  85 118 159 203 250 297 350
#     4  10  23  41  61  88 121 159 200 245 298 353
#     4  10  21  36  56  85 117 153 196 244 298 352
#     4  11  23  39  61  89 120 153 196 245 293 351
#
# _framework density 19.538046000000001
#
# number of rings (size 3 to 8) (size 9 to 14) (size 15 to 20)
#    0.000    1.571    1.429    3.429    0.000    6.000 
#    0.000    2.857    0.000    0.000    0.000    0.000 
#    0.000    0.000    0.000    0.000    0.000    0.000 
#
# Total GULP energy -347363.639781 kJ/mol
# GULP energy per Si atom -12405.844278 kJ/mol
# Density = 1.949358 g / cm^3
# Si number density = 19.538046 Si / 1000 Ang^3
#
#
#
# Elastic Constant Matrix: (Units=GPa)
#
#
# Indices 1 2 3 4 5 6 
#
# 1 111.9001 39.3247 26.7807 0.0000 -7.6873 0.0000
# 2 39.3247 75.5130 44.0240 0.0000 2.1453 0.0000
# 3 26.7807 44.0240 105.1053 0.0000 1.4049 0.0000
# 4 0.0000 0.0000 0.0000 36.6034 0.0000 -2.2914
# 5 -7.6873 2.1453 1.4049 0.0000 33.1728 0.0000
# 6 0.0000 0.0000 0.0000 -2.2914 0.0000 29.4009
#
#
#
# Elastic Compliance Matrix: (Units=1/GPa)
#
#
# Indices 1 2 3 4 5 6 
#
# 1 0.011250 -0.005622 -0.000552 0.000000 0.002994 0.000000
# 2 -0.005622 0.020353 -0.007062 0.000000 -0.002320 0.000000
# 3 -0.000552 -0.007062 0.012615 0.000000 -0.000205 0.000000
# 4 0.000000 0.000000 0.000000 0.027454 0.000000 0.002140
# 5 0.002994 -0.002320 -0.000205 0.000000 0.030998 0.000000
# 6 0.000000 0.000000 0.000000 0.002140 0.000000 0.034179
#
#
# Mechanical properties :
#
#
# Convention : Reuss Voigt Hill
#
# Bulk Modulus (GPa) = 56.34430 56.97527 56.65978
# Shear Modulus (GPa) = 29.54447 31.99467 30.76957
#
# Velocity S-wave (km/s) = 3.89286 4.05106 3.97275
# Velocity P-wave (km/s) = 7.00761 7.14885 7.07858
#
# Compressibility (1/GPa) = 0.01774802
#
# Stress axis : x y z
#
# Youngs Moduli (GPa) = 88.88894 49.13188 79.26825
#
# Poissons Ratio (x) = 0.27622 0.04373
# Poissons Ratio (y) = 0.49974 0.55976
# Poissons Ratio (z) = 0.04904 0.34695
#
# Static dielectric constant tensor:
#      x y z
#    x 3.813420 0.000000 0.097990 
#    y 0.000000 3.493640 0.000000 
#    z 0.097990 0.000000 3.737340 
# 
# 
# High freq. dielectric constant tensor:
#      x y z
#    x 1.773470 0.000000 0.004440 
#    y 0.000000 1.753550 0.000000 
#    z 0.004440 0.000000 1.774340 
# 
# From -- ./inp_files/230977.got.cif
#   From: 2010.06.25/outbox.cif.g09.slc.cpg/sg12_116_cif.got.tgz:230977.got - 2010.06.28 00:19:55.
