data_PCOD8101060
_publ_section_title
;
Structure prediction by ZEFSAII (Michael W. Deem and Ramdas Pophale) SiO2 
 PCOD8101060
Probable space group: C 2/M
;
_chemical_formula_sum "Si O2"
_cell_formula_units_Z 64
_cell_length_a 19.597857
_cell_length_b 26.662537
_cell_length_c 17.014816
_cell_angle_alpha 90.000000
_cell_angle_beta 158.667853
_cell_angle_gamma 90.000000
_cell_volume 3234.214876
_symmetry_space_group_name_H-M "C 2/M"
_symmetry_group_IT_number 12
_symmetry_cell_setting 'monoclinic'
loop_
_space_group_symop_operation_xyz
x,y,z
-x,y,-z
-x,-y,-z
x,-y,z
1/2+x,1/2+y,z
1/2-x,1/2+y,-z
1/2-x,1/2-y,-z
1/2+x,1/2-y,z
loop_
_atom_site_type_symbol
_atom_site_label
_atom_site_fract_x
_atom_site_fract_y
_atom_site_fract_z
Si Si1 0.636981 0.884848 0.718709
Si Si2 0.361285 0.305822 0.462929
Si Si3 0.909557 0.360142 0.714419
Si Si4 0.999895 0.053580 0.091238
Si Si5 0.903764 0.199343 0.979998
Si Si6 0.602532 0.940382 0.413211
Si Si7 0.229674 0.689151 0.150164
Si Si8 0.737118 0.211817 0.555808
O O1 0.500000 0.899890 0.500000
O O2 0.549999 0.907235 0.704041
O O3 0.698941 0.826220 0.777649
O O4 0.844360 0.906434 0.941374
O O5 0.276453 0.341725 0.439183
O O6 0.584782 0.311351 0.703789
O O7 0.275368 0.325107 0.288785
O O8 0.320849 0.245740 0.430422
O O9 0.898789 0.418979 0.678080
O O10 0.914025 0.329939 0.634645
O O11 0.091572 0.351462 0.963116
O O12 0.200185 0.072677 0.335583
O O13 0.953941 0.000000 0.083108
O O14 0.000000 0.044481 0.000000
O O15 0.063924 0.184459 0.215104
O O16 0.876301 0.258300 0.962405
O O17 0.000000 0.184919 0.000000
O O18 0.557021 0.000000 0.365476
O O19 0.750000 0.250000 0.500000
#
# Coordination Sequence:
#
# PCOD8101060 Si02
#       8
#     8   8   8   8   8   8   8   8
#     4  12  26  37  59  90 124 169 217 257 297 360
#     4  10  22  39  62  91 123 161 211 249 301 375
#     4  11  23  41  61  88 128 165 201 259 316 374
#     4  10  20  40  63  81 113 158 209 268 313 355
#     4  12  23  37  58  86 130 169 208 248 300 354
#     4  11  26  44  65  91 121 163 216 268 324 371
#     4  11  22  39  66  89 122 171 205 250 306 370
#     4  10  20  36  56  84 125 162 202 246 290 368
#
# _framework density 19.788419000000001
#
# number of rings (size 3 to 8) (size 9 to 14) (size 15 to 20)
#    0.000    1.125    5.000    1.875    5.250    4.000 
#    0.000    0.000    0.000    1.500    0.000    1.750 
#    0.000    0.000    0.000    0.000    0.000    0.000 
#
# Total GULP energy -396453.504217 kJ/mol
# GULP energy per Si atom -12389.172007 kJ/mol
# Density = 1.974338 g / cm^3
# Si number density = 19.788419 Si / 1000 Ang^3
#
#
#
# Elastic Constant Matrix: (Units=GPa)
#
#
# Indices 1 2 3 4 5 6 
#
# 1 79.5587 39.7970 41.8028 0.0001 4.0045 0.0006
# 2 39.7970 74.2404 32.4545 -0.0001 1.3468 -0.0003
# 3 41.8028 32.4545 116.0378 0.0002 -3.3750 0.0014
# 4 0.0001 -0.0001 0.0002 34.4214 0.0002 -2.2752
# 5 4.0045 1.3468 -3.3750 0.0002 28.3416 0.0011
# 6 0.0006 -0.0003 0.0014 -2.2752 0.0011 69.1693
#
#
#
# Elastic Compliance Matrix: (Units=1/GPa)
#
#
# Indices 1 2 3 4 5 6 
#
# 1 0.019327 -0.008234 -0.004744 0.000000 -0.002904 0.000000
# 2 -0.008234 0.018898 -0.002320 0.000000 -0.000011 0.000000
# 3 -0.004744 -0.002320 0.011037 0.000000 0.002095 0.000000
# 4 0.000000 0.000000 0.000000 0.029115 0.000000 0.000958
# 5 -0.002904 -0.000011 0.002095 0.000000 0.035944 -0.000001
# 6 0.000000 0.000000 0.000000 0.000958 -0.000001 0.014489
#
#
# Mechanical properties :
#
#
# Convention : Reuss Voigt Hill
#
# Bulk Modulus (GPa) = 53.57221 55.32729 54.44975
# Shear Modulus (GPa) = 30.18843 36.77197 33.48020
#
# Velocity S-wave (km/s) = 3.91008 4.31543 4.11774
# Velocity P-wave (km/s) = 6.89320 7.26985 7.08403
#
# Compressibility (1/GPa) = 0.01866639
#
# Stress axis : x y z
#
# Youngs Moduli (GPa) = 51.74116 52.91649 90.60708
#
# Poissons Ratio (x) = 0.43570 0.42986
# Poissons Ratio (y) = 0.42602 0.21017
# Poissons Ratio (z) = 0.24547 0.12274
#
# Static dielectric constant tensor:
#      x y z
#    x 3.618000 0.000090 -0.093060 
#    y 0.000090 6.210870 0.000170 
#    z -0.093060 0.000170 3.591340 
# 
# 
# High freq. dielectric constant tensor:
#      x y z
#    x 1.757420 0.000000 0.002120 
#    y 0.000000 1.750030 0.000000 
#    z 0.002120 0.000000 1.785160 
# 
# From -- ./inp_files/286706.got.cif
#   From: 2010.06.25/outbox.cif.g09.slc.cpg/sg12_144_cif.got.tgz:286706.got - 2010.06.28 00:19:55.
