data_PCOD8101630
_publ_section_title
;
Structure prediction by ZEFSAII (Michael W. Deem and Ramdas Pophale) SiO2 
 PCOD8101630
Probable space group: C 2/M
;
_chemical_formula_sum "Si O2"
_cell_formula_units_Z 32
_cell_length_a 10.303940
_cell_length_b 29.800072
_cell_length_c 5.052456
_cell_angle_alpha 90.000000
_cell_angle_beta 83.559279
_cell_angle_gamma 90.000000
_cell_volume 1541.606080
_symmetry_space_group_name_H-M "C 2/M"
_symmetry_group_IT_number 12
_symmetry_cell_setting 'monoclinic'
loop_
_space_group_symop_operation_xyz
x,y,z
-x,y,-z
-x,-y,-z
x,-y,z
1/2+x,1/2+y,z
1/2-x,1/2+y,-z
1/2-x,1/2-y,-z
1/2+x,1/2-y,z
loop_
_atom_site_type_symbol
_atom_site_label
_atom_site_fract_x
_atom_site_fract_y
_atom_site_fract_z
Si Si1 0.639215 0.769133 0.832202
Si Si2 0.092443 0.000000 0.733384
Si Si3 0.352394 0.594512 0.140077
Si Si4 0.710645 0.646760 0.319195
Si Si5 0.500000 0.294310 0.500000
O O1 0.668560 0.818918 0.715096
O O2 0.619018 0.734709 0.594302
O O3 0.500000 0.772144 0.000000
O O4 0.750000 0.750000 0.000000
O O5 0.180670 0.044975 0.734451
O O6 0.000000 0.000000 0.500000
O O7 0.000000 0.000000 0.000000
O O8 0.314218 0.628845 0.379702
O O9 0.500000 0.596305 0.000000
O O10 0.265673 0.607410 0.902393
O O11 0.577695 0.674332 0.271198
#
# Coordination Sequence:
#
# PCOD8101630 Si02
#       5
#     8   4   8   8   4
#     4  12  27  44  63  92 131 181 230 276 325 380
#     4  10  20  36  58  92 129 167 202 264 343 404
#     4  11  21  38  60  93 129 165 209 268 330 401
#     4  12  24  38  63  93 126 174 217 261 324 392
#     4  12  24  42  62  89 136 175 224 266 328 380
#
# _framework density 20.757574000000002
#
# number of rings (size 3 to 8) (size 9 to 14) (size 15 to 20)
#    0.000    0.500    5.000    5.250    3.500    0.000 
#    0.000    0.000    0.000    0.000    0.000    5.250 
#    0.000    0.000    0.000    0.000    0.000    0.000 
#
# Total GULP energy -198245.862479 kJ/mol
# GULP energy per Si atom -12390.366405 kJ/mol
# Density = 2.071033 g / cm^3
# Si number density = 20.757574 Si / 1000 Ang^3
#
#
#
# Elastic Constant Matrix: (Units=GPa)
#
#
# Indices 1 2 3 4 5 6 
#
# 1 80.9771 39.4599 25.3259 0.0000 2.2270 0.0000
# 2 39.4599 131.9472 45.7417 0.0000 -4.5841 0.0000
# 3 25.3259 45.7417 124.5018 0.0000 8.0274 0.0000
# 4 0.0000 0.0000 0.0000 30.5704 0.0000 6.2952
# 5 2.2270 -4.5841 8.0274 0.0000 25.0318 0.0000
# 6 0.0000 0.0000 0.0000 6.2952 0.0000 27.5010
#
#
#
# Elastic Compliance Matrix: (Units=1/GPa)
#
#
# Indices 1 2 3 4 5 6 
#
# 1 0.014781 -0.003974 -0.001445 0.000000 -0.001580 0.000000
# 2 -0.003974 0.009932 -0.003043 0.000000 0.003148 0.000000
# 3 -0.001445 -0.003043 0.009672 0.000000 -0.003530 0.000000
# 4 0.000000 0.000000 0.000000 0.034330 0.000000 -0.007858
# 5 -0.001580 0.003148 -0.003530 0.000000 0.041799 0.000000
# 6 0.000000 0.000000 0.000000 -0.007858 0.000000 0.038161
#
#
# Mechanical properties :
#
#
# Convention : Reuss Voigt Hill
#
# Bulk Modulus (GPa) = 57.27564 62.05349 59.66457
# Shear Modulus (GPa) = 29.16828 31.74720 30.45774
#
# Velocity S-wave (km/s) = 3.75265 3.91503 3.83470
# Velocity P-wave (km/s) = 6.81389 7.09901 6.95791
#
# Compressibility (1/GPa) = 0.01745943
#
# Stress axis : x y z
#
# Youngs Moduli (GPa) = 67.65348 100.68627 103.39471
#
# Poissons Ratio (x) = 0.40018 0.14937
# Poissons Ratio (y) = 0.26889 0.31468
# Poissons Ratio (z) = 0.09774 0.30643
#
# Static dielectric constant tensor:
#      x y z
#    x 2.991850 0.000000 -0.343620 
#    y 0.000000 5.617790 0.000000 
#    z -0.343620 0.000000 3.758550 
# 
# 
# High freq. dielectric constant tensor:
#      x y z
#    x 1.758050 0.000000 -0.010520 
#    y 0.000000 1.825300 0.000000 
#    z -0.010520 0.000000 1.831140 
# 
# From -- ./inp_files/6682.got.cif
#   From: 2010.06.25/outbox.cif.g09.slc.cpg/sg12_4_cif.got.tgz:6682.got - 2010.06.28 00:19:55.
