data_PCOD8101518
_publ_section_title
;
Structure prediction by ZEFSAII (Michael W. Deem and Ramdas Pophale) SiO2 
 PCOD8101518
Probable space group: C 2/M
;
_chemical_formula_sum "Si O2"
_cell_formula_units_Z 64
_cell_length_a 14.613443
_cell_length_b 8.493077
_cell_length_c 26.843864
_cell_angle_alpha 90.000000
_cell_angle_beta 105.736327
_cell_angle_gamma 90.000000
_cell_volume 3206.803855
_symmetry_space_group_name_H-M "C 2/M"
_symmetry_group_IT_number 12
_symmetry_cell_setting 'monoclinic'
loop_
_space_group_symop_operation_xyz
x,y,z
-x,y,-z
-x,-y,-z
x,-y,z
1/2+x,1/2+y,z
1/2-x,1/2+y,-z
1/2-x,1/2-y,-z
1/2+x,1/2-y,z
loop_
_atom_site_type_symbol
_atom_site_label
_atom_site_fract_x
_atom_site_fract_y
_atom_site_fract_z
Si Si1 0.382203 0.817609 0.382977
Si Si2 0.745626 0.316955 0.554315
Si Si3 0.393971 0.686535 0.995656
Si Si4 0.712681 0.686852 0.921694
Si Si5 0.429182 0.320490 0.626068
Si Si6 0.770742 0.817036 0.276139
Si Si7 0.573620 0.681319 0.259372
Si Si8 0.127494 0.185948 0.806992
O O1 0.337255 0.775717 0.429419
O O2 0.476820 0.715418 0.391328
O O3 0.306262 0.780300 0.328766
O O4 0.409172 0.000000 0.385254
O O5 0.720242 0.500000 0.549695
O O6 0.750000 0.250000 0.500000
O O7 0.845380 0.294071 0.596933
O O8 0.395410 0.500000 0.992892
O O9 0.357166 0.745135 0.044299
O O10 0.500000 0.753259 0.000000
O O11 0.319869 0.749854 0.943707
O O12 0.715984 0.500000 0.921221
O O13 0.671225 0.757298 0.864091
O O14 0.397292 0.500000 0.611605
O O15 0.454050 0.291155 0.687292
O O16 0.658045 0.794708 0.254893
O O17 0.817671 0.746928 0.233050
O O18 0.796505 0.000000 0.287757
O O19 0.602434 0.500000 0.254555
O O20 0.483359 0.730747 0.212756
O O21 0.140579 0.000000 0.809137
#
# Coordination Sequence:
#
# PCOD8101518 Si02
#       8
#     8   8   8   8   8   8   8   8
#     4  12  24  40  63  91 121 157 200 242 291 353
#     4  12  26  45  67  93 123 157 197 248 301 353
#     4   9  18  33  54  80 109 145 189 240 294 346
#     4   9  18  34  55  78 109 150 191 235 289 346
#     4  11  22  40  65  92 121 156 196 243 295 353
#     4  11  21  36  57  83 114 152 196 241 289 346
#     4  10  20  36  58  84 115 152 192 234 288 351
#     4   9  19  36  55  79 115 154 190 233 289 350
#
# _framework density 19.957567000000001
#
# number of rings (size 3 to 8) (size 9 to 14) (size 15 to 20)
#    0.000    1.625    2.500    3.000    0.000    2.250 
#    0.000    5.625    0.000    0.000    0.000    0.000 
#    0.000    0.000    0.000    0.000    0.000    0.000 
#
# Total GULP energy -396925.872514 kJ/mol
# GULP energy per Si atom -12403.933516 kJ/mol
# Density = 1.991214 g / cm^3
# Si number density = 19.957567 Si / 1000 Ang^3
#
#
#
# Elastic Constant Matrix: (Units=GPa)
#
#
# Indices 1 2 3 4 5 6 
#
# 1 95.8200 9.0115 2.4701 0.0000 -0.4273 0.0000
# 2 9.0115 48.4957 21.0892 0.0000 -0.4746 0.0000
# 3 2.4701 21.0892 70.1087 0.0000 -2.1148 0.0000
# 4 0.0000 0.0000 0.0000 23.5192 0.0000 5.0237
# 5 -0.4273 -0.4746 -2.1148 0.0000 28.1958 0.0000
# 6 0.0000 0.0000 0.0000 5.0237 0.0000 31.4460
#
#
#
# Elastic Compliance Matrix: (Units=1/GPa)
#
#
# Indices 1 2 3 4 5 6 
#
# 1 0.010626 -0.002085 0.000257 0.000000 0.000145 0.000000
# 2 -0.002085 0.024133 -0.007191 0.000000 -0.000165 0.000000
# 3 0.000257 -0.007191 0.016451 0.000000 0.001117 0.000000
# 4 0.000000 0.000000 0.000000 0.044021 0.000000 -0.007033
# 5 0.000145 -0.000165 0.001117 0.000000 0.035549 0.000000
# 6 0.000000 0.000000 0.000000 -0.007033 0.000000 0.032924
#
#
# Mechanical properties :
#
#
# Convention : Reuss Voigt Hill
#
# Bulk Modulus (GPa) = 30.14470 31.06287 30.60378
# Shear Modulus (GPa) = 25.93353 28.75577 27.34465
#
# Velocity S-wave (km/s) = 3.60868 3.79996 3.70555
# Velocity P-wave (km/s) = 5.70093 5.90349 5.80309
#
# Compressibility (1/GPa) = 0.03317333
#
# Stress axis : x y z
#
# Youngs Moduli (GPa) = 94.10574 41.43645 60.78545
#
# Poissons Ratio (x) = 0.08640 -0.01563
# Poissons Ratio (y) = 0.19621 0.43711
# Poissons Ratio (z) = -0.02420 0.29797
#
# Static dielectric constant tensor:
#      x y z
#    x 3.716890 0.000000 -0.060960 
#    y 0.000000 3.456660 0.000000 
#    z -0.060960 0.000000 3.770510 
# 
# 
# High freq. dielectric constant tensor:
#      x y z
#    x 1.789010 0.000000 0.000550 
#    y 0.000000 1.763440 0.000000 
#    z 0.000550 0.000000 1.775800 
# 
# From -- ./inp_files/359949.got.cif
#   From: 2010.06.25/outbox.cif.g09.slc.cpg/sg12_180_cif.got.tgz:359949.got - 2010.06.28 00:19:55.
