data_PCOD8101514
_publ_section_title
;
Structure prediction by ZEFSAII (Michael W. Deem and Ramdas Pophale) SiO2 
 PCOD8101514
Probable space group: C 2/M
;
_chemical_formula_sum "Si O2"
_cell_formula_units_Z 40
_cell_length_a 27.084031
_cell_length_b 17.585793
_cell_length_c 9.407114
_cell_angle_alpha 90.000000
_cell_angle_beta 150.465358
_cell_angle_gamma 90.000000
_cell_volume 2208.687506
_symmetry_space_group_name_H-M "C 2/M"
_symmetry_group_IT_number 12
_symmetry_cell_setting 'monoclinic'
loop_
_space_group_symop_operation_xyz
x,y,z
-x,y,-z
-x,-y,-z
x,-y,z
1/2+x,1/2+y,z
1/2-x,1/2+y,-z
1/2-x,1/2-y,-z
1/2+x,1/2-y,z
loop_
_atom_site_type_symbol
_atom_site_label
_atom_site_fract_x
_atom_site_fract_y
_atom_site_fract_z
Si Si1 0.021416 0.267200 0.894851
Si Si2 0.188527 0.697018 0.743571
Si Si3 0.845201 0.412560 0.810363
Si Si4 0.208144 0.817176 0.299092
Si Si5 0.610859 0.913461 0.764357
O O1 0.918967 0.265498 0.551927
O O2 0.069061 0.352472 0.021071
O O3 0.089965 0.201085 0.994161
O O4 0.000000 0.240430 0.000000
O O5 0.246961 0.680955 0.745401
O O6 0.173779 0.619033 0.791505
O O7 0.250000 0.750000 0.000000
O O8 0.878108 0.500000 0.860052
O O9 0.741826 0.394354 0.465827
O O10 0.827606 0.402030 0.935118
O O11 0.250000 0.750000 0.500000
O O12 0.500000 0.875085 0.500000
O O13 0.594602 0.000000 0.682935
#
# Coordination Sequence:
#
# PCOD8101514 Si02
#       5
#     8   8   8   8   8
#     4  11  21  37  57  85 117 149 187 237 280 333
#     4  12  23  34  58  85 116 153 187 233 283 335
#     4  10  20  36  58  84 115 147 185 232 284 340
#     4  10  21  37  54  82 113 148 190 228 276 334
#     4  10  21  35  54  83 118 147 179 231 291 340
#
# _framework density 18.110301
#
# number of rings (size 3 to 8) (size 9 to 14) (size 15 to 20)
#    0.000    1.400    6.000    2.400    0.000    1.200 
#    0.000    0.000    0.000    1.800    0.000    2.800 
#    0.000    0.000    0.000    0.000    0.000    0.000 
#
# Total GULP energy -247858.381221 kJ/mol
# GULP energy per Si atom -12392.919061 kJ/mol
# Density = 1.806908 g / cm^3
# Si number density = 18.110301 Si / 1000 Ang^3
#
#
#
# Elastic Constant Matrix: (Units=GPa)
#
#
# Indices 1 2 3 4 5 6 
#
# 1 157.8986 55.4632 53.4622 0.0000 -7.0818 0.0000
# 2 55.4632 69.7697 49.8410 0.0000 -0.4070 0.0000
# 3 53.4622 49.8410 131.2175 0.0000 -0.3230 0.0000
# 4 0.0000 0.0000 0.0000 25.2192 0.0000 -3.6562
# 5 -7.0818 -0.4070 -0.3230 0.0000 31.5544 0.0000
# 6 0.0000 0.0000 0.0000 -3.6562 0.0000 30.2411
#
#
#
# Elastic Compliance Matrix: (Units=1/GPa)
#
#
# Indices 1 2 3 4 5 6 
#
# 1 0.009061 -0.006255 -0.001311 0.000000 0.001940 0.000000
# 2 -0.006255 0.023990 -0.006566 0.000000 -0.001162 0.000000
# 3 -0.001311 -0.006566 0.010649 0.000000 -0.000270 0.000000
# 4 0.000000 0.000000 0.000000 0.040360 0.000000 0.004880
# 5 0.001940 -0.001162 -0.000270 0.000000 0.032109 0.000000
# 6 0.000000 0.000000 0.000000 0.004880 0.000000 0.033658
#
#
# Mechanical properties :
#
#
# Convention : Reuss Voigt Hill
#
# Bulk Modulus (GPa) = 64.79239 75.15763 69.97501
# Shear Modulus (GPa) = 27.28724 30.74422 29.01573
#
# Velocity S-wave (km/s) = 3.88587 4.12468 4.00705
# Velocity P-wave (km/s) = 7.48248 8.01710 7.75440
#
# Compressibility (1/GPa) = 0.01543391
#
# Stress axis : x y z
#
# Youngs Moduli (GPa) = 110.35895 41.68484 93.90942
#
# Poissons Ratio (x) = 0.26075 0.12312
# Poissons Ratio (y) = 0.69034 0.61664
# Poissons Ratio (z) = 0.14469 0.27371
#
# Static dielectric constant tensor:
#      x y z
#    x 3.564650 0.000000 0.058580 
#    y 0.000000 4.035410 0.000000 
#    z 0.058580 0.000000 3.802040 
# 
# 
# High freq. dielectric constant tensor:
#      x y z
#    x 1.705760 0.000000 -0.017480 
#    y 0.000000 1.675640 0.000000 
#    z -0.017480 0.000000 1.702860 
# 
# From -- ./inp_files/47143.got.cif
#   From: 2010.06.25/outbox.cif.g09.slc.cpg/sg12_24_cif.got.tgz:47143.got - 2010.06.28 00:19:55.
