data_PCOD8101726
_publ_section_title
;
Structure prediction by ZEFSAII (Michael W. Deem and Ramdas Pophale) SiO2 
 PCOD8101726
Probable space group: C 2/M
;
_chemical_formula_sum "Si O2"
_cell_formula_units_Z 56
_cell_length_a 21.768733
_cell_length_b 10.876938
_cell_length_c 12.392555
_cell_angle_alpha 90.000000
_cell_angle_beta 71.667165
_cell_angle_gamma 90.000000
_cell_volume 2785.346006
_symmetry_space_group_name_H-M "C 2/M"
_symmetry_group_IT_number 12
_symmetry_cell_setting 'monoclinic'
loop_
_space_group_symop_operation_xyz
x,y,z
-x,y,-z
-x,-y,-z
x,-y,z
1/2+x,1/2+y,z
1/2-x,1/2+y,-z
1/2-x,1/2-y,-z
1/2+x,1/2-y,z
loop_
_atom_site_type_symbol
_atom_site_label
_atom_site_fract_x
_atom_site_fract_y
_atom_site_fract_z
Si Si1 0.922108 0.138413 0.648134
Si Si2 0.718485 0.361295 0.647733
Si Si3 0.148992 0.789612 0.105875
Si Si4 0.016190 0.639369 0.651509
Si Si5 0.267202 0.635912 0.126165
Si Si6 0.352271 0.228869 0.502885
Si Si7 0.469866 0.141116 0.908275
O O1 0.884340 0.130852 0.782370
O O2 0.873455 0.165999 0.576412
O O3 0.974426 0.249947 0.620804
O O4 0.952119 0.000000 0.614882
O O5 0.696071 0.500000 0.644873
O O6 0.703619 0.313379 0.777265
O O7 0.674661 0.284936 0.591861
O O8 0.795604 0.351991 0.585814
O O9 0.207630 0.717534 0.125585
O O10 0.099298 0.696993 0.079234
O O11 0.176908 0.873292 0.994792
O O12 0.988460 0.500000 0.642366
O O13 0.087698 0.643252 0.563119
O O14 0.017774 0.660127 0.779807
O O15 0.239794 0.500000 0.163013
O O16 0.456291 0.000000 0.940475
O O17 0.500000 0.202621 0.000000
#
# Coordination Sequence:
#
# PCOD8101726 Si02
#       7
#     8   8   8   8   8   8   8
#     4  11  23  40  61  90 124 158 197 247 299 355
#     4  10  22  38  58  84 119 158 196 243 295 349
#     4  10  20  36  60  85 116 153 195 243 295 354
#     4  10  23  40  63  91 118 156 203 247 297 356
#     4  10  20  36  59  85 113 152 199 246 292 347
#     4  11  22  38  60  86 119 159 199 242 293 355
#     4   9  19  36  58  85 117 151 192 246 299 351
#
# _framework density 20.105222999999999
#
# number of rings (size 3 to 8) (size 9 to 14) (size 15 to 20)
#    0.000    1.857    1.429    2.143    2.000    4.000 
#    0.000    0.000    0.000    2.143    0.000    0.000 
#    0.000    0.000    0.000    0.000    0.000    0.000 
#
# Total GULP energy -347030.966221 kJ/mol
# GULP energy per Si atom -12393.963079 kJ/mol
# Density = 2.005946 g / cm^3
# Si number density = 20.105223 Si / 1000 Ang^3
#
#
#
# Elastic Constant Matrix: (Units=GPa)
#
#
# Indices 1 2 3 4 5 6 
#
# 1 63.0543 33.9305 37.4324 0.0000 0.3212 0.0000
# 2 33.9305 93.6677 32.7780 0.0000 10.6355 0.0000
# 3 37.4324 32.7780 112.9359 0.0000 17.8602 0.0000
# 4 0.0000 0.0000 0.0000 11.7718 0.0000 -6.4541
# 5 0.3212 10.6355 17.8602 0.0000 31.6118 0.0000
# 6 0.0000 0.0000 0.0000 -6.4541 0.0000 18.7909
#
#
#
# Elastic Compliance Matrix: (Units=1/GPa)
#
#
# Indices 1 2 3 4 5 6 
#
# 1 0.023499 -0.006821 -0.006736 0.000000 0.005862 0.000000
# 2 -0.006821 0.014010 -0.001176 0.000000 -0.003980 0.000000
# 3 -0.006736 -0.001176 0.012469 0.000000 -0.006581 0.000000
# 4 0.000000 0.000000 0.000000 0.104657 0.000000 0.035946
# 5 0.005862 -0.003980 -0.006581 0.000000 0.036631 0.000000
# 6 0.000000 0.000000 0.000000 0.035946 0.000000 0.065564
#
#
# Mechanical properties :
#
#
# Convention : Reuss Voigt Hill
#
# Bulk Modulus (GPa) = 48.75063 53.10441 50.92752
# Shear Modulus (GPa) = 17.05710 23.46936 20.26323
#
# Velocity S-wave (km/s) = 2.91588 3.42032 3.17812
# Velocity P-wave (km/s) = 5.96966 6.48604 6.23320
#
# Compressibility (1/GPa) = 0.02051255
#
# Stress axis : x y z
#
# Youngs Moduli (GPa) = 42.55572 71.37632 80.19682
#
# Poissons Ratio (x) = 0.48683 0.54021
# Poissons Ratio (y) = 0.29026 0.09433
# Poissons Ratio (z) = 0.28665 0.08395
#
# Static dielectric constant tensor:
#      x y z
#    x 3.522670 0.000000 0.026450 
#    y 0.000000 3.448620 0.000000 
#    z 0.026450 0.000000 4.112040 
# 
# 
# High freq. dielectric constant tensor:
#      x y z
#    x 1.770960 0.000000 0.004870 
#    y 0.000000 1.774250 0.000000 
#    z 0.004870 0.000000 1.812840 
# 
# From -- ./inp_files/164876.got.cif
#   From: 2010.06.25/outbox.cif.g09.slc.cpg/sg12_83_cif.got.tgz:164876.got - 2010.06.28 00:19:55.
