data_PCOD8101686
_publ_section_title
;
Structure prediction by ZEFSAII (Michael W. Deem and Ramdas Pophale) SiO2 
 PCOD8101686
Probable space group: C 2/M
;
_chemical_formula_sum "Si O2"
_cell_formula_units_Z 64
_cell_length_a 20.352558
_cell_length_b 9.126383
_cell_length_c 18.473132
_cell_angle_alpha 90.000000
_cell_angle_beta 97.048990
_cell_angle_gamma 90.000000
_cell_volume 3405.361167
_symmetry_space_group_name_H-M "C 2/M"
_symmetry_group_IT_number 12
_symmetry_cell_setting 'monoclinic'
loop_
_space_group_symop_operation_xyz
x,y,z
-x,y,-z
-x,-y,-z
x,-y,z
1/2+x,1/2+y,z
1/2-x,1/2+y,-z
1/2-x,1/2-y,-z
1/2+x,1/2-y,z
loop_
_atom_site_type_symbol
_atom_site_label
_atom_site_fract_x
_atom_site_fract_y
_atom_site_fract_z
Si Si1 0.225930 0.827206 0.339240
Si Si2 0.438088 0.171420 0.040201
Si Si3 0.084480 0.828046 0.814658
Si Si4 0.035540 0.328266 0.669063
Si Si5 0.640853 0.827141 0.567458
Si Si6 0.264929 0.330703 0.200688
Si Si7 0.611228 0.828557 0.404036
Si Si8 0.800232 0.669076 0.955797
O O1 0.284626 0.781141 0.402020
O O2 0.245322 0.774903 0.262582
O O3 0.158108 0.752557 0.353773
O O4 0.215955 0.000000 0.336396
O O5 0.441511 0.261691 0.114299
O O6 0.438233 0.000000 0.059717
O O7 0.500000 0.216248 0.000000
O O8 0.374388 0.217074 0.984655
O O9 0.042139 0.757020 0.744813
O O10 0.161678 0.790631 0.816034
O O11 0.071263 0.000000 0.813239
O O12 0.046429 0.500000 0.685212
O O13 0.089649 0.264567 0.619948
O O14 0.963980 0.295741 0.626403
O O15 0.624219 0.763696 0.486024
O O16 0.631337 0.000000 0.564655
O O17 0.260600 0.500000 0.224752
O O18 0.213630 0.294843 0.129750
O O19 0.627678 0.000000 0.402726
O O20 0.788169 0.500000 0.969513
O O21 0.750000 0.750000 0.000000
#
# Coordination Sequence:
#
# PCOD8101686 Si02
#       8
#     8   8   8   8   8   8   8   8
#     4  11  22  36  57  85 117 150 189 239 285 336
#     4  10  22  39  60  87 117 150 189 231 279 337
#     4  11  22  37  59  86 118 150 185 235 288 339
#     4  10  20  37  61  85 112 150 196 237 279 339
#     4   9  18  35  59  85 110 147 197 238 280 335
#     4  10  21  37  57  83 114 151 193 233 281 340
#     4  10  21  37  58  83 115 152 189 237 289 340
#     4  10  20  36  59  84 112 145 186 232 275 328
#
# _framework density 18.793896
#
# number of rings (size 3 to 8) (size 9 to 14) (size 15 to 20)
#    0.000    1.875    2.500    1.500    0.000    4.250 
#    0.000    3.750    0.000    1.500    0.000    0.000 
#    0.000    0.000    0.000    0.000    0.000    0.000 
#
# Total GULP energy -396927.773750 kJ/mol
# GULP energy per Si atom -12403.992930 kJ/mol
# Density = 1.875112 g / cm^3
# Si number density = 18.793896 Si / 1000 Ang^3
#
#
#
# Elastic Constant Matrix: (Units=GPa)
#
#
# Indices 1 2 3 4 5 6 
#
# 1 95.2624 41.7189 38.9603 0.0000 -6.6519 0.0000
# 2 41.7189 54.3257 44.2816 0.0000 -2.6248 0.0000
# 3 38.9603 44.2816 117.9203 0.0000 0.4640 0.0000
# 4 0.0000 0.0000 0.0000 26.1188 0.0000 -0.2892
# 5 -6.6519 -2.6248 0.4640 0.0000 32.2657 0.0000
# 6 0.0000 0.0000 0.0000 -0.2892 0.0000 27.0742
#
#
#
# Elastic Compliance Matrix: (Units=1/GPa)
#
#
# Indices 1 2 3 4 5 6 
#
# 1 0.016075 -0.011373 -0.001050 0.000000 0.002404 0.000000
# 2 -0.011373 0.034745 -0.009292 0.000000 0.000615 0.000000
# 3 -0.001050 -0.009292 0.012321 0.000000 -0.001150 0.000000
# 4 0.000000 0.000000 0.000000 0.038291 0.000000 0.000409
# 5 0.002404 0.000615 -0.001150 0.000000 0.031555 0.000000
# 6 0.000000 0.000000 0.000000 0.000409 0.000000 0.036940
#
#
# Mechanical properties :
#
#
# Convention : Reuss Voigt Hill
#
# Bulk Modulus (GPa) = 50.73237 57.49223 54.11230
# Shear Modulus (GPa) = 22.73466 26.59490 24.66478
#
# Velocity S-wave (km/s) = 3.48182 3.76584 3.62661
# Velocity P-wave (km/s) = 6.57395 7.04032 6.81112
#
# Compressibility (1/GPa) = 0.01971128
#
# Stress axis : x y z
#
# Youngs Moduli (GPa) = 62.20783 28.78084 81.16073
#
# Poissons Ratio (x) = 0.32732 0.08521
# Poissons Ratio (y) = 0.70748 0.75419
# Poissons Ratio (z) = 0.06531 0.26745
#
# Static dielectric constant tensor:
#      x y z
#    x 3.469220 0.000000 0.159970 
#    y 0.000000 3.287880 0.000000 
#    z 0.159970 0.000000 3.548060 
# 
# 
# High freq. dielectric constant tensor:
#      x y z
#    x 1.736450 0.000000 0.004420 
#    y 0.000000 1.713940 0.000000 
#    z 0.004420 0.000000 1.742560 
# 
# From -- ./inp_files/281305.got.cif
#   From: 2010.06.25/outbox.cif.g09.slc.cpg/sg12_141_cif.got.tgz:281305.got - 2010.06.28 00:19:55.
