data_PCOD8101262
_publ_section_title
;
Structure prediction by ZEFSAII (Michael W. Deem and Ramdas Pophale) SiO2 
 PCOD8101262
Probable space group: C 2/M
;
_chemical_formula_sum "Si O2"
_cell_formula_units_Z 64
_cell_length_a 30.193143
_cell_length_b 9.151518
_cell_length_c 14.366739
_cell_angle_alpha 90.000000
_cell_angle_beta 54.000209
_cell_angle_gamma 90.000000
_cell_volume 3211.577893
_symmetry_space_group_name_H-M "C 2/M"
_symmetry_group_IT_number 12
_symmetry_cell_setting 'monoclinic'
loop_
_space_group_symop_operation_xyz
x,y,z
-x,y,-z
-x,-y,-z
x,-y,z
1/2+x,1/2+y,z
1/2-x,1/2+y,-z
1/2-x,1/2-y,-z
1/2+x,1/2-y,z
loop_
_atom_site_type_symbol
_atom_site_label
_atom_site_fract_x
_atom_site_fract_y
_atom_site_fract_z
Si Si1 0.054864 0.335256 0.879962
Si Si2 0.955182 0.327403 0.480019
Si Si3 0.113619 0.167270 0.072338
Si Si4 0.159183 0.829371 0.361583
Si Si5 0.247863 0.172380 0.402765
Si Si6 0.995479 0.335229 0.769012
Si Si7 0.157155 0.830741 0.820988
Si Si8 0.799066 0.170662 0.888366
O O1 0.072742 0.500000 0.888186
O O2 0.100265 0.215902 0.845224
O O3 0.043831 0.329533 0.784061
O O4 0.000000 0.288469 0.000000
O O5 0.945591 0.500000 0.487592
O O6 0.897285 0.255945 0.572941
O O7 0.000000 0.281875 0.500000
O O8 0.979098 0.263177 0.354431
O O9 0.058413 0.256642 0.127558
O O10 0.144731 0.213004 0.128071
O O11 0.095550 0.000000 0.097121
O O12 0.154070 0.196525 0.935387
O O13 0.191593 0.792612 0.417012
O O14 0.195122 0.782123 0.226847
O O15 0.145884 0.000000 0.371390
O O16 0.250000 0.250000 0.500000
O O17 0.295978 0.229826 0.278341
O O18 0.255191 0.000000 0.409126
O O19 0.977220 0.500000 0.769870
O O20 0.168586 0.000000 0.782795
O O21 0.787235 0.000000 0.912691
O O22 0.750000 0.250000 0.000000
#
# Coordination Sequence:
#
# PCOD8101262 Si02
#       8
#     8   8   8   8   8   8   8   8
#     4  10  20  36  57  84 117 156 198 243 296 352
#     4  10  22  39  60  89 123 159 200 246 296 353
#     4  10  21  36  57  87 120 152 188 237 294 351
#     4  10  23  42  63  89 120 156 202 250 298 356
#     4  11  25  44  64  88 118 157 205 254 304 360
#     4  10  21  36  56  83 114 151 197 239 289 352
#     4  11  23  38  59  88 121 156 198 246 298 356
#     4  10  21  38  60  87 117 149 190 237 291 352
#
# _framework density 19.927899
#
# number of rings (size 3 to 8) (size 9 to 14) (size 15 to 20)
#    0.000    1.750    1.250    2.250    1.750    4.000 
#    0.000    0.000    0.000    0.000    0.000    0.000 
#    0.000    0.000    0.000    0.000    0.000    0.000 
#
# Total GULP energy -396857.308566 kJ/mol
# GULP energy per Si atom -12401.790893 kJ/mol
# Density = 1.988254 g / cm^3
# Si number density = 19.927899 Si / 1000 Ang^3
#
#
#
# Elastic Constant Matrix: (Units=GPa)
#
#
# Indices 1 2 3 4 5 6 
#
# 1 111.0270 50.2004 51.3215 0.0000 7.1157 0.0000
# 2 50.2004 72.3156 46.3647 0.0000 -2.8036 0.0000
# 3 51.3215 46.3647 109.8341 0.0000 5.0191 0.0000
# 4 0.0000 0.0000 0.0000 36.4771 0.0000 -4.9850
# 5 7.1157 -2.8036 5.0191 0.0000 36.3085 0.0000
# 6 0.0000 0.0000 0.0000 -4.9850 0.0000 30.3498
#
#
#
# Elastic Compliance Matrix: (Units=1/GPa)
#
#
# Indices 1 2 3 4 5 6 
#
# 1 0.014274 -0.008001 -0.003156 0.000000 -0.002979 0.000000
# 2 -0.008001 0.023689 -0.006457 0.000000 0.004290 0.000000
# 3 -0.003156 -0.006457 0.013384 0.000000 -0.001730 0.000000
# 4 0.000000 0.000000 0.000000 0.028044 0.000000 0.004606
# 5 -0.002979 0.004290 -0.001730 0.000000 0.028696 0.000000
# 6 0.000000 0.000000 0.000000 0.004606 0.000000 0.033706
#
#
# Mechanical properties :
#
#
# Convention : Reuss Voigt Hill
#
# Bulk Modulus (GPa) = 62.04072 65.43886 63.73979
# Shear Modulus (GPa) = 27.41306 30.31308 28.86307
#
# Velocity S-wave (km/s) = 3.71295 3.90441 3.80988
# Velocity P-wave (km/s) = 7.04141 7.29623 7.16995
#
# Compressibility (1/GPa) = 0.01611845
#
# Stress axis : x y z
#
# Youngs Moduli (GPa) = 70.05620 42.21417 74.71382
#
# Poissons Ratio (x) = 0.33775 0.23582
# Poissons Ratio (y) = 0.56051 0.48245
# Poissons Ratio (z) = 0.22112 0.27259
#
# Static dielectric constant tensor:
#      x y z
#    x 3.864740 0.000000 0.225580 
#    y 0.000000 3.587740 0.000000 
#    z 0.225580 0.000000 3.717650 
# 
# 
# High freq. dielectric constant tensor:
#      x y z
#    x 1.786090 0.000000 0.010610 
#    y 0.000000 1.770800 0.000000 
#    z 0.010610 0.000000 1.786050 
# 
# From -- ./inp_files/249862.got.cif
#   From: 2010.06.25/outbox.cif.g09.slc.cpg/sg12_125_cif.got.tgz:249862.got - 2010.06.28 00:19:55.
