data_PCOD8101645
_publ_section_title
;
Structure prediction by ZEFSAII (Michael W. Deem and Ramdas Pophale) SiO2 
 PCOD8101645
Probable space group: C 2/M
;
_chemical_formula_sum "Si O2"
_cell_formula_units_Z 56
_cell_length_a 16.558425
_cell_length_b 11.725884
_cell_length_c 16.175323
_cell_angle_alpha 90.000000
_cell_angle_beta 62.417575
_cell_angle_gamma 90.000000
_cell_volume 2783.688902
_symmetry_space_group_name_H-M "C 2/M"
_symmetry_group_IT_number 12
_symmetry_cell_setting 'monoclinic'
loop_
_space_group_symop_operation_xyz
x,y,z
-x,y,-z
-x,-y,-z
x,-y,z
1/2+x,1/2+y,z
1/2-x,1/2+y,-z
1/2-x,1/2-y,-z
1/2+x,1/2-y,z
loop_
_atom_site_type_symbol
_atom_site_label
_atom_site_fract_x
_atom_site_fract_y
_atom_site_fract_z
Si Si1 0.051776 0.375240 0.253581
Si Si2 0.118101 0.245897 0.727031
Si Si3 0.262996 0.779773 0.898156
Si Si4 0.275726 0.631306 0.734885
Si Si5 0.415400 0.629540 0.089969
Si Si6 0.251565 0.130927 0.552779
Si Si7 0.090607 0.699967 0.409064
O O1 0.023822 0.500000 0.234923
O O2 0.139432 0.338783 0.158916
O O3 0.072479 0.383688 0.341060
O O4 0.966139 0.292433 0.284835
O O5 0.190692 0.344781 0.714473
O O6 0.079993 0.198617 0.829056
O O7 0.165442 0.142949 0.654369
O O8 0.258165 0.673027 0.837316
O O9 0.180478 0.863219 0.912538
O O10 0.250000 0.750000 0.000000
O O11 0.296507 0.500000 0.730359
O O12 0.363896 0.687552 0.651209
O O13 0.435674 0.500000 0.102157
O O14 0.500000 0.682235 0.000000
O O15 0.250000 0.250000 0.500000
O O16 0.345028 0.131217 0.559048
O O17 0.245223 0.000000 0.514876
O O18 0.000000 0.737368 0.500000
#
# Coordination Sequence:
#
# PCOD8101645 Si02
#       7
#     8   8   8   8   8   8   8
#     4  11  22  37  60  87 114 149 194 243 295 350
#     4  10  21  38  58  83 116 149 190 240 291 349
#     4  10  21  37  56  83 117 149 192 243 293 350
#     4   9  20  37  57  82 114 153 193 237 294 356
#     4  10  20  36  59  82 109 149 190 230 282 346
#     4  11  24  41  63  89 119 158 201 245 295 356
#     4  10  22  39  59  86 117 150 191 242 294 349
#
# _framework density 20.117191999999999
#
# number of rings (size 3 to 8) (size 9 to 14) (size 15 to 20)
#    0.000    1.857    0.000    4.286    0.000    6.571 
#    0.000   10.000    0.000    4.714    0.000    0.000 
#    0.000    0.000    0.000    0.000    0.000    0.000 
#
# Total GULP energy -346983.904309 kJ/mol
# GULP energy per Si atom -12392.282297 kJ/mol
# Density = 2.007140 g / cm^3
# Si number density = 20.117192 Si / 1000 Ang^3
#
#
#
# Elastic Constant Matrix: (Units=GPa)
#
#
# Indices 1 2 3 4 5 6 
#
# 1 118.1922 33.2143 40.4967 0.0000 -12.4318 0.0000
# 2 33.2143 125.6324 38.5633 0.0000 -4.7696 0.0000
# 3 40.4967 38.5633 121.7748 0.0000 -16.0515 0.0000
# 4 0.0000 0.0000 0.0000 15.6815 0.0000 -1.1687
# 5 -12.4318 -4.7696 -16.0515 0.0000 41.9210 0.0000
# 6 0.0000 0.0000 0.0000 -1.1687 0.0000 15.9786
#
#
#
# Elastic Compliance Matrix: (Units=1/GPa)
#
#
# Indices 1 2 3 4 5 6 
#
# 1 0.010023 -0.001807 -0.002524 0.000000 0.001800 0.000000
# 2 -0.001807 0.009143 -0.002346 0.000000 -0.000394 0.000000
# 3 -0.002524 -0.002346 0.010174 0.000000 0.002880 0.000000
# 4 0.000000 0.000000 0.000000 0.064119 0.000000 0.004690
# 5 0.001800 -0.000394 0.002880 0.000000 0.025446 0.000000
# 6 0.000000 0.000000 0.000000 0.004690 0.000000 0.062927
#
#
# Mechanical properties :
#
#
# Convention : Reuss Voigt Hill
#
# Bulk Modulus (GPa) = 62.55617 65.57198 64.06407
# Shear Modulus (GPa) = 24.93601 31.60454 28.27028
#
# Velocity S-wave (km/s) = 3.52453 3.96791 3.75277
# Velocity P-wave (km/s) = 6.90843 7.32517 7.11985
#
# Compressibility (1/GPa) = 0.01598563
#
# Stress axis : x y z
#
# Youngs Moduli (GPa) = 99.77493 109.37731 98.29178
#
# Poissons Ratio (x) = 0.19762 0.24805
# Poissons Ratio (y) = 0.18027 0.23063
# Poissons Ratio (z) = 0.25179 0.25664
#
# Static dielectric constant tensor:
#      x y z
#    x 3.858530 0.000000 -0.109190 
#    y 0.000000 3.544510 0.000000 
#    z -0.109190 0.000000 3.841320 
# 
# 
# High freq. dielectric constant tensor:
#      x y z
#    x 1.791110 0.000000 -0.008710 
#    y 0.000000 1.774510 0.000000 
#    z -0.008710 0.000000 1.797040 
# 
# From -- ./inp_files/223744.got.cif
#   From: 2010.06.25/outbox.cif.g09.slc.cpg/sg12_112_cif.got.tgz:223744.got - 2010.06.28 00:19:55.
