data_PCOD8101071
_publ_section_title
;
Structure prediction by ZEFSAII (Michael W. Deem and Ramdas Pophale) SiO2 
 PCOD8101071
Probable space group: C 2/M
;
_chemical_formula_sum "Si O2"
_cell_formula_units_Z 56
_cell_length_a 18.811099
_cell_length_b 8.994737
_cell_length_c 21.456104
_cell_angle_alpha 90.000000
_cell_angle_beta 115.224682
_cell_angle_gamma 90.000000
_cell_volume 3284.210576
_symmetry_space_group_name_H-M "C 2/M"
_symmetry_group_IT_number 12
_symmetry_cell_setting 'monoclinic'
loop_
_space_group_symop_operation_xyz
x,y,z
-x,y,-z
-x,-y,-z
x,-y,z
1/2+x,1/2+y,z
1/2-x,1/2+y,-z
1/2-x,1/2-y,-z
1/2+x,1/2-y,z
loop_
_atom_site_type_symbol
_atom_site_label
_atom_site_fract_x
_atom_site_fract_y
_atom_site_fract_z
Si Si1 0.683291 0.668733 0.200231
Si Si2 0.023038 0.672444 0.693627
Si Si3 0.827962 0.175008 0.308066
Si Si4 0.540228 0.325128 0.075248
Si Si5 0.527396 0.332195 0.205156
Si Si6 0.715452 0.827507 0.581798
Si Si7 0.356931 0.829376 0.575950
O O1 0.714975 0.500000 0.204879
O O2 0.755602 0.778290 0.237039
O O3 0.632676 0.719372 0.119747
O O4 0.623045 0.676269 0.236863
O O5 0.046327 0.500000 0.699265
O O6 0.092374 0.771707 0.693490
O O7 0.006186 0.714623 0.758804
O O8 0.947147 0.707766 0.623318
O O9 0.821346 0.243703 0.373797
O O10 0.828980 0.000000 0.314689
O O11 0.538880 0.500000 0.064279
O O12 0.494044 0.290286 0.123079
O O13 0.500000 0.245358 0.000000
O O14 0.502079 0.500000 0.214519
O O15 0.658426 0.794817 0.502233
O O16 0.802953 0.771905 0.599540
O O17 0.719940 0.000000 0.600320
O O18 0.336733 0.000000 0.584120
#
# Coordination Sequence:
#
# PCOD8101071 Si02
#       7
#     8   8   8   8   8   8   8
#     4   8  16  31  53  78 103 132 166 202 246 298
#     4  11  22  35  51  71 101 136 172 211 255 301
#     4  12  24  35  49  71 103 137 174 214 255 299
#     4   7  12  26  52  83 108 130 160 200 245 297
#     4   8  16  30  51  78 104 130 163 201 244 296
#     4  10  20  36  57  77 101 130 167 211 257 306
#     4   9  20  37  56  78 100 130 168 211 257 304
#
# _framework density 17.051282
#
# number of rings (size 3 to 8) (size 9 to 14) (size 15 to 20)
#    0.857    1.857    0.000    3.000    0.000    5.143 
#    0.000    2.857    0.000    2.571    0.000    0.000 
#    0.000    0.000    0.000    0.000    0.000    0.000 
#
# Total GULP energy -346927.906778 kJ/mol
# GULP energy per Si atom -12390.282385 kJ/mol
# Density = 1.701247 g / cm^3
# Si number density = 17.051282 Si / 1000 Ang^3
#
#
#
# Elastic Constant Matrix: (Units=GPa)
#
#
# Indices 1 2 3 4 5 6 
#
# 1 82.1996 42.5200 49.7581 0.0000 9.9804 0.0000
# 2 42.5200 82.2943 40.3202 0.0000 1.4124 0.0000
# 3 49.7581 40.3202 118.7302 0.0000 5.9369 0.0000
# 4 0.0000 0.0000 0.0000 17.2635 0.0000 -2.7927
# 5 9.9804 1.4124 5.9369 0.0000 3.3735 0.0000
# 6 0.0000 0.0000 0.0000 -2.7927 0.0000 24.4056
#
#
#
# Elastic Compliance Matrix: (Units=1/GPa)
#
#
# Indices 1 2 3 4 5 6 
#
# 1 0.030881 -0.012217 -0.004913 0.000000 -0.077601 0.000000
# 2 -0.012217 0.019435 -0.003159 0.000000 0.033565 0.000000
# 3 -0.004913 -0.003159 0.011799 0.000000 -0.004909 0.000000
# 4 0.000000 0.000000 0.000000 0.059018 0.000000 0.006753
# 5 -0.077601 0.033565 -0.004909 0.000000 0.520601 0.000000
# 6 0.000000 0.000000 0.000000 0.006753 0.000000 0.041747
#
#
# Mechanical properties :
#
#
# Convention : Reuss Voigt Hill
#
# Bulk Modulus (GPa) = 46.42669 60.93563 53.68116
# Shear Modulus (GPa) = 6.83773 19.05022 12.94398
#
# Velocity S-wave (km/s) = 2.00469 3.34613 2.75820
# Velocity P-wave (km/s) = 5.71360 7.12341 6.45710
#
# Compressibility (1/GPa) = 0.02153933
#
# Stress axis : x y z
#
# Youngs Moduli (GPa) = 32.38260 51.45303 84.75021
#
# Poissons Ratio (x) = 0.62859 0.41635
# Poissons Ratio (y) = 0.39561 0.26769
# Poissons Ratio (z) = 0.15908 0.16252
#
# Static dielectric constant tensor:
#      x y z
#    x 2.954940 0.000000 0.010040 
#    y 0.000000 3.111590 0.000000 
#    z 0.010040 0.000000 3.506930 
# 
# 
# High freq. dielectric constant tensor:
#      x y z
#    x 1.634460 0.000000 0.001250 
#    y 0.000000 1.649510 0.000000 
#    z 0.001250 0.000000 1.659430 
# 
# From -- ./inp_files/342022.got.cif
#   From: 2010.06.25/outbox.cif.g09.slc.cpg/sg12_172_cif.got.tgz:342022.got - 2010.06.28 00:19:55.
