data_PCOD8101529
_publ_section_title
;
Structure prediction by ZEFSAII (Michael W. Deem and Ramdas Pophale) SiO2 
 PCOD8101529
Probable space group: C 2/M
;
_chemical_formula_sum "Si O2"
_cell_formula_units_Z 56
_cell_length_a 23.304009
_cell_length_b 14.916400
_cell_length_c 9.337392
_cell_angle_alpha 90.000000
_cell_angle_beta 122.867301
_cell_angle_gamma 90.000000
_cell_volume 2726.234445
_symmetry_space_group_name_H-M "C 2/M"
_symmetry_group_IT_number 12
_symmetry_cell_setting 'monoclinic'
loop_
_space_group_symop_operation_xyz
x,y,z
-x,y,-z
-x,-y,-z
x,-y,z
1/2+x,1/2+y,z
1/2-x,1/2+y,-z
1/2-x,1/2-y,-z
1/2+x,1/2-y,z
loop_
_atom_site_type_symbol
_atom_site_label
_atom_site_fract_x
_atom_site_fract_y
_atom_site_fract_z
Si Si1 0.190476 0.097533 0.160081
Si Si2 0.148575 0.099312 0.558877
Si Si3 0.360444 0.897890 0.893159
Si Si4 0.501256 0.397216 0.332811
Si Si5 0.264920 0.146275 0.517824
Si Si6 0.435315 0.719649 0.015098
Si Si7 0.234917 0.846667 0.920685
O O1 0.260574 0.114674 0.346475
O O2 0.212240 0.094321 0.023985
O O3 0.159424 0.000000 0.153148
O O4 0.134893 0.172550 0.131853
O O5 0.078016 0.131840 0.391805
O O6 0.203944 0.093273 0.510619
O O7 0.136976 0.000000 0.608780
O O8 0.172738 0.161562 0.723360
O O9 0.334846 0.878563 0.695164
O O10 0.388910 0.000000 0.940038
O O11 0.420507 0.826369 0.010609
O O12 0.299564 0.888476 0.925593
O O13 0.500000 0.384742 0.500000
O O14 0.483494 0.500000 0.263430
O O15 0.450458 0.327282 0.188336
O O16 0.250000 0.250000 0.500000
O O17 0.500000 0.702347 0.000000
O O18 0.250000 0.750000 0.000000
#
# Coordination Sequence:
#
# PCOD8101529 Si02
#       7
#     8   8   8   8   8   8   8
#     4  12  22  36  62  96 127 151 188 254 319 368
#     4  10  20  36  58  84 120 160 191 234 302 370
#     4  11  24  44  64  86 121 166 210 251 298 360
#     4  10  22  39  61  90 124 161 198 240 302 370
#     4  11  20  37  58  89 119 153 195 246 309 364
#     4  12  25  41  60  89 124 168 211 251 291 353
#     4  11  20  38  63  96 122 154 195 251 310 364
#
# _framework density 20.541153999999999
#
# number of rings (size 3 to 8) (size 9 to 14) (size 15 to 20)
#    0.000    1.000    2.857    6.429    0.000    3.714 
#    0.000    0.000    0.000    0.429    0.000    0.000 
#    0.000    0.000    0.000    0.000    0.000    0.000 
#
# Total GULP energy -347036.586757 kJ/mol
# GULP energy per Si atom -12394.163813 kJ/mol
# Density = 2.049440 g / cm^3
# Si number density = 20.541154 Si / 1000 Ang^3
#
#
#
# Elastic Constant Matrix: (Units=GPa)
#
#
# Indices 1 2 3 4 5 6 
#
# 1 57.0837 10.4206 22.8188 0.0000 -2.9829 0.0000
# 2 10.4206 152.0267 46.0323 0.0000 11.6239 0.0000
# 3 22.8188 46.0323 111.9676 0.0000 3.6210 0.0000
# 4 0.0000 0.0000 0.0000 35.7342 0.0000 2.5073
# 5 -2.9829 11.6239 3.6210 0.0000 25.9116 0.0000
# 6 0.0000 0.0000 0.0000 2.5073 0.0000 27.9733
#
#
#
# Elastic Compliance Matrix: (Units=1/GPa)
#
#
# Indices 1 2 3 4 5 6 
#
# 1 0.019287 -0.000374 -0.003872 0.000000 0.002929 0.000000
# 2 -0.000374 0.007752 -0.003011 0.000000 -0.003100 0.000000
# 3 -0.003872 -0.003011 0.010978 0.000000 -0.000629 0.000000
# 4 0.000000 0.000000 0.000000 0.028162 0.000000 -0.002524
# 5 0.002929 -0.003100 -0.000629 0.000000 0.040408 0.000000
# 6 0.000000 0.000000 0.000000 -0.002524 0.000000 0.035975
#
#
# Mechanical properties :
#
#
# Convention : Reuss Voigt Hill
#
# Bulk Modulus (GPa) = 42.54353 53.29126 47.91740
# Shear Modulus (GPa) = 30.31972 34.04425 32.18199
#
# Velocity S-wave (km/s) = 3.84610 4.07549 3.96246
# Velocity P-wave (km/s) = 6.36237 6.93875 6.65680
#
# Compressibility (1/GPa) = 0.02350533
#
# Stress axis : x y z
#
# Youngs Moduli (GPa) = 51.84806 128.99888 91.08869
#
# Poissons Ratio (x) = 0.04820 0.35268
# Poissons Ratio (y) = 0.01937 0.27423
# Poissons Ratio (z) = 0.20075 0.38837
#
# Static dielectric constant tensor:
#      x y z
#    x 4.394460 0.000000 -0.649200 
#    y 0.000000 3.827190 0.000000 
#    z -0.649200 0.000000 4.657910 
# 
# 
# High freq. dielectric constant tensor:
#      x y z
#    x 1.779040 0.000000 -0.008710 
#    y 0.000000 1.803430 0.000000 
#    z -0.008710 0.000000 1.810270 
# 
# From -- ./inp_files/96768.got.cif
#   From: 2010.06.25/outbox.cif.g09.slc.cpg/sg12_49_cif.got.tgz:96768.got - 2010.06.28 00:19:55.
