data_PCOD8101009
_publ_section_title
;
Structure prediction by ZEFSAII (Michael W. Deem and Ramdas Pophale) SiO2 
 PCOD8101009
Probable space group: C 2/M
;
_chemical_formula_sum "Si O2"
_cell_formula_units_Z 56
_cell_length_a 9.521724
_cell_length_b 23.218511
_cell_length_c 17.927958
_cell_angle_alpha 90.000000
_cell_angle_beta 137.473800
_cell_angle_gamma 90.000000
_cell_volume 2679.049587
_symmetry_space_group_name_H-M "C 2/M"
_symmetry_group_IT_number 12
_symmetry_cell_setting 'monoclinic'
loop_
_space_group_symop_operation_xyz
x,y,z
-x,y,-z
-x,-y,-z
x,-y,z
1/2+x,1/2+y,z
1/2-x,1/2+y,-z
1/2-x,1/2-y,-z
1/2+x,1/2-y,z
loop_
_atom_site_type_symbol
_atom_site_label
_atom_site_fract_x
_atom_site_fract_y
_atom_site_fract_z
Si Si1 0.128619 0.564585 0.656938
Si Si2 0.689582 0.589493 0.425389
Si Si3 0.759026 0.563688 0.762750
Si Si4 0.902353 0.733666 0.125275
Si Si5 0.527095 0.867313 0.752151
Si Si6 0.308580 0.178100 0.868051
Si Si7 0.190898 0.804365 0.523161
O O1 0.216449 0.500000 0.697651
O O2 0.247335 0.596714 0.636628
O O3 0.880482 0.561066 0.544885
O O4 0.173741 0.598228 0.751625
O O5 0.480437 0.552605 0.354070
O O6 0.627811 0.650433 0.435297
O O7 0.842639 0.500000 0.820813
O O8 0.898768 0.585629 0.749070
O O9 0.759786 0.611775 0.828795
O O10 0.894398 0.789540 0.176961
O O11 0.831229 0.674850 0.140924
O O12 0.128140 0.716998 0.179824
O O13 0.750000 0.750000 0.000000
O O14 0.376762 0.825649 0.647492
O O15 0.500000 0.177909 0.000000
O O16 0.250000 0.750000 0.500000
O O17 0.000000 0.788325 0.500000
#
# Coordination Sequence:
#
# PCOD8101009 Si02
#       7
#     8   8   8   8   8   8   8
#     4  10  20  36  56  80 116 157 198 239 283 340
#     4  10  21  37  53  81 114 157 202 235 284 343
#     4  11  21  36  57  82 114 152 196 239 282 344
#     4   9  19  37  58  82 113 144 186 239 293 352
#     4  10  22  36  56  84 112 152 194 236 291 344
#     4   9  20  37  58  85 112 144 186 239 297 348
#     4  11  24  37  53  80 118 151 190 235 288 342
#
# _framework density 20.902936
#
# number of rings (size 3 to 8) (size 9 to 14) (size 15 to 20)
#    0.000    2.000    1.429    2.143    6.000    1.429 
#    0.000    2.143    0.000    0.000    0.000    0.000 
#    0.000   21.714    0.000    0.000    0.000    0.000 
#
# Total GULP energy -346933.537858 kJ/mol
# GULP energy per Si atom -12390.483495 kJ/mol
# Density = 2.085536 g / cm^3
# Si number density = 20.902936 Si / 1000 Ang^3
#
#
#
# Elastic Constant Matrix: (Units=GPa)
#
#
# Indices 1 2 3 4 5 6 
#
# 1 113.9920 77.8114 30.0981 0.0000 -27.2238 0.0000
# 2 77.8114 168.7982 39.6988 0.0000 -19.9562 0.0002
# 3 30.0981 39.6988 44.7611 -0.0004 -15.0883 0.0001
# 4 0.0000 0.0000 -0.0004 14.5941 -0.0002 9.4839
# 5 -27.2238 -19.9562 -15.0883 -0.0002 29.1190 0.0002
# 6 0.0000 0.0002 0.0001 9.4839 0.0002 -1.4777
#
#
#
# Elastic Compliance Matrix: (Units=1/GPa)
#
#
# Indices 1 2 3 4 5 6 
#
# 1 0.015326 -0.005401 -0.002342 0.000000 0.009413 0.000000
# 2 -0.005401 0.009491 -0.005205 0.000000 -0.001242 0.000000
# 3 -0.002342 -0.005205 0.032219 0.000000 0.010938 0.000002
# 4 0.000000 0.000000 0.000000 0.013252 -0.000001 0.085050
# 5 0.009413 -0.001242 0.010938 -0.000001 0.047959 0.000002
# 6 0.000000 0.000000 0.000002 0.085050 0.000002 -0.130877
#
#
# Mechanical properties :
#
#
# Convention : Reuss Voigt Hill
#
# Bulk Modulus (GPa) = 32.11273 69.19646 50.65459
# Shear Modulus (GPa) = 211.46423 20.44328 115.95375
#
# Velocity S-wave (km/s) = 10.06899 3.13071 7.45606
# Velocity P-wave (km/s) = 12.27092 6.80029 9.92017
#
# Compressibility (1/GPa) = 0.03114030
#
# Stress axis : x y z
#
# Youngs Moduli (GPa) = 65.24925 105.36038 31.03794
#
# Poissons Ratio (x) = 0.56906 0.07269
# Poissons Ratio (y) = 0.35242 0.16154
# Poissons Ratio (z) = 0.15281 0.54836
#
# Static dielectric constant tensor:
#      x y z
#    x 4.125890 0.000000 -0.312230 
#    y 0.000000 3.908680 0.000000 
#    z -0.312230 0.000000 3.527900 
# 
# 
# High freq. dielectric constant tensor:
#      x y z
#    x 1.828490 0.000000 -0.022680 
#    y 0.000000 1.826360 0.000000 
#    z -0.022680 0.000000 1.781330 
# 
# From -- ./inp_files/259233.got.cif
#   From: 2010.06.25/outbox.cif.g09.slc.cpg/sg12_130_cif.got.tgz:259233.got - 2010.06.28 00:19:55.
