data_PCOD8101734
_publ_section_title
;
Structure prediction by ZEFSAII (Michael W. Deem and Ramdas Pophale) SiO2 
 PCOD8101734
Probable space group: C 2/M
;
_chemical_formula_sum "Si O2"
_cell_formula_units_Z 56
_cell_length_a 19.155739
_cell_length_b 9.306073
_cell_length_c 28.735307
_cell_angle_alpha 90.000000
_cell_angle_beta 34.310549
_cell_angle_gamma 90.000000
_cell_volume 2887.436203
_symmetry_space_group_name_H-M "C 2/M"
_symmetry_group_IT_number 12
_symmetry_cell_setting 'monoclinic'
loop_
_space_group_symop_operation_xyz
x,y,z
-x,y,-z
-x,-y,-z
x,-y,z
1/2+x,1/2+y,z
1/2-x,1/2+y,-z
1/2-x,1/2-y,-z
1/2+x,1/2-y,z
loop_
_atom_site_type_symbol
_atom_site_label
_atom_site_fract_x
_atom_site_fract_y
_atom_site_fract_z
Si Si1 0.231353 0.164278 0.114266
Si Si2 0.771917 0.166297 0.345318
Si Si3 0.056531 0.334396 0.068030
Si Si4 0.678855 0.169005 0.498259
Si Si5 0.982243 0.665757 0.806223
Si Si6 0.292473 0.835626 0.186587
Si Si7 0.395508 0.166668 0.648335
O O1 0.104926 0.255057 0.182812
O O2 0.286805 0.175411 0.134609
O O3 0.199712 0.000000 0.118134
O O4 0.331679 0.233917 0.023400
O O5 0.738937 0.210623 0.415893
O O6 0.654931 0.195764 0.376035
O O7 0.883038 0.264609 0.266453
O O8 0.812009 0.000000 0.320643
O O9 0.048122 0.500000 0.057453
O O10 0.083378 0.315044 0.107679
O O11 0.923343 0.264350 0.129412
O O12 0.750000 0.250000 0.500000
O O13 0.536650 0.219703 0.574346
O O14 0.688998 0.000000 0.502005
O O15 0.996436 0.500000 0.784379
O O16 0.180807 0.750701 0.271024
O O17 0.283399 0.000000 0.208944
O O18 0.385486 0.000000 0.666198
#
# Coordination Sequence:
#
# PCOD8101734 Si02
#       7
#     8   8   8   8   8   8   8
#     4  10  21  36  57  82 114 156 196 235 285 343
#     4  10  21  40  63  84 112 153 196 230 276 344
#     4   9  18  36  58  82 111 150 197 240 283 335
#     4  10  23  41  62  89 118 149 186 230 282 340
#     4  11  22  36  57  85 118 150 189 243 290 332
#     4  10  20  36  59  85 114 150 194 238 281 337
#     4  10  21  39  62  86 114 150 190 235 282 333
#
# _framework density 19.394368
#
# number of rings (size 3 to 8) (size 9 to 14) (size 15 to 20)
#    0.000    2.000    1.429    1.714    2.000    5.143 
#    0.000    1.429    0.000    4.286    0.000    0.000 
#    0.000    0.000    0.000    0.000    0.000    0.000 
#
# Total GULP energy -347263.135629 kJ/mol
# GULP energy per Si atom -12402.254844 kJ/mol
# Density = 1.935023 g / cm^3
# Si number density = 19.394368 Si / 1000 Ang^3
#
#
#
# Elastic Constant Matrix: (Units=GPa)
#
#
# Indices 1 2 3 4 5 6 
#
# 1 98.4863 38.3443 39.4772 0.0000 -10.4718 0.0001
# 2 38.3443 62.7514 42.4542 0.0000 -5.0519 0.0002
# 3 39.4772 42.4542 104.3286 0.0000 -2.1459 0.0000
# 4 0.0000 0.0000 0.0000 30.0873 0.0000 -0.3270
# 5 -10.4718 -5.0519 -2.1459 0.0000 35.0594 0.0000
# 6 0.0001 0.0002 0.0000 -0.3270 0.0000 29.0132
#
#
#
# Elastic Compliance Matrix: (Units=1/GPa)
#
#
# Indices 1 2 3 4 5 6 
#
# 1 0.014093 -0.006620 -0.002575 0.000000 0.003098 0.000000
# 2 -0.006620 0.025343 -0.007783 0.000000 0.001198 0.000000
# 3 -0.002575 -0.007783 0.013705 0.000000 -0.001052 0.000000
# 4 0.000000 0.000000 0.000000 0.033241 0.000000 0.000375
# 5 0.003098 0.001198 -0.001052 0.000000 0.029557 0.000000
# 6 0.000000 0.000000 0.000000 0.000375 0.000000 0.034471
#
#
# Mechanical properties :
#
#
# Convention : Reuss Voigt Hill
#
# Bulk Modulus (GPa) = 52.12521 56.23529 54.18025
# Shear Modulus (GPa) = 26.21089 28.51801 27.36445
#
# Velocity S-wave (km/s) = 3.68022 3.83878 3.76033
# Velocity P-wave (km/s) = 6.70772 6.97903 6.84472
#
# Compressibility (1/GPa) = 0.01918458
#
# Stress axis : x y z
#
# Youngs Moduli (GPa) = 70.95939 39.45844 72.96554
#
# Poissons Ratio (x) = 0.26120 0.18789
# Poissons Ratio (y) = 0.46973 0.56791
# Poissons Ratio (z) = 0.18272 0.30712
#
# Static dielectric constant tensor:
#      x y z
#    x 3.544710 0.000000 -0.053420 
#    y 0.000000 3.369030 0.000000 
#    z -0.053420 0.000000 3.595700 
# 
# 
# High freq. dielectric constant tensor:
#      x y z
#    x 1.766910 0.000000 -0.002580 
#    y 0.000000 1.731760 0.000000 
#    z -0.002580 0.000000 1.763050 
# 
# From -- ./inp_files/275212.got.cif
#   From: 2010.06.25/outbox.cif.g09.slc.cpg/sg12_138_cif.got.tgz:275212.got - 2010.06.28 00:19:55.
