data_PCOD8101792
_publ_section_title
;
Structure prediction by ZEFSAII (Michael W. Deem and Ramdas Pophale) SiO2 
 PCOD8101792
Probable space group: C 2/M
;
_chemical_formula_sum "Si O2"
_cell_formula_units_Z 64
_cell_length_a 28.458981
_cell_length_b 8.773137
_cell_length_c 15.454863
_cell_angle_alpha 90.000000
_cell_angle_beta 57.493366
_cell_angle_gamma 90.000000
_cell_volume 3254.142518
_symmetry_space_group_name_H-M "C 2/M"
_symmetry_group_IT_number 12
_symmetry_cell_setting 'monoclinic'
loop_
_space_group_symop_operation_xyz
x,y,z
-x,y,-z
-x,-y,-z
x,-y,z
1/2+x,1/2+y,z
1/2-x,1/2+y,-z
1/2-x,1/2-y,-z
1/2+x,1/2-y,z
loop_
_atom_site_type_symbol
_atom_site_label
_atom_site_fract_x
_atom_site_fract_y
_atom_site_fract_z
Si Si1 0.062512 0.179186 0.433724
Si Si2 0.437731 0.818721 0.065182
Si Si3 0.251237 0.676765 0.162906
Si Si4 0.633762 0.820302 0.706563
Si Si5 0.858558 0.322275 0.988514
Si Si6 0.247462 0.179293 0.350368
Si Si7 0.370272 0.826282 0.782478
Si Si8 0.365843 0.178533 0.486338
O O1 0.091049 0.222280 0.315257
O O2 0.096319 0.240064 0.481491
O O3 0.000000 0.246166 0.500000
O O4 0.061623 0.000000 0.442285
O O5 0.407988 0.750665 0.180479
O O6 0.440400 0.000000 0.066972
O O7 0.500000 0.750196 0.000000
O O8 0.403639 0.766777 0.014295
O O9 0.255819 0.500000 0.185570
O O10 0.251579 0.785039 0.245300
O O11 0.194760 0.708968 0.166627
O O12 0.302755 0.723062 0.051584
O O13 0.696338 0.760209 0.659812
O O14 0.613025 0.777074 0.630871
O O15 0.635415 0.000000 0.717875
O O16 0.843422 0.500000 0.016052
O O17 0.884899 0.293169 0.867958
O O18 0.197835 0.271657 0.443005
O O19 0.237462 0.000000 0.372840
O O20 0.383630 0.000000 0.744159
O O21 0.369559 0.000000 0.499615
#
# Coordination Sequence:
#
# PCOD8101792 Si02
#       8
#     8   8   8   8   8   8   8   8
#     4  11  25  43  61  82 112 155 201 242 289 344
#     4   9  17  32  55  82 111 144 188 235 276 330
#     4  11  21  34  55  86 120 152 189 235 286 342
#     4   9  19  34  55  86 118 150 187 233 288 340
#     4  10  20  36  59  86 116 152 191 232 287 350
#     4  11  20  35  59  85 117 153 189 232 287 349
#     4  10  22  38  59  88 116 147 191 241 291 343
#     4  11  22  37  59  87 118 149 189 239 290 345
#
# _framework density 19.667238000000001
#
# number of rings (size 3 to 8) (size 9 to 14) (size 15 to 20)
#    0.000    1.750    2.500    2.250    0.000    3.000 
#    0.000    4.375    0.000    0.375    0.000    0.000 
#    0.000    0.000    0.000    0.000    0.000    0.000 
#
# Total GULP energy -396858.059243 kJ/mol
# GULP energy per Si atom -12401.814351 kJ/mol
# Density = 1.962247 g / cm^3
# Si number density = 19.667238 Si / 1000 Ang^3
#
#
#
# Elastic Constant Matrix: (Units=GPa)
#
#
# Indices 1 2 3 4 5 6 
#
# 1 94.7799 18.6455 90.8600 0.0000 -14.7825 0.0000
# 2 18.6455 33.6235 27.7717 -0.0001 -3.4034 0.0002
# 3 90.8600 27.7717 140.0043 0.0000 3.0532 0.0000
# 4 0.0000 -0.0001 0.0000 11.0500 0.0000 11.7366
# 5 -14.7825 -3.4034 3.0532 0.0000 37.4040 0.0000
# 6 0.0000 0.0002 0.0000 11.7366 0.0000 -4.1635
#
#
#
# Elastic Compliance Matrix: (Units=1/GPa)
#
#
# Indices 1 2 3 4 5 6 
#
# 1 0.035415 0.001507 -0.023633 0.000000 0.016063 0.000000
# 2 0.001507 0.036186 -0.008255 -0.000001 0.004562 0.000001
# 3 -0.023633 -0.008255 0.024381 0.000000 -0.012081 0.000000
# 4 0.000000 -0.000001 0.000000 0.022658 0.000000 0.063871
# 5 0.016063 0.004562 -0.012081 0.000000 0.034484 0.000000
# 6 0.000000 0.000001 0.000000 0.063871 0.000000 -0.060135
#
#
# Mechanical properties :
#
#
# Convention : Reuss Voigt Hill
#
# Bulk Modulus (GPa) = 28.39372 60.32912 44.36142
# Shear Modulus (GPa) = 30.21293 17.60013 23.90653
#
# Velocity S-wave (km/s) = 3.92370 2.99473 3.49026
# Velocity P-wave (km/s) = 5.91571 6.53448 6.23278
#
# Compressibility (1/GPa) = 0.03521905
#
# Stress axis : x y z
#
# Youngs Moduli (GPa) = 28.23664 27.63508 41.01581
#
# Poissons Ratio (x) = -0.04164 0.96932
# Poissons Ratio (y) = -0.04254 0.33860
# Poissons Ratio (z) = 0.66731 0.22813
#
# Static dielectric constant tensor:
#      x y z
#    x 3.742830 0.000000 -0.037520 
#    y 0.000000 3.350440 0.000000 
#    z -0.037520 0.000000 3.797410 
# 
# 
# High freq. dielectric constant tensor:
#      x y z
#    x 1.770460 0.000000 0.006830 
#    y 0.000000 1.741660 0.000000 
#    z 0.006830 0.000000 1.776820 
# 
# From -- ./inp_files/249739.got.cif
#   From: 2010.06.25/outbox.cif.g09.slc.cpg/sg12_125_cif.got.tgz:249739.got - 2010.06.28 00:19:55.
