data_PCOD8101806
_publ_section_title
;
Structure prediction by ZEFSAII (Michael W. Deem and Ramdas Pophale) SiO2 
 PCOD8101806
Probable space group: C 2/M
;
_chemical_formula_sum "Si O2"
_cell_formula_units_Z 64
_cell_length_a 30.376997
_cell_length_b 9.007684
_cell_length_c 19.296756
_cell_angle_alpha 90.000000
_cell_angle_beta 34.966864
_cell_angle_gamma 90.000000
_cell_volume 3026.039992
_symmetry_space_group_name_H-M "C 2/M"
_symmetry_group_IT_number 12
_symmetry_cell_setting 'monoclinic'
loop_
_space_group_symop_operation_xyz
x,y,z
-x,y,-z
-x,-y,-z
x,-y,z
1/2+x,1/2+y,z
1/2-x,1/2+y,-z
1/2-x,1/2-y,-z
1/2+x,1/2-y,z
loop_
_atom_site_type_symbol
_atom_site_label
_atom_site_fract_x
_atom_site_fract_y
_atom_site_fract_z
Si Si1 0.299412 0.824488 0.877388
Si Si2 0.270428 0.175873 0.399663
Si Si3 0.958344 0.175921 0.879596
Si Si4 0.060039 0.836425 0.251769
Si Si5 0.440975 0.334784 0.518566
Si Si6 0.795683 0.167876 0.126415
Si Si7 0.690877 0.168999 0.382580
Si Si8 0.055706 0.325078 0.864415
O O1 0.386448 0.770662 0.772249
O O2 0.266282 0.763347 0.847093
O O3 0.297843 0.000000 0.886410
O O4 0.250000 0.750000 0.000000
O O5 0.250000 0.250000 0.500000
O O6 0.202623 0.231055 0.435414
O O7 0.353019 0.218622 0.257100
O O8 0.264098 0.000000 0.417377
O O9 0.958572 0.227781 0.799708
O O10 0.026750 0.257462 0.829996
O O11 0.969501 0.000000 0.874032
O O12 0.879311 0.241661 0.013624
O O13 0.980071 0.848001 0.393708
O O14 0.098666 0.000000 0.194792
O O15 0.500000 0.269583 0.500000
O O16 0.413493 0.500000 0.578193
O O17 0.370307 0.226161 0.595319
O O18 0.770630 0.177030 0.238012
O O19 0.806783 0.000000 0.086382
O O20 0.670535 0.000000 0.430095
O O21 0.047313 0.500000 0.874182
O O22 0.000000 0.264332 0.000000
#
# Coordination Sequence:
#
# PCOD8101806 Si02
#       8
#     8   8   8   8   8   8   8   8
#     4  11  20  34  55  82 119 161 201 248 301 360
#     4  11  25  45  68  95 130 168 209 261 320 383
#     4  10  20  36  59  86 118 156 196 244 302 368
#     4  10  21  37  56  82 117 156 200 248 300 358
#     4  10  22  40  61  88 125 167 208 252 305 365
#     4   9  19  36  57  85 122 157 198 248 302 363
#     4  11  23  40  65  93 122 161 209 258 307 368
#     4  10  23  43  65  92 125 156 199 260 316 369
#
# _framework density 21.149754999999999
#
# number of rings (size 3 to 8) (size 9 to 14) (size 15 to 20)
#    0.000    1.750    1.250    2.625    1.750    2.500 
#    0.000    2.500    0.000    0.000    0.000    0.000 
#    0.000    0.000    0.000    0.000    0.000    0.000 
#
# Total GULP energy -396547.343515 kJ/mol
# GULP energy per Si atom -12392.104485 kJ/mol
# Density = 2.110162 g / cm^3
# Si number density = 21.149755 Si / 1000 Ang^3
#
#
#
# Elastic Constant Matrix: (Units=GPa)
#
#
# Indices 1 2 3 4 5 6 
#
# 1 132.3057 39.3811 20.6302 0.0015 -3.3187 -0.0069
# 2 39.3811 63.4861 27.0553 -0.0107 -4.1458 -0.0001
# 3 20.6302 27.0553 82.9922 -0.0291 2.4376 0.0117
# 4 0.0015 -0.0107 -0.0291 23.9266 0.0061 -0.8799
# 5 -3.3187 -4.1458 2.4376 0.0061 28.2075 0.0027
# 6 -0.0069 -0.0001 0.0117 -0.8799 0.0027 36.6333
#
#
#
# Elastic Compliance Matrix: (Units=1/GPa)
#
#
# Indices 1 2 3 4 5 6 
#
# 1 0.009291 -0.005520 -0.000519 -0.000004 0.000327 0.000002
# 2 -0.005520 0.021868 -0.005847 0.000002 0.003070 0.000001
# 3 -0.000519 -0.005847 0.014147 0.000015 -0.002143 -0.000004
# 4 -0.000004 0.000002 0.000015 0.041831 -0.000010 0.001005
# 5 0.000327 0.003070 -0.002143 -0.000010 0.036126 -0.000002
# 6 0.000002 0.000001 -0.000004 0.001005 -0.000002 0.027322
#
#
# Mechanical properties :
#
#
# Convention : Reuss Voigt Hill
#
# Bulk Modulus (GPa) = 46.44080 50.32411 48.38246
# Shear Modulus (GPa) = 27.54269 30.53464 29.03867
#
# Velocity S-wave (km/s) = 3.61261 3.80377 3.70942
# Velocity P-wave (km/s) = 6.27750 6.56791 6.42435
#
# Compressibility (1/GPa) = 0.02153279
#
# Stress axis : x y z
#
# Youngs Moduli (GPa) = 107.63588 45.72902 70.68411
#
# Poissons Ratio (x) = 0.25244 0.03671
# Poissons Ratio (y) = 0.59419 0.41328
# Poissons Ratio (z) = 0.05591 0.26737
#
# Static dielectric constant tensor:
#      x y z
#    x 3.945750 -0.000190 -0.160450 
#    y -0.000190 3.842300 0.000300 
#    z -0.160450 0.000300 4.199000 
# 
# 
# High freq. dielectric constant tensor:
#      x y z
#    x 1.836270 0.000000 0.005150 
#    y 0.000000 1.807300 0.000000 
#    z 0.005150 0.000000 1.836750 
# 
# From -- ./inp_files/295588.got.cif
#   From: 2010.06.25/outbox.cif.g09.slc.cpg/sg12_148_cif.got.tgz:295588.got - 2010.06.28 00:19:55.
