data_PCOD8101480
_publ_section_title
;
Structure prediction by ZEFSAII (Michael W. Deem and Ramdas Pophale) SiO2 
 PCOD8101480
Probable space group: C 2/M
;
_chemical_formula_sum "Si O2"
_cell_formula_units_Z 56
_cell_length_a 20.424253
_cell_length_b 8.621971
_cell_length_c 18.029230
_cell_angle_alpha 90.000000
_cell_angle_beta 52.767126
_cell_angle_gamma 90.000000
_cell_volume 2527.800294
_symmetry_space_group_name_H-M "C 2/M"
_symmetry_group_IT_number 12
_symmetry_cell_setting 'monoclinic'
loop_
_space_group_symop_operation_xyz
x,y,z
-x,y,-z
-x,-y,-z
x,-y,z
1/2+x,1/2+y,z
1/2-x,1/2+y,-z
1/2-x,1/2-y,-z
1/2+x,1/2-y,z
loop_
_atom_site_type_symbol
_atom_site_label
_atom_site_fract_x
_atom_site_fract_y
_atom_site_fract_z
Si Si1 0.181067 0.829351 0.341990
Si Si2 0.161448 0.329696 0.863573
Si Si3 0.771473 0.317637 0.906086
Si Si4 0.029428 0.320754 0.399671
Si Si5 0.422981 0.816096 0.220468
Si Si6 0.051083 0.182996 0.236196
Si Si7 0.231982 0.817041 0.591292
O O1 0.268670 0.848099 0.245350
O O2 0.126951 0.710308 0.331203
O O3 0.192476 0.753348 0.414174
O O4 0.139082 0.000000 0.376641
O O5 0.141611 0.500000 0.911900
O O6 0.192575 0.215171 0.906595
O O7 0.085877 0.270778 0.862103
O O8 0.786144 0.500000 0.900407
O O9 0.854154 0.235297 0.820784
O O10 0.750000 0.250000 0.000000
O O11 0.006000 0.500000 0.408992
O O12 0.998525 0.234719 0.345868
O O13 0.000000 0.252027 0.500000
O O14 0.511802 0.760027 0.189415
O O15 0.356548 0.731390 0.317368
O O16 0.414246 0.000000 0.235515
O O17 0.047811 0.000000 0.230674
O O18 0.250000 0.750000 0.500000
O O19 0.238618 0.000000 0.587108
#
# Coordination Sequence:
#
# PCOD8101480 Si02
#       7
#     8   8   8   8   8   8   8
#     4  10  20  36  58  83 116 158 207 259 314 371
#     4   9  19  39  65  93 125 161 204 255 313 376
#     4  12  25  43  71 101 132 167 211 262 320 387
#     4  11  24  39  58  86 123 168 217 265 319 379
#     4  10  22  41  64  90 125 167 211 261 323 382
#     4  12  25  43  66  95 133 170 215 269 325 386
#     4  11  22  36  55  81 117 161 214 266 315 374
#
# _framework density 22.153649000000001
#
# number of rings (size 3 to 8) (size 9 to 14) (size 15 to 20)
#    0.000    1.286    1.429    6.000    2.000    4.000 
#    0.000    0.714    0.000    4.286    0.000    0.000 
#    0.000    0.000    0.000    0.000    0.000    0.000 
#
# Total GULP energy -346991.054641 kJ/mol
# GULP energy per Si atom -12392.537666 kJ/mol
# Density = 2.210323 g / cm^3
# Si number density = 22.153649 Si / 1000 Ang^3
#
#
#
# Elastic Constant Matrix: (Units=GPa)
#
#
# Indices 1 2 3 4 5 6 
#
# 1 111.9017 16.2607 22.1383 -0.0004 37.3802 0.0005
# 2 16.2607 101.3144 28.6276 -0.0013 21.3520 0.0016
# 3 22.1383 28.6276 75.9647 -0.0001 29.2395 0.0002
# 4 -0.0004 -0.0013 -0.0001 29.7380 0.0003 3.8553
# 5 37.3802 21.3520 29.2395 0.0003 33.9550 -0.0004
# 6 0.0005 0.0016 0.0002 3.8553 -0.0004 36.5896
#
#
#
# Elastic Compliance Matrix: (Units=1/GPa)
#
#
# Indices 1 2 3 4 5 6 
#
# 1 0.014610 0.000888 0.002712 0.000000 -0.018979 -0.000001
# 2 0.000888 0.011706 -0.002185 0.000001 -0.006458 -0.000001
# 3 0.002712 -0.002185 0.020668 0.000000 -0.019410 0.000000
# 4 0.000000 0.000001 0.000000 0.034093 -0.000002 -0.003592
# 5 -0.018979 -0.006458 -0.019410 -0.000002 0.071119 0.000002
# 6 -0.000001 -0.000001 0.000000 -0.003592 0.000002 0.027709
#
#
# Mechanical properties :
#
#
# Convention : Reuss Voigt Hill
#
# Bulk Modulus (GPa) = 20.07370 47.02602 33.54986
# Shear Modulus (GPa) = 25.81602 34.86678 30.34140
#
# Velocity S-wave (km/s) = 3.41738 3.97150 3.70481
# Velocity P-wave (km/s) = 4.96509 6.50413 5.78601
#
# Compressibility (1/GPa) = 0.04981643
#
# Stress axis : x y z
#
# Youngs Moduli (GPa) = 68.44418 85.42653 48.38426
#
# Poissons Ratio (x) = -0.07589 -0.13124
# Poissons Ratio (y) = -0.06080 0.10570
# Poissons Ratio (z) = -0.18564 0.18663
#
# Static dielectric constant tensor:
#      x y z
#    x 4.524780 0.000000 0.326450 
#    y 0.000000 4.148830 0.000000 
#    z 0.326450 0.000000 3.851670 
# 
# 
# High freq. dielectric constant tensor:
#      x y z
#    x 1.884020 0.000000 0.026160 
#    y 0.000000 1.873520 0.000000 
#    z 0.026160 0.000000 1.852420 
# 
# From -- ./inp_files/280973.got.cif
#   From: 2010.06.25/outbox.cif.g09.slc.cpg/sg12_141_cif.got.tgz:280973.got - 2010.06.28 00:19:55.
