data_PCOD8101554
_publ_section_title
;
Structure prediction by ZEFSAII (Michael W. Deem and Ramdas Pophale) SiO2 
 PCOD8101554
Probable space group: C 2/M
;
_chemical_formula_sum "Si O2"
_cell_formula_units_Z 64
_cell_length_a 29.430787
_cell_length_b 8.572034
_cell_length_c 11.941331
_cell_angle_alpha 90.000000
_cell_angle_beta 86.491075
_cell_angle_gamma 90.000000
_cell_volume 3006.931614
_symmetry_space_group_name_H-M "C 2/M"
_symmetry_group_IT_number 12
_symmetry_cell_setting 'monoclinic'
loop_
_space_group_symop_operation_xyz
x,y,z
-x,y,-z
-x,-y,-z
x,-y,z
1/2+x,1/2+y,z
1/2-x,1/2+y,-z
1/2-x,1/2-y,-z
1/2+x,1/2-y,z
loop_
_atom_site_type_symbol
_atom_site_label
_atom_site_fract_x
_atom_site_fract_y
_atom_site_fract_z
Si Si1 0.339206 0.319088 0.133067
Si Si2 0.083552 0.179327 0.710366
Si Si3 0.349837 0.179796 0.906077
Si Si4 0.393024 0.816972 0.521991
Si Si5 0.259745 0.181260 0.808952
Si Si6 0.290597 0.184760 0.567165
Si Si7 0.577111 0.681252 0.254282
Si Si8 0.004866 0.682680 0.870386
O O1 0.337131 0.500000 0.098617
O O2 0.367056 0.293865 0.242315
O O3 0.289228 0.242601 0.157766
O O4 0.364273 0.227013 0.028989
O O5 0.081039 0.280085 0.597671
O O6 0.046193 0.228014 0.806156
O O7 0.075901 0.000000 0.679121
O O8 0.295580 0.211395 0.903239
O O9 0.374592 0.285432 0.810597
O O10 0.362158 0.000000 0.880495
O O11 0.340713 0.755826 0.522029
O O12 0.420503 0.731619 0.616660
O O13 0.394470 0.000000 0.546399
O O14 0.281818 0.249768 0.692929
O O15 0.250337 0.000000 0.790969
O O16 0.250000 0.250000 0.500000
O O17 0.289624 0.000000 0.560993
O O18 0.564349 0.500000 0.249073
O O19 0.540450 0.781447 0.191951
O O20 0.015132 0.500000 0.865428
O O21 0.000000 0.739929 0.000000
#
# Coordination Sequence:
#
# PCOD8101554 Si02
#       8
#     8   8   8   8   8   8   8   8
#     4  10  21  37  59  88 125 167 210 261 317 372
#     4  11  24  42  65  94 130 166 208 260 316 376
#     4  11  21  37  60  87 125 167 212 261 313 375
#     4  11  23  42  66  92 128 169 214 263 316 375
#     4   9  18  35  56  82 121 165 208 255 311 370
#     4  10  20  36  58  85 121 166 214 263 314 369
#     4  12  25  42  67  96 128 165 211 263 321 383
#     4  11  25  46  72 100 129 163 208 258 316 382
#
# _framework density 21.284155999999999
#
# number of rings (size 3 to 8) (size 9 to 14) (size 15 to 20)
#    0.000    1.375    1.250    4.500    0.000    6.500 
#    0.000    3.750    0.000    0.000    0.000    0.000 
#    0.000    0.000    0.000    0.000    0.000    0.000 
#
# Total GULP energy -396882.917090 kJ/mol
# GULP energy per Si atom -12402.591159 kJ/mol
# Density = 2.123571 g / cm^3
# Si number density = 21.284156 Si / 1000 Ang^3
#
#
#
# Elastic Constant Matrix: (Units=GPa)
#
#
# Indices 1 2 3 4 5 6 
#
# 1 90.2788 13.6026 33.2891 0.0000 2.5951 0.0000
# 2 13.6026 48.7887 22.1030 0.0000 4.1137 0.0000
# 3 33.2891 22.1030 134.7757 0.0000 -1.6482 0.0000
# 4 0.0000 0.0000 0.0000 31.5733 0.0000 0.5637
# 5 2.5951 4.1137 -1.6482 0.0000 36.8888 0.0000
# 6 0.0000 0.0000 0.0000 0.5637 0.0000 30.6924
#
#
#
# Elastic Compliance Matrix: (Units=1/GPa)
#
#
# Indices 1 2 3 4 5 6 
#
# 1 0.012429 -0.002168 -0.002724 0.000000 -0.000754 0.000000
# 2 -0.002168 0.022778 -0.003231 0.000000 -0.002532 0.000000
# 3 -0.002724 -0.003231 0.008634 0.000000 0.000938 0.000000
# 4 0.000000 0.000000 0.000000 0.031683 0.000000 -0.000582
# 5 -0.000754 -0.002532 0.000938 0.000000 0.027486 0.000000
# 6 0.000000 0.000000 0.000000 -0.000582 0.000000 0.032592
#
#
# Mechanical properties :
#
#
# Convention : Reuss Voigt Hill
#
# Bulk Modulus (GPa) = 36.23690 45.75917 40.99803
# Shear Modulus (GPa) = 31.04697 33.48746 32.26721
#
# Velocity S-wave (km/s) = 3.82342 3.97085 3.89783
# Velocity P-wave (km/s) = 6.04596 6.52452 6.28980
#
# Compressibility (1/GPa) = 0.02759618
#
# Stress axis : x y z
#
# Youngs Moduli (GPa) = 80.45401 43.90149 115.82320
#
# Poissons Ratio (x) = 0.09517 0.31547
# Poissons Ratio (y) = 0.17441 0.37424
# Poissons Ratio (z) = 0.21913 0.14185
#
# Static dielectric constant tensor:
#      x y z
#    x 5.720170 0.000000 -0.431310 
#    y 0.000000 3.612070 0.000000 
#    z -0.431310 0.000000 4.007350 
# 
# 
# High freq. dielectric constant tensor:
#      x y z
#    x 1.840010 0.000000 0.001980 
#    y 0.000000 1.819250 0.000000 
#    z 0.001980 0.000000 1.845630 
# 
# From -- ./inp_files/187498.got.cif
#   From: 2010.06.25/outbox.cif.g09.slc.cpg/sg12_94_cif.got.tgz:187498.got - 2010.06.28 00:19:55.
