data_PCOD8101969
_publ_section_title
;
Structure prediction by ZEFSAII (Michael W. Deem and Ramdas Pophale) SiO2 
 PCOD8101969
Probable space group: C 2/M
;
_chemical_formula_sum "Si O2"
_cell_formula_units_Z 64
_cell_length_a 28.220116
_cell_length_b 8.967041
_cell_length_c 14.337779
_cell_angle_alpha 90.000000
_cell_angle_beta 106.906967
_cell_angle_gamma 90.000000
_cell_volume 3471.371683
_symmetry_space_group_name_H-M "C 2/M"
_symmetry_group_IT_number 12
_symmetry_cell_setting 'monoclinic'
loop_
_space_group_symop_operation_xyz
x,y,z
-x,y,-z
-x,-y,-z
x,-y,z
1/2+x,1/2+y,z
1/2-x,1/2+y,-z
1/2-x,1/2-y,-z
1/2+x,1/2-y,z
loop_
_atom_site_type_symbol
_atom_site_label
_atom_site_fract_x
_atom_site_fract_y
_atom_site_fract_z
Si Si1 0.497470 0.675881 0.392513
Si Si2 0.689928 0.824618 0.882122
Si Si3 0.401483 0.323306 0.646293
Si Si4 0.599000 0.831828 0.703026
Si Si5 0.801668 0.174792 0.918691
Si Si6 0.753065 0.825916 0.402272
Si Si7 0.655045 0.825986 0.231262
Si Si8 0.847238 0.669647 0.451834
O O1 0.500000 0.740074 0.500000
O O2 0.493909 0.500000 0.395370
O O3 0.544797 0.727676 0.359774
O O4 0.449760 0.733995 0.308415
O O5 0.646429 0.772668 0.787427
O O6 0.743609 0.786638 0.867987
O O7 0.687227 0.000000 0.903347
O O8 0.681962 0.731024 0.970815
O O9 0.396642 0.500000 0.649477
O O10 0.391009 0.252518 0.742009
O O11 0.360940 0.261218 0.551577
O O12 0.609514 0.824115 0.598912
O O13 0.587245 0.000000 0.727334
O O14 0.837338 0.257199 0.866215
O O15 0.811517 0.000000 0.916682
O O16 0.750000 0.750000 0.500000
O O17 0.704383 0.791668 0.316636
O O18 0.799118 0.745680 0.377235
O O19 0.763483 0.000000 0.418140
O O20 0.643410 0.000000 0.215213
O O21 0.835428 0.500000 0.475335
#
# Coordination Sequence:
#
# PCOD8101969 Si02
#       8
#     8   8   8   8   8   8   8   8
#     4  10  21  37  55  79 110 145 188 236 283 331
#     4   9  19  37  58  85 117 146 182 228 275 329
#     4  11  22  36  54  75 106 147 187 228 275 326
#     4  10  21  35  56  82 110 146 184 229 280 331
#     4  10  20  36  60  86 114 148 184 225 274 331
#     4  11  22  33  48  72 105 144 183 221 265 319
#     4  11  23  37  54  78 109 147 187 228 275 331
#     4  11  21  33  50  76 109 144 184 224 268 325
#
# _framework density 18.436516000000001
#
# number of rings (size 3 to 8) (size 9 to 14) (size 15 to 20)
#    0.000    1.625    2.500    2.625    0.000    5.250 
#    0.000    0.000    0.000    0.750    0.000    5.250 
#    0.000    0.000    0.000    0.000    0.000    0.000 
#
# Total GULP energy -396823.427073 kJ/mol
# GULP energy per Si atom -12400.732096 kJ/mol
# Density = 1.839455 g / cm^3
# Si number density = 18.436516 Si / 1000 Ang^3
#
#
#
# Elastic Constant Matrix: (Units=GPa)
#
#
# Indices 1 2 3 4 5 6 
#
# 1 118.6133 46.0855 40.2792 0.0000 -11.7711 0.0000
# 2 46.0855 64.1896 25.7720 0.0000 -12.0160 0.0000
# 3 40.2792 25.7720 70.6766 0.0000 -9.6914 0.0000
# 4 0.0000 0.0000 0.0000 28.8474 0.0000 -0.5455
# 5 -11.7711 -12.0160 -9.6914 0.0000 30.6742 0.0000
# 6 0.0000 0.0000 0.0000 -0.5455 0.0000 32.6206
#
#
#
# Elastic Compliance Matrix: (Units=1/GPa)
#
#
# Indices 1 2 3 4 5 6 
#
# 1 0.012887 -0.007286 -0.004600 0.000000 0.000638 0.000000
# 2 -0.007286 0.023225 -0.003609 0.000000 0.005162 0.000000
# 3 -0.004600 -0.003609 0.018450 0.000000 0.002650 0.000000
# 4 0.000000 0.000000 0.000000 0.034676 0.000000 0.000580
# 5 0.000638 0.005162 0.002650 0.000000 0.035705 0.000000
# 6 0.000000 0.000000 0.000000 0.000580 0.000000 0.030665
#
#
# Mechanical properties :
#
#
# Convention : Reuss Voigt Hill
#
# Bulk Modulus (GPa) = 42.42292 53.08367 47.75330
# Shear Modulus (GPa) = 25.71279 27.85128 26.78203
#
# Velocity S-wave (km/s) = 3.73857 3.89094 3.81552
# Velocity P-wave (km/s) = 6.45726 7.00293 6.73562
#
# Compressibility (1/GPa) = 0.02357216
#
# Stress axis : x y z
#
# Youngs Moduli (GPa) = 77.59700 43.05680 54.20067
#
# Poissons Ratio (x) = 0.31371 0.24933
# Poissons Ratio (y) = 0.56538 0.19560
# Poissons Ratio (z) = 0.35696 0.15538
#
# Static dielectric constant tensor:
#      x y z
#    x 3.582520 0.000000 -0.051580 
#    y 0.000000 3.439800 0.000000 
#    z -0.051580 0.000000 3.223660 
# 
# 
# High freq. dielectric constant tensor:
#      x y z
#    x 1.714300 0.000000 -0.009590 
#    y 0.000000 1.721890 0.000000 
#    z -0.009590 0.000000 1.691740 
# 
# From -- ./inp_files/244133.got.cif
#   From: 2010.06.25/outbox.cif.g09.slc.cpg/sg12_123_cif.got.tgz:244133.got - 2010.06.28 00:19:55.
