data_PCOD8101115
_publ_section_title
;
Structure prediction by ZEFSAII (Michael W. Deem and Ramdas Pophale) SiO2 
 PCOD8101115
Probable space group: C 2/M
;
_chemical_formula_sum "Si O2"
_cell_formula_units_Z 56
_cell_length_a 19.565564
_cell_length_b 8.881831
_cell_length_c 18.826774
_cell_angle_alpha 90.000000
_cell_angle_beta 113.938616
_cell_angle_gamma 90.000000
_cell_volume 2990.252122
_symmetry_space_group_name_H-M "C 2/M"
_symmetry_group_IT_number 12
_symmetry_cell_setting 'monoclinic'
loop_
_space_group_symop_operation_xyz
x,y,z
-x,y,-z
-x,-y,-z
x,-y,z
1/2+x,1/2+y,z
1/2-x,1/2+y,-z
1/2-x,1/2-y,-z
1/2+x,1/2-y,z
loop_
_atom_site_type_symbol
_atom_site_label
_atom_site_fract_x
_atom_site_fract_y
_atom_site_fract_z
Si Si1 0.030181 0.322123 0.299286
Si Si2 0.780525 0.822641 0.441691
Si Si3 0.432237 0.827154 0.523884
Si Si4 0.875966 0.324855 0.173445
Si Si5 0.786817 0.823289 0.853690
Si Si6 0.824395 0.674978 0.003569
Si Si7 0.829720 0.822707 0.713211
O O1 0.037080 0.500000 0.287928
O O2 0.948581 0.256945 0.243336
O O3 0.043501 0.282222 0.386805
O O4 0.089917 0.236268 0.276513
O O5 0.750000 0.750000 0.500000
O O6 0.866938 0.780940 0.469145
O O7 0.735780 0.759839 0.356267
O O8 0.769398 0.000000 0.441304
O O9 0.500000 0.798709 0.500000
O O10 0.404911 0.000000 0.509660
O O11 0.874168 0.500000 0.190296
O O12 0.797906 0.257551 0.171566
O O13 0.885019 0.296836 0.091950
O O14 0.843663 0.750174 0.935736
O O15 0.818330 0.780725 0.790412
O O16 0.786540 0.000000 0.867282
O O17 0.811209 0.500000 0.985592
O O18 0.750000 0.750000 0.000000
O O19 0.823772 0.000000 0.696839
#
# Coordination Sequence:
#
# PCOD8101115 Si02
#       7
#     8   8   8   8   8   8   8
#     4  10  20  36  57  79 111 148 186 229 274 334
#     4  12  24  40  61  83 112 150 191 233 279 334
#     4  10  22  38  60  87 114 148 189 231 280 334
#     4   8  16  32  55  81 106 142 185 225 270 326
#     4   9  19  35  57  82 108 142 187 230 274 329
#     4   9  16  30  53  80 112 144 182 228 275 328
#     4  11  23  38  58  82 113 148 185 233 283 336
#
# _framework density 18.727516999999999
#
# number of rings (size 3 to 8) (size 9 to 14) (size 15 to 20)
#    0.000    2.143    1.429    3.000    2.000    1.429 
#    0.000    4.286    0.000    4.286    0.000    0.000 
#    0.000    0.000    0.000    0.000    0.000    0.000 
#
# Total GULP energy -347119.641868 kJ/mol
# GULP energy per Si atom -12397.130067 kJ/mol
# Density = 1.868489 g / cm^3
# Si number density = 18.727517 Si / 1000 Ang^3
#
#
#
# Elastic Constant Matrix: (Units=GPa)
#
#
# Indices 1 2 3 4 5 6 
#
# 1 100.8164 30.7547 56.1891 0.0000 -10.0337 0.0000
# 2 30.7547 66.5767 37.0538 0.0000 -12.4203 0.0000
# 3 56.1891 37.0538 92.4895 0.0000 -16.5278 0.0000
# 4 0.0000 0.0000 0.0000 30.3843 0.0000 -1.7764
# 5 -10.0337 -12.4203 -16.5278 0.0000 33.4549 0.0000
# 6 0.0000 0.0000 0.0000 -1.7764 0.0000 28.6626
#
#
#
# Elastic Compliance Matrix: (Units=1/GPa)
#
#
# Indices 1 2 3 4 5 6 
#
# 1 0.015305 -0.002492 -0.008385 0.000000 -0.000477 0.000000
# 2 -0.002492 0.020157 -0.005876 0.000000 0.003833 0.000000
# 3 -0.008385 -0.005876 0.019108 0.000000 0.004744 0.000000
# 4 0.000000 0.000000 0.000000 0.033031 0.000000 0.002047
# 5 -0.000477 0.003833 0.004744 0.000000 0.033514 0.000000
# 6 0.000000 0.000000 0.000000 0.002047 0.000000 0.035016
#
#
# Mechanical properties :
#
#
# Convention : Reuss Voigt Hill
#
# Bulk Modulus (GPa) = 47.47727 56.43087 51.95407
# Shear Modulus (GPa) = 25.42459 27.55934 26.49197
#
# Velocity S-wave (km/s) = 3.68857 3.84030 3.76520
# Velocity P-wave (km/s) = 6.59904 7.06130 6.83408
#
# Compressibility (1/GPa) = 0.02106271
#
# Stress axis : x y z
#
# Youngs Moduli (GPa) = 65.33777 49.60996 52.33427
#
# Poissons Ratio (x) = 0.12365 0.43882
# Poissons Ratio (y) = 0.16285 0.30754
# Poissons Ratio (z) = 0.54785 0.29153
#
# Static dielectric constant tensor:
#      x y z
#    x 3.416640 0.000000 0.052440 
#    y 0.000000 3.543850 0.000000 
#    z 0.052440 0.000000 3.798560 
# 
# 
# High freq. dielectric constant tensor:
#      x y z
#    x 1.712500 0.000000 -0.002650 
#    y 0.000000 1.714750 0.000000 
#    z -0.002650 0.000000 1.743950 
# 
# From -- ./inp_files/275478.got.cif
#   From: 2010.06.25/outbox.cif.g09.slc.cpg/sg12_138_cif.got.tgz:275478.got - 2010.06.28 00:19:55.
