data_PCOD8101359
_publ_section_title
;
Structure prediction by ZEFSAII (Michael W. Deem and Ramdas Pophale) SiO2 
 PCOD8101359
Probable space group: C 2/M
;
_chemical_formula_sum "Si O2"
_cell_formula_units_Z 64
_cell_length_a 14.647887
_cell_length_b 8.669409
_cell_length_c 29.147857
_cell_angle_alpha 90.000000
_cell_angle_beta 119.051043
_cell_angle_gamma 90.000000
_cell_volume 3235.755329
_symmetry_space_group_name_H-M "C 2/M"
_symmetry_group_IT_number 12
_symmetry_cell_setting 'monoclinic'
loop_
_space_group_symop_operation_xyz
x,y,z
-x,y,-z
-x,-y,-z
x,-y,z
1/2+x,1/2+y,z
1/2-x,1/2+y,-z
1/2-x,1/2-y,-z
1/2+x,1/2-y,z
loop_
_atom_site_type_symbol
_atom_site_label
_atom_site_fract_x
_atom_site_fract_y
_atom_site_fract_z
Si Si1 0.450750 0.320498 0.623718
Si Si2 0.110743 0.820480 0.005588
Si Si3 0.024744 0.320881 0.810287
Si Si4 0.235727 0.816480 0.359472
Si Si5 0.890960 0.178716 0.259046
Si Si6 0.690916 0.681328 0.245996
Si Si7 0.326042 0.678247 0.081362
Si Si8 0.038402 0.317566 0.557981
O O1 0.437997 0.500000 0.609995
O O2 0.350110 0.254778 0.625788
O O3 0.553655 0.287641 0.678937
O O4 0.457385 0.231413 0.577405
O O5 0.204333 0.724404 0.051103
O O6 0.129138 0.000000 0.020888
O O7 0.114536 0.789186 0.952037
O O8 0.000000 0.765194 0.000000
O O9 0.998164 0.500000 0.807657
O O10 0.053534 0.281114 0.765428
O O11 0.119596 0.279907 0.866738
O O12 0.923654 0.222499 0.800259
O O13 0.205506 0.757882 0.301517
O O14 0.347500 0.749178 0.402202
O O15 0.235518 0.000000 0.359090
O O16 0.771065 0.228181 0.233169
O O17 0.901672 0.000000 0.247648
O O18 0.711379 0.500000 0.246630
O O19 0.333681 0.500000 0.096869
O O20 0.043837 0.500000 0.556892
O O21 0.000000 0.249478 0.500000
#
# Coordination Sequence:
#
# PCOD8101359 Si02
#       8
#     8   8   8   8   8   8   8   8
#     4  10  20  36  58  81 109 146 188 236 290 352
#     4   9  19  38  64  90 119 158 204 247 297 359
#     4  12  25  40  59  87 124 162 203 252 301 356
#     4   9  18  35  57  80 110 148 185 231 292 351
#     4  11  22  38  59  87 116 151 199 247 298 361
#     4  11  21  38  61  85 116 156 196 243 301 360
#     4  10  21  38  60  88 123 160 199 251 303 351
#     4  10  21  37  57  83 114 148 190 239 292 355
#
# _framework density 19.778998000000001
#
# number of rings (size 3 to 8) (size 9 to 14) (size 15 to 20)
#    0.000    1.750    2.500    2.250    0.000    3.000 
#    0.000    4.375    0.000    0.000    0.000    0.000 
#    0.000    0.000    0.000    0.000    0.000    0.000 
#
# Total GULP energy -396923.799055 kJ/mol
# GULP energy per Si atom -12403.868720 kJ/mol
# Density = 1.973398 g / cm^3
# Si number density = 19.778998 Si / 1000 Ang^3
#
#
#
# Elastic Constant Matrix: (Units=GPa)
#
#
# Indices 1 2 3 4 5 6 
#
# 1 107.9726 19.4487 6.7802 0.0000 9.9049 0.0000
# 2 19.4487 45.0602 30.9328 0.0000 -1.4695 0.0000
# 3 6.7802 30.9328 65.1572 0.0000 9.2269 0.0000
# 4 0.0000 0.0000 0.0000 25.4823 0.0000 -1.9240
# 5 9.9049 -1.4695 9.2269 0.0000 24.2134 0.0000
# 6 0.0000 0.0000 0.0000 -1.9240 0.0000 31.1872
#
#
#
# Elastic Compliance Matrix: (Units=1/GPa)
#
#
# Indices 1 2 3 4 5 6 
#
# 1 0.010881 -0.006975 0.003033 0.000000 -0.006030 0.000000
# 2 -0.006975 0.039096 -0.019634 0.000000 0.012708 0.000000
# 3 0.003033 -0.019634 0.026106 0.000000 -0.012380 0.000000
# 4 0.000000 0.000000 0.000000 0.039427 0.000000 0.002432
# 5 -0.006030 0.012708 -0.012380 0.000000 0.049255 0.000000
# 6 0.000000 0.000000 0.000000 0.002432 0.000000 0.032214
#
#
# Mechanical properties :
#
#
# Convention : Reuss Voigt Hill
#
# Bulk Modulus (GPa) = 34.56564 36.94593 35.75579
# Shear Modulus (GPa) = 19.70253 26.91182 23.30718
#
# Velocity S-wave (km/s) = 3.15958 3.69267 3.43648
# Velocity P-wave (km/s) = 5.55198 6.07462 5.81917
#
# Compressibility (1/GPa) = 0.02893046
#
# Stress axis : x y z
#
# Youngs Moduli (GPa) = 91.90580 25.57819 38.30506
#
# Poissons Ratio (x) = 0.17841 -0.11618
# Poissons Ratio (y) = 0.64105 0.75209
# Poissons Ratio (z) = -0.27875 0.50221
#
# Static dielectric constant tensor:
#      x y z
#    x 3.755330 0.000000 0.075940 
#    y 0.000000 3.371190 0.000000 
#    z 0.075940 0.000000 3.595110 
# 
# 
# High freq. dielectric constant tensor:
#      x y z
#    x 1.781960 0.000000 0.002500 
#    y 0.000000 1.756750 0.000000 
#    z 0.002500 0.000000 1.765870 
# 
# From -- ./inp_files/375097.got.cif
#   From: 2010.06.25/outbox.cif.g09.slc.cpg/sg12_188_cif.got.tgz:375097.got - 2010.06.28 00:19:55.
