data_PCOD8101125
_publ_section_title
;
Structure prediction by ZEFSAII (Michael W. Deem and Ramdas Pophale) SiO2 
 PCOD8101125
Probable space group: C 2/M
;
_chemical_formula_sum "Si O2"
_cell_formula_units_Z 32
_cell_length_a 27.802769
_cell_length_b 8.590408
_cell_length_c 22.183246
_cell_angle_alpha 90.000000
_cell_angle_beta 18.503502
_cell_angle_gamma 90.000000
_cell_volume 1681.445165
_symmetry_space_group_name_H-M "C 2/M"
_symmetry_group_IT_number 12
_symmetry_cell_setting 'monoclinic'
loop_
_space_group_symop_operation_xyz
x,y,z
-x,y,-z
-x,-y,-z
x,-y,z
1/2+x,1/2+y,z
1/2-x,1/2+y,-z
1/2-x,1/2-y,-z
1/2+x,1/2-y,z
loop_
_atom_site_type_symbol
_atom_site_label
_atom_site_fract_x
_atom_site_fract_y
_atom_site_fract_z
Si Si1 0.411831 0.818999 0.022403
Si Si2 0.709791 0.317314 0.715107
Si Si3 0.813073 0.179827 0.018029
Si Si4 0.523937 0.818426 0.283958
O O1 0.301313 0.771963 0.208345
O O2 0.328816 0.782186 0.058892
O O3 0.450033 0.000000 0.981382
O O4 0.568670 0.723828 0.839973
O O5 0.711982 0.500000 0.725951
O O6 0.862518 0.263061 0.500716
O O7 0.649435 0.220326 0.185028
O O8 0.827682 0.000000 0.018126
O O9 0.943969 0.222568 0.814825
O O10 0.525716 0.000000 0.265310
#
# Coordination Sequence:
#
# PCOD8101125 Si02
#       4
#     8   8   8   8
#     4  11  22  36  54  79 110 141 178 219 261 313
#     4  10  20  37  58  79 106 139 177 220 267 314
#     4  10  20  36  57  80 108 141 176 216 264 315
#     4   9  20  37  57  81 107 137 176 221 265 313
#
# _framework density 19.031247
#
# number of rings (size 3 to 8) (size 9 to 14) (size 15 to 20)
#    0.000    2.000    0.000    5.250    0.000    5.000 
#    0.000    5.000    0.000    0.000    0.000    0.000 
#    0.000    0.000    0.000    0.000    0.000    0.000 
#
# Total GULP energy -198481.632441 kJ/mol
# GULP energy per Si atom -12405.102028 kJ/mol
# Density = 1.898793 g / cm^3
# Si number density = 19.031247 Si / 1000 Ang^3
#
#
#
# Elastic Constant Matrix: (Units=GPa)
#
#
# Indices 1 2 3 4 5 6 
#
# 1 64.0356 16.4211 -15.1963 -0.0011 4.5911 -0.0009
# 2 16.4211 54.3058 11.5117 0.0055 5.3628 -0.0012
# 3 -15.1963 11.5117 71.9832 -0.0010 -0.0687 -0.0013
# 4 -0.0011 0.0055 -0.0010 27.6775 -0.0006 5.2703
# 5 4.5911 5.3628 -0.0687 -0.0006 12.3813 -0.0001
# 6 -0.0009 -0.0012 -0.0013 5.2703 -0.0001 34.4903
#
#
#
# Elastic Compliance Matrix: (Units=1/GPa)
#
#
# Indices 1 2 3 4 5 6 
#
# 1 0.018705 -0.006292 0.004951 0.000002 -0.004183 0.000000
# 2 -0.006292 0.022064 -0.004864 -0.000005 -0.007250 0.000001
# 3 0.004951 -0.004864 0.015716 0.000002 0.000358 0.000000
# 4 0.000002 -0.000005 0.000002 0.037213 0.000003 -0.005686
# 5 -0.004183 -0.007250 0.000358 0.000003 0.085461 -0.000001
# 6 0.000000 0.000001 0.000000 -0.005686 -0.000001 0.029863
#
#
# Mechanical properties :
#
#
# Convention : Reuss Voigt Hill
#
# Bulk Modulus (GPa) = 22.68918 23.97750 23.33334
# Shear Modulus (GPa) = 21.17546 26.74902 23.96224
#
# Velocity S-wave (km/s) = 3.33929 3.75311 3.55223
# Velocity P-wave (km/s) = 5.17839 5.60424 5.39552
#
# Compressibility (1/GPa) = 0.04407386
#
# Stress axis : x y z
#
# Youngs Moduli (GPa) = 53.46226 45.32267 63.63142
#
# Poissons Ratio (x) = 0.28519 -0.31504
# Poissons Ratio (y) = 0.33641 0.30949
# Poissons Ratio (z) = -0.26470 0.22044
#
# Static dielectric constant tensor:
#      x y z
#    x 3.402600 0.000000 0.019500 
#    y 0.000000 3.504110 0.000000 
#    z 0.019500 0.000000 3.539660 
# 
# 
# High freq. dielectric constant tensor:
#      x y z
#    x 1.739650 0.000000 0.003590 
#    y 0.000000 1.747940 0.000000 
#    z 0.003590 0.000000 1.739370 
# 
# From -- ./inp_files/81682.got.cif
#   From: 2010.06.25/outbox.cif.g09.slc.cpg/sg12_41_cif.got.tgz:81682.got - 2010.06.28 00:19:55.
