data_PCOD8101603
_publ_section_title
;
Structure prediction by ZEFSAII (Michael W. Deem and Ramdas Pophale) SiO2 
 PCOD8101603
Probable space group: C 2/M
;
_chemical_formula_sum "Si O2"
_cell_formula_units_Z 48
_cell_length_a 13.012329
_cell_length_b 16.838069
_cell_length_c 17.291843
_cell_angle_alpha 90.000000
_cell_angle_beta 39.841125
_cell_angle_gamma 90.000000
_cell_volume 2427.263245
_symmetry_space_group_name_H-M "C 2/M"
_symmetry_group_IT_number 12
_symmetry_cell_setting 'monoclinic'
loop_
_space_group_symop_operation_xyz
x,y,z
-x,y,-z
-x,-y,-z
x,-y,z
1/2+x,1/2+y,z
1/2-x,1/2+y,-z
1/2-x,1/2-y,-z
1/2+x,1/2-y,z
loop_
_atom_site_type_symbol
_atom_site_label
_atom_site_fract_x
_atom_site_fract_y
_atom_site_fract_z
Si Si1 0.754715 0.090195 0.787665
Si Si2 0.000000 0.296049 0.500000
Si Si3 0.362907 0.093022 0.463302
Si Si4 0.465823 0.411890 0.268322
Si Si5 0.000000 0.301467 0.000000
Si Si6 0.296222 0.824936 0.340797
Si Si7 0.934371 0.770138 0.883132
O O1 0.939672 0.101842 0.705336
O O2 0.732631 0.113706 0.711652
O O3 0.696924 0.000000 0.829647
O O4 0.655491 0.142304 0.906892
O O5 0.995780 0.353366 0.579359
O O6 0.158066 0.241623 0.415857
O O7 0.300157 0.126894 0.418266
O O8 0.219765 0.103115 0.607658
O O9 0.413507 0.000000 0.425323
O O10 0.495320 0.500000 0.220565
O O11 0.536714 0.360058 0.157995
O O12 0.013865 0.243408 0.919766
O O13 0.473000 0.785696 0.232030
O O14 0.750000 0.750000 0.000000
#
# Coordination Sequence:
#
# PCOD8101603 Si02
#       7
#     8   4   8   8   4   8   8
#     4  10  20  36  58  88 120 154 197 250 309 363
#     4  12  23  38  65  92 126 164 210 250 311 366
#     4  11  24  43  63  92 130 166 204 256 316 375
#     4  10  21  39  63  88 122 162 200 249 314 371
#     4  10  21  34  59  84 112 158 200 252 291 360
#     4  11  24  37  65  95 122 160 207 259 306 367
#     4  11  22  40  61  86 123 157 209 251 302 364
#
# _framework density 19.775358000000001
#
# number of rings (size 3 to 8) (size 9 to 14) (size 15 to 20)
#    0.000    1.333    3.333    2.500    2.333    0.000 
#    0.000    4.583    0.000    0.000    0.000    0.000 
#    0.000    0.000    0.000    0.000    0.000    0.000 
#
# Total GULP energy -297489.405745 kJ/mol
# GULP energy per Si atom -12395.391906 kJ/mol
# Density = 1.973035 g / cm^3
# Si number density = 19.775358 Si / 1000 Ang^3
#
#
#
# Elastic Constant Matrix: (Units=GPa)
#
#
# Indices 1 2 3 4 5 6 
#
# 1 79.4322 60.8659 23.1516 0.0008 10.2438 -0.0006
# 2 60.8659 134.2161 52.2925 0.0003 12.2119 -0.0005
# 3 23.1516 52.2925 77.2913 0.0001 0.8555 -0.0011
# 4 0.0008 0.0003 0.0001 22.3583 -0.0005 1.4562
# 5 10.2438 12.2119 0.8555 -0.0005 33.9422 0.0008
# 6 -0.0006 -0.0005 -0.0011 1.4562 0.0008 37.9519
#
#
#
# Elastic Compliance Matrix: (Units=1/GPa)
#
#
# Indices 1 2 3 4 5 6 
#
# 1 0.019548 -0.008610 0.000001 -0.000001 -0.002802 0.000000
# 2 -0.008610 0.014336 -0.007094 0.000000 -0.002380 0.000000
# 3 0.000001 -0.007094 0.017714 0.000000 0.002105 0.000000
# 4 -0.000001 0.000000 0.000000 0.044838 0.000001 -0.001720
# 5 -0.002802 -0.002380 0.002105 0.000001 0.031111 -0.000001
# 6 0.000000 0.000000 0.000000 -0.001720 -0.000001 0.026415
#
#
# Mechanical properties :
#
#
# Convention : Reuss Voigt Hill
#
# Bulk Modulus (GPa) = 49.52493 62.61776 56.07134
# Shear Modulus (GPa) = 26.02836 29.15914 27.59375
#
# Velocity S-wave (km/s) = 3.63189 3.84411 3.73950
# Velocity P-wave (km/s) = 6.53342 7.17190 6.86009
#
# Compressibility (1/GPa) = 0.02019185
#
# Stress axis : x y z
#
# Youngs Moduli (GPa) = 51.15554 69.75544 56.45352
#
# Poissons Ratio (x) = 0.60063 -0.00006
# Poissons Ratio (y) = 0.44047 0.40046
# Poissons Ratio (z) = -0.00006 0.49482
#
# Static dielectric constant tensor:
#      x y z
#    x 3.725850 0.000000 -0.092680 
#    y 0.000000 3.858510 0.000000 
#    z -0.092680 0.000000 3.584870 
# 
# 
# High freq. dielectric constant tensor:
#      x y z
#    x 1.774340 0.000000 -0.004880 
#    y 0.000000 1.783320 0.000000 
#    z -0.004880 0.000000 1.759800 
# 
# From -- ./inp_files/183925.got.cif
#   From: 2010.06.25/outbox.cif.g09.slc.cpg/sg12_92_cif.got.tgz:183925.got - 2010.06.28 00:19:55.
