data_PCOD8101772
_publ_section_title
;
Structure prediction by ZEFSAII (Michael W. Deem and Ramdas Pophale) SiO2 
 PCOD8101772
Probable space group: C 2/M
;
_chemical_formula_sum "Si O2"
_cell_formula_units_Z 48
_cell_length_a 20.058827
_cell_length_b 14.386362
_cell_length_c 10.525001
_cell_angle_alpha 90.000000
_cell_angle_beta 47.994456
_cell_angle_gamma 90.000000
_cell_volume 2256.910202
_symmetry_space_group_name_H-M "C 2/M"
_symmetry_group_IT_number 12
_symmetry_cell_setting 'monoclinic'
loop_
_space_group_symop_operation_xyz
x,y,z
-x,y,-z
-x,-y,-z
x,-y,z
1/2+x,1/2+y,z
1/2-x,1/2+y,-z
1/2-x,1/2-y,-z
1/2+x,1/2-y,z
loop_
_atom_site_type_symbol
_atom_site_label
_atom_site_fract_x
_atom_site_fract_y
_atom_site_fract_z
Si Si1 0.118022 0.272916 0.244603
Si Si2 0.408897 0.719302 0.173598
Si Si3 0.744160 0.895593 0.430921
Si Si4 0.732148 0.607185 0.052574
Si Si5 0.316337 0.895181 0.219772
Si Si6 0.923173 0.287989 0.424183
O O1 0.147975 0.176789 0.136649
O O2 0.105861 0.242262 0.406195
O O3 0.027775 0.316137 0.299409
O O4 0.189369 0.356393 0.139793
O O5 0.318086 0.662743 0.257818
O O6 0.398364 0.821959 0.124583
O O7 0.414931 0.716745 0.318391
O O8 0.500000 0.674608 0.000000
O O9 0.749779 0.875962 0.575802
O O10 0.642222 0.875329 0.516802
O O11 0.767399 0.000000 0.367358
O O12 0.707824 0.500000 0.050921
O O13 0.761927 0.618771 0.160289
O O14 0.355695 0.000000 0.177825
#
# Coordination Sequence:
#
# PCOD8101772 Si02
#       6
#     8   8   8   8   8   8
#     4  10  21  37  57  82 114 151 185 224 272 326
#     4  11  21  35  58  85 112 143 182 232 283 327
#     4  10  21  37  58  82 111 148 186 227 276 328
#     4  10  20  36  59  86 114 144 183 229 277 327
#     4   9  18  35  60  85 109 142 185 230 274 323
#     4  10  21  38  57  78 111 151 189 226 270 327
#
# _framework density 21.268015999999999
#
# number of rings (size 3 to 8) (size 9 to 14) (size 15 to 20)
#    0.000    2.000    0.000    5.000    0.000    3.333 
#    0.000    7.500    0.000    1.000    0.000    0.000 
#    0.000    0.000    0.000    0.000    0.000    0.000 
#
# Total GULP energy -297435.763148 kJ/mol
# GULP energy per Si atom -12393.156798 kJ/mol
# Density = 2.121961 g / cm^3
# Si number density = 21.268016 Si / 1000 Ang^3
#
#
#
# Elastic Constant Matrix: (Units=GPa)
#
#
# Indices 1 2 3 4 5 6 
#
# 1 73.5604 25.8516 42.0997 0.0000 -11.7555 0.0000
# 2 25.8516 100.2402 55.1492 0.0000 -12.6036 0.0000
# 3 42.0997 55.1492 117.0630 0.0000 -25.0418 0.0000
# 4 0.0000 0.0000 0.0000 17.1158 0.0000 2.3873
# 5 -11.7555 -12.6036 -25.0418 0.0000 24.7866 0.0000
# 6 0.0000 0.0000 0.0000 2.3873 0.0000 19.3129
#
#
#
# Elastic Compliance Matrix: (Units=1/GPa)
#
#
# Indices 1 2 3 4 5 6 
#
# 1 0.017373 -0.001382 -0.005083 0.000000 0.002401 0.000000
# 2 -0.001382 0.013582 -0.005823 0.000000 0.000368 0.000000
# 3 -0.005083 -0.005823 0.015263 0.000000 0.010049 0.000000
# 4 0.000000 0.000000 0.000000 0.059451 0.000000 -0.007349
# 5 0.002401 0.000368 0.010049 0.000000 0.051823 0.000000
# 6 0.000000 0.000000 0.000000 -0.007349 0.000000 0.052687
#
#
# Mechanical properties :
#
#
# Convention : Reuss Voigt Hill
#
# Bulk Modulus (GPa) = 46.20563 59.67386 52.93974
# Shear Modulus (GPa) = 20.66378 23.42726 22.04552
#
# Velocity S-wave (km/s) = 3.12041 3.32252 3.22305
# Velocity P-wave (km/s) = 5.89536 6.54506 6.22869
#
# Compressibility (1/GPa) = 0.02164238
#
# Stress axis : x y z
#
# Youngs Moduli (GPa) = 57.56120 73.62489 65.51640
#
# Poissons Ratio (x) = 0.10174 0.33303
# Poissons Ratio (y) = 0.07954 0.38151
# Poissons Ratio (z) = 0.29259 0.42872
#
# Static dielectric constant tensor:
#      x y z
#    x 3.840680 0.000000 0.094440 
#    y 0.000000 3.627770 0.000000 
#    z 0.094440 0.000000 3.922440 
# 
# 
# High freq. dielectric constant tensor:
#      x y z
#    x 1.826900 0.000000 0.009740 
#    y 0.000000 1.808210 0.000000 
#    z 0.009740 0.000000 1.842590 
# 
# From -- ./inp_files/167535.got.cif
#   From: 2010.06.25/outbox.cif.g09.slc.cpg/sg12_84_cif.got.tgz:167535.got - 2010.06.28 00:19:55.
