data_PCOD8101797
_publ_section_title
;
Structure prediction by ZEFSAII (Michael W. Deem and Ramdas Pophale) SiO2 
 PCOD8101797
Probable space group: C 2/M
;
_chemical_formula_sum "Si O2"
_cell_formula_units_Z 64
_cell_length_a 12.725015
_cell_length_b 16.023549
_cell_length_c 21.327759
_cell_angle_alpha 90.000000
_cell_angle_beta 136.427478
_cell_angle_gamma 90.000000
_cell_volume 2997.457134
_symmetry_space_group_name_H-M "C 2/M"
_symmetry_group_IT_number 12
_symmetry_cell_setting 'monoclinic'
loop_
_space_group_symop_operation_xyz
x,y,z
-x,y,-z
-x,-y,-z
x,-y,z
1/2+x,1/2+y,z
1/2-x,1/2+y,-z
1/2-x,1/2-y,-z
1/2+x,1/2-y,z
loop_
_atom_site_type_symbol
_atom_site_label
_atom_site_fract_x
_atom_site_fract_y
_atom_site_fract_z
Si Si1 0.792631 0.141498 0.787153
Si Si2 0.716919 0.594991 0.842868
Si Si3 0.350355 0.169019 0.783906
Si Si4 0.866921 0.905523 0.060768
Si Si5 0.872081 0.645216 0.402343
Si Si6 0.339924 0.100089 0.139370
Si Si7 0.048978 0.167057 0.587462
Si Si8 0.897928 0.096039 0.636472
O O1 0.840112 0.231664 0.781406
O O2 0.683964 0.099392 0.686342
O O3 0.697534 0.142507 0.810284
O O4 0.950136 0.093033 0.865049
O O5 0.770435 0.500000 0.871326
O O6 0.841287 0.639809 0.852622
O O7 0.701051 0.637517 0.905240
O O8 0.552016 0.602474 0.741533
O O9 0.502178 0.136274 0.817324
O O10 0.211475 0.131802 0.682281
O O11 0.812222 0.000000 0.041464
O O12 0.790673 0.867918 0.965314
O O13 0.945758 0.733129 0.414369
O O14 0.724349 0.654142 0.382004
O O15 0.000000 0.596725 0.500000
O O16 0.346050 0.000000 0.149338
O O17 0.000000 0.127504 0.500000
O O18 0.916868 0.137097 0.576839
O O19 0.842638 0.000000 0.607704
#
# Coordination Sequence:
#
# PCOD8101797 Si02
#       8
#     8   8   8   8   8   8   8   8
#     4  11  23  39  63  88 123 158 200 249 300 354
#     4   9  18  37  63  83 113 161 202 237 292 366
#     4  10  23  38  61  91 123 151 200 257 302 340
#     4  10  21  40  65  86 114 164 208 234 291 376
#     4  10  22  38  61  90 119 156 202 245 294 354
#     4  11  25  43  62  89 125 161 197 246 306 362
#     4   9  21  39  61  85 118 163 201 234 294 372
#     4  10  20  36  59  86 117 153 197 249 296 344
#
# _framework density 21.351430000000001
#
# number of rings (size 3 to 8) (size 9 to 14) (size 15 to 20)
#    0.000    2.000    1.250    1.125    1.750    9.500 
#    2.250    3.125    0.000    0.000    0.000    0.000 
#    0.000    0.000    0.000    0.000    0.000    0.000 
#
# Total GULP energy -396575.302360 kJ/mol
# GULP energy per Si atom -12392.978199 kJ/mol
# Density = 2.130283 g / cm^3
# Si number density = 21.351430 Si / 1000 Ang^3
#
#
#
# Elastic Constant Matrix: (Units=GPa)
#
#
# Indices 1 2 3 4 5 6 
#
# 1 161.9986 17.5692 74.1530 0.0000 -23.6807 0.0000
# 2 17.5692 45.4667 12.2943 0.0000 -5.6486 0.0000
# 3 74.1530 12.2943 155.9823 0.0000 -22.8379 0.0000
# 4 0.0000 0.0000 0.0000 8.0318 0.0000 -2.8371
# 5 -23.6807 -5.6486 -22.8379 0.0000 35.9333 0.0000
# 6 0.0000 0.0000 0.0000 -2.8371 0.0000 30.6552
#
#
#
# Elastic Compliance Matrix: (Units=1/GPa)
#
#
# Indices 1 2 3 4 5 6 
#
# 1 0.008380 -0.001943 -0.003381 0.000000 0.003068 0.000000
# 2 -0.001943 0.023155 -0.000613 0.000000 0.001970 0.000000
# 3 -0.003381 -0.000613 0.008519 0.000000 0.003090 0.000000
# 4 0.000000 0.000000 0.000000 0.128713 0.000000 0.011912
# 5 0.003068 0.001970 0.003090 0.000000 0.032125 0.000000
# 6 0.000000 0.000000 0.000000 0.011912 0.000000 0.033723
#
#
# Mechanical properties :
#
#
# Convention : Reuss Voigt Hill
#
# Bulk Modulus (GPa) = 35.48612 63.49784 49.49198
# Shear Modulus (GPa) = 19.54016 32.21946 25.87981
#
# Velocity S-wave (km/s) = 3.02846 3.88881 3.48528
# Velocity P-wave (km/s) = 5.37446 7.06878 6.27903
#
# Compressibility (1/GPa) = 0.02818004
#
# Stress axis : x y z
#
# Youngs Moduli (GPa) = 119.33368 43.18660 117.38216
#
# Poissons Ratio (x) = 0.08390 0.39692
# Poissons Ratio (y) = 0.23182 0.07197
# Poissons Ratio (z) = 0.40352 0.02648
#
# Static dielectric constant tensor:
#      x y z
#    x 3.917950 0.000000 -0.273280 
#    y 0.000000 3.578720 0.000000 
#    z -0.273280 0.000000 4.425110 
# 
# 
# High freq. dielectric constant tensor:
#      x y z
#    x 1.845300 0.000000 -0.013640 
#    y 0.000000 1.809620 0.000000 
#    z -0.013640 0.000000 1.847330 
# 
# From -- ./inp_files/306209.got.cif
#   From: 2010.06.25/outbox.cif.g09.slc.cpg/sg12_154_cif.got.tgz:306209.got - 2010.06.28 00:19:55.
