data_PCOD8101928
_publ_section_title
;
Structure prediction by ZEFSAII (Michael W. Deem and Ramdas Pophale) SiO2 
 PCOD8101928
Probable space group: C 2/M
;
_chemical_formula_sum "Si O2"
_cell_formula_units_Z 64
_cell_length_a 25.247138
_cell_length_b 20.269759
_cell_length_c 7.211947
_cell_angle_alpha 90.000000
_cell_angle_beta 130.991230
_cell_angle_gamma 90.000000
_cell_volume 2785.806233
_symmetry_space_group_name_H-M "C 2/M"
_symmetry_group_IT_number 12
_symmetry_cell_setting 'monoclinic'
loop_
_space_group_symop_operation_xyz
x,y,z
-x,y,-z
-x,-y,-z
x,-y,z
1/2+x,1/2+y,z
1/2-x,1/2+y,-z
1/2-x,1/2-y,-z
1/2+x,1/2-y,z
loop_
_atom_site_type_symbol
_atom_site_label
_atom_site_fract_x
_atom_site_fract_y
_atom_site_fract_z
Si Si1 0.597855 0.665754 0.457554
Si Si2 0.595012 0.200599 0.037028
Si Si3 0.024668 0.924987 0.767001
Si Si4 0.655406 0.073033 0.638750
Si Si5 0.783972 0.389850 0.592196
Si Si6 0.057365 0.306925 0.379821
Si Si7 0.715772 0.573001 0.806162
Si Si8 0.353587 0.662975 0.838699
O O1 0.528371 0.623388 0.246946
O O2 0.580411 0.735650 0.518995
O O3 0.652667 0.623653 0.708130
O O4 0.635983 0.676874 0.353361
O O5 0.659993 0.151713 0.160200
O O6 0.572005 0.202710 0.197104
O O7 0.620425 0.269774 0.006195
O O8 0.524901 0.179481 0.763334
O O9 0.000000 0.920361 0.500000
O O10 0.019996 0.000000 0.830635
O O11 0.103909 0.899192 0.980052
O O12 0.674128 0.067060 0.462793
O O13 0.599089 0.130151 0.553959
O O14 0.626685 0.000000 0.629538
O O15 0.721872 0.092137 0.914486
O O16 0.740400 0.429731 0.646613
O O17 0.730243 0.347700 0.338974
O O18 0.686810 0.500000 0.785679
#
# Coordination Sequence:
#
# PCOD8101928 Si02
#       8
#     8   8   8   8   8   8   8   8
#     4  10  20  38  61  84 113 155 197 245 291 342
#     4   9  17  36  60  86 117 148 189 250 296 336
#     4  11  24  37  52  84 124 160 196 237 288 353
#     4  10  22  40  61  85 119 158 194 245 303 348
#     4  10  21  37  61  88 115 155 197 241 293 353
#     4   9  18  36  62  87 115 150 198 242 292 359
#     4  10  22  39  59  86 120 154 198 245 291 355
#     4  10  20  36  60  83 113 152 197 240 290 349
#
# _framework density 22.973600999999999
#
# number of rings (size 3 to 8) (size 9 to 14) (size 15 to 20)
#    0.000    2.125    1.250    1.500    1.750    5.000 
#    2.250    6.250    0.000    1.500    0.000    0.000 
#    0.000    0.000    0.000    0.000    0.000    0.000 
#
# Total GULP energy -396570.507438 kJ/mol
# GULP energy per Si atom -12392.828357 kJ/mol
# Density = 2.292131 g / cm^3
# Si number density = 22.973601 Si / 1000 Ang^3
#
#
#
# Elastic Constant Matrix: (Units=GPa)
#
#
# Indices 1 2 3 4 5 6 
#
# 1 33.5927 18.9475 16.9834 0.0000 20.2714 0.0000
# 2 18.9475 153.7779 82.0250 0.0000 37.3580 0.0000
# 3 16.9834 82.0250 140.4387 0.0000 38.1418 0.0000
# 4 0.0000 0.0000 0.0000 30.3318 0.0000 -1.1450
# 5 20.2714 37.3580 38.1418 0.0000 40.3805 0.0000
# 6 0.0000 0.0000 0.0000 -1.1450 0.0000 -7.7960
#
#
#
# Elastic Compliance Matrix: (Units=1/GPa)
#
#
# Indices 1 2 3 4 5 6 
#
# 1 0.042813 -0.000506 0.001114 0.000000 -0.022076 0.000000
# 2 -0.000506 0.010179 -0.004567 0.000000 -0.004849 0.000000
# 3 0.001114 -0.004567 0.011645 0.000000 -0.007333 0.000000
# 4 0.000000 0.000000 0.000000 0.032787 0.000000 -0.004815
# 5 -0.022076 -0.004849 -0.007333 0.000000 0.047260 0.000000
# 6 0.000000 0.000000 0.000000 -0.004815 0.000000 -0.127563
#
#
# Mechanical properties :
#
#
# Convention : Reuss Voigt Hill
#
# Bulk Modulus (GPa) = 17.63101 62.63567 40.13334
# Shear Modulus (GPa) = 113.77697 26.57348 70.17522
#
# Velocity S-wave (km/s) = 7.04504 3.40471 5.53284
# Velocity P-wave (km/s) = 8.59465 6.54060 7.63700
#
# Compressibility (1/GPa) = 0.05671826
#
# Stress axis : x y z
#
# Youngs Moduli (GPa) = 23.35765 98.23682 85.87369
#
# Poissons Ratio (x) = 0.04973 -0.09566
# Poissons Ratio (y) = 0.01182 0.39220
# Poissons Ratio (z) = -0.02602 0.44866
#
# Static dielectric constant tensor:
#      x y z
#    x 3.933160 0.000000 0.268600 
#    y 0.000000 4.206670 0.000000 
#    z 0.268600 0.000000 4.148900 
# 
# 
# High freq. dielectric constant tensor:
#      x y z
#    x 1.889700 0.000000 0.006900 
#    y 0.000000 1.900160 0.000000 
#    z 0.006900 0.000000 1.910460 
# 
# From -- ./inp_files/112863.got.cif
#   From: 2010.06.25/outbox.cif.g09.slc.cpg/sg12_57_cif.got.tgz:112863.got - 2010.06.28 00:19:55.
