data_PCOD8101178
_publ_section_title
;
Structure prediction by ZEFSAII (Michael W. Deem and Ramdas Pophale) SiO2 
 PCOD8101178
Probable space group: C 2/M
;
_chemical_formula_sum "Si O2"
_cell_formula_units_Z 64
_cell_length_a 28.379901
_cell_length_b 9.149440
_cell_length_c 14.958077
_cell_angle_alpha 90.000000
_cell_angle_beta 121.119330
_cell_angle_gamma 90.000000
_cell_volume 3325.079125
_symmetry_space_group_name_H-M "C 2/M"
_symmetry_group_IT_number 12
_symmetry_cell_setting 'monoclinic'
loop_
_space_group_symop_operation_xyz
x,y,z
-x,y,-z
-x,-y,-z
x,-y,z
1/2+x,1/2+y,z
1/2-x,1/2+y,-z
1/2-x,1/2-y,-z
1/2+x,1/2-y,z
loop_
_atom_site_type_symbol
_atom_site_label
_atom_site_fract_x
_atom_site_fract_y
_atom_site_fract_z
Si Si1 0.803078 0.829744 0.088513
Si Si2 0.994013 0.168637 0.759063
Si Si3 0.850028 0.329564 0.481932
Si Si4 0.713334 0.333837 0.729333
Si Si5 0.974998 0.330273 0.566453
Si Si6 0.394955 0.670138 0.038483
Si Si7 0.870751 0.827591 0.680228
Si Si8 0.160343 0.332229 0.173502
O O1 0.813953 0.788386 0.202851
O O2 0.856710 0.784543 0.084609
O O3 0.790368 0.000000 0.067820
O O4 0.750000 0.750000 0.000000
O O5 0.004961 0.255269 0.678884
O O6 0.935619 0.211733 0.745361
O O7 0.041934 0.206256 0.875948
O O8 0.995040 0.000000 0.733340
O O9 0.840242 0.500000 0.491425
O O10 0.806503 0.275160 0.366688
O O11 0.910309 0.297481 0.502444
O O12 0.841298 0.241244 0.564883
O O13 0.697439 0.500000 0.687545
O O14 0.778602 0.317816 0.805600
O O15 0.988331 0.500000 0.587345
O O16 0.000000 0.264420 0.500000
O O17 0.386988 0.500000 0.006805
O O18 0.381561 0.765147 0.938926
O O19 0.842619 0.757140 0.738142
O O20 0.860280 0.000000 0.669872
O O21 0.144076 0.500000 0.175384
#
# Coordination Sequence:
#
# PCOD8101178 Si02
#       8
#     8   8   8   8   8   8   8   8
#     4  10  20  36  57  81 114 151 186 229 277 328
#     4   9  20  37  57  83 111 144 186 230 275 327
#     4  10  21  37  58  84 113 147 188 230 276 333
#     4  10  22  38  56  83 116 149 186 230 278 330
#     4   9  19  35  53  79 114 148 183 226 275 328
#     4  10  21  37  58  85 115 148 188 230 277 332
#     4  10  21  40  62  82 111 147 185 234 285 329
#     4  11  23  39  59  83 112 147 190 234 279 333
#
# _framework density 19.247661000000001
#
# number of rings (size 3 to 8) (size 9 to 14) (size 15 to 20)
#    0.000    2.125    1.250    1.125    1.750    4.250 
#    0.000    2.500    0.000    0.000    0.000    0.000 
#    0.000    0.000    0.000    0.000    0.000    0.000 
#
# Total GULP energy -396931.268250 kJ/mol
# GULP energy per Si atom -12404.102133 kJ/mol
# Density = 1.920385 g / cm^3
# Si number density = 19.247661 Si / 1000 Ang^3
#
#
#
# Elastic Constant Matrix: (Units=GPa)
#
#
# Indices 1 2 3 4 5 6 
#
# 1 46.5594 21.0813 17.4613 0.0000 -19.0324 0.0000
# 2 21.0813 75.4388 45.4328 0.0000 -9.9009 0.0000
# 3 17.4613 45.4328 106.4759 0.0000 -9.5848 0.0000
# 4 0.0000 0.0000 0.0000 38.4097 0.0000 -4.4355
# 5 -19.0324 -9.9009 -9.5848 0.0000 34.8262 0.0000
# 6 0.0000 0.0000 0.0000 -4.4355 0.0000 26.7746
#
#
#
# Elastic Compliance Matrix: (Units=1/GPa)
#
#
# Indices 1 2 3 4 5 6 
#
# 1 0.030617 -0.005918 -0.001170 0.000000 0.014727 0.000000
# 2 -0.005918 0.019307 -0.007244 0.000000 0.000261 0.000000
# 3 -0.001170 -0.007244 0.012747 0.000000 0.000810 0.000000
# 4 0.000000 0.000000 0.000000 0.026543 0.000000 0.004397
# 5 0.014727 0.000261 0.000810 0.000000 0.037059 0.000000
# 6 0.000000 0.000000 0.000000 0.004397 0.000000 0.038077
#
#
# Mechanical properties :
#
#
# Convention : Reuss Voigt Hill
#
# Bulk Modulus (GPa) = 29.40631 44.04722 36.72677
# Shear Modulus (GPa) = 24.46782 29.63535 27.05158
#
# Velocity S-wave (km/s) = 3.56927 3.92814 3.75300
# Velocity P-wave (km/s) = 5.68307 6.59605 6.15651
#
# Compressibility (1/GPa) = 0.03400630
#
# Stress axis : x y z
#
# Youngs Moduli (GPa) = 32.66199 51.79594 78.44682
#
# Poissons Ratio (x) = 0.30655 0.09177
# Poissons Ratio (y) = 0.19331 0.56827
# Poissons Ratio (z) = 0.03821 0.37521
#
# Static dielectric constant tensor:
#      x y z
#    x 3.603930 0.000000 -0.060760 
#    y 0.000000 3.513900 0.000000 
#    z -0.060760 0.000000 3.479000 
# 
# 
# High freq. dielectric constant tensor:
#      x y z
#    x 1.749410 0.000000 -0.006000 
#    y 0.000000 1.749400 0.000000 
#    z -0.006000 0.000000 1.750940 
# 
# From -- ./inp_files/249917.got.cif
#   From: 2010.06.25/outbox.cif.g09.slc.cpg/sg12_125_cif.got.tgz:249917.got - 2010.06.28 00:19:55.
