data_PCOD8101540
_publ_section_title
;
Structure prediction by ZEFSAII (Michael W. Deem and Ramdas Pophale) SiO2 
 PCOD8101540
Probable space group: C 2/M
;
_chemical_formula_sum "Si O2"
_cell_formula_units_Z 56
_cell_length_a 21.916751
_cell_length_b 11.795708
_cell_length_c 21.534657
_cell_angle_alpha 90.000000
_cell_angle_beta 148.827699
_cell_angle_gamma 90.000000
_cell_volume 2881.666274
_symmetry_space_group_name_H-M "C 2/M"
_symmetry_group_IT_number 12
_symmetry_cell_setting 'monoclinic'
loop_
_space_group_symop_operation_xyz
x,y,z
-x,y,-z
-x,-y,-z
x,-y,z
1/2+x,1/2+y,z
1/2-x,1/2+y,-z
1/2-x,1/2-y,-z
1/2+x,1/2-y,z
loop_
_atom_site_type_symbol
_atom_site_label
_atom_site_fract_x
_atom_site_fract_y
_atom_site_fract_z
Si Si1 0.632241 0.820592 0.614878
Si Si2 0.304900 0.500000 0.816891
Si Si3 0.858604 0.248916 0.509886
Si Si4 0.867141 0.630859 0.642876
Si Si5 0.910415 0.872871 0.332928
Si Si6 0.267594 0.627052 0.088840
Si Si7 0.933986 0.214185 0.129260
Si Si8 0.529943 0.500000 0.925187
O O1 0.500000 0.874335 0.500000
O O2 0.721989 0.891403 0.734956
O O3 0.681251 0.813699 0.587485
O O4 0.626691 0.693763 0.637587
O O5 0.412089 0.500000 0.862615
O O6 0.354007 0.500000 0.929897
O O7 0.876144 0.344367 0.577497
O O8 0.764725 0.154896 0.448878
O O9 0.979893 0.184721 0.604983
O O10 0.899838 0.500000 0.683114
O O11 0.952188 0.712268 0.755687
O O12 0.802737 0.871686 0.191197
O O13 0.941989 0.000000 0.380787
O O14 0.233667 0.500000 0.037703
O O15 0.376490 0.669441 0.142346
O O16 0.155879 0.707335 0.986159
O O17 0.971324 0.110667 0.118445
#
# Coordination Sequence:
#
# PCOD8101540 Si02
#       8
#     8   4   8   8   8   8   8   4
#     4  10  22  39  60  88 118 156 201 247 303 350
#     4  11  23  42  60  88 119 161 202 253 293 371
#     4  10  22  39  57  90 118 161 200 244 295 357
#     4  11  23  39  59  88 124 159 199 243 298 359
#     4  10  20  38  61  86 118 154 197 249 295 354
#     4  10  20  36  58  85 116 149 197 246 302 350
#     4  11  21  38  58  87 116 156 194 247 297 360
#     4  11  24  40  64  86 120 161 206 242 312 356
#
# _framework density 19.433201
#
# number of rings (size 3 to 8) (size 9 to 14) (size 15 to 20)
#    0.000    1.571    2.143    2.786    1.000    3.143 
#    6.429    0.000    0.000    0.000    0.000    9.000 
#    0.000    0.000    0.000    0.000    0.000    0.000 
#
# Total GULP energy -347275.606953 kJ/mol
# GULP energy per Si atom -12402.700248 kJ/mol
# Density = 1.938897 g / cm^3
# Si number density = 19.433201 Si / 1000 Ang^3
#
#
#
# Elastic Constant Matrix: (Units=GPa)
#
#
# Indices 1 2 3 4 5 6 
#
# 1 82.7604 38.7132 36.6984 0.0018 -10.3024 -0.0004
# 2 38.7132 140.8271 46.5416 0.0007 -5.0801 -0.0002
# 3 36.6984 46.5416 84.5433 0.0005 -11.7230 -0.0001
# 4 0.0018 0.0007 0.0005 1103.8831 0.0007 -208.0195
# 5 -10.3024 -5.0801 -11.7230 0.0007 26.3499 -0.0001
# 6 -0.0004 -0.0002 -0.0001 -208.0195 -0.0001 51.2561
#
#
#
# Elastic Compliance Matrix: (Units=1/GPa)
#
#
# Indices 1 2 3 4 5 6 
#
# 1 0.015959 -0.002606 -0.005006 0.000000 0.003510 0.000000
# 2 -0.002606 0.009111 -0.004031 0.000000 -0.001056 0.000000
# 3 -0.005006 -0.004031 0.016883 0.000000 0.004777 0.000000
# 4 0.000000 0.000000 0.000000 0.003851 0.000000 0.015630
# 5 0.003510 -0.001056 0.004777 0.000000 0.041245 0.000000
# 6 0.000000 0.000000 0.000000 0.015630 0.000000 0.082945
#
#
# Mechanical properties :
#
#
# Convention : Reuss Voigt Hill
#
# Bulk Modulus (GPa) = 53.57111 61.33748 57.45429
# Shear Modulus (GPa) = 25.06229 248.70965 136.88597
#
# Velocity S-wave (km/s) = 3.59508 11.32518 8.40191
# Velocity P-wave (km/s) = 6.69772 14.23533 11.12439
#
# Compressibility (1/GPa) = 0.01866678
#
# Stress axis : x y z
#
# Youngs Moduli (GPa) = 62.66107 109.75222 59.23205
#
# Poissons Ratio (x) = 0.28602 0.29652
# Poissons Ratio (y) = 0.16330 0.23877
# Poissons Ratio (z) = 0.31368 0.44242
#
# Static dielectric constant tensor:
#      x y z
#    x 3.501310 0.000000 -0.090480 
#    y 0.000000 3.569940 0.000000 
#    z -0.090480 0.000000 3.616020 
# 
# 
# High freq. dielectric constant tensor:
#      x y z
#    x 1.754200 0.000000 -0.007630 
#    y 0.000000 1.762690 0.000000 
#    z -0.007630 0.000000 1.766310 
# 
# From -- ./inp_files/349209.got.cif
#   From: 2010.06.25/outbox.cif.g09.slc.cpg/sg12_175_cif.got.tgz:349209.got - 2010.06.28 00:19:55.
