data_PCOD8101599
_publ_section_title
;
Structure prediction by ZEFSAII (Michael W. Deem and Ramdas Pophale) SiO2 
 PCOD8101599
Probable space group: C 2/M
;
_chemical_formula_sum "Si O2"
_cell_formula_units_Z 32
_cell_length_a 25.026798
_cell_length_b 12.703720
_cell_length_c 9.467480
_cell_angle_alpha 90.000000
_cell_angle_beta 33.707098
_cell_angle_gamma 90.000000
_cell_volume 1670.407718
_symmetry_space_group_name_H-M "C 2/M"
_symmetry_group_IT_number 12
_symmetry_cell_setting 'monoclinic'
loop_
_space_group_symop_operation_xyz
x,y,z
-x,y,-z
-x,-y,-z
x,-y,z
1/2+x,1/2+y,z
1/2-x,1/2+y,-z
1/2-x,1/2-y,-z
1/2+x,1/2-y,z
loop_
_atom_site_type_symbol
_atom_site_label
_atom_site_fract_x
_atom_site_fract_y
_atom_site_fract_z
Si Si1 0.181682 0.377382 0.031920
Si Si2 0.136985 0.755938 0.377488
Si Si3 0.520823 0.620248 0.114907
Si Si4 0.212970 0.224109 0.735008
O O1 0.159904 0.500000 0.074819
O O2 0.113176 0.322537 0.300370
O O3 0.293192 0.351490 0.829846
O O4 0.163135 0.327552 0.916905
O O5 0.194919 0.690537 0.372168
O O6 0.038534 0.804275 0.651223
O O7 0.489705 0.500000 0.208764
O O8 0.500000 0.653910 0.000000
O O9 0.633956 0.631976 0.899826
O O10 0.250000 0.250000 0.500000
#
# Coordination Sequence:
#
# PCOD8101599 Si02
#       4
#     8   8   8   8
#     4   9  19  39  59  78 118 163 188 230 299 348
#     4   9  20  37  59  87 118 150 192 243 281 346
#     4  11  21  36  62  89 114 151 194 241 292 341
#     4  10  20  36  58  88 119 148 189 245 290 340
#
# _framework density 19.157001000000001
#
# number of rings (size 3 to 8) (size 9 to 14) (size 15 to 20)
#    1.500    0.750    2.500    0.750    0.000    3.000 
#    0.000    3.750    0.000    1.500    0.000    0.000 
#    0.000    0.000    0.000    0.000    0.000    0.000 
#
# Total GULP energy -198234.390067 kJ/mol
# GULP energy per Si atom -12389.649379 kJ/mol
# Density = 1.911340 g / cm^3
# Si number density = 19.157001 Si / 1000 Ang^3
#
#
#
# Elastic Constant Matrix: (Units=GPa)
#
#
# Indices 1 2 3 4 5 6 
#
# 1 67.0514 27.7952 44.2485 0.0000 15.9775 0.0000
# 2 27.7952 94.5115 48.2017 0.0000 22.1213 0.0000
# 3 44.2485 48.2017 129.3506 0.0000 25.6328 0.0000
# 4 0.0000 0.0000 0.0000 23.2363 0.0000 -0.0375
# 5 15.9775 22.1213 25.6328 0.0000 43.1962 0.0000
# 6 0.0000 0.0000 0.0000 -0.0375 0.0000 24.5963
#
#
#
# Elastic Compliance Matrix: (Units=1/GPa)
#
#
# Indices 1 2 3 4 5 6 
#
# 1 0.020222 -0.002494 -0.005393 0.000000 -0.003002 0.000000
# 2 -0.002494 0.014119 -0.003579 0.000000 -0.004184 0.000000
# 3 -0.005393 -0.003579 0.011504 0.000000 -0.002999 0.000000
# 4 0.000000 0.000000 0.000000 0.043036 0.000000 0.000066
# 5 -0.003002 -0.004184 -0.002999 0.000000 0.028183 0.000000
# 6 0.000000 0.000000 0.000000 0.000066 0.000000 0.040657
#
#
# Mechanical properties :
#
#
# Convention : Reuss Voigt Hill
#
# Bulk Modulus (GPa) = 43.64444 59.04491 51.34467
# Shear Modulus (GPa) = 26.55467 29.58364 28.06915
#
# Velocity S-wave (km/s) = 3.72716 3.93399 3.83197
# Velocity P-wave (km/s) = 6.43072 7.17799 6.81461
#
# Compressibility (1/GPa) = 0.02291243
#
# Stress axis : x y z
#
# Youngs Moduli (GPa) = 49.45020 70.82734 86.92737
#
# Poissons Ratio (x) = 0.17663 0.46884
# Poissons Ratio (y) = 0.12332 0.31112
# Poissons Ratio (z) = 0.26671 0.25349
#
# Static dielectric constant tensor:
#      x y z
#    x 3.390860 0.000000 0.162360 
#    y 0.000000 3.126780 0.000000 
#    z 0.162360 0.000000 3.511240 
# 
# 
# High freq. dielectric constant tensor:
#      x y z
#    x 1.730580 0.000000 0.014170 
#    y 0.000000 1.709430 0.000000 
#    z 0.014170 0.000000 1.755150 
# 
# From -- ./inp_files/101775.got.cif
#   From: 2010.06.25/outbox.cif.g09.slc.cpg/sg12_51_cif.got.tgz:101775.got - 2010.06.28 00:19:55.
