data_PCOD8101241
_publ_section_title
;
Structure prediction by ZEFSAII (Michael W. Deem and Ramdas Pophale) SiO2 
 PCOD8101241
Probable space group: C 2/M
;
_chemical_formula_sum "Si O2"
_cell_formula_units_Z 48
_cell_length_a 12.999544
_cell_length_b 37.037140
_cell_length_c 5.306353
_cell_angle_alpha 90.000000
_cell_angle_beta 109.674957
_cell_angle_gamma 90.000000
_cell_volume 2405.671681
_symmetry_space_group_name_H-M "C 2/M"
_symmetry_group_IT_number 12
_symmetry_cell_setting 'monoclinic'
loop_
_space_group_symop_operation_xyz
x,y,z
-x,y,-z
-x,-y,-z
x,-y,z
1/2+x,1/2+y,z
1/2-x,1/2+y,-z
1/2-x,1/2-y,-z
1/2+x,1/2-y,z
loop_
_atom_site_type_symbol
_atom_site_label
_atom_site_fract_x
_atom_site_fract_y
_atom_site_fract_z
Si Si1 0.189340 0.275373 0.640094
Si Si2 0.903340 0.216811 0.112551
Si Si3 0.112992 0.857999 0.656576
Si Si4 0.187180 0.611434 0.953945
Si Si5 0.930258 0.459772 0.195016
Si Si6 0.823273 0.350561 0.558146
O O1 0.250000 0.250000 0.500000
O O2 0.097333 0.251994 0.706516
O O3 0.136336 0.309246 0.446002
O O4 0.281309 0.290111 0.906832
O O5 0.930319 0.180183 0.277031
O O6 0.000000 0.225463 0.000000
O O7 0.182268 0.881475 0.916771
O O8 0.190298 0.851129 0.476068
O O9 0.000000 0.879254 0.500000
O O10 0.127035 0.630786 0.146455
O O11 0.167457 0.568615 0.926198
O O12 0.138843 0.627861 0.657434
O O13 0.880524 0.500000 0.190090
O O14 0.000000 0.449351 0.500000
O O15 0.000000 0.458444 0.000000
#
# Coordination Sequence:
#
# PCOD8101241 Si02
#       6
#     8   8   8   8   8   8
#     4  11  20  37  55  75 111 158 202 262 319 364
#     4  11  23  35  57  81 110 153 216 270 310 362
#     4  10  21  34  59  87 114 155 210 250 303 361
#     4  10  21  37  60  91 122 154 194 248 306 349
#     4  10  21  40  69  98 124 159 201 240 288 363
#     4  10  20  36  57  83 119 161 197 250 313 360
#
# _framework density 19.952849000000001
#
# number of rings (size 3 to 8) (size 9 to 14) (size 15 to 20)
#    1.000    0.667    3.333    2.000    2.333    0.000 
#    0.000    0.833    7.333    0.500    0.000    1.167 
#    0.000    0.000    0.000    0.000    0.000    0.000 
#
# Total GULP energy -297370.563711 kJ/mol
# GULP energy per Si atom -12390.440155 kJ/mol
# Density = 1.990744 g / cm^3
# Si number density = 19.952849 Si / 1000 Ang^3
#
#
#
# Elastic Constant Matrix: (Units=GPa)
#
#
# Indices 1 2 3 4 5 6 
#
# 1 58.9464 47.9882 27.3849 0.0000 -7.0432 0.0000
# 2 47.9882 153.0234 46.6520 0.0000 -4.8381 0.0000
# 3 27.3849 46.6520 117.4044 0.0000 -23.9036 0.0000
# 4 0.0000 0.0000 0.0000 30.7697 0.0000 -6.6906
# 5 -7.0432 -4.8381 -23.9036 0.0000 29.2225 0.0000
# 6 0.0000 0.0000 0.0000 -6.6906 0.0000 11.7585
#
#
#
# Elastic Compliance Matrix: (Units=1/GPa)
#
#
# Indices 1 2 3 4 5 6 
#
# 1 0.023805 -0.006662 -0.002354 0.000000 0.002709 0.000000
# 2 -0.006662 0.009350 -0.002607 0.000000 -0.002190 0.000000
# 3 -0.002354 -0.002607 0.011877 0.000000 0.008717 0.000000
# 4 0.000000 0.000000 0.000000 0.037088 0.000000 0.021103
# 5 0.002709 -0.002190 0.008717 0.000000 0.041641 0.000000
# 6 0.000000 0.000000 0.000000 0.021103 0.000000 0.097052
#
#
# Mechanical properties :
#
#
# Convention : Reuss Voigt Hill
#
# Bulk Modulus (GPa) = 45.90075 63.71381 54.80728
# Shear Modulus (GPa) = 19.89478 28.17342 24.03410
#
# Velocity S-wave (km/s) = 3.16110 3.76174 3.47442
# Velocity P-wave (km/s) = 6.03141 7.13225 6.60481
#
# Compressibility (1/GPa) = 0.02178614
#
# Stress axis : x y z
#
# Youngs Moduli (GPa) = 42.00720 106.95396 84.19413
#
# Poissons Ratio (x) = 0.71254 0.19818
# Poissons Ratio (y) = 0.27986 0.21952
# Poissons Ratio (z) = 0.09888 0.27886
#
# Static dielectric constant tensor:
#      x y z
#    x 3.274060 0.000000 -0.140800 
#    y 0.000000 3.814570 0.000000 
#    z -0.140800 0.000000 3.854490 
# 
# 
# High freq. dielectric constant tensor:
#      x y z
#    x 1.753130 0.000000 -0.011820 
#    y 0.000000 1.754880 0.000000 
#    z -0.011820 0.000000 1.793780 
# 
# From -- ./inp_files/12924.got.cif
#   From: 2010.06.25/outbox.cif.g09.slc.cpg/sg12_7_cif.got.tgz:12924.got - 2010.06.28 00:19:55.
