data_PCOD8101646
_publ_section_title
;
Structure prediction by ZEFSAII (Michael W. Deem and Ramdas Pophale) SiO2 
 PCOD8101646
Probable space group: C 2/M
;
_chemical_formula_sum "Si O2"
_cell_formula_units_Z 36
_cell_length_a 5.083074
_cell_length_b 36.115774
_cell_length_c 10.817200
_cell_angle_alpha 90.000000
_cell_angle_beta 83.947187
_cell_angle_gamma 90.000000
_cell_volume 1974.741740
_symmetry_space_group_name_H-M "C 2/M"
_symmetry_group_IT_number 12
_symmetry_cell_setting 'monoclinic'
loop_
_space_group_symop_operation_xyz
x,y,z
-x,y,-z
-x,-y,-z
x,-y,z
1/2+x,1/2+y,z
1/2-x,1/2+y,-z
1/2-x,1/2-y,-z
1/2+x,1/2-y,z
loop_
_atom_site_type_symbol
_atom_site_label
_atom_site_fract_x
_atom_site_fract_y
_atom_site_fract_z
Si Si1 0.775481 0.541469 0.918209
Si Si2 0.820599 0.894353 0.259578
Si Si3 0.544937 0.772534 0.855050
Si Si4 0.000000 0.125476 0.500000
Si Si5 0.695985 0.849116 0.733860
O O1 0.855875 0.500000 0.871110
O O2 0.739644 0.566316 0.798642
O O3 0.500000 0.540870 0.000000
O O4 0.000000 0.557205 0.000000
O O5 0.587094 0.867107 0.236218
O O6 0.844439 0.900232 0.407613
O O7 0.089616 0.873749 0.198428
O O8 0.258671 0.760044 0.819263
O O9 0.668916 0.807614 0.781162
O O10 0.500000 0.782367 0.000000
O O11 0.792331 0.151354 0.585364
#
# Coordination Sequence:
#
# PCOD8101646 Si02
#       5
#     8   8   8   4   8
#     4  10  21  37  57  86 122 151 183 232 286 337
#     4  10  20  36  59  82 114 148 191 233 281 328
#     4  10  21  37  55  80 115 148 183 232 288 340
#     4   8  22  36  59  82 112 148 192 244 272 320
#     4  10  20  36  59  82 112 147 191 236 282 328
#
# _framework density 18.230229999999999
#
# number of rings (size 3 to 8) (size 9 to 14) (size 15 to 20)
#    1.333    0.889    0.000    3.333    0.000    2.667 
#    0.000    1.667    0.000    1.333    0.000    0.000 
#    0.000    0.000    0.000    0.000    0.000    0.000 
#
# Total GULP energy -222992.774229 kJ/mol
# GULP energy per Si atom -12388.487457 kJ/mol
# Density = 1.818874 g / cm^3
# Si number density = 18.230230 Si / 1000 Ang^3
#
#
#
# Elastic Constant Matrix: (Units=GPa)
#
#
# Indices 1 2 3 4 5 6 
#
# 1 118.8287 30.9467 34.7762 0.0000 18.2302 0.0000
# 2 30.9467 105.5325 67.4815 0.0000 10.3810 0.0000
# 3 34.7762 67.4815 89.0666 0.0000 6.2323 0.0000
# 4 0.0000 0.0000 0.0000 17.4355 0.0000 -3.8606
# 5 18.2302 10.3810 6.2323 0.0000 18.5814 0.0000
# 6 0.0000 0.0000 0.0000 -3.8606 0.0000 28.5180
#
#
#
# Elastic Compliance Matrix: (Units=1/GPa)
#
#
# Indices 1 2 3 4 5 6 
#
# 1 0.010929 0.000068 -0.003652 0.000000 -0.009536 0.000000
# 2 0.000068 0.018997 -0.014001 0.000000 -0.005984 0.000000
# 3 -0.003652 -0.014001 0.023003 0.000000 0.003690 0.000000
# 4 0.000000 0.000000 0.000000 0.059127 0.000000 0.008004
# 5 -0.009536 -0.005984 0.003690 0.000000 0.065279 0.000000
# 6 0.000000 0.000000 0.000000 0.008004 0.000000 0.036149
#
#
# Mechanical properties :
#
#
# Convention : Reuss Voigt Hill
#
# Bulk Modulus (GPa) = 56.30527 64.42630 60.36579
# Shear Modulus (GPa) = 19.64060 24.92186 22.28123
#
# Velocity S-wave (km/s) = 3.28588 3.70139 3.49981
# Velocity P-wave (km/s) = 6.73415 7.32695 7.03679
#
# Compressibility (1/GPa) = 0.01776033
#
# Stress axis : x y z
#
# Youngs Moduli (GPa) = 91.49604 52.63884 43.47198
#
# Poissons Ratio (x) = -0.00359 0.15875
# Poissons Ratio (y) = -0.00623 0.60866
# Poissons Ratio (z) = 0.33412 0.73701
#
# Static dielectric constant tensor:
#      x y z
#    x 3.610010 0.000000 0.055710 
#    y 0.000000 3.291120 0.000000 
#    z 0.055710 0.000000 3.145390 
# 
# 
# High freq. dielectric constant tensor:
#      x y z
#    x 1.733090 0.000000 0.002810 
#    y 0.000000 1.687620 0.000000 
#    z 0.002810 0.000000 1.682780 
# 
# From -- ./inp_files/115725.got.cif
#   From: 2010.06.25/outbox.cif.g09.slc.cpg/sg12_58_cif.got.tgz:115725.got - 2010.06.28 00:19:55.
