data_PCOD8101588
_publ_section_title
;
Structure prediction by ZEFSAII (Michael W. Deem and Ramdas Pophale) SiO2 
 PCOD8101588
Probable space group: C 2/M
;
_chemical_formula_sum "Si O2"
_cell_formula_units_Z 56
_cell_length_a 28.215365
_cell_length_b 8.748004
_cell_length_c 16.718979
_cell_angle_alpha 90.000000
_cell_angle_beta 138.405307
_cell_angle_gamma 90.000000
_cell_volume 2739.547918
_symmetry_space_group_name_H-M "C 2/M"
_symmetry_group_IT_number 12
_symmetry_cell_setting 'monoclinic'
loop_
_space_group_symop_operation_xyz
x,y,z
-x,y,-z
-x,-y,-z
x,-y,z
1/2+x,1/2+y,z
1/2-x,1/2+y,-z
1/2-x,1/2-y,-z
1/2+x,1/2-y,z
loop_
_atom_site_type_symbol
_atom_site_label
_atom_site_fract_x
_atom_site_fract_y
_atom_site_fract_z
Si Si1 0.210070 0.680776 0.189627
Si Si2 0.553915 0.824891 0.807583
Si Si3 0.794570 0.180016 0.983810
Si Si4 0.581340 0.677158 0.111005
Si Si5 0.532456 0.174739 0.458571
Si Si6 0.162709 0.178861 0.544829
Si Si7 0.418921 0.321636 0.709198
O O1 0.214919 0.500000 0.186174
O O2 0.234286 0.755158 0.136718
O O3 0.129628 0.727165 0.111036
O O4 0.263019 0.744575 0.326328
O O5 0.528195 0.807219 0.684446
O O6 0.492360 0.769386 0.789995
O O7 0.573435 0.000000 0.852829
O O8 0.622494 0.719962 0.904010
O O9 0.783660 0.000000 0.971285
O O10 0.750000 0.250000 0.000000
O O11 0.587429 0.500000 0.094662
O O12 0.608536 0.706519 0.235778
O O13 0.500000 0.733227 0.000000
O O14 0.500000 0.234299 0.500000
O O15 0.599936 0.279896 0.526377
O O16 0.558734 0.000000 0.497853
O O17 0.141841 0.240587 0.429487
O O18 0.170988 0.000000 0.550476
O O19 0.435015 0.500000 0.713876
#
# Coordination Sequence:
#
# PCOD8101588 Si02
#       7
#     8   8   8   8   8   8   8
#     4  11  24  41  60  88 122 155 199 251 302 355
#     4  10  20  36  58  87 119 151 193 242 293 350
#     4  12  26  43  62  84 115 155 197 243 300 359
#     4  10  21  37  60  89 119 157 204 249 299 357
#     4   9  19  34  55  84 115 151 194 240 289 345
#     4   9  20  37  56  83 119 158 199 245 294 350
#     4   9  18  36  60  86 121 162 201 242 293 351
#
# _framework density 20.441330000000001
#
# number of rings (size 3 to 8) (size 9 to 14) (size 15 to 20)
#    0.000    2.000    0.000    3.000    2.000    4.571 
#    0.000    0.000    0.000    0.000    0.000    0.000 
#    0.000    0.000    0.000    0.000    0.000    0.000 
#
# Total GULP energy -347231.606974 kJ/mol
# GULP energy per Si atom -12401.128820 kJ/mol
# Density = 2.039480 g / cm^3
# Si number density = 20.441330 Si / 1000 Ang^3
#
#
#
# Elastic Constant Matrix: (Units=GPa)
#
#
# Indices 1 2 3 4 5 6 
#
# 1 96.6759 31.2864 44.7276 0.0000 -15.4036 0.0000
# 2 31.2864 70.4862 35.8262 0.0000 -4.3065 0.0000
# 3 44.7276 35.8262 112.4994 0.0000 5.1351 0.0000
# 4 0.0000 0.0000 0.0000 26.4749 0.0000 1.8040
# 5 -15.4036 -4.3065 5.1351 0.0000 27.2611 0.0000
# 6 0.0000 0.0000 0.0000 1.8040 0.0000 33.8540
#
#
#
# Elastic Compliance Matrix: (Units=1/GPa)
#
#
# Indices 1 2 3 4 5 6 
#
# 1 0.015477 -0.003538 -0.005447 0.000000 0.009212 0.000000
# 2 -0.003538 0.018119 -0.004441 0.000000 0.001700 0.000000
# 3 -0.005447 -0.004441 0.012751 0.000000 -0.006181 0.000000
# 4 0.000000 0.000000 0.000000 0.037909 0.000000 -0.002020
# 5 0.009212 0.001700 -0.006181 0.000000 0.043320 0.000000
# 6 0.000000 0.000000 0.000000 -0.002020 0.000000 0.029646
#
#
# Mechanical properties :
#
#
# Convention : Reuss Voigt Hill
#
# Bulk Modulus (GPa) = 51.29729 55.92688 53.61209
# Shear Modulus (GPa) = 26.23676 28.70607 27.47142
#
# Velocity S-wave (km/s) = 3.58650 3.75149 3.66992
# Velocity P-wave (km/s) = 6.50385 6.79588 6.65147
#
# Compressibility (1/GPa) = 0.01949421
#
# Stress axis : x y z
#
# Youngs Moduli (GPa) = 64.61310 55.19174 78.42581
#
# Poissons Ratio (x) = 0.19528 0.42718
# Poissons Ratio (y) = 0.22862 0.34828
# Poissons Ratio (z) = 0.35195 0.24510
#
# Static dielectric constant tensor:
#      x y z
#    x 3.641780 0.000000 -0.170640 
#    y 0.000000 3.630180 0.000000 
#    z -0.170640 0.000000 4.188400 
# 
# 
# High freq. dielectric constant tensor:
#      x y z
#    x 1.794320 0.000000 -0.011830 
#    y 0.000000 1.791060 0.000000 
#    z -0.011830 0.000000 1.813580 
# 
# From -- ./inp_files/295167.got.cif
#   From: 2010.06.25/outbox.cif.g09.slc.cpg/sg12_148_cif.got.tgz:295167.got - 2010.06.28 00:19:55.
