data_PCOD8101380
_publ_section_title
;
Structure prediction by ZEFSAII (Michael W. Deem and Ramdas Pophale) SiO2 
 PCOD8101380
Probable space group: C 2/M
;
_chemical_formula_sum "Si O2"
_cell_formula_units_Z 56
_cell_length_a 15.237299
_cell_length_b 9.759833
_cell_length_c 30.469662
_cell_angle_alpha 90.000000
_cell_angle_beta 39.639399
_cell_angle_gamma 90.000000
_cell_volume 2890.727523
_symmetry_space_group_name_H-M "C 2/M"
_symmetry_group_IT_number 12
_symmetry_cell_setting 'monoclinic'
loop_
_space_group_symop_operation_xyz
x,y,z
-x,y,-z
-x,-y,-z
x,-y,z
1/2+x,1/2+y,z
1/2-x,1/2+y,-z
1/2-x,1/2-y,-z
1/2+x,1/2-y,z
loop_
_atom_site_type_symbol
_atom_site_label
_atom_site_fract_x
_atom_site_fract_y
_atom_site_fract_z
Si Si1 0.154773 0.660823 0.790694
Si Si2 0.271783 0.651627 0.055562
Si Si3 0.054943 0.843074 0.355814
Si Si4 0.052216 0.653283 0.062083
Si Si5 0.595702 0.342438 0.670754
Si Si6 0.958205 0.661073 0.790779
Si Si7 0.597283 0.159579 0.422008
O O1 0.126165 0.500000 0.802820
O O2 0.313772 0.699485 0.724553
O O3 0.088559 0.715756 0.862061
O O4 0.074382 0.718045 0.779363
O O5 0.334642 0.500000 0.036077
O O6 0.164247 0.653863 0.057384
O O7 0.192273 0.692737 0.130965
O O8 0.398384 0.753990 0.997683
O O9 0.040640 0.745321 0.402884
O O10 0.923400 0.825903 0.374581
O O11 0.070297 0.000000 0.366368
O O12 0.031148 0.500000 0.051748
O O13 0.569539 0.500000 0.694381
O O14 0.481318 0.247821 0.737878
O O15 0.748899 0.294849 0.624353
O O16 0.975406 0.500000 0.773912
O O17 0.500000 0.194171 0.500000
O O18 0.590801 0.000000 0.412019
#
# Coordination Sequence:
#
# PCOD8101380 Si02
#       7
#     8   8   8   8   8   8   8
#     4   8  14  27  48  71  97 132 173 217 262 306
#     4   8  14  23  37  63  96 128 168 215 259 303
#     4  10  20  36  58  82 108 139 179 221 258 306
#     4   8  13  22  38  62  92 127 167 210 260 309
#     4  10  21  35  54  82 110 137 176 223 262 303
#     4   9  16  29  50  72  99 139 179 215 263 317
#     4  10  22  40  58  80 114 145 168 208 266 317
#
# _framework density 19.372287
#
# number of rings (size 3 to 8) (size 9 to 14) (size 15 to 20)
#    0.000    3.000    1.429    1.714    0.000    2.000 
#    0.000    2.857    0.000    0.857    0.000    6.000 
#    0.000    0.000    0.000    0.000    0.000    0.000 
#
# Total GULP energy -347049.454950 kJ/mol
# GULP energy per Si atom -12394.623391 kJ/mol
# Density = 1.932819 g / cm^3
# Si number density = 19.372287 Si / 1000 Ang^3
#
#
#
# Elastic Constant Matrix: (Units=GPa)
#
#
# Indices 1 2 3 4 5 6 
#
# 1 56.7959 30.7434 27.4189 0.0006 15.4275 0.0020
# 2 30.7434 80.5053 65.6581 0.0007 17.1066 0.0018
# 3 27.4189 65.6581 121.8812 0.0000 19.0346 0.0004
# 4 0.0006 0.0007 0.0000 33.7612 0.0000 8.7245
# 5 15.4275 17.1066 19.0346 0.0000 12.1787 0.0003
# 6 0.0020 0.0018 0.0004 8.7245 0.0003 20.8424
#
#
#
# Elastic Compliance Matrix: (Units=1/GPa)
#
#
# Indices 1 2 3 4 5 6 
#
# 1 0.028041 -0.005377 0.001265 0.000000 -0.029946 -0.000002
# 2 -0.005377 0.026010 -0.010795 0.000000 -0.012851 -0.000001
# 3 0.001265 -0.010795 0.015369 0.000000 -0.010461 0.000001
# 4 0.000000 0.000000 0.000000 0.033212 0.000000 -0.013903
# 5 -0.029946 -0.012851 -0.010461 0.000000 0.154446 0.000002
# 6 -0.000002 -0.000001 0.000001 -0.013903 0.000002 0.053799
#
#
# Mechanical properties :
#
#
# Convention : Reuss Voigt Hill
#
# Bulk Modulus (GPa) = 25.24850 56.31370 40.78110
# Shear Modulus (GPa) = 14.12859 22.38058 18.25458
#
# Velocity S-wave (km/s) = 2.70352 3.40264 3.07303
# Velocity P-wave (km/s) = 4.77566 6.67605 5.80416
#
# Compressibility (1/GPa) = 0.03960631
#
# Stress axis : x y z
#
# Youngs Moduli (GPa) = 35.66218 38.44728 65.06567
#
# Poissons Ratio (x) = 0.20672 -0.08231
# Poissons Ratio (y) = 0.19175 0.70238
# Poissons Ratio (z) = -0.04512 0.41504
#
# Static dielectric constant tensor:
#      x y z
#    x 3.210630 0.000000 -0.023990 
#    y 0.000000 3.398520 0.000000 
#    z -0.023990 0.000000 3.630790 
# 
# 
# High freq. dielectric constant tensor:
#      x y z
#    x 1.729930 0.000000 -0.000090 
#    y 0.000000 1.733420 0.000000 
#    z -0.000090 0.000000 1.755190 
# 
# From -- ./inp_files/375895.got.cif
#   From: 2010.06.25/outbox.cif.g09.slc.cpg/sg12_188_cif.got.tgz:375895.got - 2010.06.28 00:19:55.
