data_PCOD8101097
_publ_section_title
;
Structure prediction by ZEFSAII (Michael W. Deem and Ramdas Pophale) SiO2 
 PCOD8101097
Probable space group: C 2/M
;
_chemical_formula_sum "Si O2"
_cell_formula_units_Z 40
_cell_length_a 13.470070
_cell_length_b 13.439701
_cell_length_c 10.998105
_cell_angle_alpha 90.000000
_cell_angle_beta 90.000174
_cell_angle_gamma 90.000000
_cell_volume 1991.027787
_symmetry_space_group_name_H-M "C 2/M"
_symmetry_group_IT_number 12
_symmetry_cell_setting 'monoclinic'
loop_
_space_group_symop_operation_xyz
x,y,z
-x,y,-z
-x,-y,-z
x,-y,z
1/2+x,1/2+y,z
1/2-x,1/2+y,-z
1/2-x,1/2-y,-z
1/2+x,1/2-y,z
loop_
_atom_site_type_symbol
_atom_site_label
_atom_site_fract_x
_atom_site_fract_y
_atom_site_fract_z
Si Si1 0.888909 0.117140 0.500002
Si Si2 0.301131 0.614482 0.245424
Si Si3 0.388008 0.198589 0.859969
Si Si4 0.198872 0.114483 0.245423
Si Si5 0.111990 0.698589 0.859966
O O1 0.827724 0.150384 0.381458
O O2 0.827725 0.150388 0.618546
O O3 0.000000 0.164690 0.500000
O O4 0.900077 0.000000 0.500009
O O5 0.330250 0.500000 0.221978
O O6 0.183846 0.631305 0.223340
O O7 0.362881 0.684108 0.153519
O O8 0.362877 0.315892 0.846486
O O9 0.499998 0.177647 0.817254
O O10 0.373358 0.168643 0.000001
O O11 0.316156 0.131306 0.223344
O O12 0.169754 0.000000 0.221978
#
# Coordination Sequence:
#
# PCOD8101097 Si02
#       5
#     8   8   8   8   8
#     4   9  18  33  55  83 110 137 175 222 269 317
#     4  10  20  36  57  79 106 142 181 220 266 319
#     4  10  22  37  53  80 113 141 178 225 267 313
#     4  10  20  36  57  79 106 142 181 220 266 319
#     4  10  22  37  53  80 113 141 178 225 267 313
#
# _framework density 20.090126999999999
#
# number of rings (size 3 to 8) (size 9 to 14) (size 15 to 20)
#    0.000    2.200    0.000    3.600    0.000    9.600 
#    0.000    7.000    0.000    3.600    0.000    0.000 
#    0.000    0.000    0.000    0.000    0.000    0.000 
#
# Total GULP energy -247959.856266 kJ/mol
# GULP energy per Si atom -12397.992813 kJ/mol
# Density = 2.004440 g / cm^3
# Si number density = 20.090127 Si / 1000 Ang^3
#
#
#
# Elastic Constant Matrix: (Units=GPa)
#
#
# Indices 1 2 3 4 5 6 
#
# 1 165.8335 0.6775 73.9028 0.0000 -0.0028 0.0000
# 2 0.6775 52.4898 12.5925 0.0000 0.0009 0.0000
# 3 73.9028 12.5925 88.8430 0.0000 -0.0014 0.0000
# 4 0.0000 0.0000 0.0000 27.1546 0.0000 -0.0001
# 5 -0.0028 0.0009 -0.0014 0.0000 38.1426 0.0000
# 6 0.0000 0.0000 0.0000 -0.0001 0.0000 19.6962
#
#
#
# Elastic Compliance Matrix: (Units=1/GPa)
#
#
# Indices 1 2 3 4 5 6 
#
# 1 0.009759 0.001886 -0.008385 0.000000 0.000000 0.000000
# 2 0.001886 0.020086 -0.004416 0.000000 0.000000 0.000000
# 3 -0.008385 -0.004416 0.018857 0.000000 0.000000 0.000000
# 4 0.000000 0.000000 0.000000 0.036826 0.000000 0.000000
# 5 0.000000 0.000000 0.000000 0.000000 0.026217 0.000000
# 6 0.000000 0.000000 0.000000 0.000000 0.000000 0.050771
#
#
# Mechanical properties :
#
#
# Convention : Reuss Voigt Hill
#
# Bulk Modulus (GPa) = 37.21349 53.50130 45.35739
# Shear Modulus (GPa) = 25.86577 31.66491 28.76534
#
# Velocity S-wave (km/s) = 3.59205 3.97437 3.78804
# Velocity P-wave (km/s) = 5.98057 6.91009 6.46206
#
# Compressibility (1/GPa) = 0.02687198
#
# Stress axis : x y z
#
# Youngs Moduli (GPa) = 102.46546 49.78512 53.03062
#
# Poissons Ratio (x) = -0.09388 0.44469
# Poissons Ratio (y) = -0.19322 0.23416
# Poissons Ratio (z) = 0.85922 0.21983
#
# Static dielectric constant tensor:
#      x y z
#    x 3.823140 0.000000 -0.000040 
#    y 0.000000 3.403570 0.000000 
#    z -0.000040 0.000000 3.746910 
# 
# 
# High freq. dielectric constant tensor:
#      x y z
#    x 1.792010 0.000000 0.000000 
#    y 0.000000 1.762220 0.000000 
#    z 0.000000 0.000000 1.782690 
# 
# From -- ./inp_files/59070.got.cif
#   From: 2010.06.25/outbox.cif.g09.slc.cpg/sg12_30_cif.got.tgz:59070.got - 2010.06.28 00:19:55.
