data_PCOD8101284
_publ_section_title
;
Structure prediction by ZEFSAII (Michael W. Deem and Ramdas Pophale) SiO2 
 PCOD8101284
Probable space group: C 2/M
;
_chemical_formula_sum "Si O2"
_cell_formula_units_Z 56
_cell_length_a 26.764528
_cell_length_b 8.930789
_cell_length_c 11.761109
_cell_angle_alpha 90.000000
_cell_angle_beta 75.982933
_cell_angle_gamma 90.000000
_cell_volume 2727.530001
_symmetry_space_group_name_H-M "C 2/M"
_symmetry_group_IT_number 12
_symmetry_cell_setting 'monoclinic'
loop_
_space_group_symop_operation_xyz
x,y,z
-x,y,-z
-x,-y,-z
x,-y,z
1/2+x,1/2+y,z
1/2-x,1/2+y,-z
1/2-x,1/2-y,-z
1/2+x,1/2-y,z
loop_
_atom_site_type_symbol
_atom_site_label
_atom_site_fract_x
_atom_site_fract_y
_atom_site_fract_z
Si Si1 0.868651 0.673613 0.423440
Si Si2 0.645937 0.322925 0.794075
Si Si3 0.243789 0.175901 0.882109
Si Si4 0.844070 0.674349 0.689838
Si Si5 0.059104 0.676776 0.979379
Si Si6 0.426175 0.328738 0.797391
Si Si7 0.974142 0.829335 0.397166
O O1 0.864873 0.500000 0.394764
O O2 0.840423 0.767303 0.340267
O O3 0.840626 0.710103 0.557799
O O4 0.928360 0.717281 0.396048
O O5 0.640436 0.500000 0.796084
O O6 0.690977 0.268774 0.853664
O O7 0.591669 0.251550 0.860728
O O8 0.290500 0.224341 0.775067
O O9 0.242981 0.000000 0.900767
O O10 0.250000 0.250000 0.000000
O O11 0.856069 0.500000 0.704307
O O12 0.889901 0.770743 0.717137
O O13 0.064710 0.500000 0.967357
O O14 0.082692 0.731054 0.085586
O O15 0.000000 0.728741 0.000000
O O16 0.411645 0.500000 0.832935
O O17 0.485095 0.314502 0.726757
O O18 0.000000 0.778312 0.500000
O O19 0.953628 0.000000 0.418194
#
# Coordination Sequence:
#
# PCOD8101284 Si02
#       7
#     8   8   8   8   8   8   8
#     4  11  23  38  60  90 123 161 203 246 299 359
#     4  11  24  42  64  89 121 159 200 248 301 357
#     4  10  23  43  65  90 118 153 198 248 302 357
#     4  10  22  40  61  87 121 157 198 248 298 354
#     4  11  24  41  61  87 120 157 199 245 298 359
#     4  11  22  36  59  89 121 157 201 248 298 354
#     4  10  20  36  57  85 123 163 200 244 295 350
#
# _framework density 20.531397999999999
#
# number of rings (size 3 to 8) (size 9 to 14) (size 15 to 20)
#    0.000    1.429    1.429    3.429    0.000   10.000 
#    0.000    0.000    0.000    0.000    0.000    0.000 
#    0.000    0.000    0.000    0.000    0.000    0.000 
#
# Total GULP energy -347378.312580 kJ/mol
# GULP energy per Si atom -12406.368306 kJ/mol
# Density = 2.048467 g / cm^3
# Si number density = 20.531398 Si / 1000 Ang^3
#
#
#
# Elastic Constant Matrix: (Units=GPa)
#
#
# Indices 1 2 3 4 5 6 
#
# 1 112.9597 47.5864 59.6681 0.0000 2.0728 0.0000
# 2 47.5864 75.8202 50.6951 0.0000 1.1018 0.0000
# 3 59.6681 50.6951 142.4453 0.0000 5.7972 0.0000
# 4 0.0000 0.0000 0.0000 35.7576 0.0000 5.9718
# 5 2.0728 1.1018 5.7972 0.0000 38.0571 0.0000
# 6 0.0000 0.0000 0.0000 5.9718 0.0000 25.6976
#
#
#
# Elastic Compliance Matrix: (Units=1/GPa)
#
#
# Indices 1 2 3 4 5 6 
#
# 1 0.013167 -0.006006 -0.003377 0.000000 -0.000029 0.000000
# 2 -0.006006 0.020054 -0.004640 0.000000 0.000453 0.000000
# 3 -0.003377 -0.004640 0.010136 0.000000 -0.001226 0.000000
# 4 0.000000 0.000000 0.000000 0.029095 0.000000 -0.006761
# 5 -0.000029 0.000453 -0.001226 0.000000 0.026451 0.000000
# 6 0.000000 0.000000 0.000000 -0.006761 0.000000 0.040485
#
#
# Mechanical properties :
#
#
# Convention : Reuss Voigt Hill
#
# Bulk Modulus (GPa) = 65.30727 71.90273 68.60500
# Shear Modulus (GPa) = 28.97912 31.45417 30.21664
#
# Velocity S-wave (km/s) = 3.76101 3.91833 3.84047
# Velocity P-wave (km/s) = 7.12305 7.45439 7.29060
#
# Compressibility (1/GPa) = 0.01531223
#
# Stress axis : x y z
#
# Youngs Moduli (GPa) = 75.94748 49.86523 98.65865
#
# Poissons Ratio (x) = 0.29947 0.33316
# Poissons Ratio (y) = 0.45611 0.45776
# Poissons Ratio (z) = 0.25647 0.23137
#
# Static dielectric constant tensor:
#      x y z
#    x 3.744780 0.000000 0.010170 
#    y 0.000000 3.664690 0.000000 
#    z 0.010170 0.000000 3.904120 
# 
# 
# High freq. dielectric constant tensor:
#      x y z
#    x 1.798310 0.000000 0.003790 
#    y 0.000000 1.802500 0.000000 
#    z 0.003790 0.000000 1.819870 
# 
# From -- ./inp_files/180787.got.cif
#   From: 2010.06.25/outbox.cif.g09.slc.cpg/sg12_91_cif.got.tgz:180787.got - 2010.06.28 00:19:55.
