data_PCOD8101460
_publ_section_title
;
Structure prediction by ZEFSAII (Michael W. Deem and Ramdas Pophale) SiO2 
 PCOD8101460
Probable space group: C 2/M
;
_chemical_formula_sum "Si O2"
_cell_formula_units_Z 56
_cell_length_a 23.509754
_cell_length_b 9.300852
_cell_length_c 15.373402
_cell_angle_alpha 90.000000
_cell_angle_beta 121.359848
_cell_angle_gamma 90.000000
_cell_volume 2870.488441
_symmetry_space_group_name_H-M "C 2/M"
_symmetry_group_IT_number 12
_symmetry_cell_setting 'monoclinic'
loop_
_space_group_symop_operation_xyz
x,y,z
-x,y,-z
-x,-y,-z
x,-y,z
1/2+x,1/2+y,z
1/2-x,1/2+y,-z
1/2-x,1/2-y,-z
1/2+x,1/2-y,z
loop_
_atom_site_type_symbol
_atom_site_label
_atom_site_fract_x
_atom_site_fract_y
_atom_site_fract_z
Si Si1 0.210369 0.166048 0.896309
Si Si2 0.185397 0.336391 0.162613
Si Si3 0.344205 0.166663 0.526851
Si Si4 0.534750 0.334256 0.436515
Si Si5 0.951553 0.666299 0.038223
Si Si6 0.059766 0.168848 0.797159
Si Si7 0.697585 0.333587 0.344063
O O1 0.244884 0.192767 0.830549
O O2 0.134334 0.219772 0.831790
O O3 0.214108 0.000000 0.925191
O O4 0.250000 0.250000 0.000000
O O5 0.182585 0.500000 0.195884
O O6 0.178209 0.225747 0.234986
O O7 0.125091 0.307898 0.048264
O O8 0.400571 0.234244 0.511189
O O9 0.345593 0.248611 0.619697
O O10 0.275379 0.191910 0.422096
O O11 0.358100 0.000000 0.555428
O O12 0.500000 0.306383 0.500000
O O13 0.556420 0.500000 0.444048
O O14 0.486227 0.286841 0.320089
O O15 0.966406 0.500000 0.069392
O O16 0.967233 0.753312 0.138210
O O17 0.000000 0.721952 0.000000
O O18 0.057466 0.000000 0.813032
O O19 0.677770 0.500000 0.333814
#
# Coordination Sequence:
#
# PCOD8101460 Si02
#       7
#     8   8   8   8   8   8   8
#     4  10  20  36  58  83 114 148 191 237 284 343
#     4  10  21  36  58  87 117 153 194 237 291 347
#     4  10  22  41  62  86 117 153 196 244 296 351
#     4  10  23  41  62  87 119 159 201 245 298 356
#     4  10  22  39  58  85 120 158 196 235 290 353
#     4  10  22  39  59  87 116 153 198 243 294 345
#     4  10  22  39  61  89 118 151 193 242 296 351
#
# _framework density 19.508876999999998
#
# number of rings (size 3 to 8) (size 9 to 14) (size 15 to 20)
#    0.000    2.000    1.429    0.857    4.000    4.000 
#    0.000    0.000    0.000    0.000    0.000    0.000 
#    0.000    0.000    0.000    0.000    0.000    0.000 
#
# Total GULP energy -347335.946779 kJ/mol
# GULP energy per Si atom -12404.855242 kJ/mol
# Density = 1.946447 g / cm^3
# Si number density = 19.508877 Si / 1000 Ang^3
#
#
#
# Elastic Constant Matrix: (Units=GPa)
#
#
# Indices 1 2 3 4 5 6 
#
# 1 107.1307 42.5652 31.2355 0.0000 -7.4310 0.0000
# 2 42.5652 81.9293 44.9290 0.0000 -8.6489 0.0000
# 3 31.2355 44.9290 93.8549 0.0000 -20.7797 0.0000
# 4 0.0000 0.0000 0.0000 31.6312 0.0000 -2.0016
# 5 -7.4310 -8.6489 -20.7797 0.0000 25.8629 0.0000
# 6 0.0000 0.0000 0.0000 -2.0016 0.0000 31.9455
#
#
#
# Elastic Compliance Matrix: (Units=1/GPa)
#
#
# Indices 1 2 3 4 5 6 
#
# 1 0.011896 -0.005450 -0.001213 0.000000 0.000621 0.000000
# 2 -0.005450 0.019069 -0.007602 0.000000 -0.001297 0.000000
# 3 -0.001213 -0.007602 0.017099 0.000000 0.010848 0.000000
# 4 0.000000 0.000000 0.000000 0.031740 0.000000 0.001989
# 5 0.000621 -0.001297 0.010848 0.000000 0.047126 0.000000
# 6 0.000000 0.000000 0.000000 0.001989 0.000000 0.031428
#
#
# Mechanical properties :
#
#
# Convention : Reuss Voigt Hill
#
# Bulk Modulus (GPa) = 51.18875 57.81937 54.50406
# Shear Modulus (GPa) = 25.85324 28.83359 27.34342
#
# Velocity S-wave (km/s) = 3.64428 3.84861 3.74784
# Velocity P-wave (km/s) = 6.63351 7.03213 6.83573
#
# Compressibility (1/GPa) = 0.01953554
#
# Stress axis : x y z
#
# Youngs Moduli (GPa) = 84.05850 52.44135 58.48270
#
# Poissons Ratio (x) = 0.28581 0.07092
# Poissons Ratio (y) = 0.45812 0.44457
# Poissons Ratio (z) = 0.10194 0.39864
#
# Static dielectric constant tensor:
#      x y z
#    x 3.760900 0.000000 0.071090 
#    y 0.000000 3.509720 0.000000 
#    z 0.071090 0.000000 3.439680 
# 
# 
# High freq. dielectric constant tensor:
#      x y z
#    x 1.772200 0.000000 -0.000590 
#    y 0.000000 1.755800 0.000000 
#    z -0.000590 0.000000 1.756730 
# 
# From -- ./inp_files/238342.got.cif
#   From: 2010.06.25/outbox.cif.g09.slc.cpg/sg12_120_cif.got.tgz:238342.got - 2010.06.28 00:19:55.
