data_PCOD8101313
_publ_section_title
;
Structure prediction by ZEFSAII (Michael W. Deem and Ramdas Pophale) SiO2 
 PCOD8101313
Probable space group: C 2/M
;
_chemical_formula_sum "Si O2"
_cell_formula_units_Z 64
_cell_length_a 19.146257
_cell_length_b 9.004377
_cell_length_c 31.198543
_cell_angle_alpha 90.000000
_cell_angle_beta 140.026654
_cell_angle_gamma 90.000000
_cell_volume 3455.401163
_symmetry_space_group_name_H-M "C 2/M"
_symmetry_group_IT_number 12
_symmetry_cell_setting 'monoclinic'
loop_
_space_group_symop_operation_xyz
x,y,z
-x,y,-z
-x,-y,-z
x,-y,z
1/2+x,1/2+y,z
1/2-x,1/2+y,-z
1/2-x,1/2-y,-z
1/2+x,1/2-y,z
loop_
_atom_site_type_symbol
_atom_site_label
_atom_site_fract_x
_atom_site_fract_y
_atom_site_fract_z
Si Si1 0.446248 0.674755 0.297850
Si Si2 0.668506 0.324888 0.074154
Si Si3 0.702878 0.827159 0.704961
Si Si4 0.494203 0.169149 0.447704
Si Si5 0.987516 0.176131 0.924750
Si Si6 0.913031 0.325257 0.194269
Si Si7 0.569761 0.174631 0.189494
Si Si8 0.363355 0.328365 0.549717
O O1 0.422515 0.500000 0.286219
O O2 0.347462 0.754346 0.276064
O O3 0.459459 0.737467 0.256582
O O4 0.559847 0.712861 0.374247
O O5 0.665471 0.500000 0.070289
O O6 0.616357 0.276986 0.095120
O O7 0.791117 0.265314 0.127680
O O8 0.596130 0.267703 0.000279
O O9 0.625892 0.801655 0.627615
O O10 0.816279 0.751898 0.746638
O O11 0.721775 0.000000 0.723788
O O12 0.500000 0.206726 0.500000
O O13 0.580124 0.278718 0.467304
O O14 0.529223 0.000000 0.454767
O O15 0.983037 0.263255 0.878436
O O16 0.988406 0.000000 0.916478
O O17 0.912816 0.500000 0.204375
O O18 0.987421 0.286159 0.188916
O O19 0.588398 0.000000 0.193881
O O20 0.339581 0.500000 0.535954
O O21 0.250000 0.250000 0.500000
#
# Coordination Sequence:
#
# PCOD8101313 Si02
#       8
#     8   8   8   8   8   8   8   8
#     4  10  21  37  57  81 107 136 177 226 266 308
#     4   8  16  33  56  79 101 132 178 223 262 314
#     4  10  20  36  58  78 102 141 181 216 264 323
#     4   9  19  36  57  81 107 136 174 220 267 316
#     4   9  17  33  58  80  99 133 181 224 265 318
#     4  10  21  36  53  76 110 148 179 213 265 321
#     4  11  23  35  49  76 112 143 177 223 266 307
#     4  10  21  36  55  80 110 142 176 217 264 314
#
# _framework density 18.521726999999998
#
# number of rings (size 3 to 8) (size 9 to 14) (size 15 to 20)
#    0.000    2.375    0.000    3.000    0.000    5.750 
#    0.000    5.625    0.000    0.000    0.000    0.000 
#    0.000    0.000    0.000    0.000    0.000    0.000 
#
# Total GULP energy -396839.083862 kJ/mol
# GULP energy per Si atom -12401.221371 kJ/mol
# Density = 1.847957 g / cm^3
# Si number density = 18.521727 Si / 1000 Ang^3
#
#
#
# Elastic Constant Matrix: (Units=GPa)
#
#
# Indices 1 2 3 4 5 6 
#
# 1 143.4004 66.5062 93.3786 0.0000 2.4962 0.0001
# 2 66.5062 72.3199 58.8730 0.0000 4.9518 -0.0001
# 3 93.3786 58.8730 125.8195 0.0000 0.5304 0.0001
# 4 0.0000 0.0000 0.0000 28.4528 0.0000 -0.5083
# 5 2.4962 4.9518 0.5304 0.0000 37.7387 0.0000
# 6 0.0001 -0.0001 0.0001 -0.5083 0.0000 31.3185
#
#
#
# Elastic Compliance Matrix: (Units=1/GPa)
#
#
# Indices 1 2 3 4 5 6 
#
# 1 0.016007 -0.008169 -0.008058 0.000000 0.000126 0.000000
# 2 -0.008169 0.026801 -0.006465 0.000000 -0.002885 0.000000
# 3 -0.008058 -0.006465 0.016949 0.000000 0.001143 0.000000
# 4 0.000000 0.000000 0.000000 0.035156 0.000000 0.000571
# 5 0.000126 -0.002885 0.001143 0.000000 0.026852 0.000000
# 6 0.000000 0.000000 0.000000 0.000571 0.000000 0.031939
#
#
# Mechanical properties :
#
#
# Convention : Reuss Voigt Hill
#
# Bulk Modulus (GPa) = 69.58283 86.56171 78.07227
# Shear Modulus (GPa) = 24.52423 27.68747 26.10585
#
# Velocity S-wave (km/s) = 3.64274 3.87054 3.75837
# Velocity P-wave (km/s) = 7.43925 8.17383 7.81518
#
# Compressibility (1/GPa) = 0.01437136
#
# Stress axis : x y z
#
# Youngs Moduli (GPa) = 62.47209 37.31213 59.00202
#
# Poissons Ratio (x) = 0.30482 0.47543
# Poissons Ratio (y) = 0.51036 0.38147
# Poissons Ratio (z) = 0.50339 0.24124
#
# Static dielectric constant tensor:
#      x y z
#    x 3.422760 0.000000 0.119700 
#    y 0.000000 3.331840 0.000000 
#    z 0.119700 0.000000 3.676870 
# 
# 
# High freq. dielectric constant tensor:
#      x y z
#    x 1.715230 0.000000 0.000770 
#    y 0.000000 1.711660 0.000000 
#    z 0.000770 0.000000 1.731650 
# 
# From -- ./inp_files/378263.got.cif
#   From: 2010.06.25/outbox.cif.g09.slc.cpg/sg12_190_cif.got.tgz:378263.got - 2010.06.28 00:19:55.
