data_PCOD8101651
_publ_section_title
;
Structure prediction by ZEFSAII (Michael W. Deem and Ramdas Pophale) SiO2 
 PCOD8101651
Probable space group: C 2/M
;
_chemical_formula_sum "Si O2"
_cell_formula_units_Z 48
_cell_length_a 24.239485
_cell_length_b 8.898299
_cell_length_c 11.972713
_cell_angle_alpha 90.000000
_cell_angle_beta 104.032796
_cell_angle_gamma 90.000000
_cell_volume 2505.330456
_symmetry_space_group_name_H-M "C 2/M"
_symmetry_group_IT_number 12
_symmetry_cell_setting 'monoclinic'
loop_
_space_group_symop_operation_xyz
x,y,z
-x,y,-z
-x,-y,-z
x,-y,z
1/2+x,1/2+y,z
1/2-x,1/2+y,-z
1/2-x,1/2-y,-z
1/2+x,1/2-y,z
loop_
_atom_site_type_symbol
_atom_site_label
_atom_site_fract_x
_atom_site_fract_y
_atom_site_fract_z
Si Si1 0.210337 0.177043 0.775275
Si Si2 0.856963 0.323254 0.067239
Si Si3 0.829055 0.176933 0.824163
Si Si4 0.965397 0.675080 0.264356
Si Si5 0.418562 0.675387 0.679727
Si Si6 0.398476 0.675605 0.419378
O O1 0.191850 0.239310 0.886776
O O2 0.267125 0.260102 0.764704
O O3 0.163096 0.218085 0.660017
O O4 0.221203 0.000000 0.790580
O O5 0.843951 0.500000 0.062108
O O6 0.918493 0.285292 0.148327
O O7 0.856379 0.261053 0.942465
O O8 0.867698 0.216656 0.737271
O O9 0.826235 0.000000 0.846439
O O10 0.972184 0.500000 0.284750
O O11 0.948290 0.743819 0.375288
O O12 0.024730 0.741850 0.251281
O O13 0.431756 0.500000 0.686396
O O14 0.400490 0.731096 0.547731
O O15 0.410031 0.500000 0.414107
#
# Coordination Sequence:
#
# PCOD8101651 Si02
#       6
#     8   8   8   8   8   8
#     4  10  20  36  59  83 107 139 180 223 267 316
#     4  10  21  38  58  80 108 141 179 223 270 318
#     4  11  23  37  54  79 111 145 181 220 266 319
#     4  10  21  36  57  84 109 137 178 227 271 312
#     4  10  22  38  55  78 111 148 180 215 264 322
#     4   9  19  37  59  81 107 142 181 218 263 321
#
# _framework density 19.159147999999998
#
# number of rings (size 3 to 8) (size 9 to 14) (size 15 to 20)
#    0.000    2.000    0.000    3.000    0.000    8.000 
#    0.000    3.333    0.000    0.000    0.000    0.000 
#    0.000    0.000    0.000    0.000    0.000    0.000 
#
# Total GULP energy -297730.160895 kJ/mol
# GULP energy per Si atom -12405.423371 kJ/mol
# Density = 1.911554 g / cm^3
# Si number density = 19.159148 Si / 1000 Ang^3
#
#
#
# Elastic Constant Matrix: (Units=GPa)
#
#
# Indices 1 2 3 4 5 6 
#
# 1 116.8946 44.4470 44.0830 0.0000 2.6672 0.0000
# 2 44.4470 48.1705 19.6452 0.0000 2.9438 0.0000
# 3 44.0830 19.6452 69.9837 0.0000 0.1829 0.0000
# 4 0.0000 0.0000 0.0000 25.2610 0.0000 3.6871
# 5 2.6672 2.9438 0.1829 0.0000 22.5237 0.0000
# 6 0.0000 0.0000 0.0000 3.6871 0.0000 37.0136
#
#
#
# Elastic Compliance Matrix: (Units=1/GPa)
#
#
# Indices 1 2 3 4 5 6 
#
# 1 0.015383 -0.011549 -0.006447 0.000000 -0.000260 0.000000
# 2 -0.011549 0.032320 -0.001790 0.000000 -0.002842 0.000000
# 3 -0.006447 -0.001790 0.018851 0.000000 0.000844 0.000000
# 4 0.000000 0.000000 0.000000 0.040171 0.000000 -0.004002
# 5 -0.000260 -0.002842 0.000844 0.000000 0.044793 0.000000
# 6 0.000000 0.000000 0.000000 -0.004002 0.000000 0.027416
#
#
# Mechanical properties :
#
#
# Convention : Reuss Voigt Hill
#
# Bulk Modulus (GPa) = 37.06416 50.15544 43.60980
# Shear Modulus (GPa) = 21.97804 25.41791 23.69797
#
# Velocity S-wave (km/s) = 3.39061 3.64630 3.52078
# Velocity P-wave (km/s) = 5.89200 6.63042 6.27209
#
# Compressibility (1/GPa) = 0.02698024
#
# Stress axis : x y z
#
# Youngs Moduli (GPa) = 65.00545 30.94099 53.04851
#
# Poissons Ratio (x) = 0.35733 0.34203
# Poissons Ratio (y) = 0.75074 0.09498
# Poissons Ratio (z) = 0.41912 0.05540
#
# Static dielectric constant tensor:
#      x y z
#    x 3.537320 0.000000 0.077030 
#    y 0.000000 3.534230 0.000000 
#    z 0.077030 0.000000 3.578300 
# 
# 
# High freq. dielectric constant tensor:
#      x y z
#    x 1.749230 0.000000 0.008840 
#    y 0.000000 1.751800 0.000000 
#    z 0.008840 0.000000 1.748430 
# 
# From -- ./inp_files/172051.got.cif
#   From: 2010.06.25/outbox.cif.g09.slc.cpg/sg12_87_cif.got.tgz:172051.got - 2010.06.28 00:19:55.
