data_PCOD8101092
_publ_section_title
;
Structure prediction by ZEFSAII (Michael W. Deem and Ramdas Pophale) SiO2 
 PCOD8101092
Probable space group: C 2/M
;
_chemical_formula_sum "Si O2"
_cell_formula_units_Z 64
_cell_length_a 15.199969
_cell_length_b 9.133702
_cell_length_c 33.158211
_cell_angle_alpha 90.000000
_cell_angle_beta 133.873354
_cell_angle_gamma 90.000000
_cell_volume 3318.483758
_symmetry_space_group_name_H-M "C 2/M"
_symmetry_group_IT_number 12
_symmetry_cell_setting 'monoclinic'
loop_
_space_group_symop_operation_xyz
x,y,z
-x,y,-z
-x,-y,-z
x,-y,z
1/2+x,1/2+y,z
1/2-x,1/2+y,-z
1/2-x,1/2-y,-z
1/2+x,1/2-y,z
loop_
_atom_site_type_symbol
_atom_site_label
_atom_site_fract_x
_atom_site_fract_y
_atom_site_fract_z
Si Si1 0.827764 0.173197 0.277152
Si Si2 0.444421 0.826471 0.794010
Si Si3 0.580849 0.165626 0.619770
Si Si4 0.997119 0.326585 0.276224
Si Si5 0.781981 0.834292 0.620414
Si Si6 0.377127 0.172091 0.079884
Si Si7 0.840683 0.670947 0.499673
Si Si8 0.095384 0.171997 0.994664
O O1 0.690692 0.230470 0.239443
O O2 0.915309 0.225022 0.341375
O O3 0.872234 0.250618 0.250472
O O4 0.836253 0.000000 0.275949
O O5 0.482058 0.767389 0.762209
O O6 0.538638 0.767576 0.857281
O O7 0.446016 0.000000 0.793941
O O8 0.710376 0.174390 0.639350
O O9 0.477845 0.216739 0.555218
O O10 0.555450 0.000000 0.627037
O O11 0.986035 0.500000 0.274927
O O12 0.104502 0.274968 0.340394
O O13 0.690868 0.782488 0.555979
O O14 0.829305 0.000000 0.627740
O O15 0.427692 0.248650 0.055347
O O16 0.392387 0.000000 0.077594
O O17 0.237819 0.208479 0.049376
O O18 0.823013 0.500000 0.499475
O O19 0.750000 0.750000 0.500000
O O20 0.075552 0.000000 0.981954
O O21 0.000000 0.225218 0.000000
#
# Coordination Sequence:
#
# PCOD8101092 Si02
#       8
#     8   8   8   8   8   8   8   8
#     4  11  22  38  57  80 109 144 186 233 281 331
#     4   9  20  38  57  78 111 150 187 228 275 326
#     4  10  20  36  57  79 104 138 181 226 279 337
#     4  11  22  38  58  82 110 145 186 230 281 336
#     4  10  20  36  57  79 105 139 180 226 279 334
#     4   9  18  35  57  80 111 152 190 225 271 322
#     4  10  21  35  51  75 105 137 174 223 275 336
#     4   9  18  33  55  85 118 149 183 227 274 320
#
# _framework density 19.285916
#
# number of rings (size 3 to 8) (size 9 to 14) (size 15 to 20)
#    0.000    2.125    1.250    1.875    0.000    5.750 
#    0.000    3.750    0.000    2.250    0.000    0.000 
#    0.000    0.000    0.000    0.000    0.000    0.000 
#
# Total GULP energy -396705.652775 kJ/mol
# GULP energy per Si atom -12397.051649 kJ/mol
# Density = 1.924202 g / cm^3
# Si number density = 19.285916 Si / 1000 Ang^3
#
#
#
# Elastic Constant Matrix: (Units=GPa)
#
#
# Indices 1 2 3 4 5 6 
#
# 1 153.2906 46.3946 65.8731 0.0000 -10.6194 0.0000
# 2 46.3946 54.7772 40.8864 0.0000 -3.0520 0.0000
# 3 65.8731 40.8864 140.9389 0.0000 -2.8811 0.0000
# 4 0.0000 0.0000 0.0000 25.2759 0.0000 -3.1976
# 5 -10.6194 -3.0520 -2.8811 0.0000 16.9025 0.0000
# 6 0.0000 0.0000 0.0000 -3.1976 0.0000 32.1741
#
#
#
# Elastic Compliance Matrix: (Units=1/GPa)
#
#
# Indices 1 2 3 4 5 6 
#
# 1 0.009856 -0.006027 -0.002764 0.000000 0.004633 0.000000
# 2 -0.006027 0.027146 -0.005053 0.000000 0.000254 0.000000
# 3 -0.002764 -0.005053 0.009833 0.000000 -0.000973 0.000000
# 4 0.000000 0.000000 0.000000 0.040067 0.000000 0.003982
# 5 0.004633 0.000254 -0.000973 0.000000 0.061954 0.000000
# 6 0.000000 0.000000 0.000000 0.003982 0.000000 0.031477
#
#
# Mechanical properties :
#
#
# Convention : Reuss Voigt Hill
#
# Bulk Modulus (GPa) = 52.22406 72.81278 62.51842
# Shear Modulus (GPa) = 23.32058 27.92731 25.62394
#
# Velocity S-wave (km/s) = 3.48113 3.80948 3.64900
# Velocity P-wave (km/s) = 6.57992 7.56213 7.08806
#
# Compressibility (1/GPa) = 0.01914826
#
# Stress axis : x y z
#
# Youngs Moduli (GPa) = 101.45882 36.83749 101.69941
#
# Poissons Ratio (x) = 0.22202 0.28105
# Poissons Ratio (y) = 0.61150 0.51389
# Poissons Ratio (z) = 0.28038 0.18614
#
# Static dielectric constant tensor:
#      x y z
#    x 3.652620 0.000000 0.040780 
#    y 0.000000 3.324980 0.000000 
#    z 0.040780 0.000000 3.902440 
# 
# 
# High freq. dielectric constant tensor:
#      x y z
#    x 1.761660 0.000000 -0.000820 
#    y 0.000000 1.731900 0.000000 
#    z -0.000820 0.000000 1.747780 
# 
# From -- ./inp_files/375630.got.cif
#   From: 2010.06.25/outbox.cif.g09.slc.cpg/sg12_188_cif.got.tgz:375630.got - 2010.06.28 00:19:55.
