data_PCOD8101640
_publ_section_title
;
Structure prediction by ZEFSAII (Michael W. Deem and Ramdas Pophale) SiO2 
 PCOD8101640
Probable space group: C 2/M
;
_chemical_formula_sum "Si O2"
_cell_formula_units_Z 40
_cell_length_a 7.565719
_cell_length_b 15.295106
_cell_length_c 27.333279
_cell_angle_alpha 90.000000
_cell_angle_beta 40.563339
_cell_angle_gamma 90.000000
_cell_volume 2056.839227
_symmetry_space_group_name_H-M "C 2/M"
_symmetry_group_IT_number 12
_symmetry_cell_setting 'monoclinic'
loop_
_space_group_symop_operation_xyz
x,y,z
-x,y,-z
-x,-y,-z
x,-y,z
1/2+x,1/2+y,z
1/2-x,1/2+y,-z
1/2-x,1/2-y,-z
1/2+x,1/2-y,z
loop_
_atom_site_type_symbol
_atom_site_label
_atom_site_fract_x
_atom_site_fract_y
_atom_site_fract_z
Si Si1 0.218021 0.152038 0.585522
Si Si2 0.476251 0.138982 0.058872
Si Si3 0.812302 0.151799 0.585552
Si Si4 0.000000 0.806388 0.000000
Si Si5 0.514439 0.000000 0.690589
Si Si6 0.113136 0.000000 0.185318
Si Si7 0.058579 0.000000 0.309719
O O1 0.500000 0.130874 0.500000
O O2 0.200939 0.250152 0.608827
O O3 0.991089 0.136670 0.594324
O O4 0.143322 0.083653 0.643458
O O5 0.756901 0.132737 0.031123
O O6 0.500000 0.094090 0.000000
O O7 0.401653 0.242117 0.065584
O O8 0.246381 0.088656 0.136952
O O9 0.568867 0.083512 0.643771
O O10 0.000000 0.130430 0.500000
O O11 0.195810 0.000000 0.768729
O O12 0.688305 0.000000 0.704871
O O13 0.166965 0.000000 0.231960
#
# Coordination Sequence:
#
# PCOD8101640 Si02
#       7
#     8   8   8   4   4   4   4
#     4  10  20  36  59  82 107 148 203 260 295 350
#     4   9  19  40  63  95 113 153 190 234 279 348
#     4  10  20  36  60  84 107 153 208 251 300 345
#     4   8  18  40  68  90 120 140 202 232 280 334
#     4  10  25  42  52  84 127 158 192 249 298 358
#     4  12  25  37  61  86 126 157 188 232 305 345
#     4  10  25  42  51  84 124 157 198 237 307 349
#
# _framework density 19.447313999999999
#
# number of rings (size 3 to 8) (size 9 to 14) (size 15 to 20)
#    0.600    1.600    0.000    3.300    5.600    2.000 
#    3.600    0.000    0.000    0.000    0.000    0.000 
#    0.000    0.000    0.000    0.000    0.000    0.000 
#
# Total GULP energy -247785.658680 kJ/mol
# GULP energy per Si atom -12389.282934 kJ/mol
# Density = 1.940305 g / cm^3
# Si number density = 19.447314 Si / 1000 Ang^3
#
#
#
# Elastic Constant Matrix: (Units=GPa)
#
#
# Indices 1 2 3 4 5 6 
#
# 1 104.5121 38.2050 51.8004 -0.0094 -8.1111 0.0144
# 2 38.2050 112.9482 83.2238 -0.0091 -6.3716 0.0098
# 3 51.8004 83.2238 131.2410 -0.0343 -2.6223 0.0154
# 4 -0.0094 -0.0091 -0.0343 25.8849 0.0007 -5.6169
# 5 -8.1111 -6.3716 -2.6223 0.0007 36.5837 -0.0159
# 6 0.0144 0.0098 0.0154 -5.6169 -0.0159 12.3681
#
#
#
# Elastic Compliance Matrix: (Units=1/GPa)
#
#
# Indices 1 2 3 4 5 6 
#
# 1 0.012141 -0.000906 -0.004173 -0.000003 0.002235 -0.000007
# 2 -0.000906 0.016856 -0.010291 -0.000008 0.001997 -0.000001
# 3 -0.004173 -0.010291 0.015761 0.000015 -0.001588 -0.000002
# 4 -0.000003 -0.000008 0.000015 0.042856 0.000007 0.019463
# 5 0.002235 0.001997 -0.001588 0.000007 0.028064 0.000037
# 6 -0.000007 -0.000001 -0.000002 0.019463 0.000037 0.089692
#
#
# Mechanical properties :
#
#
# Convention : Reuss Voigt Hill
#
# Bulk Modulus (GPa) = 71.33943 77.23997 74.28970
# Shear Modulus (GPa) = 20.76564 26.66548 23.71556
#
# Velocity S-wave (km/s) = 3.27125 3.70694 3.49589
# Velocity P-wave (km/s) = 7.14361 7.62402 7.38772
#
# Compressibility (1/GPa) = 0.01401749
#
# Stress axis : x y z
#
# Youngs Moduli (GPa) = 82.36439 59.32770 63.44854
#
# Poissons Ratio (x) = 0.05375 0.26477
# Poissons Ratio (y) = 0.07462 0.65296
# Poissons Ratio (z) = 0.34370 0.61055
#
# Static dielectric constant tensor:
#      x y z
#    x 3.661440 -0.000030 0.030570 
#    y -0.000030 3.352910 0.000080 
#    z 0.030570 0.000080 3.149110 
# 
# 
# High freq. dielectric constant tensor:
#      x y z
#    x 1.773970 0.000000 0.000280 
#    y 0.000000 1.761820 0.000000 
#    z 0.000280 0.000000 1.727170 
# 
# From -- ./inp_files/372475.got.cif
#   From: 2010.06.25/outbox.cif.g09.slc.cpg/sg12_187_cif.got.tgz:372475.got - 2010.06.28 00:19:55.
