data_PCOD8101013
_publ_section_title
;
Structure prediction by ZEFSAII (Michael W. Deem and Ramdas Pophale) SiO2 
 PCOD8101013
Probable space group: C 2/M
;
_chemical_formula_sum "Si O2"
_cell_formula_units_Z 64
_cell_length_a 22.738641
_cell_length_b 8.888530
_cell_length_c 16.569308
_cell_angle_alpha 90.000000
_cell_angle_beta 85.841631
_cell_angle_gamma 90.000000
_cell_volume 3340.057934
_symmetry_space_group_name_H-M "C 2/M"
_symmetry_group_IT_number 12
_symmetry_cell_setting 'monoclinic'
loop_
_space_group_symop_operation_xyz
x,y,z
-x,y,-z
-x,-y,-z
x,-y,z
1/2+x,1/2+y,z
1/2-x,1/2+y,-z
1/2-x,1/2-y,-z
1/2+x,1/2-y,z
loop_
_atom_site_type_symbol
_atom_site_label
_atom_site_fract_x
_atom_site_fract_y
_atom_site_fract_z
Si Si1 0.593117 0.822361 0.769533
Si Si2 0.218307 0.821940 0.765604
Si Si3 0.500455 0.823165 0.090849
Si Si4 0.267803 0.327890 0.916971
Si Si5 0.967255 0.677137 0.386804
Si Si6 0.391998 0.669994 0.834103
Si Si7 0.173234 0.821970 0.319963
Si Si8 0.088862 0.678117 0.445200
O O1 0.652415 0.729812 0.754110
O O2 0.559765 0.780113 0.856244
O O3 0.552375 0.767614 0.699161
O O4 0.606275 0.000000 0.763366
O O5 0.235190 0.763700 0.851460
O O6 0.262512 0.752488 0.695041
O O7 0.222469 0.000000 0.761971
O O8 0.555549 0.770088 0.137792
O O9 0.506915 0.000000 0.083714
O O10 0.500000 0.752977 0.000000
O O11 0.245611 0.500000 0.916262
O O12 0.338141 0.320111 0.902126
O O13 0.250000 0.250000 0.000000
O O14 0.972384 0.500000 0.390107
O O15 0.920167 0.725455 0.460388
O O16 0.032287 0.738952 0.400568
O O17 0.415156 0.500000 0.824108
O O18 0.369257 0.729745 0.749571
O O19 0.145868 0.765559 0.406571
O O20 0.181915 0.000000 0.317699
O O21 0.098447 0.500000 0.434153
#
# Coordination Sequence:
#
# PCOD8101013 Si02
#       8
#     8   8   8   8   8   8   8   8
#     4  10  20  37  56  76 112 152 183 223 277 333
#     4  11  23  38  56  80 106 144 192 232 276 329
#     4  10  22  36  53  81 109 141 182 223 270 326
#     4  10  21  37  57  82 109 140 180 229 280 328
#     4   8  16  31  55  85 114 149 185 222 275 334
#     4   9  20  36  53  76 106 138 175 218 267 323
#     4  10  20  36  56  81 111 143 180 227 284 332
#     4   9  16  31  57  87 114 141 184 231 271 329
#
# _framework density 19.161344
#
# number of rings (size 3 to 8) (size 9 to 14) (size 15 to 20)
#    0.000    2.375    0.000    4.125    1.750    4.750 
#    0.000    3.125    0.000    0.000    0.000    0.000 
#    0.000    0.000    0.000    0.000    0.000    0.000 
#
# Total GULP energy -396767.460586 kJ/mol
# GULP energy per Si atom -12398.983143 kJ/mol
# Density = 1.911773 g / cm^3
# Si number density = 19.161344 Si / 1000 Ang^3
#
#
#
# Elastic Constant Matrix: (Units=GPa)
#
#
# Indices 1 2 3 4 5 6 
#
# 1 82.4285 39.7692 36.7256 0.0000 -10.0599 0.0000
# 2 39.7692 73.7532 36.0212 0.0000 -8.7473 0.0000
# 3 36.7256 36.0212 96.8463 0.0000 -23.0407 0.0000
# 4 0.0000 0.0000 0.0000 24.0505 0.0000 -2.9090
# 5 -10.0599 -8.7473 -23.0407 0.0000 30.1058 0.0000
# 6 0.0000 0.0000 0.0000 -2.9090 0.0000 34.0897
#
#
#
# Elastic Compliance Matrix: (Units=1/GPa)
#
#
# Indices 1 2 3 4 5 6 
#
# 1 0.017500 -0.007568 -0.003611 0.000000 0.000885 0.000000
# 2 -0.007568 0.019841 -0.004573 0.000000 -0.000263 0.000000
# 3 -0.003611 -0.004573 0.015640 0.000000 0.009435 0.000000
# 4 0.000000 0.000000 0.000000 0.042013 0.000000 0.003585
# 5 0.000885 -0.000263 0.009435 0.000000 0.040656 0.000000
# 6 0.000000 0.000000 0.000000 0.003585 0.000000 0.029640
#
#
# Mechanical properties :
#
#
# Convention : Reuss Voigt Hill
#
# Bulk Modulus (GPa) = 46.55696 53.11775 49.83736
# Shear Modulus (GPa) = 24.51544 27.01665 25.76604
#
# Velocity S-wave (km/s) = 3.58078 3.75901 3.67098
# Velocity P-wave (km/s) = 6.43786 6.82801 6.63580
#
# Compressibility (1/GPa) = 0.02147907
#
# Stress axis : x y z
#
# Youngs Moduli (GPa) = 57.14382 50.39944 63.93719
#
# Poissons Ratio (x) = 0.38141 0.23086
# Poissons Ratio (y) = 0.43245 0.29237
# Poissons Ratio (z) = 0.20633 0.23047
#
# Static dielectric constant tensor:
#      x y z
#    x 3.519330 0.000000 -0.060450 
#    y 0.000000 3.309380 0.000000 
#    z -0.060450 0.000000 3.791690 
# 
# 
# High freq. dielectric constant tensor:
#      x y z
#    x 1.742360 0.000000 -0.015200 
#    y 0.000000 1.729610 0.000000 
#    z -0.015200 0.000000 1.747280 
# 
# From -- ./inp_files/281235.got.cif
#   From: 2010.06.25/outbox.cif.g09.slc.cpg/sg12_141_cif.got.tgz:281235.got - 2010.06.28 00:19:55.
