data_PCOD8101312
_publ_section_title
;
Structure prediction by ZEFSAII (Michael W. Deem and Ramdas Pophale) SiO2 
 PCOD8101312
Probable space group: C 2/M
;
_chemical_formula_sum "Si O2"
_cell_formula_units_Z 64
_cell_length_a 17.897059
_cell_length_b 9.214112
_cell_length_c 20.372070
_cell_angle_alpha 90.000000
_cell_angle_beta 90.912685
_cell_angle_gamma 90.000000
_cell_volume 3359.040300
_symmetry_space_group_name_H-M "C 2/M"
_symmetry_group_IT_number 12
_symmetry_cell_setting 'monoclinic'
loop_
_space_group_symop_operation_xyz
x,y,z
-x,y,-z
-x,-y,-z
x,-y,z
1/2+x,1/2+y,z
1/2-x,1/2+y,-z
1/2-x,1/2-y,-z
1/2+x,1/2-y,z
loop_
_atom_site_type_symbol
_atom_site_label
_atom_site_fract_x
_atom_site_fract_y
_atom_site_fract_z
Si Si1 0.666509 0.670956 0.107500
Si Si2 0.326343 0.832305 0.512372
Si Si3 0.835354 0.332249 0.139657
Si Si4 0.415437 0.671987 0.254469
Si Si5 0.084496 0.331286 0.992779
Si Si6 0.670377 0.669833 0.363526
Si Si7 0.845323 0.664703 0.368417
Si Si8 0.583364 0.327919 0.234966
O O1 0.655642 0.500000 0.099790
O O2 0.752595 0.713269 0.117271
O O3 0.638634 0.744340 0.041017
O O4 0.619932 0.732899 0.168743
O O5 0.250000 0.750000 0.500000
O O6 0.366263 0.755934 0.575134
O O7 0.372153 0.818494 0.444715
O O8 0.310586 0.000000 0.528548
O O9 0.837695 0.500000 0.160980
O O10 0.857397 0.236503 0.201967
O O11 0.891883 0.299518 0.081329
O O12 0.410261 0.500000 0.253016
O O13 0.395141 0.726860 0.326626
O O14 0.498449 0.727184 0.238047
O O15 0.091897 0.500000 0.010484
O O16 0.000000 0.275693 0.000000
O O17 0.655859 0.500000 0.374651
O O18 0.758110 0.704426 0.358756
O O19 0.630120 0.729661 0.297827
O O20 0.858404 0.500000 0.344504
O O21 0.587682 0.500000 0.234582
#
# Coordination Sequence:
#
# PCOD8101312 Si02
#       8
#     8   8   8   8   8   8   8   8
#     4  10  20  36  58  78 100 136 179 216 249 298
#     4   9  17  30  50  77 105 133 170 213 256 304
#     4  10  21  37  56  77 104 139 173 209 259 309
#     4  11  22  34  52  77 103 133 172 217 258 304
#     4  10  21  36  54  80 113 141 166 205 258 310
#     4   9  17  33  56  76 100 136 174 213 255 303
#     4   9  18  33  53  75 102 137 170 207 260 312
#     4   9  19  35  52  74 103 134 171 214 261 306
#
# _framework density 19.053061
#
# number of rings (size 3 to 8) (size 9 to 14) (size 15 to 20)
#    0.000    2.375    0.000    3.375    0.000    5.750 
#    0.000    3.125    0.000    3.750    0.000    0.000 
#    0.000    0.000    0.000    0.000    0.000    0.000 
#
# Total GULP energy -396818.130746 kJ/mol
# GULP energy per Si atom -12400.566586 kJ/mol
# Density = 1.900970 g / cm^3
# Si number density = 19.053061 Si / 1000 Ang^3
#
#
#
# Elastic Constant Matrix: (Units=GPa)
#
#
# Indices 1 2 3 4 5 6 
#
# 1 73.8447 22.3468 15.9389 0.0000 -17.1509 0.0000
# 2 22.3468 54.1433 27.7575 0.0000 -7.9906 0.0000
# 3 15.9389 27.7575 75.8911 0.0000 -11.3789 0.0000
# 4 0.0000 0.0000 0.0000 37.3772 0.0000 0.5059
# 5 -17.1509 -7.9906 -11.3789 0.0000 27.1502 0.0000
# 6 0.0000 0.0000 0.0000 0.5059 0.0000 19.6271
#
#
#
# Elastic Compliance Matrix: (Units=1/GPa)
#
#
# Indices 1 2 3 4 5 6 
#
# 1 0.017475 -0.005754 -0.000175 0.000000 0.009272 0.000000
# 2 -0.005754 0.024928 -0.007847 0.000000 0.000413 0.000000
# 3 -0.000175 -0.007847 0.016775 0.000000 0.004610 0.000000
# 4 0.000000 0.000000 0.000000 0.026764 0.000000 -0.000690
# 5 0.009272 0.000413 0.004610 0.000000 0.044743 0.000000
# 6 0.000000 0.000000 0.000000 -0.000690 0.000000 0.050968
#
#
# Mechanical properties :
#
#
# Convention : Reuss Voigt Hill
#
# Bulk Modulus (GPa) = 31.62094 37.32951 34.47522
# Shear Modulus (GPa) = 22.75344 26.01995 24.38670
#
# Velocity S-wave (km/s) = 3.45949 3.69949 3.58150
# Velocity P-wave (km/s) = 5.70874 6.15493 5.93603
#
# Compressibility (1/GPa) = 0.03162461
#
# Stress axis : x y z
#
# Youngs Moduli (GPa) = 57.22618 40.11493 59.61254
#
# Poissons Ratio (x) = 0.23083 0.01045
# Poissons Ratio (y) = 0.32929 0.46779
# Poissons Ratio (z) = 0.01003 0.31479
#
# Static dielectric constant tensor:
#      x y z
#    x 3.429980 0.000000 -0.083340 
#    y 0.000000 3.353780 0.000000 
#    z -0.083340 0.000000 3.847560 
# 
# 
# High freq. dielectric constant tensor:
#      x y z
#    x 1.726990 0.000000 -0.002980 
#    y 0.000000 1.724830 0.000000 
#    z -0.002980 0.000000 1.758280 
# 
# From -- ./inp_files/313983.got.cif
#   From: 2010.06.25/outbox.cif.g09.slc.cpg/sg12_157_cif.got.tgz:313983.got - 2010.06.28 00:19:55.
