data_PCOD8101175
_publ_section_title
;
Structure prediction by ZEFSAII (Michael W. Deem and Ramdas Pophale) SiO2 
 PCOD8101175
Probable space group: C 2/M
;
_chemical_formula_sum "Si O2"
_cell_formula_units_Z 64
_cell_length_a 18.758539
_cell_length_b 8.637296
_cell_length_c 31.082805
_cell_angle_alpha 90.000000
_cell_angle_beta 41.058626
_cell_angle_gamma 90.000000
_cell_volume 3307.886535
_symmetry_space_group_name_H-M "C 2/M"
_symmetry_group_IT_number 12
_symmetry_cell_setting 'monoclinic'
loop_
_space_group_symop_operation_xyz
x,y,z
-x,y,-z
-x,-y,-z
x,-y,z
1/2+x,1/2+y,z
1/2-x,1/2+y,-z
1/2-x,1/2-y,-z
1/2+x,1/2-y,z
loop_
_atom_site_type_symbol
_atom_site_label
_atom_site_fract_x
_atom_site_fract_y
_atom_site_fract_z
Si Si1 0.256915 0.178462 0.928270
Si Si2 0.173784 0.681301 0.322391
Si Si3 0.478952 0.183949 0.683538
Si Si4 0.640673 0.320161 0.825120
Si Si5 0.277174 0.182001 0.441629
Si Si6 0.373602 0.181305 0.562171
Si Si7 0.300496 0.680179 0.818957
Si Si8 0.590030 0.821763 0.062371
O O1 0.285049 0.288990 0.876109
O O2 0.347602 0.216431 0.922246
O O3 0.257614 0.000000 0.913580
O O4 0.138673 0.220281 0.001260
O O5 0.155799 0.500000 0.334993
O O6 0.078609 0.743531 0.334302
O O7 0.291190 0.720886 0.248910
O O8 0.164668 0.751944 0.374394
O O9 0.603341 0.238231 0.626973
O O10 0.421023 0.266788 0.750193
O O11 0.465611 0.000000 0.694735
O O12 0.608841 0.500000 0.840793
O O13 0.712244 0.281666 0.834006
O O14 0.534697 0.216341 0.873363
O O15 0.250000 0.250000 0.500000
O O16 0.189914 0.233185 0.446466
O O17 0.275675 0.000000 0.446890
O O18 0.500000 0.216880 0.500000
O O19 0.348674 0.000000 0.569456
O O20 0.283255 0.500000 0.816842
O O21 0.603039 0.000000 0.043582
#
# Coordination Sequence:
#
# PCOD8101175 Si02
#       8
#     8   8   8   8   8   8   8   8
#     4  10  21  38  58  80 111 149 184 224 280 337
#     4   8  16  33  56  78 103 141 185 224 267 327
#     4   9  19  38  59  79 108 147 187 227 278 333
#     4  10  20  36  57  81 113 150 186 225 277 336
#     4  11  23  38  58  84 114 148 187 231 277 328
#     4  10  20  36  58  83 113 149 187 228 277 330
#     4  11  22  36  57  85 114 145 186 232 274 322
#     4  10  21  37  57  82 110 141 185 236 280 328
#
# _framework density 19.347701000000001
#
# number of rings (size 3 to 8) (size 9 to 14) (size 15 to 20)
#    0.000    2.125    0.000    4.125    0.000    6.250 
#    0.000    8.125    0.000    0.000    0.000    0.000 
#    0.000    0.000    0.000    0.000    0.000    0.000 
#
# Total GULP energy -396874.805143 kJ/mol
# GULP energy per Si atom -12402.337661 kJ/mol
# Density = 1.930366 g / cm^3
# Si number density = 19.347701 Si / 1000 Ang^3
#
#
#
# Elastic Constant Matrix: (Units=GPa)
#
#
# Indices 1 2 3 4 5 6 
#
# 1 84.2615 22.4929 61.0512 -0.0032 3.1344 -0.0059
# 2 22.4929 37.0387 32.2531 -0.0125 3.1794 -0.0128
# 3 61.0512 32.2531 131.4847 0.0013 5.1454 0.0003
# 4 -0.0032 -0.0125 0.0013 27.4878 -0.0017 0.2833
# 5 3.1344 3.1794 5.1454 -0.0017 37.2090 -0.0046
# 6 -0.0059 -0.0128 0.0003 0.2833 -0.0046 28.8225
#
#
#
# Elastic Compliance Matrix: (Units=1/GPa)
#
#
# Indices 1 2 3 4 5 6 
#
# 1 0.018528 -0.004773 -0.007427 0.000000 -0.000126 0.000002
# 2 -0.004773 0.035680 -0.006467 0.000016 -0.001752 0.000015
# 3 -0.007427 -0.006467 0.012663 -0.000004 -0.000573 -0.000005
# 4 0.000000 0.000016 -0.000004 0.036383 0.000001 -0.000358
# 5 -0.000126 -0.001752 -0.000573 0.000001 0.027115 0.000004
# 6 0.000002 0.000015 -0.000005 -0.000358 0.000004 0.034699
#
#
# Mechanical properties :
#
#
# Convention : Reuss Voigt Hill
#
# Bulk Modulus (GPa) = 33.85815 53.81991 43.83903
# Shear Modulus (GPa) = 23.55739 27.83639 25.69689
#
# Velocity S-wave (km/s) = 3.49317 3.79719 3.64835
# Velocity P-wave (km/s) = 5.81442 6.86313 6.36042
#
# Compressibility (1/GPa) = 0.02953498
#
# Stress axis : x y z
#
# Youngs Moduli (GPa) = 53.97240 28.02723 78.97125
#
# Poissons Ratio (x) = 0.13379 0.58653
# Poissons Ratio (y) = 0.25763 0.51072
# Poissons Ratio (z) = 0.40086 0.18126
#
# Static dielectric constant tensor:
#      x y z
#    x 3.498430 0.000020 0.041490 
#    y 0.000020 3.387030 -0.000020 
#    z 0.041490 -0.000020 3.723330 
# 
# 
# High freq. dielectric constant tensor:
#      x y z
#    x 1.748310 0.000000 0.001060 
#    y 0.000000 1.744430 0.000000 
#    z 0.001060 0.000000 1.766860 
# 
# From -- ./inp_files/378129.got.cif
#   From: 2010.06.25/outbox.cif.g09.slc.cpg/sg12_190_cif.got.tgz:378129.got - 2010.06.28 00:19:55.
