data_PCOD8101738
_publ_section_title
;
Structure prediction by ZEFSAII (Michael W. Deem and Ramdas Pophale) SiO2 
 PCOD8101738
Probable space group: C 2/M
;
_chemical_formula_sum "Si O2"
_cell_formula_units_Z 56
_cell_length_a 18.697812
_cell_length_b 8.668308
_cell_length_c 19.112287
_cell_angle_alpha 90.000000
_cell_angle_beta 113.690980
_cell_angle_gamma 90.000000
_cell_volume 2836.633713
_symmetry_space_group_name_H-M "C 2/M"
_symmetry_group_IT_number 12
_symmetry_cell_setting 'monoclinic'
loop_
_space_group_symop_operation_xyz
x,y,z
-x,y,-z
-x,-y,-z
x,-y,z
1/2+x,1/2+y,z
1/2-x,1/2+y,-z
1/2-x,1/2-y,-z
1/2+x,1/2-y,z
loop_
_atom_site_type_symbol
_atom_site_label
_atom_site_fract_x
_atom_site_fract_y
_atom_site_fract_z
Si Si1 0.967556 0.823184 0.562407
Si Si2 0.375908 0.682599 0.738896
Si Si3 0.303171 0.680791 0.080579
Si Si4 0.100468 0.330838 0.691625
Si Si5 0.177939 0.680549 0.429298
Si Si6 0.043476 0.669987 0.822672
Si Si7 0.752120 0.681355 0.786195
O O1 0.896992 0.709602 0.551817
O O2 0.000000 0.780923 0.500000
O O3 0.037886 0.793403 0.642428
O O4 0.939586 0.000000 0.558028
O O5 0.370619 0.500000 0.734623
O O6 0.335697 0.745857 0.652366
O O7 0.465780 0.730664 0.781781
O O8 0.333275 0.747779 0.791130
O O9 0.309089 0.500000 0.073527
O O10 0.391384 0.745296 0.104486
O O11 0.262417 0.722678 0.138491
O O12 0.250000 0.750000 0.000000
O O13 0.094263 0.500000 0.652174
O O14 0.087106 0.353339 0.767489
O O15 0.185429 0.258564 0.711613
O O16 0.191087 0.500000 0.423563
O O17 0.250000 0.750000 0.500000
O O18 0.022694 0.500000 0.845448
O O19 0.751488 0.500000 0.772889
#
# Coordination Sequence:
#
# PCOD8101738 Si02
#       7
#     8   8   8   8   8   8   8
#     4  11  24  40  59  84 117 154 199 252 306 361
#     4  12  24  40  63  90 123 161 205 254 306 365
#     4  10  21  39  65  95 127 162 199 246 299 358
#     4  10  20  36  59  85 114 152 200 249 298 355
#     4  12  26  44  63  86 120 161 207 257 312 367
#     4  10  20  37  62  90 120 157 199 245 297 357
#     4  10  22  39  61  89 123 160 202 247 299 358
#
# _framework density 19.741710999999999
#
# number of rings (size 3 to 8) (size 9 to 14) (size 15 to 20)
#    0.000    1.286    1.429    4.714    2.000    4.000 
#    0.000    0.714    0.000    4.286    0.000    0.000 
#    0.000    0.000    0.000    0.000    0.000    0.000 
#
# Total GULP energy -347163.901043 kJ/mol
# GULP energy per Si atom -12398.710752 kJ/mol
# Density = 1.969678 g / cm^3
# Si number density = 19.741711 Si / 1000 Ang^3
#
#
#
# Elastic Constant Matrix: (Units=GPa)
#
#
# Indices 1 2 3 4 5 6 
#
# 1 99.4746 52.8602 48.7483 0.0000 9.8670 0.0000
# 2 52.8602 134.7130 52.7221 0.0000 -0.8552 0.0000
# 3 48.7483 52.7221 116.2549 0.0000 24.6292 0.0000
# 4 0.0000 0.0000 0.0000 33.7732 0.0000 5.8649
# 5 9.8670 -0.8552 24.6292 0.0000 26.3307 0.0000
# 6 0.0000 0.0000 0.0000 5.8649 0.0000 39.9629
#
#
#
# Elastic Compliance Matrix: (Units=1/GPa)
#
#
# Indices 1 2 3 4 5 6 
#
# 1 0.014269 -0.004185 -0.003646 0.000000 -0.002072 0.000000
# 2 -0.004185 0.010847 -0.004454 0.000000 0.006087 0.000000
# 3 -0.003646 -0.004454 0.014831 0.000000 -0.012651 0.000000
# 4 0.000000 0.000000 0.000000 0.030384 0.000000 -0.004459
# 5 -0.002072 0.006087 -0.012651 0.000000 0.050786 0.000000
# 6 0.000000 0.000000 0.000000 -0.004459 0.000000 0.025678
#
#
# Mechanical properties :
#
#
# Convention : Reuss Voigt Hill
#
# Bulk Modulus (GPa) = 65.03465 73.23376 69.13421
# Shear Modulus (GPa) = 28.33016 33.08748 30.70882
#
# Velocity S-wave (km/s) = 3.79230 4.09836 3.94830
# Velocity P-wave (km/s) = 7.22424 7.71828 7.47535
#
# Compressibility (1/GPa) = 0.01537642
#
# Stress axis : x y z
#
# Youngs Moduli (GPa) = 70.08038 92.19039 67.42784
#
# Poissons Ratio (x) = 0.38584 0.24587
# Poissons Ratio (y) = 0.29330 0.30030
# Poissons Ratio (z) = 0.25554 0.41059
#
# Static dielectric constant tensor:
#      x y z
#    x 3.637170 0.000000 0.102980 
#    y 0.000000 3.765400 0.000000 
#    z 0.102980 0.000000 3.498210 
# 
# 
# High freq. dielectric constant tensor:
#      x y z
#    x 1.771720 0.000000 0.013350 
#    y 0.000000 1.790620 0.000000 
#    z 0.013350 0.000000 1.756040 
# 
# From -- ./inp_files/314413.got.cif
#   From: 2010.06.25/outbox.cif.g09.slc.cpg/sg12_158_cif.got.tgz:314413.got - 2010.06.28 00:19:55.
