data_PCOD8101663
_publ_section_title
;
Structure prediction by ZEFSAII (Michael W. Deem and Ramdas Pophale) SiO2 
 PCOD8101663
Probable space group: C 2/M
;
_chemical_formula_sum "Si O2"
_cell_formula_units_Z 64
_cell_length_a 23.920231
_cell_length_b 8.464099
_cell_length_c 29.185629
_cell_angle_alpha 90.000000
_cell_angle_beta 148.842504
_cell_angle_gamma 90.000000
_cell_volume 3057.279512
_symmetry_space_group_name_H-M "C 2/M"
_symmetry_group_IT_number 12
_symmetry_cell_setting 'monoclinic'
loop_
_space_group_symop_operation_xyz
x,y,z
-x,y,-z
-x,-y,-z
x,-y,z
1/2+x,1/2+y,z
1/2-x,1/2+y,-z
1/2-x,1/2-y,-z
1/2+x,1/2-y,z
loop_
_atom_site_type_symbol
_atom_site_label
_atom_site_fract_x
_atom_site_fract_y
_atom_site_fract_z
Si Si1 0.295885 0.682712 0.669580
Si Si2 0.976079 0.319597 0.179671
Si Si3 0.445699 0.186543 0.334931
Si Si4 0.689647 0.811500 0.502766
Si Si5 0.260499 0.813190 0.270485
Si Si6 0.839361 0.683306 0.170516
Si Si7 0.547490 0.184699 0.082495
Si Si8 0.626760 0.684682 0.975376
O O1 0.267261 0.500000 0.648694
O O2 0.423593 0.706767 0.759707
O O3 0.246033 0.758445 0.588339
O O4 0.246199 0.753164 0.682055
O O5 0.011912 0.500000 0.197383
O O6 0.935851 0.289994 0.202593
O O7 0.879278 0.274362 0.077394
O O8 0.567065 0.254761 0.419610
O O9 0.380399 0.228116 0.335578
O O10 0.378401 0.261578 0.245328
O O11 0.454138 0.000000 0.333990
O O12 0.750000 0.750000 0.500000
O O13 0.693585 0.000000 0.504396
O O14 0.173085 0.730419 0.175839
O O15 0.238507 0.000000 0.253388
O O16 0.815348 0.500000 0.161493
O O17 0.727381 0.759485 0.074131
O O18 0.483981 0.285397 0.075560
O O19 0.530899 0.000000 0.080217
O O20 0.500000 0.233462 0.000000
O O21 0.643890 0.500000 0.978014
#
# Coordination Sequence:
#
# PCOD8101663 Si02
#       8
#     8   8   8   8   8   8   8   8
#     4  10  21  36  56  86 117 149 191 240 286 340
#     4  11  21  35  56  81 113 153 190 233 289 343
#     4   9  18  35  58  84 112 147 192 237 280 337
#     4  10  21  38  61  88 119 150 190 238 287 344
#     4  10  20  36  59  83 112 151 194 237 286 337
#     4   9  19  33  52  80 111 146 192 238 284 338
#     4  11  23  37  54  80 115 153 195 239 284 339
#     4  11  21  35  55  80 111 147 192 241 284 337
#
# _framework density 20.933644999999999
#
# number of rings (size 3 to 8) (size 9 to 14) (size 15 to 20)
#    0.000    1.875    1.250    3.000    0.000    4.000 
#    0.000    5.000    0.000    6.000    0.000    2.625 
#    0.000    0.000    0.000    0.000    0.000    0.000 
#
# Total GULP energy -396772.484507 kJ/mol
# GULP energy per Si atom -12399.140141 kJ/mol
# Density = 2.088600 g / cm^3
# Si number density = 20.933645 Si / 1000 Ang^3
#
#
#
# Elastic Constant Matrix: (Units=GPa)
#
#
# Indices 1 2 3 4 5 6 
#
# 1 117.8194 18.6772 74.9589 0.0000 -10.1192 -0.0004
# 2 18.6772 24.7263 7.8488 0.0001 -4.6038 -0.0006
# 3 74.9589 7.8488 147.0182 -0.0001 -5.2610 0.0000
# 4 0.0000 0.0001 -0.0001 16.8115 0.0000 -1.5591
# 5 -10.1192 -4.6038 -5.2610 0.0000 41.1906 -0.0002
# 6 -0.0004 -0.0006 0.0000 -1.5591 -0.0002 23.4859
#
#
#
# Elastic Compliance Matrix: (Units=1/GPa)
#
#
# Indices 1 2 3 4 5 6 
#
# 1 0.014253 -0.008301 -0.006763 0.000000 0.001710 0.000000
# 2 -0.008301 0.046761 0.001859 0.000000 0.003424 0.000001
# 3 -0.006763 0.001859 0.010145 0.000000 -0.000158 0.000000
# 4 0.000000 0.000000 0.000000 0.059852 0.000000 0.003973
# 5 0.001710 0.003424 -0.000158 0.000000 0.025060 0.000000
# 6 0.000000 0.000001 0.000000 0.003973 0.000000 0.042842
#
#
# Mechanical properties :
#
#
# Convention : Reuss Voigt Hill
#
# Bulk Modulus (GPa) = 22.34723 54.72597 38.53660
# Shear Modulus (GPa) = 20.81261 28.83620 24.82440
#
# Velocity S-wave (km/s) = 3.15654 3.71550 3.44737
# Velocity P-wave (km/s) = 4.89729 6.67877 5.85617
#
# Compressibility (1/GPa) = 0.04474827
#
# Stress axis : x y z
#
# Youngs Moduli (GPa) = 70.16140 21.38552 98.57060
#
# Poissons Ratio (x) = 0.17752 0.66660
# Poissons Ratio (y) = 0.58241 -0.18320
# Poissons Ratio (z) = 0.47448 -0.03975
#
# Static dielectric constant tensor:
#      x y z
#    x 3.935720 0.000000 -0.212010 
#    y 0.000000 3.350650 0.000000 
#    z -0.212010 0.000000 4.057440 
# 
# 
# High freq. dielectric constant tensor:
#      x y z
#    x 1.833040 0.000000 -0.005560 
#    y 0.000000 1.778680 0.000000 
#    z -0.005560 0.000000 1.826210 
# 
# From -- ./inp_files/238602.got.cif
#   From: 2010.06.25/outbox.cif.g09.slc.cpg/sg12_120_cif.got.tgz:238602.got - 2010.06.28 00:19:55.
