data_PCOD8101884
_publ_section_title
;
Structure prediction by ZEFSAII (Michael W. Deem and Ramdas Pophale) SiO2 
 PCOD8101884
Probable space group: C 2/M
;
_chemical_formula_sum "Si O2"
_cell_formula_units_Z 52
_cell_length_a 22.339726
_cell_length_b 16.822624
_cell_length_c 12.375993
_cell_angle_alpha 90.000000
_cell_angle_beta 145.485363
_cell_angle_gamma 90.000000
_cell_volume 2635.366653
_symmetry_space_group_name_H-M "C 2/M"
_symmetry_group_IT_number 12
_symmetry_cell_setting 'monoclinic'
loop_
_space_group_symop_operation_xyz
x,y,z
-x,y,-z
-x,-y,-z
x,-y,z
1/2+x,1/2+y,z
1/2-x,1/2+y,-z
1/2-x,1/2-y,-z
1/2+x,1/2-y,z
loop_
_atom_site_type_symbol
_atom_site_label
_atom_site_fract_x
_atom_site_fract_y
_atom_site_fract_z
Si Si1 0.000000 0.348117 0.500000
Si Si2 0.777106 0.153700 0.392286
Si Si3 0.615843 0.500000 0.547717
Si Si4 0.787876 0.370355 0.102542
Si Si5 0.125505 0.000000 0.818479
Si Si6 0.581275 0.093351 0.218817
Si Si7 0.317666 0.228112 0.948683
Si Si8 0.042582 0.723224 0.333974
O O1 0.899783 0.403323 0.316553
O O2 0.964615 0.291694 0.547943
O O3 0.701386 0.120728 0.373092
O O4 0.701143 0.202974 0.201059
O O5 0.865708 0.215507 0.564961
O O6 0.830296 0.079168 0.414087
O O7 0.627637 0.500000 0.693225
O O8 0.495622 0.500000 0.325227
O O9 0.769138 0.291287 0.143973
O O10 0.687561 0.426666 0.963517
O O11 0.806125 0.350918 0.004296
O O12 0.549958 0.139819 0.280782
O O13 0.579279 0.000000 0.242499
O O14 0.500000 0.112212 0.000000
O O15 0.434097 0.265305 0.134966
#
# Coordination Sequence:
#
# PCOD8101884 Si02
#       8
#     4   8   4   8   4   8   8   8
#     4  10  22  39  60  95 124 162 208 246 316 377
#     4  12  21  41  65  88 126 159 213 262 313 367
#     4  11  24  36  59  97 117 170 214 267 308 360
#     4  10  20  37  55  87 129 168 200 257 304 380
#     4  11  22  37  58  89 131 166 212 256 314 370
#     4  11  24  43  66  93 125 162 211 268 311 363
#     4  10  20  36  59  88 123 164 209 250 311 368
#     4  11  23  40  65  94 125 171 206 254 318 380
#
# _framework density 19.7316
#
# number of rings (size 3 to 8) (size 9 to 14) (size 15 to 20)
#    0.000    1.231    5.385    1.385    0.000    1.538 
#    6.923    0.000    0.000    0.000    0.000    2.692 
#    0.000    0.000    0.000    0.000    0.000    0.000 
#
# Total GULP energy -322265.279423 kJ/mol
# GULP energy per Si atom -12394.818439 kJ/mol
# Density = 1.968669 g / cm^3
# Si number density = 19.731600 Si / 1000 Ang^3
#
#
#
# Elastic Constant Matrix: (Units=GPa)
#
#
# Indices 1 2 3 4 5 6 
#
# 1 80.2312 23.6858 24.1449 0.0000 8.5925 0.0000
# 2 23.6858 76.7466 35.6244 0.0000 -1.7268 0.0000
# 3 24.1449 35.6244 121.2774 0.0000 19.1310 0.0000
# 4 0.0000 0.0000 0.0000 47.6229 0.0000 16.6827
# 5 8.5925 -1.7268 19.1310 0.0000 31.7204 0.0000
# 6 0.0000 0.0000 0.0000 16.6827 0.0000 23.7998
#
#
#
# Elastic Compliance Matrix: (Units=1/GPa)
#
#
# Indices 1 2 3 4 5 6 
#
# 1 0.014348 -0.003970 -0.001153 0.000000 -0.003407 0.000000
# 2 -0.003970 0.016626 -0.004869 0.000000 0.004917 0.000000
# 3 -0.001153 -0.004869 0.010939 0.000000 -0.006550 0.000000
# 4 0.000000 0.000000 0.000000 0.027833 0.000000 -0.019509
# 5 -0.003407 0.004917 -0.006550 0.000000 0.036666 0.000000
# 6 0.000000 0.000000 0.000000 -0.019509 0.000000 0.055692
#
#
# Mechanical properties :
#
#
# Convention : Reuss Voigt Hill
#
# Bulk Modulus (GPa) = 45.60170 49.46280 47.53225
# Shear Modulus (GPa) = 26.39968 33.61530 30.00749
#
# Velocity S-wave (km/s) = 3.66175 4.13198 3.90395
# Velocity P-wave (km/s) = 6.40618 6.92001 6.66805
#
# Compressibility (1/GPa) = 0.02192901
#
# Stress axis : x y z
#
# Youngs Moduli (GPa) = 69.69737 60.14777 91.41965
#
# Poissons Ratio (x) = 0.23876 0.10540
# Poissons Ratio (y) = 0.27667 0.44512
# Poissons Ratio (z) = 0.08036 0.29286
#
# Static dielectric constant tensor:
#      x y z
#    x 3.531370 0.000000 0.253060 
#    y 0.000000 3.370330 0.000000 
#    z 0.253060 0.000000 3.791500 
# 
# 
# High freq. dielectric constant tensor:
#      x y z
#    x 1.761500 0.000000 0.022140 
#    y 0.000000 1.752270 0.000000 
#    z 0.022140 0.000000 1.783690 
# 
# From -- ./inp_files/168862.got.cif
#   From: 2010.06.25/outbox.cif.g09.slc.cpg/sg12_85_cif.got.tgz:168862.got - 2010.06.28 00:19:55.
