data_PCOD8101156
_publ_section_title
;
Structure prediction by ZEFSAII (Michael W. Deem and Ramdas Pophale) SiO2 
 PCOD8101156
Probable space group: C 2/M
;
_chemical_formula_sum "Si O2"
_cell_formula_units_Z 56
_cell_length_a 18.955123
_cell_length_b 8.595331
_cell_length_c 16.658262
_cell_angle_alpha 90.000000
_cell_angle_beta 93.216734
_cell_angle_gamma 90.000000
_cell_volume 2709.780386
_symmetry_space_group_name_H-M "C 2/M"
_symmetry_group_IT_number 12
_symmetry_cell_setting 'monoclinic'
loop_
_space_group_symop_operation_xyz
x,y,z
-x,y,-z
-x,-y,-z
x,-y,z
1/2+x,1/2+y,z
1/2-x,1/2+y,-z
1/2-x,1/2-y,-z
1/2+x,1/2-y,z
loop_
_atom_site_type_symbol
_atom_site_label
_atom_site_fract_x
_atom_site_fract_y
_atom_site_fract_z
Si Si1 0.041900 0.316826 0.424422
Si Si2 0.220538 0.182643 0.916550
Si Si3 0.308118 0.817684 0.766023
Si Si4 0.183779 0.320982 0.670118
Si Si5 0.326768 0.682045 0.493240
Si Si6 0.594146 0.819741 0.821928
Si Si7 0.460058 0.317685 0.745092
O O1 0.031978 0.500000 0.413436
O O2 0.123412 0.270855 0.440616
O O3 0.014154 0.237011 0.341422
O O4 0.000000 0.254495 0.500000
O O5 0.275805 0.228121 0.850304
O O6 0.143132 0.255970 0.896561
O O7 0.210976 0.000000 0.923064
O O8 0.250000 0.250000 0.000000
O O9 0.264186 0.729566 0.693950
O O10 0.389091 0.768116 0.767744
O O11 0.301503 0.000000 0.749104
O O12 0.183593 0.500000 0.643350
O O13 0.150129 0.219676 0.596377
O O14 0.135239 0.288348 0.742580
O O15 0.329901 0.500000 0.511274
O O16 0.250000 0.750000 0.500000
O O17 0.520341 0.727483 0.813307
O O18 0.578069 0.000000 0.835624
O O19 0.446676 0.500000 0.745190
#
# Coordination Sequence:
#
# PCOD8101156 Si02
#       7
#     8   8   8   8   8   8   8
#     4  11  24  41  59  80 111 152 196 243 295 347
#     4  10  21  39  65  94 122 152 187 230 279 337
#     4  10  21  38  60  86 117 154 193 233 283 341
#     4  10  20  36  57  81 109 144 189 237 286 340
#     4  12  24  37  54  77 108 145 189 241 292 341
#     4  10  21  38  61  86 115 151 188 229 278 337
#     4  12  24  38  58  85 118 153 193 241 289 340
#
# _framework density 20.665880999999999
#
# number of rings (size 3 to 8) (size 9 to 14) (size 15 to 20)
#    0.000    1.286    0.000    6.429    0.000    8.000 
#    0.000    0.714    0.000    4.286    0.000    0.000 
#    0.000    0.000    0.000    0.000    0.000    0.000 
#
# Total GULP energy -347352.599041 kJ/mol
# GULP energy per Si atom -12405.449966 kJ/mol
# Density = 2.061884 g / cm^3
# Si number density = 20.665881 Si / 1000 Ang^3
#
#
#
# Elastic Constant Matrix: (Units=GPa)
#
#
# Indices 1 2 3 4 5 6 
#
# 1 81.9848 5.3167 10.5561 0.0000 20.1413 0.0000
# 2 5.3167 54.9416 11.2262 0.0000 -0.8463 0.0000
# 3 10.5561 11.2262 84.0830 0.0000 21.2612 0.0000
# 4 0.0000 0.0000 0.0000 37.8360 0.0000 5.5631
# 5 20.1413 -0.8463 21.2612 0.0000 32.0903 0.0000
# 6 0.0000 0.0000 0.0000 5.5631 0.0000 32.2921
#
#
#
# Elastic Compliance Matrix: (Units=1/GPa)
#
#
# Indices 1 2 3 4 5 6 
#
# 1 0.014603 -0.001743 0.000875 0.000000 -0.009791 0.000000
# 2 -0.001743 0.019099 -0.003286 0.000000 0.003774 0.000000
# 3 0.000875 -0.003286 0.014875 0.000000 -0.010491 0.000000
# 4 0.000000 0.000000 0.000000 0.027117 0.000000 -0.004672
# 5 -0.009791 0.003774 -0.010491 0.000000 0.044358 0.000000
# 6 0.000000 0.000000 0.000000 -0.004672 0.000000 0.031772
#
#
# Mechanical properties :
#
#
# Convention : Reuss Voigt Hill
#
# Bulk Modulus (GPa) = 24.83200 30.57861 27.70530
# Shear Modulus (GPa) = 28.80953 33.37104 31.09028
#
# Velocity S-wave (km/s) = 3.73777 4.02280 3.88290
# Velocity P-wave (km/s) = 5.53804 6.03374 5.79120
#
# Compressibility (1/GPa) = 0.04027062
#
# Stress axis : x y z
#
# Youngs Moduli (GPa) = 68.47814 52.35801 67.22896
#
# Poissons Ratio (x) = 0.09125 -0.05884
# Poissons Ratio (y) = 0.11934 0.22089
# Poissons Ratio (z) = -0.05993 0.17203
#
# Static dielectric constant tensor:
#      x y z
#    x 3.807480 0.000000 0.147140 
#    y 0.000000 3.807560 0.000000 
#    z 0.147140 0.000000 3.797350 
# 
# 
# High freq. dielectric constant tensor:
#      x y z
#    x 1.812990 0.000000 0.015000 
#    y 0.000000 1.818810 0.000000 
#    z 0.015000 0.000000 1.800060 
# 
# From -- ./inp_files/275527.got.cif
#   From: 2010.06.25/outbox.cif.g09.slc.cpg/sg12_138_cif.got.tgz:275527.got - 2010.06.28 00:19:55.
