data_PCOD8101949
_publ_section_title
;
Structure prediction by ZEFSAII (Michael W. Deem and Ramdas Pophale) SiO2 
 PCOD8101949
Probable space group: C 2/M
;
_chemical_formula_sum "Si O2"
_cell_formula_units_Z 64
_cell_length_a 34.005631
_cell_length_b 8.990672
_cell_length_c 10.007774
_cell_angle_alpha 90.000000
_cell_angle_beta 95.032370
_cell_angle_gamma 90.000000
_cell_volume 3047.917245
_symmetry_space_group_name_H-M "C 2/M"
_symmetry_group_IT_number 12
_symmetry_cell_setting 'monoclinic'
loop_
_space_group_symop_operation_xyz
x,y,z
-x,y,-z
-x,-y,-z
x,-y,z
1/2+x,1/2+y,z
1/2-x,1/2+y,-z
1/2-x,1/2-y,-z
1/2+x,1/2-y,z
loop_
_atom_site_type_symbol
_atom_site_label
_atom_site_fract_x
_atom_site_fract_y
_atom_site_fract_z
Si Si1 0.432845 0.675332 0.258248
Si Si2 0.790410 0.330286 0.977006
Si Si3 0.369711 0.324312 0.017608
Si Si4 0.495115 0.172477 0.846845
Si Si5 0.723954 0.833726 0.328307
Si Si6 0.404689 0.171812 0.773371
Si Si7 0.113726 0.326519 0.534517
Si Si8 0.808374 0.170239 0.436852
O O1 0.433587 0.500000 0.272666
O O2 0.476382 0.732216 0.237893
O O3 0.420989 0.744608 0.396693
O O4 0.402565 0.727212 0.133752
O O5 0.788641 0.500000 0.027628
O O6 0.828236 0.248132 0.051230
O O7 0.796609 0.323325 0.819999
O O8 0.750000 0.250000 0.000000
O O9 0.364103 0.500000 0.015185
O O10 0.382741 0.272170 0.874956
O O11 0.451072 0.204987 0.785645
O O12 0.506662 0.000000 0.836811
O O13 0.500000 0.227009 0.000000
O O14 0.770974 0.802412 0.328587
O O15 0.703888 0.712848 0.416429
O O16 0.717848 0.000000 0.387367
O O17 0.388218 0.213008 0.622720
O O18 0.396345 0.000000 0.806747
O O19 0.109112 0.500000 0.558823
O O20 0.155666 0.270402 0.604078
O O21 0.822387 0.000000 0.439096
#
# Coordination Sequence:
#
# PCOD8101949 Si02
#       8
#     8   8   8   8   8   8   8   8
#     4  11  25  42  62  91 128 165 204 254 308 363
#     4  11  24  40  59  85 120 159 202 253 306 359
#     4  11  24  41  63  91 124 163 208 256 306 365
#     4  10  20  39  68  95 122 160 206 250 302 367
#     4   9  20  38  57  81 113 152 195 246 300 354
#     4  10  22  41  66  95 125 160 203 255 306 363
#     4  11  24  40  60  89 125 162 202 249 305 364
#     4  10  20  36  60  85 115 152 196 245 297 358
#
# _framework density 20.997945000000001
#
# number of rings (size 3 to 8) (size 9 to 14) (size 15 to 20)
#    0.000    1.625    1.250    2.625    1.750    8.250 
#    0.000    2.500    0.000    0.000    0.000    0.000 
#    0.000    0.000    0.000    0.000    0.000    0.000 
#
# Total GULP energy -396967.271180 kJ/mol
# GULP energy per Si atom -12405.227224 kJ/mol
# Density = 2.095015 g / cm^3
# Si number density = 20.997945 Si / 1000 Ang^3
#
#
#
# Elastic Constant Matrix: (Units=GPa)
#
#
# Indices 1 2 3 4 5 6 
#
# 1 95.5107 38.7984 4.1583 0.0000 -3.5705 0.0000
# 2 38.7984 86.5128 23.2076 0.0000 -3.9670 0.0000
# 3 4.1583 23.2076 34.5269 0.0000 -3.7333 0.0000
# 4 0.0000 0.0000 0.0000 30.9938 0.0000 -6.6435
# 5 -3.5705 -3.9670 -3.7333 0.0000 31.9665 0.0000
# 6 0.0000 0.0000 0.0000 -6.6435 0.0000 40.8612
#
#
#
# Elastic Compliance Matrix: (Units=1/GPa)
#
#
# Indices 1 2 3 4 5 6 
#
# 1 0.013063 -0.006612 0.002978 0.000000 0.000986 0.000000
# 2 -0.006612 0.017462 -0.010924 0.000000 0.000153 0.000000
# 3 0.002978 -0.010924 0.036295 0.000000 0.003216 0.000000
# 4 0.000000 0.000000 0.000000 0.033430 0.000000 0.005435
# 5 0.000986 0.000153 0.003216 0.000000 0.031787 0.000000
# 6 0.000000 0.000000 0.000000 0.005435 0.000000 0.025357
#
#
# Mechanical properties :
#
#
# Convention : Reuss Voigt Hill
#
# Bulk Modulus (GPa) = 26.52333 38.76433 32.64383
# Shear Modulus (GPa) = 25.11573 30.79003 27.95288
#
# Velocity S-wave (km/s) = 3.46223 3.83343 3.65255
# Velocity P-wave (km/s) = 5.35177 6.17209 5.77651
#
# Compressibility (1/GPa) = 0.03770265
#
# Stress axis : x y z
#
# Youngs Moduli (GPa) = 76.55099 57.26795 27.55208
#
# Poissons Ratio (x) = 0.37866 -0.08204
# Poissons Ratio (y) = 0.50616 0.30099
# Poissons Ratio (z) = -0.22795 0.62561
#
# Static dielectric constant tensor:
#      x y z
#    x 3.896620 0.000000 0.115490 
#    y 0.000000 3.765260 0.000000 
#    z 0.115490 0.000000 3.702170 
# 
# 
# High freq. dielectric constant tensor:
#      x y z
#    x 1.836340 0.000000 0.001080 
#    y 0.000000 1.822860 0.000000 
#    z 0.001080 0.000000 1.814660 
# 
# From -- ./inp_files/187423.got.cif
#   From: 2010.06.25/outbox.cif.g09.slc.cpg/sg12_94_cif.got.tgz:187423.got - 2010.06.28 00:19:55.
