data_PCOD8101113
_publ_section_title
;
Structure prediction by ZEFSAII (Michael W. Deem and Ramdas Pophale) SiO2 
 PCOD8101113
Probable space group: C 2/M
;
_chemical_formula_sum "Si O2"
_cell_formula_units_Z 64
_cell_length_a 31.840063
_cell_length_b 9.089009
_cell_length_c 24.247527
_cell_angle_alpha 90.000000
_cell_angle_beta 27.433305
_cell_angle_gamma 90.000000
_cell_volume 3232.890456
_symmetry_space_group_name_H-M "C 2/M"
_symmetry_group_IT_number 12
_symmetry_cell_setting 'monoclinic'
loop_
_space_group_symop_operation_xyz
x,y,z
-x,y,-z
-x,-y,-z
x,-y,z
1/2+x,1/2+y,z
1/2-x,1/2+y,-z
1/2-x,1/2-y,-z
1/2+x,1/2-y,z
loop_
_atom_site_type_symbol
_atom_site_label
_atom_site_fract_x
_atom_site_fract_y
_atom_site_fract_z
Si Si1 0.184400 0.831689 0.150038
Si Si2 0.349830 0.328627 0.501099
Si Si3 0.041632 0.671586 0.714166
Si Si4 0.900608 0.170896 0.636263
Si Si5 0.786296 0.325766 0.681654
Si Si6 0.908753 0.826895 0.133268
Si Si7 0.636923 0.670772 0.081445
Si Si8 0.848694 0.667267 0.306851
O O1 0.112034 0.801022 0.283469
O O2 0.137030 0.798478 0.146920
O O3 0.218739 0.000000 0.111933
O O4 0.271577 0.726494 0.054896
O O5 0.370434 0.500000 0.486509
O O6 0.432428 0.256799 0.371656
O O7 0.345470 0.250083 0.565015
O O8 0.258470 0.300366 0.572467
O O9 0.030848 0.500000 0.713877
O O10 0.119162 0.702472 0.669070
O O11 0.946611 0.737634 0.846768
O O12 0.822174 0.264844 0.697772
O O13 0.000000 0.225056 0.500000
O O14 0.887309 0.000000 0.636846
O O15 0.799243 0.500000 0.663137
O O16 0.680159 0.280151 0.798474
O O17 0.904080 0.768748 0.200643
O O18 0.915892 0.000000 0.128816
O O19 0.000000 0.759640 0.000000
O O20 0.624599 0.500000 0.081826
O O21 0.870185 0.500000 0.265402
#
# Coordination Sequence:
#
# PCOD8101113 Si02
#       8
#     8   8   8   8   8   8   8   8
#     4   9  20  40  60  81 113 148 188 238 288 336
#     4  10  20  36  57  79 110 151 191 229 277 339
#     4  11  22  35  54  84 116 145 184 233 282 333
#     4  10  22  39  61  86 114 153 194 239 292 347
#     4  10  21  37  56  84 116 148 188 237 290 342
#     4   9  19  36  57  80 111 149 187 230 281 337
#     4  10  21  37  59  85 111 150 193 232 285 343
#     4   9  20  36  53  78 111 146 185 230 277 330
#
# _framework density 19.796524999999999
#
# number of rings (size 3 to 8) (size 9 to 14) (size 15 to 20)
#    0.000    2.250    0.000    1.875    1.750    4.500 
#    0.000    2.500    0.000    0.000    0.000    0.000 
#    0.000    0.000    0.000    0.000    0.000    0.000 
#
# Total GULP energy -396892.589949 kJ/mol
# GULP energy per Si atom -12402.893436 kJ/mol
# Density = 1.975147 g / cm^3
# Si number density = 19.796525 Si / 1000 Ang^3
#
#
#
# Elastic Constant Matrix: (Units=GPa)
#
#
# Indices 1 2 3 4 5 6 
#
# 1 55.1840 26.1632 19.8549 -0.0114 3.0661 0.0077
# 2 26.1632 68.7558 33.1526 -0.0050 -0.3841 0.0056
# 3 19.8549 33.1526 104.4145 -0.0325 9.0489 0.0110
# 4 -0.0114 -0.0050 -0.0325 33.3223 0.0083 1.5782
# 5 3.0661 -0.3841 9.0489 0.0083 24.0335 -0.0003
# 6 0.0077 0.0056 0.0110 1.5782 -0.0003 31.3801
#
#
#
# Elastic Compliance Matrix: (Units=1/GPa)
#
#
# Indices 1 2 3 4 5 6 
#
# 1 0.022536 -0.007820 -0.001594 0.000006 -0.002400 -0.000004
# 2 -0.007820 0.020023 -0.005153 -0.000006 0.003258 0.000000
# 3 -0.001594 -0.005153 0.011894 0.000012 -0.004357 -0.000003
# 4 0.000006 -0.000006 0.000012 0.030082 -0.000016 -0.001513
# 5 -0.002400 0.003258 -0.004357 -0.000016 0.043607 0.000003
# 6 -0.000004 0.000000 -0.000003 -0.001513 0.000003 0.031943
#
#
# Mechanical properties :
#
#
# Convention : Reuss Voigt Hill
#
# Bulk Modulus (GPa) = 39.49723 42.96620 41.23171
# Shear Modulus (GPa) = 25.29622 27.69277 26.49450
#
# Velocity S-wave (km/s) = 3.57853 3.74421 3.66230
# Velocity P-wave (km/s) = 6.08846 6.35949 6.22545
#
# Compressibility (1/GPa) = 0.02531823
#
# Stress axis : x y z
#
# Youngs Moduli (GPa) = 44.37409 49.94353 84.07573
#
# Poissons Ratio (x) = 0.39056 0.13405
# Poissons Ratio (y) = 0.34700 0.43322
# Poissons Ratio (z) = 0.07075 0.25734
#
# Static dielectric constant tensor:
#      x y z
#    x 3.503540 -0.000030 -0.036140 
#    y -0.000030 3.572360 0.000060 
#    z -0.036140 0.000060 3.620130 
# 
# 
# High freq. dielectric constant tensor:
#      x y z
#    x 1.764620 0.000000 -0.002990 
#    y 0.000000 1.773520 0.000000 
#    z -0.002990 0.000000 1.772650 
# 
# From -- ./inp_files/353338.got.cif
#   From: 2010.06.25/outbox.cif.g09.slc.cpg/sg12_177_cif.got.tgz:353338.got - 2010.06.28 00:19:55.
