data_PCOD8101719
_publ_section_title
;
Structure prediction by ZEFSAII (Michael W. Deem and Ramdas Pophale) SiO2 
 PCOD8101719
Probable space group: C 2/M
;
_chemical_formula_sum "Si O2"
_cell_formula_units_Z 64
_cell_length_a 28.572923
_cell_length_b 8.541087
_cell_length_c 14.882481
_cell_angle_alpha 90.000000
_cell_angle_beta 58.563406
_cell_angle_gamma 90.000000
_cell_volume 3098.868104
_symmetry_space_group_name_H-M "C 2/M"
_symmetry_group_IT_number 12
_symmetry_cell_setting 'monoclinic'
loop_
_space_group_symop_operation_xyz
x,y,z
-x,y,-z
-x,-y,-z
x,-y,z
1/2+x,1/2+y,z
1/2-x,1/2+y,-z
1/2-x,1/2-y,-z
1/2+x,1/2-y,z
loop_
_atom_site_type_symbol
_atom_site_label
_atom_site_fract_x
_atom_site_fract_y
_atom_site_fract_z
Si Si1 0.649904 0.686156 0.963551
Si Si2 0.232210 0.677618 0.156023
Si Si3 0.263677 0.322549 0.663768
Si Si4 0.058410 0.683205 0.713086
Si Si5 0.614861 0.185858 0.295563
Si Si6 0.882659 0.820461 0.510283
Si Si7 0.557478 0.315921 0.190793
Si Si8 0.143698 0.319695 0.773541
O O1 0.652443 0.500000 0.962550
O O2 0.710203 0.754442 0.937047
O O3 0.636236 0.735711 0.876083
O O4 0.602684 0.750406 0.075888
O O5 0.232437 0.500000 0.124612
O O6 0.234810 0.691658 0.261041
O O7 0.172284 0.748904 0.190913
O O8 0.265637 0.500000 0.702822
O O9 0.318045 0.298112 0.548772
O O10 0.205605 0.299193 0.670780
O O11 0.048139 0.500000 0.734505
O O12 0.081095 0.714739 0.591026
O O13 0.101420 0.749987 0.743239
O O14 0.001962 0.773412 0.787329
O O15 0.605428 0.269858 0.399650
O O16 0.565699 0.232200 0.278640
O O17 0.617095 0.000000 0.308901
O O18 0.900803 0.000000 0.480291
O O19 0.563274 0.500000 0.197732
O O20 0.130031 0.500000 0.803580
#
# Coordination Sequence:
#
# PCOD8101719 Si02
#       8
#     8   8   8   8   8   8   8   8
#     4   9  19  36  58  83 112 145 180 222 271 323
#     4   8  15  30  53  82 112 140 173 214 265 325
#     4   8  15  30  53  82 112 140 173 214 265 325
#     4  11  24  40  56  78 109 145 189 233 271 318
#     4  10  20  36  59  85 113 144 178 220 272 327
#     4  10  20  36  59  85 113 144 178 220 272 327
#     4  11  24  40  56  78 109 145 189 233 271 318
#     4   9  19  36  58  83 112 145 180 222 271 323
#
# _framework density 20.652702999999999
#
# number of rings (size 3 to 8) (size 9 to 14) (size 15 to 20)
#    0.000    2.500    0.000    1.500    0.000    5.000 
#    0.000    5.000    0.000    0.000    0.000    0.000 
#    0.000    0.000    0.000    0.000    0.000    0.000 
#
# Total GULP energy -396477.911558 kJ/mol
# GULP energy per Si atom -12389.934736 kJ/mol
# Density = 2.060570 g / cm^3
# Si number density = 20.652703 Si / 1000 Ang^3
#
#
#
# Elastic Constant Matrix: (Units=GPa)
#
#
# Indices 1 2 3 4 5 6 
#
# 1 90.8015 13.2501 6.7542 0.0000 -9.3925 0.0000
# 2 13.2501 36.7704 8.8642 0.0001 -2.3526 0.0000
# 3 6.7542 8.8642 64.7636 0.0000 -12.5076 0.0000
# 4 0.0000 0.0001 0.0000 25.7648 0.0000 0.6226
# 5 -9.3925 -2.3526 -12.5076 0.0000 27.8100 0.0000
# 6 0.0000 0.0000 0.0000 0.6226 0.0000 24.5198
#
#
#
# Elastic Compliance Matrix: (Units=1/GPa)
#
#
# Indices 1 2 3 4 5 6 
#
# 1 0.011992 -0.004090 0.000027 0.000000 0.003716 0.000000
# 2 -0.004090 0.029531 -0.003723 0.000000 -0.000558 0.000000
# 3 0.000027 -0.003723 0.017400 0.000000 0.007520 0.000000
# 4 0.000000 0.000000 0.000000 0.038836 0.000000 -0.000986
# 5 0.003716 -0.000558 0.007520 0.000000 0.040548 0.000000
# 6 0.000000 0.000000 0.000000 -0.000986 0.000000 0.040808
#
#
# Mechanical properties :
#
#
# Convention : Reuss Voigt Hill
#
# Bulk Modulus (GPa) = 23.06757 27.78582 25.42670
# Shear Modulus (GPa) = 23.90748 26.51674 25.21211
#
# Velocity S-wave (km/s) = 3.40604 3.58709 3.49774
# Velocity P-wave (km/s) = 5.16349 5.53528 5.35262
#
# Compressibility (1/GPa) = 0.04335091
#
# Stress axis : x y z
#
# Youngs Moduli (GPa) = 83.38687 33.86220 57.47188
#
# Poissons Ratio (x) = 0.13850 -0.00154
# Poissons Ratio (y) = 0.34106 0.21397
# Poissons Ratio (z) = -0.00224 0.12607
#
# Static dielectric constant tensor:
#      x y z
#    x 3.947830 0.000000 -0.343210 
#    y 0.000000 3.566940 0.000000 
#    z -0.343210 0.000000 3.655920 
# 
# 
# High freq. dielectric constant tensor:
#      x y z
#    x 1.810490 0.000000 -0.021400 
#    y 0.000000 1.797680 0.000000 
#    z -0.021400 0.000000 1.793580 
# 
# From -- ./inp_files/249658.got.cif
#   From: 2010.06.25/outbox.cif.g09.slc.cpg/sg12_125_cif.got.tgz:249658.got - 2010.06.28 00:19:55.
