data_PCOD8101801
_publ_section_title
;
Structure prediction by ZEFSAII (Michael W. Deem and Ramdas Pophale) SiO2 
 PCOD8101801
Probable space group: C 2/M
;
_chemical_formula_sum "Si O2"
_cell_formula_units_Z 64
_cell_length_a 14.574967
_cell_length_b 8.597947
_cell_length_c 26.451017
_cell_angle_alpha 90.000000
_cell_angle_beta 103.883297
_cell_angle_gamma 90.000000
_cell_volume 3217.869551
_symmetry_space_group_name_H-M "C 2/M"
_symmetry_group_IT_number 12
_symmetry_cell_setting 'monoclinic'
loop_
_space_group_symop_operation_xyz
x,y,z
-x,y,-z
-x,-y,-z
x,-y,z
1/2+x,1/2+y,z
1/2-x,1/2+y,-z
1/2-x,1/2-y,-z
1/2+x,1/2-y,z
loop_
_atom_site_type_symbol
_atom_site_label
_atom_site_fract_x
_atom_site_fract_y
_atom_site_fract_z
Si Si1 0.848767 0.818863 0.496961
Si Si2 0.560307 0.824545 0.399694
Si Si3 0.909349 0.183455 0.138652
Si Si4 0.354126 0.174766 0.391909
Si Si5 0.206566 0.816179 0.140662
Si Si6 0.024187 0.184081 0.057791
Si Si7 0.660934 0.678884 0.321627
Si Si8 0.411257 0.819019 0.787496
O O1 0.750000 0.750000 0.500000
O O2 0.927703 0.732100 0.540888
O O3 0.863059 0.792080 0.439615
O O4 0.854677 0.000000 0.509364
O O5 0.449580 0.819063 0.371945
O O6 0.613601 0.708768 0.369451
O O7 0.600074 0.000000 0.399058
O O8 0.810146 0.263520 0.137740
O O9 0.945375 0.238518 0.087973
O O10 0.990118 0.231477 0.189008
O O11 0.894708 0.000000 0.139376
O O12 0.271211 0.221786 0.342305
O O13 0.335613 0.000000 0.410474
O O14 0.129194 0.762562 0.088594
O O15 0.175430 0.741994 0.189722
O O16 0.205731 0.000000 0.147571
O O17 0.021644 0.000000 0.053824
O O18 0.000000 0.259077 0.000000
O O19 0.646117 0.500000 0.303755
O O20 0.615580 0.790439 0.274010
O O21 0.426887 0.000000 0.799479
#
# Coordination Sequence:
#
# PCOD8101801 Si02
#       8
#     8   8   8   8   8   8   8   8
#     4  12  23  37  60  86 115 151 190 233 283 339
#     4  11  23  40  61  87 117 151 190 231 282 342
#     4  10  20  36  59  86 117 155 200 245 293 349
#     4  10  23  41  61  85 116 150 184 228 283 341
#     4  10  20  36  59  86 118 156 199 244 294 348
#     4   8  16  32  54  83 121 161 199 242 290 343
#     4  11  23  41  62  85 116 151 189 235 290 346
#     4  11  23  40  61  84 114 151 195 245 297 348
#
# _framework density 19.888935
#
# number of rings (size 3 to 8) (size 9 to 14) (size 15 to 20)
#    0.000    1.625    1.250    4.875    0.000    4.500 
#    0.000    3.750    0.000   12.750    0.000    0.000 
#    0.000    0.000    0.000    0.000    0.000    0.000 
#
# Total GULP energy -396852.103477 kJ/mol
# GULP energy per Si atom -12401.628234 kJ/mol
# Density = 1.984367 g / cm^3
# Si number density = 19.888935 Si / 1000 Ang^3
#
#
#
# Elastic Constant Matrix: (Units=GPa)
#
#
# Indices 1 2 3 4 5 6 
#
# 1 98.6785 14.1142 17.4609 0.0000 12.6892 0.0000
# 2 14.1142 61.6644 18.9336 0.0000 -2.0266 0.0000
# 3 17.4609 18.9336 93.2041 0.0000 10.7726 0.0000
# 4 0.0000 0.0000 0.0000 24.3601 0.0000 -0.6552
# 5 12.6892 -2.0266 10.7726 0.0000 18.8579 0.0000
# 6 0.0000 0.0000 0.0000 -0.6552 0.0000 30.4685
#
#
#
# Elastic Compliance Matrix: (Units=1/GPa)
#
#
# Indices 1 2 3 4 5 6 
#
# 1 0.011640 -0.002688 -0.000745 0.000000 -0.007696 0.000000
# 2 -0.002688 0.018224 -0.003891 0.000000 0.005990 0.000000
# 3 -0.000745 -0.003891 0.012473 0.000000 -0.007042 0.000000
# 4 0.000000 0.000000 0.000000 0.041075 0.000000 0.000883
# 5 -0.007696 0.005990 -0.007042 0.000000 0.062873 0.000000
# 6 0.000000 0.000000 0.000000 0.000883 0.000000 0.032840
#
#
# Mechanical properties :
#
#
# Convention : Reuss Voigt Hill
#
# Bulk Modulus (GPa) = 36.11625 39.39604 37.75615
# Shear Modulus (GPa) = 24.63039 28.27318 26.45179
#
# Velocity S-wave (km/s) = 3.52290 3.77444 3.65084
# Velocity P-wave (km/s) = 5.89459 6.23267 6.06599
#
# Compressibility (1/GPa) = 0.02768836
#
# Stress axis : x y z
#
# Youngs Moduli (GPa) = 85.91161 54.87390 80.17330
#
# Poissons Ratio (x) = 0.14752 0.05973
# Poissons Ratio (y) = 0.23096 0.31192
# Poissons Ratio (z) = 0.06401 0.21349
#
# Static dielectric constant tensor:
#      x y z
#    x 3.688750 0.000000 0.122320 
#    y 0.000000 3.578950 0.000000 
#    z 0.122320 0.000000 3.745560 
# 
# 
# High freq. dielectric constant tensor:
#      x y z
#    x 1.782840 0.000000 0.008500 
#    y 0.000000 1.774200 0.000000 
#    z 0.008500 0.000000 1.769080 
# 
# From -- ./inp_files/359976.got.cif
#   From: 2010.06.25/outbox.cif.g09.slc.cpg/sg12_180_cif.got.tgz:359976.got - 2010.06.28 00:19:55.
