data_PCOD8101044
_publ_section_title
;
Structure prediction by ZEFSAII (Michael W. Deem and Ramdas Pophale) SiO2 
 PCOD8101044
Probable space group: C 2/M
;
_chemical_formula_sum "Si O2"
_cell_formula_units_Z 56
_cell_length_a 22.451933
_cell_length_b 8.653005
_cell_length_c 29.575118
_cell_angle_alpha 90.000000
_cell_angle_beta 151.859197
_cell_angle_gamma 90.000000
_cell_volume 2709.928155
_symmetry_space_group_name_H-M "C 2/M"
_symmetry_group_IT_number 12
_symmetry_cell_setting 'monoclinic'
loop_
_space_group_symop_operation_xyz
x,y,z
-x,y,-z
-x,-y,-z
x,-y,z
1/2+x,1/2+y,z
1/2-x,1/2+y,-z
1/2-x,1/2-y,-z
1/2+x,1/2-y,z
loop_
_atom_site_type_symbol
_atom_site_label
_atom_site_fract_x
_atom_site_fract_y
_atom_site_fract_z
Si Si1 0.747348 0.182174 0.713399
Si Si2 0.459005 0.818316 0.181367
Si Si3 0.356383 0.817428 0.539033
Si Si4 0.741080 0.817445 0.879516
Si Si5 0.122768 0.181979 0.716105
Si Si6 0.246337 0.317684 0.377620
Si Si7 0.466415 0.319836 0.092289
O O1 0.654043 0.237019 0.689807
O O2 0.706403 0.268791 0.640261
O O3 0.890274 0.230701 0.822514
O O4 0.734700 0.000000 0.697582
O O5 0.366149 0.755709 0.157886
O O6 0.601424 0.764213 0.287565
O O7 0.414374 0.757741 0.102922
O O8 0.450811 0.000000 0.173775
O O9 0.250000 0.750000 0.500000
O O10 0.488381 0.744596 0.643253
O O11 0.330850 0.772615 0.470184
O O12 0.363003 0.000000 0.549619
O O13 0.727248 0.728210 0.823106
O O14 0.728967 0.000000 0.862658
O O15 0.878137 0.772581 0.991155
O O16 0.119626 0.000000 0.706942
O O17 0.263457 0.500000 0.395941
O O18 0.456995 0.500000 0.094985
#
# Coordination Sequence:
#
# PCOD8101044 Si02
#       7
#     8   8   8   8   8   8   8
#     4  10  21  40  61  85 117 156 200 247 295 349
#     4   9  18  32  55  85 119 153 189 235 289 344
#     4  12  25  43  66  93 122 154 190 234 288 349
#     4  10  20  36  56  83 118 158 197 240 295 352
#     4  12  26  42  60  85 115 153 198 247 295 349
#     4  10  20  37  61  90 121 156 196 243 292 345
#     4   9  19  34  57  85 116 154 197 241 290 347
#
# _framework density 20.664755
#
# number of rings (size 3 to 8) (size 9 to 14) (size 15 to 20)
#    0.000    1.714    0.000    4.714    0.000    4.571 
#    0.000    5.714    0.000    0.000    0.000    0.000 
#    0.000    0.000    0.000    0.000    0.000    0.000 
#
# Total GULP energy -347343.225546 kJ/mol
# GULP energy per Si atom -12405.115198 kJ/mol
# Density = 2.061772 g / cm^3
# Si number density = 20.664755 Si / 1000 Ang^3
#
#
#
# Elastic Constant Matrix: (Units=GPa)
#
#
# Indices 1 2 3 4 5 6 
#
# 1 82.1431 3.7496 17.6945 -0.0005 -4.1457 -0.0001
# 2 3.7496 46.9821 17.1111 0.0001 -3.8117 0.0000
# 3 17.6945 17.1111 79.7320 -0.0017 -16.5932 -0.0001
# 4 -0.0005 0.0001 -0.0017 29.8526 -0.0003 -7.1134
# 5 -4.1457 -3.8117 -16.5932 -0.0003 30.4854 0.0000
# 6 -0.0001 0.0000 -0.0001 -7.1134 0.0000 37.6597
#
#
#
# Elastic Compliance Matrix: (Units=1/GPa)
#
#
# Indices 1 2 3 4 5 6 
#
# 1 0.012786 0.000015 -0.002795 0.000000 0.000219 0.000000
# 2 0.000015 0.023091 -0.004914 0.000000 0.000214 0.000000
# 3 -0.002795 -0.004914 0.015800 0.000001 0.007605 0.000000
# 4 0.000000 0.000000 0.000001 0.035077 0.000001 0.006625
# 5 0.000219 0.000214 0.007605 0.000001 0.036999 0.000000
# 6 0.000000 0.000000 0.000000 0.006625 0.000000 0.027805
#
#
# Mechanical properties :
#
#
# Convention : Reuss Voigt Hill
#
# Bulk Modulus (GPa) = 27.55695 31.77417 29.66556
# Shear Modulus (GPa) = 27.92646 30.95300 29.43973
#
# Velocity S-wave (km/s) = 3.68013 3.87442 3.77853
# Velocity P-wave (km/s) = 5.60554 5.95183 5.78128
#
# Compressibility (1/GPa) = 0.03628849
#
# Stress axis : x y z
#
# Youngs Moduli (GPa) = 78.20826 43.30752 63.29224
#
# Poissons Ratio (x) = -0.00067 0.17692
# Poissons Ratio (y) = -0.00120 0.31103
# Poissons Ratio (z) = 0.21861 0.21282
#
# Static dielectric constant tensor:
#      x y z
#    x 3.753580 0.000000 -0.018200 
#    y 0.000000 3.666000 0.000000 
#    z -0.018200 0.000000 3.921070 
# 
# 
# High freq. dielectric constant tensor:
#      x y z
#    x 1.809230 0.000000 -0.005110 
#    y 0.000000 1.805400 0.000000 
#    z -0.005110 0.000000 1.815120 
# 
# From -- ./inp_files/380775.got.cif
#   From: 2010.06.25/outbox.cif.g09.slc.cpg/sg12_191_cif.got.tgz:380775.got - 2010.06.28 00:19:55.
