data_PCOD8101106
_publ_section_title
;
Structure prediction by ZEFSAII (Michael W. Deem and Ramdas Pophale) SiO2 
 PCOD8101106
Probable space group: C 2/M
;
_chemical_formula_sum "Si O2"
_cell_formula_units_Z 40
_cell_length_a 14.461212
_cell_length_b 9.123488
_cell_length_c 16.935718
_cell_angle_alpha 90.000000
_cell_angle_beta 104.164757
_cell_angle_gamma 90.000000
_cell_volume 2166.506778
_symmetry_space_group_name_H-M "C 2/M"
_symmetry_group_IT_number 12
_symmetry_cell_setting 'monoclinic'
loop_
_space_group_symop_operation_xyz
x,y,z
-x,y,-z
-x,-y,-z
x,-y,z
1/2+x,1/2+y,z
1/2-x,1/2+y,-z
1/2-x,1/2-y,-z
1/2+x,1/2-y,z
loop_
_atom_site_type_symbol
_atom_site_label
_atom_site_fract_x
_atom_site_fract_y
_atom_site_fract_z
Si Si1 0.102538 0.830063 0.987872
Si Si2 0.209004 0.334432 0.417830
Si Si3 0.505495 0.167189 0.591520
Si Si4 0.790670 0.670520 0.124125
Si Si5 0.173630 0.173300 0.705645
O O1 0.183994 0.802305 0.069963
O O2 0.098339 0.000000 0.962213
O O3 0.128340 0.736458 0.916126
O O4 0.000000 0.778093 0.000000
O O5 0.242806 0.500000 0.437216
O O6 0.250000 0.250000 0.500000
O O7 0.096220 0.320802 0.388538
O O8 0.251114 0.274417 0.344783
O O9 0.500000 0.222141 0.500000
O O10 0.570300 0.274197 0.656117
O O11 0.544428 0.000000 0.601605
O O12 0.813296 0.500000 0.139057
O O13 0.795462 0.749516 0.208212
O O14 0.172688 0.000000 0.718886
#
# Coordination Sequence:
#
# PCOD8101106 Si02
#       5
#     8   8   8   8   8
#     4   9  19  38  63  88 116 147 183 226 277 335
#     4  10  21  36  55  79 107 144 187 233 283 333
#     4  10  20  36  57  79 107 144 187 235 285 336
#     4  10  21  37  58  85 116 150 186 227 279 333
#     4  11  23  37  55  81 115 149 189 237 280 331
#
# _framework density 18.462900999999999
#
# number of rings (size 3 to 8) (size 9 to 14) (size 15 to 20)
#    0.000    2.000    2.000    1.200    0.000    4.800 
#    0.000    4.000    0.000    0.000    0.000    0.000 
#    0.000    0.000    0.000    0.000    0.000    0.000 
#
# Total GULP energy -248056.813072 kJ/mol
# GULP energy per Si atom -12402.840654 kJ/mol
# Density = 1.842088 g / cm^3
# Si number density = 18.462901 Si / 1000 Ang^3
#
#
#
# Elastic Constant Matrix: (Units=GPa)
#
#
# Indices 1 2 3 4 5 6 
#
# 1 118.2544 50.3821 63.2706 0.0000 -18.6128 0.0000
# 2 50.3821 91.9032 79.0964 0.0000 -8.7169 0.0000
# 3 63.2706 79.0964 159.4282 0.0000 -13.7866 0.0000
# 4 0.0000 0.0000 0.0000 33.9085 0.0000 -0.5278
# 5 -18.6128 -8.7169 -13.7866 0.0000 24.5560 0.0000
# 6 0.0000 0.0000 0.0000 -0.5278 0.0000 28.1430
#
#
#
# Elastic Compliance Matrix: (Units=1/GPa)
#
#
# Indices 1 2 3 4 5 6 
#
# 1 0.012559 -0.004290 -0.002275 0.000000 0.006719 0.000000
# 2 -0.004290 0.020509 -0.008539 0.000000 -0.000765 0.000000
# 3 -0.002275 -0.008539 0.011562 0.000000 0.001736 0.000000
# 4 0.000000 0.000000 0.000000 0.029500 0.000000 0.000553
# 5 0.006719 -0.000765 0.001736 0.000000 0.046519 0.000000
# 6 0.000000 0.000000 0.000000 0.000553 0.000000 0.035543
#
#
# Mechanical properties :
#
#
# Convention : Reuss Voigt Hill
#
# Bulk Modulus (GPa) = 69.33488 83.89822 76.61655
# Shear Modulus (GPa) = 26.14991 29.11061 27.63026
#
# Velocity S-wave (km/s) = 3.76752 3.97509 3.87270
# Velocity P-wave (km/s) = 7.52069 8.16141 7.84759
#
# Compressibility (1/GPa) = 0.01442276
#
# Stress axis : x y z
#
# Youngs Moduli (GPa) = 79.62667 48.75913 86.49335
#
# Poissons Ratio (x) = 0.20916 0.19675
# Poissons Ratio (y) = 0.34157 0.73855
# Poissons Ratio (z) = 0.18113 0.41634
#
# Static dielectric constant tensor:
#      x y z
#    x 3.488070 0.000000 -0.135680 
#    y 0.000000 3.476950 0.000000 
#    z -0.135680 0.000000 3.370160 
# 
# 
# High freq. dielectric constant tensor:
#      x y z
#    x 1.722340 0.000000 -0.007330 
#    y 0.000000 1.719820 0.000000 
#    z -0.007330 0.000000 1.717540 
# 
# From -- ./inp_files/211207.got.cif
#   From: 2010.06.25/outbox.cif.g09.slc.cpg/sg12_106_cif.got.tgz:211207.got - 2010.06.28 00:19:55.
