data_PCOD8101781
_publ_section_title
;
Structure prediction by ZEFSAII (Michael W. Deem and Ramdas Pophale) SiO2 
 PCOD8101781
Probable space group: C 2/M
;
_chemical_formula_sum "Si O2"
_cell_formula_units_Z 48
_cell_length_a 29.512516
_cell_length_b 8.651506
_cell_length_c 10.119066
_cell_angle_alpha 90.000000
_cell_angle_beta 80.746436
_cell_angle_gamma 90.000000
_cell_volume 2550.054902
_symmetry_space_group_name_H-M "C 2/M"
_symmetry_group_IT_number 12
_symmetry_cell_setting 'monoclinic'
loop_
_space_group_symop_operation_xyz
x,y,z
-x,y,-z
-x,-y,-z
x,-y,z
1/2+x,1/2+y,z
1/2-x,1/2+y,-z
1/2-x,1/2-y,-z
1/2+x,1/2-y,z
loop_
_atom_site_type_symbol
_atom_site_label
_atom_site_fract_x
_atom_site_fract_y
_atom_site_fract_z
Si Si1 0.115888 0.682151 0.675082
Si Si2 0.027528 0.180308 0.615964
Si Si3 0.111659 0.181382 0.962815
Si Si4 0.784392 0.820563 0.087912
Si Si5 0.973479 0.678280 0.877099
Si Si6 0.787421 0.183942 0.384147
O O1 0.120506 0.500000 0.690211
O O2 0.074996 0.723864 0.593927
O O3 0.102354 0.757505 0.820539
O O4 0.163126 0.750917 0.595862
O O5 0.000000 0.233008 0.500000
O O6 0.996303 0.216269 0.756358
O O7 0.039549 0.000000 0.607472
O O8 0.163813 0.217574 0.981157
O O9 0.101085 0.000000 0.969745
O O10 0.079260 0.269625 0.081250
O O11 0.776041 0.757478 0.240660
O O12 0.775028 0.000000 0.093641
O O13 0.750000 0.750000 0.000000
O O14 0.975719 0.500000 0.832719
O O15 0.000000 0.707887 0.000000
O O16 0.750000 0.250000 0.500000
O O17 0.788967 0.000000 0.390778
#
# Coordination Sequence:
#
# PCOD8101781 Si02
#       6
#     8   8   8   8   8   8
#     4  11  21  36  60  87 115 151 192 237 289 344
#     4  11  24  41  60  84 116 155 193 235 289 344
#     4  10  20  36  59  86 115 151 194 238 281 339
#     4   9  20  37  58  85 116 148 186 232 286 338
#     4  11  22  36  59  90 116 147 192 238 283 341
#     4  10  21  39  61  87 115 150 194 239 284 343
#
# _framework density 18.823122999999999
#
# number of rings (size 3 to 8) (size 9 to 14) (size 15 to 20)
#    0.000    1.667    1.667    4.500    0.000    6.000 
#    3.000    0.000    0.000    0.000    0.000    0.000 
#    0.000    0.000    0.000    0.000    0.000    0.000 
#
# Total GULP energy -297676.157307 kJ/mol
# GULP energy per Si atom -12403.173221 kJ/mol
# Density = 1.878028 g / cm^3
# Si number density = 18.823123 Si / 1000 Ang^3
#
#
#
# Elastic Constant Matrix: (Units=GPa)
#
#
# Indices 1 2 3 4 5 6 
#
# 1 143.0214 32.8466 63.2287 0.0000 -1.3201 0.0000
# 2 32.8466 29.5832 16.7453 0.0000 11.1966 0.0000
# 3 63.2287 16.7453 73.2281 0.0000 1.2122 0.0000
# 4 0.0000 0.0000 0.0000 27.8420 0.0000 1.0212
# 5 -1.3201 11.1966 1.2122 0.0000 36.0756 0.0000
# 6 0.0000 0.0000 0.0000 1.0212 0.0000 35.2577
#
#
#
# Elastic Compliance Matrix: (Units=1/GPa)
#
#
# Indices 1 2 3 4 5 6 
#
# 1 0.013887 -0.011819 -0.009362 0.000000 0.004491 0.000000
# 2 -0.011819 0.054608 -0.001996 0.000000 -0.017314 0.000000
# 3 -0.009362 -0.001996 0.022204 0.000000 -0.000469 0.000000
# 4 0.000000 0.000000 0.000000 0.035955 0.000000 -0.001041
# 5 0.004491 -0.017314 -0.000469 0.000000 0.033273 0.000000
# 6 0.000000 0.000000 0.000000 -0.001041 0.000000 0.028393
#
#
# Mechanical properties :
#
#
# Convention : Reuss Voigt Hill
#
# Bulk Modulus (GPa) = 22.55038 52.38598 37.46818
# Shear Modulus (GPa) = 20.04365 28.70255 24.37310
#
# Velocity S-wave (km/s) = 3.26673 3.90918 3.60230
# Velocity P-wave (km/s) = 5.12200 6.94742 6.10334
#
# Compressibility (1/GPa) = 0.04434516
#
# Stress axis : x y z
#
# Youngs Moduli (GPa) = 72.01139 18.31221 45.03727
#
# Poissons Ratio (x) = 0.21643 0.42164
# Poissons Ratio (y) = 0.85110 0.08989
# Poissons Ratio (z) = 0.67418 0.03655
#
# Static dielectric constant tensor:
#      x y z
#    x 3.589170 0.000000 -0.223660 
#    y 0.000000 3.494020 0.000000 
#    z -0.223660 0.000000 3.017610 
# 
# 
# High freq. dielectric constant tensor:
#      x y z
#    x 1.744240 0.000000 -0.005490 
#    y 0.000000 1.742860 0.000000 
#    z -0.005490 0.000000 1.712840 
# 
# From -- ./inp_files/108600.got.cif
#   From: 2010.06.25/outbox.cif.g09.slc.cpg/sg12_55_cif.got.tgz:108600.got - 2010.06.28 00:19:55.
