data_PCOD8101395
_publ_section_title
;
Structure prediction by ZEFSAII (Michael W. Deem and Ramdas Pophale) SiO2 
 PCOD8101395
Probable space group: C 2/M
;
_chemical_formula_sum "Si O2"
_cell_formula_units_Z 64
_cell_length_a 14.657491
_cell_length_b 9.230661
_cell_length_c 24.194968
_cell_angle_alpha 90.000000
_cell_angle_beta 97.507703
_cell_angle_gamma 90.000000
_cell_volume 3245.475725
_symmetry_space_group_name_H-M "C 2/M"
_symmetry_group_IT_number 12
_symmetry_cell_setting 'monoclinic'
loop_
_space_group_symop_operation_xyz
x,y,z
-x,y,-z
-x,-y,-z
x,-y,z
1/2+x,1/2+y,z
1/2-x,1/2+y,-z
1/2-x,1/2-y,-z
1/2+x,1/2-y,z
loop_
_atom_site_type_symbol
_atom_site_label
_atom_site_fract_x
_atom_site_fract_y
_atom_site_fract_z
Si Si1 0.843589 0.835345 0.357529
Si Si2 0.078519 0.663655 0.930938
Si Si3 0.156948 0.671258 0.753940
Si Si4 0.327798 0.331246 0.842291
Si Si5 0.025990 0.166538 0.440368
Si Si6 0.206158 0.668837 0.445088
Si Si7 0.967973 0.170906 0.175448
Si Si8 0.867144 0.662415 0.948096
O O1 0.829568 0.722699 0.307323
O O2 0.765631 0.801735 0.395738
O O3 0.941649 0.809358 0.393026
O O4 0.835710 0.000000 0.334899
O O5 0.105761 0.500000 0.915127
O O6 0.093553 0.771527 0.880831
O O7 0.973193 0.667565 0.940167
O O8 0.140694 0.714817 0.988374
O O9 0.140881 0.500000 0.754114
O O10 0.248035 0.718044 0.794570
O O11 0.068002 0.751354 0.772171
O O12 0.326739 0.500000 0.853022
O O13 0.425415 0.284241 0.823619
O O14 0.309819 0.261323 0.901223
O O15 0.105901 0.268981 0.424099
O O16 0.000000 0.215317 0.500000
O O17 0.059399 0.000000 0.443646
O O18 0.201086 0.500000 0.459156
O O19 0.250000 0.750000 0.500000
O O20 0.954966 0.000000 0.179912
O O21 0.828880 0.500000 0.939921
#
# Coordination Sequence:
#
# PCOD8101395 Si02
#       8
#     8   8   8   8   8   8   8   8
#     4  10  23  42  61  84 119 156 191 235 286 339
#     4   8  14  27  48  78 112 143 179 228 287 343
#     4  11  24  41  59  81 112 149 194 240 284 336
#     4   9  20  37  56  79 110 147 187 235 288 341
#     4  10  20  39  63  89 123 159 190 229 286 339
#     4  11  22  38  62  93 125 157 194 233 280 338
#     4  10  20  36  58  82 109 146 191 236 289 344
#     4   8  14  26  49  79 109 142 182 229 283 343
#
# _framework density 19.719760000000001
#
# number of rings (size 3 to 8) (size 9 to 14) (size 15 to 20)
#    0.000    2.375    1.250    1.875    0.000    4.750 
#    0.000    6.875    0.000    0.000    0.000    0.000 
#    0.000    0.000    0.000    0.000    0.000    0.000 
#
# Total GULP energy -396815.089680 kJ/mol
# GULP energy per Si atom -12400.471552 kJ/mol
# Density = 1.967488 g / cm^3
# Si number density = 19.719760 Si / 1000 Ang^3
#
#
#
# Elastic Constant Matrix: (Units=GPa)
#
#
# Indices 1 2 3 4 5 6 
#
# 1 70.4255 32.8563 28.7129 0.0000 -2.8512 0.0000
# 2 32.8563 75.3475 44.8422 0.0000 -4.4078 0.0000
# 3 28.7129 44.8422 103.2537 0.0000 4.4361 0.0000
# 4 0.0000 0.0000 0.0000 39.0544 0.0000 -1.0022
# 5 -2.8512 -4.4078 4.4361 0.0000 24.0897 0.0000
# 6 0.0000 0.0000 0.0000 -1.0022 0.0000 26.9045
#
#
#
# Elastic Compliance Matrix: (Units=1/GPa)
#
#
# Indices 1 2 3 4 5 6 
#
# 1 0.018226 -0.006492 -0.002309 0.000000 0.001394 0.000000
# 2 -0.006492 0.020765 -0.007401 0.000000 0.004394 0.000000
# 3 -0.002309 -0.007401 0.013720 0.000000 -0.004154 0.000000
# 4 0.000000 0.000000 0.000000 0.025630 0.000000 0.000955
# 5 0.001394 0.004394 -0.004154 0.000000 0.043246 0.000000
# 6 0.000000 0.000000 0.000000 0.000955 0.000000 0.037204
#
#
# Mechanical properties :
#
#
# Convention : Reuss Voigt Hill
#
# Bulk Modulus (GPa) = 49.24663 51.31661 50.28162
# Shear Modulus (GPa) = 25.25725 27.51740 26.38732
#
# Velocity S-wave (km/s) = 3.58272 3.73959 3.66200
# Velocity P-wave (km/s) = 6.49169 6.68771 6.59043
#
# Compressibility (1/GPa) = 0.02030596
#
# Stress axis : x y z
#
# Youngs Moduli (GPa) = 54.86674 48.15860 72.88766
#
# Poissons Ratio (x) = 0.31265 0.16828
# Poissons Ratio (y) = 0.35620 0.53947
# Poissons Ratio (z) = 0.12667 0.35644
#
# Static dielectric constant tensor:
#      x y z
#    x 3.570540 0.000000 0.029450 
#    y 0.000000 3.614700 0.000000 
#    z 0.029450 0.000000 3.683000 
# 
# 
# High freq. dielectric constant tensor:
#      x y z
#    x 1.765370 0.000000 -0.000700 
#    y 0.000000 1.765960 0.000000 
#    z -0.000700 0.000000 1.769380 
# 
# From -- ./inp_files/338663.got.cif
#   From: 2010.06.25/outbox.cif.g09.slc.cpg/sg12_170_cif.got.tgz:338663.got - 2010.06.28 00:19:55.
