data_PCOD8101176
_publ_section_title
;
Structure prediction by ZEFSAII (Michael W. Deem and Ramdas Pophale) SiO2 
 PCOD8101176
Probable space group: C 2/M
;
_chemical_formula_sum "Si O2"
_cell_formula_units_Z 56
_cell_length_a 17.874440
_cell_length_b 8.436352
_cell_length_c 28.614261
_cell_angle_alpha 90.000000
_cell_angle_beta 39.134619
_cell_angle_gamma 90.000000
_cell_volume 2723.319123
_symmetry_space_group_name_H-M "C 2/M"
_symmetry_group_IT_number 12
_symmetry_cell_setting 'monoclinic'
loop_
_space_group_symop_operation_xyz
x,y,z
-x,y,-z
-x,-y,-z
x,-y,z
1/2+x,1/2+y,z
1/2-x,1/2+y,-z
1/2-x,1/2-y,-z
1/2+x,1/2-y,z
loop_
_atom_site_type_symbol
_atom_site_label
_atom_site_fract_x
_atom_site_fract_y
_atom_site_fract_z
Si Si1 0.748353 0.814243 0.139918
Si Si2 0.901064 0.317702 0.147558
Si Si3 0.549792 0.188705 0.426886
Si Si4 0.619963 0.811577 0.572661
Si Si5 0.314870 0.316152 0.283722
Si Si6 0.328003 0.186028 0.004016
Si Si7 0.982109 0.313842 0.281001
O O1 0.830547 0.715325 0.134555
O O2 0.791985 0.784346 0.066700
O O3 0.614794 0.748130 0.210189
O O4 0.757121 0.000000 0.147399
O O5 0.886217 0.500000 0.169466
O O6 0.850687 0.208021 0.212863
O O7 0.036980 0.275013 0.073238
O O8 0.500000 0.254643 0.500000
O O9 0.467792 0.254216 0.424845
O O10 0.682983 0.252560 0.355505
O O11 0.548959 0.000000 0.426689
O O12 0.750000 0.750000 0.500000
O O13 0.575629 0.742484 0.643863
O O14 0.621068 0.000000 0.572140
O O15 0.319396 0.500000 0.294244
O O16 0.405207 0.226485 0.273281
O O17 0.306783 0.000000 0.022596
O O18 0.250000 0.250000 0.000000
O O19 0.989269 0.500000 0.282581
#
# Coordination Sequence:
#
# PCOD8101176 Si02
#       7
#     8   8   8   8   8   8   8
#     4  11  23  40  63  88 115 152 196 238 285 342
#     4  11  24  41  60  85 120 155 187 233 292 344
#     4   9  18  34  56  82 113 148 187 235 288 339
#     4  10  20  36  57  81 113 150 188 234 287 342
#     4  11  22  37  61  88 112 148 198 240 281 342
#     4  11  24  41  61  87 119 155 193 236 289 343
#     4  10  22  39  57  82 119 155 187 235 295 342
#
# _framework density 20.563143
#
# number of rings (size 3 to 8) (size 9 to 14) (size 15 to 20)
#    0.000    1.571    0.000    4.714    0.000   12.571 
#    0.000    2.857    0.000    3.857    0.000    0.000 
#    0.000    0.000    0.000    0.000    0.000    0.000 
#
# Total GULP energy -347347.050864 kJ/mol
# GULP energy per Si atom -12405.251817 kJ/mol
# Density = 2.051634 g / cm^3
# Si number density = 20.563143 Si / 1000 Ang^3
#
#
#
# Elastic Constant Matrix: (Units=GPa)
#
#
# Indices 1 2 3 4 5 6 
#
# 1 164.7344 9.4162 68.3215 0.0003 -10.7016 -0.0020
# 2 9.4162 25.0834 23.8523 0.0010 -10.2994 -0.0019
# 3 68.3215 23.8523 157.6647 -0.0002 -8.8375 0.0001
# 4 0.0003 0.0010 -0.0002 29.9057 0.0001 -4.0522
# 5 -10.7016 -10.2994 -8.8375 0.0001 49.4339 0.0003
# 6 -0.0020 -0.0019 0.0001 -4.0522 0.0003 22.5091
#
#
#
# Elastic Compliance Matrix: (Units=1/GPa)
#
#
# Indices 1 2 3 4 5 6 
#
# 1 0.007467 0.000820 -0.003293 0.000000 0.001199 0.000001
# 2 0.000820 0.050510 -0.007472 -0.000001 0.009365 0.000004
# 3 -0.003293 -0.007472 0.008861 0.000000 -0.000685 -0.000001
# 4 0.000000 -0.000001 0.000000 0.034274 0.000000 0.006170
# 5 0.001199 0.009365 -0.000685 0.000000 0.022317 0.000001
# 6 0.000001 0.000004 -0.000001 0.006170 0.000001 0.045537
#
#
# Mechanical properties :
#
#
# Convention : Reuss Voigt Hill
#
# Bulk Modulus (GPa) = 21.29948 61.18470 41.24209
# Shear Modulus (GPa) = 24.44924 36.76257 30.60591
#
# Velocity S-wave (km/s) = 3.45191 4.23281 3.86215
# Velocity P-wave (km/s) = 5.12524 7.32858 6.32361
#
# Compressibility (1/GPa) = 0.04694949
#
# Stress axis : x y z
#
# Youngs Moduli (GPa) = 133.92418 19.79816 112.85029
#
# Poissons Ratio (x) = -0.01624 0.37156
# Poissons Ratio (y) = -0.10983 0.84319
# Poissons Ratio (z) = 0.44095 0.14793
#
# Static dielectric constant tensor:
#      x y z
#    x 3.850230 -0.000010 -0.078210 
#    y -0.000010 3.478970 0.000000 
#    z -0.078210 0.000000 3.940380 
# 
# 
# High freq. dielectric constant tensor:
#      x y z
#    x 1.823240 0.000000 -0.001390 
#    y 0.000000 1.785090 0.000000 
#    z -0.001390 0.000000 1.823950 
# 
# From -- ./inp_files/275542.got.cif
#   From: 2010.06.25/outbox.cif.g09.slc.cpg/sg12_138_cif.got.tgz:275542.got - 2010.06.28 00:19:55.
