data_PCOD8101472
_publ_section_title
;
Structure prediction by ZEFSAII (Michael W. Deem and Ramdas Pophale) SiO2 
 PCOD8101472
Probable space group: C 2/M
;
_chemical_formula_sum "Si O2"
_cell_formula_units_Z 56
_cell_length_a 18.309639
_cell_length_b 12.565411
_cell_length_c 13.673599
_cell_angle_alpha 90.000000
_cell_angle_beta 115.142635
_cell_angle_gamma 90.000000
_cell_volume 2847.798393
_symmetry_space_group_name_H-M "C 2/M"
_symmetry_group_IT_number 12
_symmetry_cell_setting 'monoclinic'
loop_
_space_group_symop_operation_xyz
x,y,z
-x,y,-z
-x,-y,-z
x,-y,z
1/2+x,1/2+y,z
1/2-x,1/2+y,-z
1/2-x,1/2-y,-z
1/2+x,1/2-y,z
loop_
_atom_site_type_symbol
_atom_site_label
_atom_site_fract_x
_atom_site_fract_y
_atom_site_fract_z
Si Si1 0.590160 0.199948 0.652576
Si Si2 0.408292 0.885229 0.930949
Si Si3 0.954381 0.124234 0.231213
Si Si4 0.114600 0.751389 0.271478
Si Si5 0.763800 0.878750 0.774309
Si Si6 0.420663 0.122625 0.567146
Si Si7 0.667688 0.292803 0.994775
O O1 0.570230 0.318560 0.680732
O O2 0.674599 0.164760 0.747546
O O3 0.516688 0.123616 0.646056
O O4 0.596466 0.192850 0.539084
O O5 0.395934 0.832488 0.819943
O O6 0.379724 0.813068 0.003688
O O7 0.362625 0.000000 0.906728
O O8 0.500000 0.908452 0.000000
O O9 0.037868 0.170628 0.236479
O O10 0.965397 0.000000 0.259607
O O11 0.883508 0.140012 0.111882
O O12 0.194973 0.819243 0.294185
O O13 0.129325 0.681588 0.376890
O O14 0.818064 0.866280 0.902093
O O15 0.757174 0.000000 0.739287
O O16 0.392595 0.000000 0.538417
O O17 0.750000 0.250000 0.000000
#
# Coordination Sequence:
#
# PCOD8101472 Si02
#       7
#     8   8   8   8   8   8   8
#     4  10  21  39  59  88 114 141 200 243 279 346
#     4  10  20  36  58  83 115 149 188 238 283 329
#     4  11  22  40  59  81 118 159 192 232 287 341
#     4  10  22  38  57  86 118 151 197 229 279 350
#     4  11  22  37  59  86 118 152 188 238 287 334
#     4  10  20  39  65  86 113 152 188 240 295 334
#     4  11  22  39  54  88 119 150 194 233 281 349
#
# _framework density 19.664313
#
# number of rings (size 3 to 8) (size 9 to 14) (size 15 to 20)
#    0.000    1.571    2.857    3.000    0.000    1.714 
#    0.000    9.286    0.000    0.000    0.000    0.000 
#    0.000    0.000    0.000    0.000    0.000    0.000 
#
# Total GULP energy -347144.959443 kJ/mol
# GULP energy per Si atom -12398.034266 kJ/mol
# Density = 1.961956 g / cm^3
# Si number density = 19.664313 Si / 1000 Ang^3
#
#
#
# Elastic Constant Matrix: (Units=GPa)
#
#
# Indices 1 2 3 4 5 6 
#
# 1 72.6355 29.6822 14.8394 0.0000 -3.3898 0.0000
# 2 29.6822 125.1663 21.0624 0.0000 -1.4334 0.0000
# 3 14.8394 21.0624 60.2445 0.0000 -3.1720 0.0000
# 4 0.0000 0.0000 0.0000 22.4325 0.0000 -4.1130
# 5 -3.3898 -1.4334 -3.1720 0.0000 30.9092 0.0000
# 6 0.0000 0.0000 0.0000 -4.1130 0.0000 23.8845
#
#
#
# Elastic Compliance Matrix: (Units=1/GPa)
#
#
# Indices 1 2 3 4 5 6 
#
# 1 0.015704 -0.003262 -0.002660 0.000000 0.001298 0.000000
# 2 -0.003262 0.009166 -0.002411 0.000000 -0.000180 0.000000
# 3 -0.002660 -0.002411 0.018174 0.000000 0.001462 0.000000
# 4 0.000000 0.000000 0.000000 0.046031 0.000000 0.007927
# 5 0.001298 -0.000180 0.001462 0.000000 0.032637 0.000000
# 6 0.000000 0.000000 0.000000 0.007927 0.000000 0.043233
#
#
# Mechanical properties :
#
#
# Convention : Reuss Voigt Hill
#
# Bulk Modulus (GPa) = 37.90683 43.24602 40.57642
# Shear Modulus (GPa) = 26.26002 28.27608 27.26805
#
# Velocity S-wave (km/s) = 3.65830 3.79613 3.72785
# Velocity P-wave (km/s) = 6.09615 6.42293 6.26167
#
# Compressibility (1/GPa) = 0.02638047
#
# Stress axis : x y z
#
# Youngs Moduli (GPa) = 63.67728 109.09320 55.02391
#
# Poissons Ratio (x) = 0.35583 0.14634
# Poissons Ratio (y) = 0.20770 0.13265
# Poissons Ratio (z) = 0.16935 0.26300
#
# Static dielectric constant tensor:
#      x y z
#    x 3.076360 0.000000 -0.303510 
#    y 0.000000 2.758200 0.000000 
#    z -0.303510 0.000000 3.403610 
# 
# 
# High freq. dielectric constant tensor:
#      x y z
#    x 1.769500 0.000000 -0.004590 
#    y 0.000000 1.767240 0.000000 
#    z -0.004590 0.000000 1.760980 
# 
# From -- ./inp_files/223919.got.cif
#   From: 2010.06.25/outbox.cif.g09.slc.cpg/sg12_112_cif.got.tgz:223919.got - 2010.06.28 00:19:55.
