data_PCOD8101430
_publ_section_title
;
Structure prediction by ZEFSAII (Michael W. Deem and Ramdas Pophale) SiO2 
 PCOD8101430
Probable space group: C 2/M
;
_chemical_formula_sum "Si O2"
_cell_formula_units_Z 56
_cell_length_a 23.525737
_cell_length_b 9.107089
_cell_length_c 15.454099
_cell_angle_alpha 90.000000
_cell_angle_beta 59.445171
_cell_angle_gamma 90.000000
_cell_volume 2851.292843
_symmetry_space_group_name_H-M "C 2/M"
_symmetry_group_IT_number 12
_symmetry_cell_setting 'monoclinic'
loop_
_space_group_symop_operation_xyz
x,y,z
-x,y,-z
-x,-y,-z
x,-y,z
1/2+x,1/2+y,z
1/2-x,1/2+y,-z
1/2-x,1/2-y,-z
1/2+x,1/2-y,z
loop_
_atom_site_type_symbol
_atom_site_label
_atom_site_fract_x
_atom_site_fract_y
_atom_site_fract_z
Si Si1 0.789008 0.330135 0.895329
Si Si2 0.557906 0.171001 0.020368
Si Si3 0.533196 0.169104 0.566484
Si Si4 0.678502 0.670092 0.848024
Si Si5 0.157574 0.829186 0.521553
Si Si6 0.801254 0.329014 0.344009
Si Si7 0.563705 0.171072 0.212091
O O1 0.792945 0.500000 0.919019
O O2 0.750448 0.308440 0.835024
O O3 0.862735 0.262426 0.830853
O O4 0.750000 0.250000 0.000000
O O5 0.536437 0.201576 0.136304
O O6 0.575189 0.000000 0.993344
O O7 0.500000 0.220590 0.000000
O O8 0.622725 0.267063 0.954504
O O9 0.500000 0.185710 0.500000
O O10 0.598888 0.265677 0.509452
O O11 0.486518 0.237204 0.678175
O O12 0.551460 0.000000 0.571875
O O13 0.664143 0.500000 0.840624
O O14 0.674921 0.759797 0.763055
O O15 0.156610 0.744871 0.613074
O O16 0.224148 0.797496 0.417254
O O17 0.148125 0.000000 0.547506
O O18 0.818216 0.500000 0.329898
O O19 0.568721 0.000000 0.228123
#
# Coordination Sequence:
#
# PCOD8101430 Si02
#       7
#     8   8   8   8   8   8   8
#     4  10  20  36  58  82 114 149 191 240 287 343
#     4  10  21  37  59  84 116 160 203 240 288 357
#     4  10  22  38  61  88 118 162 207 243 289 355
#     4  11  23  36  58  91 120 148 191 247 302 348
#     4  10  22  41  62  88 119 151 194 251 305 347
#     4  10  22  40  63  87 116 156 197 238 296 366
#     4   9  19  37  57  82 115 155 200 242 285 345
#
# _framework density 19.640214
#
# number of rings (size 3 to 8) (size 9 to 14) (size 15 to 20)
#    0.000    2.000    1.429    1.286    4.000    2.857 
#    0.000    1.429    0.000    0.000    0.000    0.000 
#    0.000    0.000    0.000    0.000    0.000    0.000 
#
# Total GULP energy -347276.648995 kJ/mol
# GULP energy per Si atom -12402.737464 kJ/mol
# Density = 1.959551 g / cm^3
# Si number density = 19.640214 Si / 1000 Ang^3
#
#
#
# Elastic Constant Matrix: (Units=GPa)
#
#
# Indices 1 2 3 4 5 6 
#
# 1 98.6857 30.3166 21.6610 0.0000 -1.6049 0.0000
# 2 30.3166 69.4337 30.2791 0.0000 1.8395 -0.0001
# 3 21.6610 30.2791 96.6165 0.0000 9.8112 0.0000
# 4 0.0000 0.0000 0.0000 21.7735 0.0000 -6.8231
# 5 -1.6049 1.8395 9.8112 0.0000 25.5204 0.0000
# 6 0.0000 -0.0001 0.0000 -6.8231 0.0000 26.3222
#
#
#
# Elastic Compliance Matrix: (Units=1/GPa)
#
#
# Indices 1 2 3 4 5 6 
#
# 1 0.011884 -0.004631 -0.001376 0.000000 0.001610 0.000000
# 2 -0.004631 0.018504 -0.004783 0.000000 0.000214 0.000000
# 3 -0.001376 -0.004783 0.012624 0.000000 -0.004595 0.000000
# 4 0.000000 0.000000 0.000000 0.049988 0.000000 0.012958
# 5 0.001610 0.000214 -0.004595 0.000000 0.041037 0.000000
# 6 0.000000 0.000000 0.000000 0.012958 0.000000 0.041350
#
#
# Mechanical properties :
#
#
# Convention : Reuss Voigt Hill
#
# Bulk Modulus (GPa) = 46.65900 47.69437 47.17668
# Shear Modulus (GPa) = 24.49638 26.88851 25.69244
#
# Velocity S-wave (km/s) = 3.53548 3.70409 3.62077
# Velocity P-wave (km/s) = 6.36197 6.52920 6.44613
#
# Compressibility (1/GPa) = 0.02143209
#
# Stress axis : x y z
#
# Youngs Moduli (GPa) = 84.14473 54.04136 79.21267
#
# Poissons Ratio (x) = 0.25029 0.10904
# Poissons Ratio (y) = 0.38971 0.37884
# Poissons Ratio (z) = 0.11582 0.25845
#
# Static dielectric constant tensor:
#      x y z
#    x 3.758910 0.000000 -0.051920 
#    y 0.000000 3.445200 0.000000 
#    z -0.051920 0.000000 3.579090 
# 
# 
# High freq. dielectric constant tensor:
#      x y z
#    x 1.775350 0.000000 0.003090 
#    y 0.000000 1.748350 0.000000 
#    z 0.003090 0.000000 1.768100 
# 
# From -- ./inp_files/238288.got.cif
#   From: 2010.06.25/outbox.cif.g09.slc.cpg/sg12_120_cif.got.tgz:238288.got - 2010.06.28 00:19:55.
