data_PCOD8101118
_publ_section_title
;
Structure prediction by ZEFSAII (Michael W. Deem and Ramdas Pophale) SiO2 
 PCOD8101118
Probable space group: C 2/M
;
_chemical_formula_sum "Si O2"
_cell_formula_units_Z 40
_cell_length_a 15.382543
_cell_length_b 9.404179
_cell_length_c 14.404933
_cell_angle_alpha 90.000000
_cell_angle_beta 92.048868
_cell_angle_gamma 90.000000
_cell_volume 2082.488122
_symmetry_space_group_name_H-M "C 2/M"
_symmetry_group_IT_number 12
_symmetry_cell_setting 'monoclinic'
loop_
_space_group_symop_operation_xyz
x,y,z
-x,y,-z
-x,-y,-z
x,-y,z
1/2+x,1/2+y,z
1/2-x,1/2+y,-z
1/2-x,1/2-y,-z
1/2+x,1/2-y,z
loop_
_atom_site_type_symbol
_atom_site_label
_atom_site_fract_x
_atom_site_fract_y
_atom_site_fract_z
Si Si1 0.836130 0.164586 0.199698
Si Si2 0.353755 0.164440 0.769022
Si Si3 0.981927 0.667360 0.104553
Si Si4 0.906357 0.167500 0.395688
Si Si5 0.396252 0.668131 0.597779
O O1 0.734001 0.186056 0.173269
O O2 0.893703 0.255547 0.131715
O O3 0.850173 0.219374 0.306107
O O4 0.864017 0.000000 0.191329
O O5 0.435981 0.219571 0.831300
O O6 0.341006 0.251445 0.673623
O O7 0.364805 0.000000 0.742912
O O8 0.967301 0.500000 0.114098
O O9 0.000000 0.711447 0.000000
O O10 0.866718 0.219724 0.493157
O O11 0.004628 0.220312 0.385119
O O12 0.909611 0.000000 0.403189
O O13 0.384690 0.500000 0.611678
#
# Coordination Sequence:
#
# PCOD8101118 Si02
#       5
#     8   8   8   8   8
#     4  10  20  36  57  80 106 137 175 216 257 307
#     4  10  21  35  53  80 110 136 170 220 266 301
#     4  10  22  40  57  75 105 139 170 215 273 319
#     4   8  15  29  51  77 105 139 175 210 249 301
#     4   9  16  30  53  77 104 143 180 205 245 310
#
# _framework density 19.207792000000001
#
# number of rings (size 3 to 8) (size 9 to 14) (size 15 to 20)
#    0.000    2.600    2.000    1.200    0.000    2.800 
#    0.000    3.000    0.000    0.000    0.000    0.000 
#    0.000    0.000    0.000    0.000    0.000    0.000 
#
# Total GULP energy -247910.591388 kJ/mol
# GULP energy per Si atom -12395.529569 kJ/mol
# Density = 1.916407 g / cm^3
# Si number density = 19.207792 Si / 1000 Ang^3
#
#
#
# Elastic Constant Matrix: (Units=GPa)
#
#
# Indices 1 2 3 4 5 6 
#
# 1 79.5761 29.8674 37.8137 0.0000 -21.8923 0.0000
# 2 29.8674 43.7981 42.6611 0.0000 -14.6062 0.0000
# 3 37.8137 42.6611 117.4477 0.0000 -23.1375 0.0000
# 4 0.0000 0.0000 0.0000 29.7039 0.0000 -8.5161
# 5 -21.8923 -14.6062 -23.1375 0.0000 21.3612 0.0000
# 6 0.0000 0.0000 0.0000 -8.5161 0.0000 25.8720
#
#
#
# Elastic Compliance Matrix: (Units=1/GPa)
#
#
# Indices 1 2 3 4 5 6 
#
# 1 0.019801 -0.008222 -0.000634 0.000000 0.013985 0.000000
# 2 -0.008222 0.041856 -0.010905 0.000000 0.008382 0.000000
# 3 -0.000634 -0.010905 0.014089 0.000000 0.007155 0.000000
# 4 0.000000 0.000000 0.000000 0.037174 0.000000 0.012236
# 5 0.013985 0.008382 0.007155 0.000000 0.074627 0.000000
# 6 0.000000 0.000000 0.000000 0.012236 0.000000 0.042680
#
#
# Mechanical properties :
#
#
# Convention : Reuss Voigt Hill
#
# Bulk Modulus (GPa) = 27.60539 51.27846 39.44193
# Shear Modulus (GPa) = 17.74157 24.08607 20.91382
#
# Velocity S-wave (km/s) = 3.04248 3.54499 3.30331
# Velocity P-wave (km/s) = 5.17160 6.59626 5.92689
#
# Compressibility (1/GPa) = 0.03622481
#
# Stress axis : x y z
#
# Youngs Moduli (GPa) = 50.50222 23.89122 70.97699
#
# Poissons Ratio (x) = 0.19643 0.04497
# Poissons Ratio (y) = 0.41523 0.77403
# Poissons Ratio (z) = 0.03200 0.26054
#
# Static dielectric constant tensor:
#      x y z
#    x 3.467400 0.000000 0.125430 
#    y 0.000000 3.148190 0.000000 
#    z 0.125430 0.000000 3.710450 
# 
# 
# High freq. dielectric constant tensor:
#      x y z
#    x 1.744610 0.000000 -0.000760 
#    y 0.000000 1.715630 0.000000 
#    z -0.000760 0.000000 1.748080 
# 
# From -- ./inp_files/140818.got.cif
#   From: 2010.06.25/outbox.cif.g09.slc.cpg/sg12_71_cif.got.tgz:140818.got - 2010.06.28 00:19:55.
