data_PCOD8101027
_publ_section_title
;
Structure prediction by ZEFSAII (Michael W. Deem and Ramdas Pophale) SiO2 
 PCOD8101027
Probable space group: C 2/M
;
_chemical_formula_sum "Si O2"
_cell_formula_units_Z 64
_cell_length_a 14.698705
_cell_length_b 26.743559
_cell_length_c 9.550535
_cell_angle_alpha 90.000000
_cell_angle_beta 66.283528
_cell_angle_gamma 90.000000
_cell_volume 3437.214380
_symmetry_space_group_name_H-M "C 2/M"
_symmetry_group_IT_number 12
_symmetry_cell_setting 'monoclinic'
loop_
_space_group_symop_operation_xyz
x,y,z
-x,y,-z
-x,-y,-z
x,-y,z
1/2+x,1/2+y,z
1/2-x,1/2+y,-z
1/2-x,1/2-y,-z
1/2+x,1/2-y,z
loop_
_atom_site_type_symbol
_atom_site_label
_atom_site_fract_x
_atom_site_fract_y
_atom_site_fract_z
Si Si1 0.314621 0.271153 0.332149
Si Si2 0.861792 0.330439 0.176163
Si Si3 0.669126 0.641410 0.179705
Si Si4 0.521311 0.271692 0.330564
Si Si5 0.527757 0.443223 0.330575
Si Si6 0.057242 0.331695 0.180103
Si Si7 0.748067 0.359153 0.827219
Si Si8 0.096166 0.943040 0.854076
O O1 0.250000 0.250000 0.500000
O O2 0.329479 0.226994 0.212536
O O3 0.420673 0.290530 0.320168
O O4 0.264373 0.317621 0.284804
O O5 0.761777 0.363629 0.230943
O O6 0.938626 0.346741 0.254952
O O7 0.915388 0.335611 0.996927
O O8 0.594929 0.681981 0.287562
O O9 0.617561 0.587519 0.205860
O O10 0.702707 0.658717 0.003906
O O11 0.500000 0.253230 0.500000
O O12 0.570859 0.225286 0.220664
O O13 0.500000 0.421390 0.500000
O O14 0.566011 0.500000 0.319411
O O15 0.430365 0.439917 0.293573
O O16 0.131851 0.366587 0.225924
O O17 0.695130 0.410664 0.816982
O O18 0.119599 0.000000 0.885910
O O19 0.000000 0.922984 0.000000
#
# Coordination Sequence:
#
# PCOD8101027 Si02
#       8
#     8   8   8   8   8   8   8   8
#     4  11  22  33  48  74 107 140 178 220 267 325
#     4   9  19  34  50  69  99 136 174 221 264 308
#     4  11  20  32  53  77 100 138 184 224 266 325
#     4  11  21  32  48  70 103 136 173 220 263 315
#     4  10  21  36  54  80 113 141 171 220 282 338
#     4   9  19  35  49  69  99 136 175 213 261 319
#     4  11  21  33  55  76 103 142 182 218 270 328
#     4  10  20  36  56  82 111 137 173 223 275 325
#
# _framework density 18.619729
#
# number of rings (size 3 to 8) (size 9 to 14) (size 15 to 20)
#    0.000    1.750    1.250    4.125    0.000    4.000 
#    0.000    0.000    0.000    0.750    0.000    3.500 
#    0.000   12.500    0.000    0.125    0.000    0.000 
#
# Total GULP energy -396604.534941 kJ/mol
# GULP energy per Si atom -12393.891717 kJ/mol
# Density = 1.857735 g / cm^3
# Si number density = 18.619729 Si / 1000 Ang^3
#
#
#
# Elastic Constant Matrix: (Units=GPa)
#
#
# Indices 1 2 3 4 5 6 
#
# 1 157.7583 65.3220 33.5339 0.0000 5.4770 0.0000
# 2 65.3220 71.4173 14.0304 0.0000 -1.3335 0.0000
# 3 33.5339 14.0304 49.5568 0.0000 6.8572 0.0000
# 4 0.0000 0.0000 0.0000 19.1132 0.0000 5.4336
# 5 5.4770 -1.3335 6.8572 0.0000 24.0622 0.0000
# 6 0.0000 0.0000 0.0000 5.4336 0.0000 22.9570
#
#
#
# Elastic Compliance Matrix: (Units=1/GPa)
#
#
# Indices 1 2 3 4 5 6 
#
# 1 0.011324 -0.009459 -0.004743 0.000000 -0.001750 0.000000
# 2 -0.009459 0.022830 -0.000558 0.000000 0.003577 0.000000
# 3 -0.004743 -0.000558 0.024362 0.000000 -0.005894 0.000000
# 4 0.000000 0.000000 0.000000 0.056094 0.000000 -0.013277
# 5 -0.001750 0.003577 -0.005894 0.000000 0.043835 0.000000
# 6 0.000000 0.000000 0.000000 -0.013277 0.000000 0.046702
#
#
# Mechanical properties :
#
#
# Convention : Reuss Voigt Hill
#
# Bulk Modulus (GPa) = 34.48638 56.05611 45.27124
# Shear Modulus (GPa) = 20.46393 24.28287 22.37340
#
# Velocity S-wave (km/s) = 3.31878 3.61522 3.47017
# Velocity P-wave (km/s) = 5.76605 6.89909 6.35786
#
# Compressibility (1/GPa) = 0.02899696
#
# Stress axis : x y z
#
# Youngs Moduli (GPa) = 88.30646 43.80199 41.04802
#
# Poissons Ratio (x) = 0.41431 0.19468
# Poissons Ratio (y) = 0.83526 0.02291
# Poissons Ratio (z) = 0.41881 0.02445
#
# Static dielectric constant tensor:
#      x y z
#    x 4.045980 0.000000 0.094220 
#    y 0.000000 3.142770 0.000000 
#    z 0.094220 0.000000 3.427960 
# 
# 
# High freq. dielectric constant tensor:
#      x y z
#    x 1.739400 0.000000 0.014060 
#    y 0.000000 1.684090 0.000000 
#    z 0.014060 0.000000 1.720580 
# 
# From -- ./inp_files/66932.got.cif
#   From: 2010.06.25/outbox.cif.g09.slc.cpg/sg12_34_cif.got.tgz:66932.got - 2010.06.28 00:19:55.
