data_PCOD8101993
_publ_section_title
;
Structure prediction by ZEFSAII (Michael W. Deem and Ramdas Pophale) SiO2 
 PCOD8101993
Probable space group: C 2/M
;
_chemical_formula_sum "Si O2"
_cell_formula_units_Z 44
_cell_length_a 16.978894
_cell_length_b 9.255502
_cell_length_c 12.953626
_cell_angle_alpha 90.000000
_cell_angle_beta 92.082300
_cell_angle_gamma 90.000000
_cell_volume 2034.294645
_symmetry_space_group_name_H-M "C 2/M"
_symmetry_group_IT_number 12
_symmetry_cell_setting 'monoclinic'
loop_
_space_group_symop_operation_xyz
x,y,z
-x,y,-z
-x,-y,-z
x,-y,z
1/2+x,1/2+y,z
1/2-x,1/2+y,-z
1/2-x,1/2-y,-z
1/2+x,1/2-y,z
loop_
_atom_site_type_symbol
_atom_site_label
_atom_site_fract_x
_atom_site_fract_y
_atom_site_fract_z
Si Si1 0.064159 0.160634 0.791818
Si Si2 0.000000 0.768715 0.000000
Si Si3 0.278492 0.835618 0.194483
Si Si4 0.937087 0.337774 0.679546
Si Si5 0.299756 0.667031 0.587057
Si Si6 0.852755 0.344458 0.892942
O O1 0.146393 0.236207 0.817956
O O2 0.013800 0.141381 0.895585
O O3 0.019002 0.254473 0.703152
O O4 0.077823 0.000000 0.747964
O O5 0.079470 0.675720 0.018173
O O6 0.246721 0.821345 0.308338
O O7 0.212983 0.781054 0.108965
O O8 0.299485 0.000000 0.167674
O O9 0.953697 0.500000 0.636790
O O10 0.884713 0.245370 0.597038
O O11 0.891504 0.349544 0.783436
O O12 0.312342 0.500000 0.556166
O O13 0.250000 0.750000 0.500000
O O14 0.812594 0.500000 0.913350
#
# Coordination Sequence:
#
# PCOD8101993 Si02
#       6
#     8   4   8   8   8   8
#     4  11  22  37  57  80 110 147 187 229 274 325
#     4  10  22  36  56  82 110 144 188 232 274 322
#     4  10  22  38  56  81 113 146 180 225 277 324
#     4   9  18  34  56  81 111 145 180 223 275 327
#     4  10  20  36  60  87 113 143 181 223 270 328
#     4   9  18  34  56  80 107 143 185 226 272 325
#
# _framework density 21.629117000000001
#
# number of rings (size 3 to 8) (size 9 to 14) (size 15 to 20)
#    0.000    2.182    0.000    2.727    0.000   10.182 
#    0.000    0.909    0.000    5.455    0.000    0.000 
#    0.000    0.000    0.000    0.000    0.000    0.000 
#
# Total GULP energy -272712.854071 kJ/mol
# GULP energy per Si atom -12396.038821 kJ/mol
# Density = 2.157989 g / cm^3
# Si number density = 21.629117 Si / 1000 Ang^3
#
#
#
# Elastic Constant Matrix: (Units=GPa)
#
#
# Indices 1 2 3 4 5 6 
#
# 1 117.0383 72.6737 28.4361 0.0000 41.5070 0.0000
# 2 72.6737 208.3268 39.5586 0.0000 30.3808 0.0000
# 3 28.4361 39.5586 67.7921 0.0000 34.1450 0.0000
# 4 0.0000 0.0000 0.0000 12.2602 0.0000 4.4172
# 5 41.5070 30.3808 34.1450 0.0000 41.3745 0.0000
# 6 0.0000 0.0000 0.0000 4.4172 0.0000 34.3699
#
#
#
# Elastic Compliance Matrix: (Units=1/GPa)
#
#
# Indices 1 2 3 4 5 6 
#
# 1 0.015705 -0.003852 0.003715 0.000000 -0.015993 0.000000
# 2 -0.003852 0.006478 -0.002935 0.000000 0.001529 0.000000
# 3 0.003715 -0.002935 0.026863 0.000000 -0.023741 0.000000
# 4 0.000000 0.000000 0.000000 0.085525 0.000000 -0.010991
# 5 -0.015993 0.001529 -0.023741 0.000000 0.058684 0.000000
# 6 0.000000 0.000000 0.000000 -0.010991 0.000000 0.030508
#
#
# Mechanical properties :
#
#
# Convention : Reuss Voigt Hill
#
# Bulk Modulus (GPa) = 23.30809 74.94380 49.12595
# Shear Modulus (GPa) = 20.47449 34.43350 27.45400
#
# Velocity S-wave (km/s) = 3.08005 3.99431 3.56660
# Velocity P-wave (km/s) = 4.84238 7.48314 6.30262
#
# Compressibility (1/GPa) = 0.04290355
#
# Stress axis : x y z
#
# Youngs Moduli (GPa) = 63.67315 154.36654 37.22616
#
# Poissons Ratio (x) = 0.59459 -0.13831
# Poissons Ratio (y) = 0.24526 0.10925
# Poissons Ratio (z) = -0.23656 0.45302
#
# Static dielectric constant tensor:
#      x y z
#    x 3.871430 0.000000 0.271150 
#    y 0.000000 4.177400 0.000000 
#    z 0.271150 0.000000 3.729440 
# 
# 
# High freq. dielectric constant tensor:
#      x y z
#    x 1.844420 0.000000 0.022230 
#    y 0.000000 1.861110 0.000000 
#    z 0.022230 0.000000 1.828640 
# 
# From -- ./inp_files/221021.got.cif
#   From: 2010.06.25/outbox.cif.g09.slc.cpg/sg12_111_cif.got.tgz:221021.got - 2010.06.28 00:19:55.
