data_PCOD8101995
_publ_section_title
;
Structure prediction by ZEFSAII (Michael W. Deem and Ramdas Pophale) SiO2 
 PCOD8101995
Probable space group: C 2/M
;
_chemical_formula_sum "Si O2"
_cell_formula_units_Z 40
_cell_length_a 18.874026
_cell_length_b 15.443491
_cell_length_c 14.476948
_cell_angle_alpha 90.000000
_cell_angle_beta 151.448648
_cell_angle_gamma 90.000000
_cell_volume 2016.815045
_symmetry_space_group_name_H-M "C 2/M"
_symmetry_group_IT_number 12
_symmetry_cell_setting 'monoclinic'
loop_
_space_group_symop_operation_xyz
x,y,z
-x,y,-z
-x,-y,-z
x,-y,z
1/2+x,1/2+y,z
1/2-x,1/2+y,-z
1/2-x,1/2-y,-z
1/2+x,1/2-y,z
loop_
_atom_site_type_symbol
_atom_site_label
_atom_site_fract_x
_atom_site_fract_y
_atom_site_fract_z
Si Si1 0.797307 0.680344 0.435967
Si Si2 0.320221 0.598021 0.146507
Si Si3 0.756143 0.742767 0.192239
Si Si4 0.418796 0.904374 0.277116
Si Si5 0.974128 0.185661 0.759356
O O1 0.744892 0.739879 0.289886
O O2 0.899149 0.737605 0.618215
O O3 0.652784 0.641845 0.322212
O O4 0.903190 0.600455 0.530124
O O5 0.337499 0.500000 0.203942
O O6 0.322267 0.664738 0.234588
O O7 0.454130 0.616357 0.228163
O O8 0.164687 0.611081 0.915613
O O9 0.869568 0.667484 0.293504
O O10 0.596597 0.726860 0.965964
O O11 0.379157 0.000000 0.269846
#
# Coordination Sequence:
#
# PCOD8101995 Si02
#       5
#     8   8   8   8   8
#     4  11  21  34  60  84 116 150 190 235 291 338
#     4  10  20  38  62  84 116 158 194 237 288 339
#     4  11  20  38  59  86 116 152 192 239 285 345
#     4  10  20  36  60  87 114 148 194 241 285 340
#     4  10  21  38  54  85 115 154 189 234 289 341
#
# _framework density 19.83325
#
# number of rings (size 3 to 8) (size 9 to 14) (size 15 to 20)
#    0.000    1.600    4.000    2.400    0.000    2.400 
#    0.000    2.000    0.000    9.600    0.000    0.000 
#    0.000    0.000    0.000    0.000    0.000    0.000 
#
# Total GULP energy -247942.962286 kJ/mol
# GULP energy per Si atom -12397.148114 kJ/mol
# Density = 1.978811 g / cm^3
# Si number density = 19.833250 Si / 1000 Ang^3
#
#
#
# Elastic Constant Matrix: (Units=GPa)
#
#
# Indices 1 2 3 4 5 6 
#
# 1 79.6641 25.1383 43.7391 0.0000 13.3519 0.0000
# 2 25.1383 94.0553 26.1798 0.0000 17.9171 0.0000
# 3 43.7391 26.1798 88.4160 0.0000 14.7783 0.0000
# 4 0.0000 0.0000 0.0000 19.8363 0.0000 5.6873
# 5 13.3519 17.9171 14.7783 0.0000 27.1129 0.0000
# 6 0.0000 0.0000 0.0000 5.6873 0.0000 7.4660
#
#
#
# Elastic Compliance Matrix: (Units=1/GPa)
#
#
# Indices 1 2 3 4 5 6 
#
# 1 0.018002 -0.002024 -0.007755 0.000000 -0.003301 0.000000
# 2 -0.002024 0.012908 -0.001718 0.000000 -0.006597 0.000000
# 3 -0.007755 -0.001718 0.016313 0.000000 -0.003938 0.000000
# 4 0.000000 0.000000 0.000000 0.064500 0.000000 -0.049134
# 5 -0.003301 -0.006597 -0.003938 0.000000 0.045014 0.000000
# 6 0.000000 0.000000 0.000000 -0.049134 0.000000 0.171369
#
#
# Mechanical properties :
#
#
# Convention : Reuss Voigt Hill
#
# Bulk Modulus (GPa) = 41.27163 50.24999 45.76081
# Shear Modulus (GPa) = 13.92072 22.02157 17.97115
#
# Velocity S-wave (km/s) = 2.65219 3.33579 3.01344
# Velocity P-wave (km/s) = 5.49848 6.34254 5.93554
#
# Compressibility (1/GPa) = 0.02422972
#
# Stress axis : x y z
#
# Youngs Moduli (GPa) = 55.54836 77.47190 61.30006
#
# Poissons Ratio (x) = 0.15682 0.47536
# Poissons Ratio (y) = 0.11244 0.10531
# Poissons Ratio (z) = 0.43075 0.13310
#
# Static dielectric constant tensor:
#      x y z
#    x 3.741330 0.000000 0.207100 
#    y 0.000000 3.420610 0.000000 
#    z 0.207100 0.000000 3.854200 
# 
# 
# High freq. dielectric constant tensor:
#      x y z
#    x 1.762970 0.000000 0.002480 
#    y 0.000000 1.751900 0.000000 
#    z 0.002480 0.000000 1.789540 
# 
# From -- ./inp_files/58908.got.cif
#   From: 2010.06.25/outbox.cif.g09.slc.cpg/sg12_30_cif.got.tgz:58908.got - 2010.06.28 00:19:55.
