data_PCOD8101186
_publ_section_title
;
Structure prediction by ZEFSAII (Michael W. Deem and Ramdas Pophale) SiO2 
 PCOD8101186
Probable space group: C 2/M
;
_chemical_formula_sum "Si O2"
_cell_formula_units_Z 56
_cell_length_a 18.849201
_cell_length_b 9.284153
_cell_length_c 24.685393
_cell_angle_alpha 90.000000
_cell_angle_beta 41.566606
_cell_angle_gamma 90.000000
_cell_volume 2866.222032
_symmetry_space_group_name_H-M "C 2/M"
_symmetry_group_IT_number 12
_symmetry_cell_setting 'monoclinic'
loop_
_space_group_symop_operation_xyz
x,y,z
-x,y,-z
-x,-y,-z
x,-y,z
1/2+x,1/2+y,z
1/2-x,1/2+y,-z
1/2-x,1/2-y,-z
1/2+x,1/2-y,z
loop_
_atom_site_type_symbol
_atom_site_label
_atom_site_fract_x
_atom_site_fract_y
_atom_site_fract_z
Si Si1 0.887367 0.666270 0.586088
Si Si2 0.348776 0.841788 0.426308
Si Si3 0.419280 0.169921 0.000651
Si Si4 0.685328 0.840442 0.676446
Si Si5 0.174342 0.828416 0.155684
Si Si6 0.418608 0.167326 0.690179
Si Si7 0.468743 0.171611 0.851600
O O1 0.884261 0.500000 0.571615
O O2 0.788662 0.740873 0.613035
O O3 0.865432 0.690211 0.662240
O O4 0.000000 0.731404 0.500000
O O5 0.250000 0.750000 0.500000
O O6 0.368982 0.843137 0.350943
O O7 0.458635 0.784095 0.389025
O O8 0.324767 0.000000 0.462723
O O9 0.448130 0.226548 0.924277
O O10 0.432074 0.000000 0.993929
O O11 0.500000 0.236164 0.000000
O O12 0.298285 0.215954 0.081959
O O13 0.591756 0.784435 0.769509
O O14 0.722545 0.000000 0.673107
O O15 0.135993 0.770948 0.235488
O O16 0.111641 0.754366 0.142310
O O17 0.157586 0.000000 0.162079
O O18 0.412369 0.000000 0.712731
O O19 0.451205 0.000000 0.854344
#
# Coordination Sequence:
#
# PCOD8101186 Si02
#       7
#     8   8   8   8   8   8   8
#     4  10  22  39  59  82 113 154 193 237 291 342
#     4  10  20  36  57  82 110 146 192 234 280 337
#     4   9  20  37  60  89 117 150 190 232 282 341
#     4  10  21  36  58  85 112 149 192 233 282 342
#     4  11  22  36  60  91 117 147 194 242 279 331
#     4  10  21  39  59  81 116 157 191 227 288 352
#     4  10  20  39  63  83 116 158 188 230 292 346
#
# _framework density 19.537914000000001
#
# number of rings (size 3 to 8) (size 9 to 14) (size 15 to 20)
#    0.000    2.000    1.429    1.714    2.000    3.714 
#    0.000    0.714    0.000    2.143    0.000    0.000 
#    0.000    0.000    0.000    0.000    0.000    0.000 
#
# Total GULP energy -347163.872318 kJ/mol
# GULP energy per Si atom -12398.709726 kJ/mol
# Density = 1.949344 g / cm^3
# Si number density = 19.537914 Si / 1000 Ang^3
#
#
#
# Elastic Constant Matrix: (Units=GPa)
#
#
# Indices 1 2 3 4 5 6 
#
# 1 89.0258 29.2898 29.0004 0.0000 -7.4551 0.0000
# 2 29.2898 53.8713 42.1656 0.0000 -8.1291 -0.0001
# 3 29.0004 42.1656 116.0353 0.0000 -7.0458 0.0000
# 4 0.0000 0.0000 0.0000 28.9165 0.0000 -2.7330
# 5 -7.4551 -8.1291 -7.0458 0.0000 36.4946 0.0000
# 6 0.0000 -0.0001 0.0000 -2.7330 0.0000 23.5039
#
#
#
# Elastic Compliance Matrix: (Units=1/GPa)
#
#
# Indices 1 2 3 4 5 6 
#
# 1 0.013811 -0.006549 -0.001001 0.000000 0.001169 0.000000
# 2 -0.006549 0.029639 -0.008918 0.000000 0.003542 0.000000
# 3 -0.001001 -0.008918 0.012118 0.000000 0.000149 0.000000
# 4 0.000000 0.000000 0.000000 0.034967 0.000000 0.004066
# 5 0.001169 0.003542 0.000149 0.000000 0.028458 0.000000
# 6 0.000000 0.000000 0.000000 0.004066 0.000000 0.043019
#
#
# Mechanical properties :
#
#
# Convention : Reuss Voigt Hill
#
# Bulk Modulus (GPa) = 44.18741 51.09379 47.64060
# Shear Modulus (GPa) = 24.69230 28.34812 26.52021
#
# Velocity S-wave (km/s) = 3.55887 3.81324 3.68825
# Velocity P-wave (km/s) = 6.28910 6.75245 6.52489
#
# Compressibility (1/GPa) = 0.02263088
#
# Stress axis : x y z
#
# Youngs Moduli (GPa) = 72.40375 33.73971 82.52168
#
# Poissons Ratio (x) = 0.22098 0.08260
# Poissons Ratio (y) = 0.47420 0.73595
# Poissons Ratio (z) = 0.07247 0.30090
#
# Static dielectric constant tensor:
#      x y z
#    x 3.725930 0.000000 0.126210 
#    y 0.000000 3.362450 0.000000 
#    z 0.126210 0.000000 3.758740 
# 
# 
# High freq. dielectric constant tensor:
#      x y z
#    x 1.771350 0.000000 0.002490 
#    y 0.000000 1.735410 0.000000 
#    z 0.002490 0.000000 1.773790 
# 
# From -- ./inp_files/362966.got.cif
#   From: 2010.06.25/outbox.cif.g09.slc.cpg/sg12_182_cif.got.tgz:362966.got - 2010.06.28 00:19:55.
