data_PCOD8101136
_publ_section_title
;
Structure prediction by ZEFSAII (Michael W. Deem and Ramdas Pophale) SiO2 
 PCOD8101136
Probable space group: C 2/M
;
_chemical_formula_sum "Si O2"
_cell_formula_units_Z 56
_cell_length_a 22.433407
_cell_length_b 8.872575
_cell_length_c 16.478907
_cell_angle_alpha 90.000000
_cell_angle_beta 59.969741
_cell_angle_gamma 90.000000
_cell_volume 2839.693372
_symmetry_space_group_name_H-M "C 2/M"
_symmetry_group_IT_number 12
_symmetry_cell_setting 'monoclinic'
loop_
_space_group_symop_operation_xyz
x,y,z
-x,y,-z
-x,-y,-z
x,-y,z
1/2+x,1/2+y,z
1/2-x,1/2+y,-z
1/2-x,1/2-y,-z
1/2+x,1/2-y,z
loop_
_atom_site_type_symbol
_atom_site_label
_atom_site_fract_x
_atom_site_fract_y
_atom_site_fract_z
Si Si1 0.095034 0.825947 0.591197
Si Si2 0.801711 0.821674 0.029084
Si Si3 0.294598 0.176101 0.203015
Si Si4 0.158078 0.176528 0.385816
Si Si5 0.414861 0.176473 0.236120
Si Si6 0.435591 0.324737 0.694849
Si Si7 0.929294 0.677926 0.866659
O O1 0.140064 0.755204 0.486709
O O2 0.115085 0.746201 0.661123
O O3 0.015600 0.799418 0.622484
O O4 0.111733 0.000000 0.592838
O O5 0.878990 0.761437 0.963150
O O6 0.799059 0.000000 0.021872
O O7 0.750000 0.750000 0.000000
O O8 0.779156 0.774135 0.134426
O O9 0.236400 0.213473 0.309329
O O10 0.367526 0.223777 0.192471
O O11 0.293140 0.000000 0.180179
O O12 0.106652 0.240757 0.352417
O O13 0.143508 0.000000 0.401190
O O14 0.492838 0.229747 0.164930
O O15 0.412654 0.000000 0.251401
O O16 0.418583 0.500000 0.723830
O O17 0.410622 0.228227 0.788632
O O18 0.919238 0.500000 0.882722
#
# Coordination Sequence:
#
# PCOD8101136 Si02
#       7
#     8   8   8   8   8   8   8
#     4   9  17  30  51  78 107 141 183 230 276 325
#     4  12  25  41  61  86 112 138 173 217 271 329
#     4  10  21  38  57  78 109 148 188 227 269 321
#     4   9  17  30  51  77 105 141 183 227 276 327
#     4   9  20  37  55  78 110 147 185 226 273 322
#     4   9  16  29  51  79 109 140 180 230 281 329
#     4  10  20  36  57  80 109 145 183 224 273 324
#
# _framework density 19.720438000000001
#
# number of rings (size 3 to 8) (size 9 to 14) (size 15 to 20)
#    0.000    2.286    0.000    3.000    0.000    5.143 
#    0.000    4.286    0.000    3.429    0.000    0.000 
#    0.000    0.000    0.000    0.000    0.000    0.000 
#
# Total GULP energy -347238.820204 kJ/mol
# GULP energy per Si atom -12401.386436 kJ/mol
# Density = 1.967555 g / cm^3
# Si number density = 19.720438 Si / 1000 Ang^3
#
#
#
# Elastic Constant Matrix: (Units=GPa)
#
#
# Indices 1 2 3 4 5 6 
#
# 1 102.0924 34.9004 40.7115 0.0000 8.7155 -0.0001
# 2 34.9004 64.2995 34.2196 0.0001 1.3578 -0.0004
# 3 40.7115 34.2196 97.7093 0.0001 -4.2053 0.0000
# 4 0.0000 0.0001 0.0001 31.6531 0.0000 3.5212
# 5 8.7155 1.3578 -4.2053 0.0000 26.9988 0.0000
# 6 -0.0001 -0.0004 0.0000 3.5212 0.0000 21.9957
#
#
#
# Elastic Compliance Matrix: (Units=1/GPa)
#
#
# Indices 1 2 3 4 5 6 
#
# 1 0.013568 -0.005096 -0.004073 0.000000 -0.004758 0.000000
# 2 -0.005096 0.021139 -0.005290 0.000000 -0.000242 0.000000
# 3 -0.004073 -0.005290 0.013946 0.000000 0.003753 0.000000
# 4 0.000000 0.000000 0.000000 0.032165 0.000000 -0.005149
# 5 -0.004758 -0.000242 0.003753 0.000000 0.039171 0.000000
# 6 0.000000 0.000000 0.000000 -0.005149 0.000000 0.046288
#
#
# Mechanical properties :
#
#
# Convention : Reuss Voigt Hill
#
# Bulk Modulus (GPa) = 50.67576 53.75158 52.21367
# Shear Modulus (GPa) = 24.78030 26.41416 25.59723
#
# Velocity S-wave (km/s) = 3.54867 3.66379 3.60669
# Velocity P-wave (km/s) = 6.52255 6.72412 6.62410
#
# Compressibility (1/GPa) = 0.01973330
#
# Stress axis : x y z
#
# Youngs Moduli (GPa) = 73.70526 47.30636 71.70608
#
# Poissons Ratio (x) = 0.24108 0.29207
# Poissons Ratio (y) = 0.37561 0.37935
# Poissons Ratio (z) = 0.30021 0.25026
#
# Static dielectric constant tensor:
#      x y z
#    x 3.703730 0.000000 -0.086570 
#    y 0.000000 3.373620 0.000000 
#    z -0.086570 0.000000 3.739330 
# 
# 
# High freq. dielectric constant tensor:
#      x y z
#    x 1.770650 0.000000 -0.003750 
#    y 0.000000 1.743520 0.000000 
#    z -0.003750 0.000000 1.775720 
# 
# From -- ./inp_files/238333.got.cif
#   From: 2010.06.25/outbox.cif.g09.slc.cpg/sg12_120_cif.got.tgz:238333.got - 2010.06.28 00:19:55.
