data_PCOD8101897
_publ_section_title
;
Structure prediction by ZEFSAII (Michael W. Deem and Ramdas Pophale) SiO2 
 PCOD8101897
Probable space group: C 2/M
;
_chemical_formula_sum "Si O2"
_cell_formula_units_Z 56
_cell_length_a 8.744625
_cell_length_b 17.644742
_cell_length_c 15.658370
_cell_angle_alpha 90.000000
_cell_angle_beta 94.985282
_cell_angle_gamma 90.000000
_cell_volume 2406.894340
_symmetry_space_group_name_H-M "C 2/M"
_symmetry_group_IT_number 12
_symmetry_cell_setting 'monoclinic'
loop_
_space_group_symop_operation_xyz
x,y,z
-x,y,-z
-x,-y,-z
x,-y,z
1/2+x,1/2+y,z
1/2-x,1/2+y,-z
1/2-x,1/2-y,-z
1/2+x,1/2-y,z
loop_
_atom_site_type_symbol
_atom_site_label
_atom_site_fract_x
_atom_site_fract_y
_atom_site_fract_z
Si Si1 0.448327 0.328276 0.089988
Si Si2 0.270737 0.309708 0.426770
Si Si3 0.077076 0.327044 0.636556
Si Si4 0.433617 0.410597 0.266212
Si Si5 0.649415 0.589401 0.429747
Si Si6 0.088393 0.412639 0.245907
Si Si7 0.400331 0.827644 0.917205
O O1 0.478186 0.380677 0.174277
O O2 0.532770 0.250186 0.117061
O O3 0.272059 0.309981 0.065083
O O4 0.500000 0.363064 0.000000
O O5 0.250000 0.250000 0.500000
O O6 0.099681 0.336645 0.399561
O O7 0.361269 0.260024 0.357800
O O8 0.376987 0.377137 0.474228
O O9 0.057669 0.362686 0.730211
O O10 0.178876 0.383785 0.585172
O O11 0.446500 0.500000 0.258664
O O12 0.542163 0.378709 0.347176
O O13 0.260282 0.387574 0.290052
O O14 0.636316 0.500000 0.437026
O O15 0.058140 0.500000 0.265331
O O16 0.097175 0.398746 0.146166
O O17 0.500000 0.857188 0.000000
#
# Coordination Sequence:
#
# PCOD8101897 Si02
#       7
#     8   8   8   8   8   8   8
#     4  10  20  36  59  89 126 163 205 251 300 360
#     4  10  23  41  61  89 120 156 204 256 310 367
#     4  11  24  40  63  91 122 159 206 259 308 372
#     4   9  21  41  63  91 127 164 205 255 309 366
#     4  10  21  40  65  91 123 163 207 256 311 371
#     4  10  23  42  63  90 123 161 204 254 312 368
#     4  10  21  37  60  89 122 162 203 250 302 360
#
# _framework density 23.266496
#
# number of rings (size 3 to 8) (size 9 to 14) (size 15 to 20)
#    0.000    2.000    0.000    3.857    0.000   12.571 
#    0.000    1.429    0.000   10.286    0.000    0.000 
#    0.000    0.000    0.000    0.000    0.000    0.000 
#
# Total GULP energy -346921.240894 kJ/mol
# GULP energy per Si atom -12390.044318 kJ/mol
# Density = 2.321354 g / cm^3
# Si number density = 23.266496 Si / 1000 Ang^3
#
#
#
# Elastic Constant Matrix: (Units=GPa)
#
#
# Indices 1 2 3 4 5 6 
#
# 1 129.7557 49.8239 70.0695 0.0000 3.5507 0.0000
# 2 49.8239 105.5075 42.8075 0.0000 -1.3192 0.0000
# 3 70.0695 42.8075 108.1803 0.0000 -7.9377 0.0000
# 4 0.0000 0.0000 0.0000 45.7055 0.0000 -2.7009
# 5 3.5507 -1.3192 -7.9377 0.0000 38.0266 0.0000
# 6 0.0000 0.0000 0.0000 -2.7009 0.0000 37.0053
#
#
#
# Elastic Compliance Matrix: (Units=1/GPa)
#
#
# Indices 1 2 3 4 5 6 
#
# 1 0.012980 -0.003180 -0.007359 0.000000 -0.002858 0.000000
# 2 -0.003180 0.012081 -0.002710 0.000000 0.000150 0.000000
# 3 -0.007359 -0.002710 0.015361 0.000000 0.003800 0.000000
# 4 0.000000 0.000000 0.000000 0.021974 0.000000 0.001604
# 5 -0.002858 0.000150 0.003800 0.000000 0.027363 0.000000
# 6 0.000000 0.000000 0.000000 0.001604 0.000000 0.027140
#
#
# Mechanical properties :
#
#
# Convention : Reuss Voigt Hill
#
# Bulk Modulus (GPa) = 71.81107 74.31614 73.06360
# Shear Modulus (GPa) = 33.77540 36.19697 34.98619
#
# Velocity S-wave (km/s) = 3.81422 3.94859 3.88198
# Velocity P-wave (km/s) = 7.09431 7.26630 7.18082
#
# Compressibility (1/GPa) = 0.01392543
#
# Stress axis : x y z
#
# Youngs Moduli (GPa) = 77.04394 82.77537 65.09886
#
# Poissons Ratio (x) = 0.26318 0.47904
# Poissons Ratio (y) = 0.24496 0.17642
# Poissons Ratio (z) = 0.56694 0.22433
#
# Static dielectric constant tensor:
#      x y z
#    x 4.593190 0.000000 -0.060180 
#    y 0.000000 4.188470 0.000000 
#    z -0.060180 0.000000 4.288720 
# 
# 
# High freq. dielectric constant tensor:
#      x y z
#    x 1.938960 0.000000 -0.008060 
#    y 0.000000 1.915870 0.000000 
#    z -0.008060 0.000000 1.929250 
# 
# From -- ./inp_files/197551.got.cif
#   From: 2010.06.25/outbox.cif.g09.slc.cpg/sg12_99_cif.got.tgz:197551.got - 2010.06.28 00:19:55.
