data_PCOD8101857
_publ_section_title
;
Structure prediction by ZEFSAII (Michael W. Deem and Ramdas Pophale) SiO2 
 PCOD8101857
Probable space group: C 2/M
;
_chemical_formula_sum "Si O2"
_cell_formula_units_Z 56
_cell_length_a 20.967018
_cell_length_b 8.617312
_cell_length_c 20.151463
_cell_angle_alpha 90.000000
_cell_angle_beta 48.971007
_cell_angle_gamma 90.000000
_cell_volume 2746.652993
_symmetry_space_group_name_H-M "C 2/M"
_symmetry_group_IT_number 12
_symmetry_cell_setting 'monoclinic'
loop_
_space_group_symop_operation_xyz
x,y,z
-x,y,-z
-x,-y,-z
x,-y,z
1/2+x,1/2+y,z
1/2-x,1/2+y,-z
1/2-x,1/2-y,-z
1/2+x,1/2-y,z
loop_
_atom_site_type_symbol
_atom_site_label
_atom_site_fract_x
_atom_site_fract_y
_atom_site_fract_z
Si Si1 0.587776 0.319963 0.379776
Si Si2 0.588983 0.179483 0.506124
Si Si3 0.380469 0.827610 0.772472
Si Si4 0.970390 0.683655 0.231159
Si Si5 0.660813 0.319052 0.583199
Si Si6 0.463192 0.183586 0.955367
Si Si7 0.210144 0.828186 0.963975
O O1 0.563608 0.500000 0.404504
O O2 0.640255 0.260665 0.409321
O O3 0.510049 0.201035 0.436263
O O4 0.632023 0.291716 0.279702
O O5 0.599480 0.277665 0.565495
O O6 0.615821 0.000000 0.496086
O O7 0.447645 0.763528 0.781157
O O8 0.285613 0.838820 0.861193
O O9 0.410816 0.000000 0.729244
O O10 0.962741 0.500000 0.237528
O O11 0.882364 0.751997 0.320138
O O12 0.984633 0.742935 0.145411
O O13 0.672033 0.500000 0.586514
O O14 0.750000 0.250000 0.500000
O O15 0.467668 0.000000 0.954126
O O16 0.500000 0.251633 0.000000
O O17 0.365768 0.230698 0.015469
O O18 0.176588 0.000000 0.004789
O O19 0.250000 0.750000 0.000000
#
# Coordination Sequence:
#
# PCOD8101857 Si02
#       7
#     8   8   8   8   8   8   8
#     4  11  21  34  56  87 118 153 197 246 298 365
#     4  11  21  37  59  83 116 156 193 244 307 362
#     4  10  20  36  59  87 122 161 202 255 318 375
#     4  10  20  39  65  90 121 162 208 258 320 381
#     4  12  25  42  63  89 119 159 211 260 311 372
#     4  10  22  43  68  94 129 172 213 262 325 386
#     4  11  22  38  63  94 128 164 209 265 318 378
#
# _framework density 20.388449999999999
#
# number of rings (size 3 to 8) (size 9 to 14) (size 15 to 20)
#    0.000    1.286    2.857    5.143    0.000    2.000 
#    2.571    0.000    0.000    0.000    0.000    0.000 
#    0.000    0.000    0.000    0.000    0.000    0.000 
#
# Total GULP energy -346910.239239 kJ/mol
# GULP energy per Si atom -12389.651401 kJ/mol
# Density = 2.034205 g / cm^3
# Si number density = 20.388450 Si / 1000 Ang^3
#
#
#
# Elastic Constant Matrix: (Units=GPa)
#
#
# Indices 1 2 3 4 5 6 
#
# 1 83.9575 17.0436 55.2052 0.0000 13.0805 0.0001
# 2 17.0436 62.7441 44.9231 -0.0001 10.6718 0.0003
# 3 55.2052 44.9231 139.1944 0.0001 16.2997 0.0000
# 4 0.0000 -0.0001 0.0001 29.1685 0.0000 -1.1379
# 5 13.0805 10.6718 16.2997 0.0000 39.8488 0.0000
# 6 0.0001 0.0003 0.0000 -1.1379 0.0000 26.0208
#
#
#
# Elastic Compliance Matrix: (Units=1/GPa)
#
#
# Indices 1 2 3 4 5 6 
#
# 1 0.016435 0.000594 -0.006364 0.000000 -0.002951 0.000000
# 2 0.000594 0.021086 -0.006677 0.000000 -0.003111 0.000000
# 3 -0.006364 -0.006677 0.011983 0.000000 -0.001024 0.000000
# 4 0.000000 0.000000 0.000000 0.034342 0.000000 0.001502
# 5 -0.002951 -0.003111 -0.001024 0.000000 0.027316 0.000000
# 6 0.000000 0.000000 0.000000 0.001502 0.000000 0.038496
#
#
# Mechanical properties :
#
#
# Convention : Reuss Voigt Hill
#
# Bulk Modulus (GPa) = 40.63346 57.80439 49.21893
# Shear Modulus (GPa) = 27.35917 30.25590 28.80754
#
# Velocity S-wave (km/s) = 3.66716 3.85642 3.76298
# Velocity P-wave (km/s) = 6.15660 6.94567 6.56300
#
# Compressibility (1/GPa) = 0.02461026
#
# Stress axis : x y z
#
# Youngs Moduli (GPa) = 60.84705 47.42559 83.45130
#
# Poissons Ratio (x) = -0.02819 0.53111
# Poissons Ratio (y) = -0.03616 0.55716
# Poissons Ratio (z) = 0.38725 0.31664
#
# Static dielectric constant tensor:
#      x y z
#    x 7.635660 0.000000 2.772110 
#    y 0.000000 3.803580 0.000000 
#    z 2.772110 0.000000 5.007240 
# 
# 
# High freq. dielectric constant tensor:
#      x y z
#    x 1.780030 0.000000 0.020600 
#    y 0.000000 1.794980 0.000000 
#    z 0.020600 0.000000 1.806530 
# 
# From -- ./inp_files/319672.got.cif
#   From: 2010.06.25/outbox.cif.g09.slc.cpg/sg12_160_cif.got.tgz:319672.got - 2010.06.28 00:19:55.
