data_PCOD8101834
_publ_section_title
;
Structure prediction by ZEFSAII (Michael W. Deem and Ramdas Pophale) SiO2 
 PCOD8101834
Probable space group: C 2/M
;
_chemical_formula_sum "Si O2"
_cell_formula_units_Z 48
_cell_length_a 18.769193
_cell_length_b 12.388457
_cell_length_c 15.448934
_cell_angle_alpha 90.000000
_cell_angle_beta 136.905583
_cell_angle_gamma 90.000000
_cell_volume 2454.205133
_symmetry_space_group_name_H-M "C 2/M"
_symmetry_group_IT_number 12
_symmetry_cell_setting 'monoclinic'
loop_
_space_group_symop_operation_xyz
x,y,z
-x,y,-z
-x,-y,-z
x,-y,z
1/2+x,1/2+y,z
1/2-x,1/2+y,-z
1/2-x,1/2-y,-z
1/2+x,1/2-y,z
loop_
_atom_site_type_symbol
_atom_site_label
_atom_site_fract_x
_atom_site_fract_y
_atom_site_fract_z
Si Si1 0.748880 0.769149 0.862263
Si Si2 0.105920 0.875188 0.145914
Si Si3 0.592798 0.763931 0.307511
Si Si4 0.890250 0.877382 0.366701
Si Si5 0.373393 0.873433 0.097189
Si Si6 0.802262 0.120319 0.469412
O O1 0.797226 0.835039 0.825687
O O2 0.649373 0.698676 0.745107
O O3 0.708885 0.853509 0.898577
O O4 0.835351 0.688231 0.977564
O O5 0.098699 0.808297 0.227223
O O6 0.124499 0.000000 0.185880
O O7 0.000000 0.858505 0.000000
O O8 0.486436 0.829142 0.222407
O O9 0.686205 0.849038 0.393668
O O10 0.606882 0.689818 0.404608
O O11 0.807174 0.870335 0.370369
O O12 0.000000 0.834573 0.500000
O O13 0.901797 0.000000 0.341799
O O14 0.379596 0.000000 0.082378
O O15 0.824094 0.000000 0.520391
#
# Coordination Sequence:
#
# PCOD8101834 Si02
#       6
#     8   8   8   8   8   8
#     4  11  22  41  61  87 121 157 196 247 295 355
#     4  11  22  39  62  90 121 158 198 242 298 353
#     4  11  21  39  60  88 122 155 197 248 292 350
#     4  10  20  36  59  87 118 154 197 242 294 350
#     4  11  24  40  61  88 119 157 198 245 302 355
#     4  10  21  36  59  86 118 158 197 241 292 348
#
# _framework density 19.558267000000001
#
# number of rings (size 3 to 8) (size 9 to 14) (size 15 to 20)
#    0.000    1.333    3.333    3.000    0.000    0.000 
#    0.000    2.500    0.000    2.000    0.000    0.000 
#    0.000    0.000    0.000    0.000    0.000    0.000 
#
# Total GULP energy -297683.488648 kJ/mol
# GULP energy per Si atom -12403.478694 kJ/mol
# Density = 1.951375 g / cm^3
# Si number density = 19.558267 Si / 1000 Ang^3
#
#
#
# Elastic Constant Matrix: (Units=GPa)
#
#
# Indices 1 2 3 4 5 6 
#
# 1 52.2913 26.6809 2.8684 0.0000 4.9115 0.0000
# 2 26.6809 94.9248 23.0248 0.0000 5.1972 0.0000
# 3 2.8684 23.0248 74.8794 0.0000 14.1640 0.0000
# 4 0.0000 0.0000 0.0000 27.6372 0.0000 2.4870
# 5 4.9115 5.1972 14.1640 0.0000 36.3059 0.0000
# 6 0.0000 0.0000 0.0000 2.4870 0.0000 23.9553
#
#
#
# Elastic Compliance Matrix: (Units=1/GPa)
#
#
# Indices 1 2 3 4 5 6 
#
# 1 0.022676 -0.006633 0.001697 0.000000 -0.002780 0.000000
# 2 -0.006633 0.013327 -0.003944 0.000000 0.000528 0.000000
# 3 0.001697 -0.003944 0.015590 0.000000 -0.005747 0.000000
# 4 0.000000 0.000000 0.000000 0.036524 0.000000 -0.003792
# 5 -0.002780 0.000528 -0.005747 0.000000 0.030086 0.000000
# 6 0.000000 0.000000 0.000000 -0.003792 0.000000 0.042138
#
#
# Mechanical properties :
#
#
# Convention : Reuss Voigt Hill
#
# Bulk Modulus (GPa) = 29.55729 36.36040 32.95884
# Shear Modulus (GPa) = 26.40219 28.88111 27.64165
#
# Velocity S-wave (km/s) = 3.67812 3.84692 3.76346
# Velocity P-wave (km/s) = 5.76050 6.19377 5.98106
#
# Compressibility (1/GPa) = 0.03383260
#
# Stress axis : x y z
#
# Youngs Moduli (GPa) = 44.09930 75.03749 64.14562
#
# Poissons Ratio (x) = 0.49773 -0.10884
# Poissons Ratio (y) = 0.29251 0.25297
# Poissons Ratio (z) = -0.07483 0.29592
#
# Static dielectric constant tensor:
#      x y z
#    x 3.483550 0.000000 0.020140 
#    y 0.000000 3.558510 0.000000 
#    z 0.020140 0.000000 3.651420 
# 
# 
# High freq. dielectric constant tensor:
#      x y z
#    x 1.764700 0.000000 0.002780 
#    y 0.000000 1.764710 0.000000 
#    z 0.002780 0.000000 1.768620 
# 
# From -- ./inp_files/165447.got.cif
#   From: 2010.06.25/outbox.cif.g09.slc.cpg/sg12_83_cif.got.tgz:165447.got - 2010.06.28 00:19:55.
