data_PCOD8101208
_publ_section_title
;
Structure prediction by ZEFSAII (Michael W. Deem and Ramdas Pophale) SiO2 
 PCOD8101208
Probable space group: C 2/M
;
_chemical_formula_sum "Si O2"
_cell_formula_units_Z 56
_cell_length_a 29.572803
_cell_length_b 8.881638
_cell_length_c 21.649921
_cell_angle_alpha 90.000000
_cell_angle_beta 149.157671
_cell_angle_gamma 90.000000
_cell_volume 2915.318237
_symmetry_space_group_name_H-M "C 2/M"
_symmetry_group_IT_number 12
_symmetry_cell_setting 'monoclinic'
loop_
_space_group_symop_operation_xyz
x,y,z
-x,y,-z
-x,-y,-z
x,-y,z
1/2+x,1/2+y,z
1/2-x,1/2+y,-z
1/2-x,1/2-y,-z
1/2+x,1/2-y,z
loop_
_atom_site_type_symbol
_atom_site_label
_atom_site_fract_x
_atom_site_fract_y
_atom_site_fract_z
Si Si1 0.517376 0.673168 0.791379
Si Si2 0.476314 0.177199 0.616948
Si Si3 0.357580 0.678005 0.844828
Si Si4 0.483410 0.677038 0.885540
Si Si5 0.723829 0.672376 0.032308
Si Si6 0.669978 0.673340 0.629843
Si Si7 0.366821 0.326598 0.274646
O O1 0.492323 0.500000 0.747587
O O2 0.483419 0.777062 0.696603
O O3 0.472879 0.734046 0.802678
O O4 0.621091 0.689984 0.923465
O O5 0.381575 0.229775 0.481276
O O6 0.552649 0.251961 0.666427
O O7 0.484906 0.000000 0.620918
O O8 0.339501 0.500000 0.830181
O O9 0.396165 0.717956 0.822101
O O10 0.268969 0.769138 0.751040
O O11 0.428034 0.739061 0.977687
O O12 0.497115 0.500000 0.900505
O O13 0.753602 0.500000 0.063869
O O14 0.774706 0.750103 0.148334
O O15 0.750000 0.750000 0.000000
O O16 0.669979 0.500000 0.609224
O O17 0.620560 0.691901 0.637417
O O18 0.364012 0.500000 0.251093
#
# Coordination Sequence:
#
# PCOD8101208 Si02
#       7
#     8   8   8   8   8   8   8
#     4  10  20  36  57  82 116 154 187 224 280 336
#     4  12  25  39  57  80 109 148 194 239 280 333
#     4   9  17  35  62  90 116 142 184 232 276 330
#     4   8  16  33  61  91 116 146 181 226 279 333
#     4  11  21  33  55  84 116 150 185 228 276 329
#     4  11  24  40  58  81 112 149 188 233 286 337
#     4  11  23  39  58  81 112 150 189 233 284 337
#
# _framework density 19.208880000000001
#
# number of rings (size 3 to 8) (size 9 to 14) (size 15 to 20)
#    0.000    1.714    1.429    4.714    0.000    5.714 
#    0.000    3.571    0.000    0.000    0.000    0.000 
#    0.000    0.000    0.000    0.000    0.000    0.000 
#
# Total GULP energy -347245.421773 kJ/mol
# GULP energy per Si atom -12401.622206 kJ/mol
# Density = 1.916516 g / cm^3
# Si number density = 19.208880 Si / 1000 Ang^3
#
#
#
# Elastic Constant Matrix: (Units=GPa)
#
#
# Indices 1 2 3 4 5 6 
#
# 1 112.4038 38.3880 30.6166 0.0000 -12.3732 0.0000
# 2 38.3880 106.1000 38.0486 0.0000 -12.7802 0.0000
# 3 30.6166 38.0486 83.2936 0.0000 -10.7296 0.0000
# 4 0.0000 0.0000 0.0000 27.5524 0.0000 0.7123
# 5 -12.3732 -12.7802 -10.7296 0.0000 16.8849 0.0000
# 6 0.0000 0.0000 0.0000 0.7123 0.0000 21.4008
#
#
#
# Elastic Compliance Matrix: (Units=1/GPa)
#
#
# Indices 1 2 3 4 5 6 
#
# 1 0.010895 -0.002587 -0.002229 0.000000 0.004609 0.000000
# 2 -0.002587 0.012419 -0.004090 0.000000 0.004905 0.000000
# 3 -0.002229 -0.004090 0.015340 0.000000 0.005019 0.000000
# 4 0.000000 0.000000 0.000000 0.036326 0.000000 -0.001209
# 5 0.004609 0.004905 0.005019 0.000000 0.069503 0.000000
# 6 0.000000 0.000000 0.000000 -0.001209 0.000000 0.046768
#
#
# Mechanical properties :
#
#
# Convention : Reuss Voigt Hill
#
# Bulk Modulus (GPa) = 47.98352 57.32265 52.65309
# Shear Modulus (GPa) = 23.14716 26.15057 24.64887
#
# Velocity S-wave (km/s) = 3.47511 3.69369 3.58607
# Velocity P-wave (km/s) = 6.41373 6.93525 6.67958
#
# Compressibility (1/GPa) = 0.02084049
#
# Stress axis : x y z
#
# Youngs Moduli (GPa) = 91.78889 80.52376 65.18960
#
# Poissons Ratio (x) = 0.20834 0.14531
# Poissons Ratio (y) = 0.23748 0.26663
# Poissons Ratio (z) = 0.20460 0.32935
#
# Static dielectric constant tensor:
#      x y z
#    x 4.007050 0.000000 -0.085360 
#    y 0.000000 3.366250 0.000000 
#    z -0.085360 0.000000 3.701900 
# 
# 
# High freq. dielectric constant tensor:
#      x y z
#    x 1.752460 0.000000 -0.007910 
#    y 0.000000 1.737720 0.000000 
#    z -0.007910 0.000000 1.744410 
# 
# From -- ./inp_files/329643.got.cif
#   From: 2010.06.25/outbox.cif.g09.slc.cpg/sg12_165_cif.got.tgz:329643.got - 2010.06.28 00:19:55.
