data_PCOD8101256
_publ_section_title
;
Structure prediction by ZEFSAII (Michael W. Deem and Ramdas Pophale) SiO2 
 PCOD8101256
Probable space group: C 2/M
;
_chemical_formula_sum "Si O2"
_cell_formula_units_Z 48
_cell_length_a 28.003510
_cell_length_b 8.864012
_cell_length_c 17.240497
_cell_angle_alpha 90.000000
_cell_angle_beta 143.994319
_cell_angle_gamma 90.000000
_cell_volume 2515.767685
_symmetry_space_group_name_H-M "C 2/M"
_symmetry_group_IT_number 12
_symmetry_cell_setting 'monoclinic'
loop_
_space_group_symop_operation_xyz
x,y,z
-x,y,-z
-x,-y,-z
x,-y,z
1/2+x,1/2+y,z
1/2-x,1/2+y,-z
1/2-x,1/2-y,-z
1/2+x,1/2-y,z
loop_
_atom_site_type_symbol
_atom_site_label
_atom_site_fract_x
_atom_site_fract_y
_atom_site_fract_z
Si Si1 0.338631 0.320217 0.121034
Si Si2 0.019514 0.320007 0.787014
Si Si3 0.960935 0.177526 0.867256
Si Si4 0.872487 0.322897 0.486394
Si Si5 0.595658 0.332064 0.627536
Si Si6 0.277145 0.677323 0.614040
O O1 0.335481 0.500000 0.107140
O O2 0.395474 0.251170 0.128822
O O3 0.374768 0.269780 0.251223
O O4 0.250000 0.250000 0.000000
O O5 0.025907 0.500000 0.793154
O O6 0.003566 0.267463 0.853808
O O7 0.947031 0.257367 0.635980
O O8 0.867686 0.228698 0.753407
O O9 0.970054 0.000000 0.862433
O O10 0.000000 0.223986 0.000000
O O11 0.879553 0.500000 0.500338
O O12 0.872818 0.275614 0.397969
O O13 0.785848 0.265015 0.403874
O O14 0.500000 0.332569 0.500000
O O15 0.629959 0.500000 0.658290
O O16 0.271632 0.500000 0.597184
O O17 0.250000 0.750000 0.500000
#
# Coordination Sequence:
#
# PCOD8101256 Si02
#       6
#     8   8   8   8   8   8
#     4  11  24  42  63  89 123 159 199 246 300 359
#     4  11  22  38  61  89 121 157 200 246 303 361
#     4  10  22  39  60  87 121 160 201 246 301 359
#     4  10  21  35  57  89 121 155 200 249 297 351
#     4  10  21  38  60  87 117 152 198 245 292 348
#     4  10  20  36  57  84 116 151 195 243 290 346
#
# _framework density 19.079664000000001
#
# number of rings (size 3 to 8) (size 9 to 14) (size 15 to 20)
#    0.000    1.667    3.333    1.000    0.000    4.667 
#    0.000    1.667    0.000    0.000    0.000    0.000 
#    0.000    0.000    0.000    0.000    0.000    0.000 
#
# Total GULP energy -297622.926127 kJ/mol
# GULP energy per Si atom -12400.955255 kJ/mol
# Density = 1.903624 g / cm^3
# Si number density = 19.079664 Si / 1000 Ang^3
#
#
#
# Elastic Constant Matrix: (Units=GPa)
#
#
# Indices 1 2 3 4 5 6 
#
# 1 156.7172 46.1528 68.4943 0.0000 9.3204 0.0000
# 2 46.1528 44.4257 38.5902 0.0000 5.0675 0.0000
# 3 68.4943 38.5902 139.7562 0.0000 6.0470 0.0000
# 4 0.0000 0.0000 0.0000 25.8142 0.0000 -2.8449
# 5 9.3204 5.0675 6.0470 0.0000 37.4539 0.0000
# 6 0.0000 0.0000 0.0000 -2.8449 0.0000 37.1212
#
#
#
# Elastic Compliance Matrix: (Units=1/GPa)
#
#
# Indices 1 2 3 4 5 6 
#
# 1 0.009919 -0.007903 -0.002637 0.000000 -0.000973 0.000000
# 2 -0.007903 0.036183 -0.006033 0.000000 -0.001955 0.000000
# 3 -0.002637 -0.006033 0.010121 0.000000 -0.000161 0.000000
# 4 0.000000 0.000000 0.000000 0.039068 0.000000 0.002994
# 5 -0.000973 -0.001955 -0.000161 0.000000 0.027232 0.000000
# 6 0.000000 0.000000 0.000000 0.002994 0.000000 0.027168
#
#
# Mechanical properties :
#
#
# Convention : Reuss Voigt Hill
#
# Bulk Modulus (GPa) = 43.33404 71.93041 57.63223
# Shear Modulus (GPa) = 26.24269 32.58866 29.41567
#
# Velocity S-wave (km/s) = 3.71270 4.13732 3.93075
# Velocity P-wave (km/s) = 6.41407 7.78493 7.13251
#
# Compressibility (1/GPa) = 0.02307655
#
# Stress axis : x y z
#
# Youngs Moduli (GPa) = 100.82117 27.63709 98.80835
#
# Poissons Ratio (x) = 0.21841 0.26054
# Poissons Ratio (y) = 0.79675 0.59616
# Poissons Ratio (z) = 0.26585 0.16675
#
# Static dielectric constant tensor:
#      x y z
#    x 3.546230 0.000000 0.131040 
#    y 0.000000 3.462860 0.000000 
#    z 0.131040 0.000000 3.597910 
# 
# 
# High freq. dielectric constant tensor:
#      x y z
#    x 1.755340 0.000000 0.003930 
#    y 0.000000 1.735820 0.000000 
#    z 0.003930 0.000000 1.744540 
# 
# From -- ./inp_files/244740.got.cif
#   From: 2010.06.25/outbox.cif.g09.slc.cpg/sg12_123_cif.got.tgz:244740.got - 2010.06.28 00:19:55.
