data_PCOD8101804
_publ_section_title
;
Structure prediction by ZEFSAII (Michael W. Deem and Ramdas Pophale) SiO2 
 PCOD8101804
Probable space group: C 2/M
;
_chemical_formula_sum "Si O2"
_cell_formula_units_Z 56
_cell_length_a 29.711631
_cell_length_b 8.499115
_cell_length_c 11.821431
_cell_angle_alpha 90.000000
_cell_angle_beta 70.989168
_cell_angle_gamma 90.000000
_cell_volume 2822.357578
_symmetry_space_group_name_H-M "C 2/M"
_symmetry_group_IT_number 12
_symmetry_cell_setting 'monoclinic'
loop_
_space_group_symop_operation_xyz
x,y,z
-x,y,-z
-x,-y,-z
x,-y,z
1/2+x,1/2+y,z
1/2-x,1/2+y,-z
1/2-x,1/2-y,-z
1/2+x,1/2-y,z
loop_
_atom_site_type_symbol
_atom_site_label
_atom_site_fract_x
_atom_site_fract_y
_atom_site_fract_z
Si Si1 0.652418 0.181486 0.636885
Si Si2 0.064588 0.186491 0.843157
Si Si3 0.768297 0.817744 0.282939
Si Si4 0.165160 0.182413 0.391695
Si Si5 0.460481 0.683469 0.890061
Si Si6 0.373956 0.683556 0.816251
Si Si7 0.294003 0.816799 0.032237
O O1 0.606017 0.223394 0.745409
O O2 0.698660 0.280427 0.636805
O O3 0.643852 0.217551 0.512082
O O4 0.664512 0.000000 0.644462
O O5 0.014403 0.244577 0.828944
O O6 0.073340 0.000000 0.823432
O O7 0.064226 0.244994 0.974089
O O8 0.720316 0.717272 0.323584
O O9 0.798502 0.774054 0.147062
O O10 0.754310 0.000000 0.295183
O O11 0.134119 0.229330 0.307277
O O12 0.159019 0.000000 0.425279
O O13 0.465707 0.500000 0.905818
O O14 0.428365 0.723644 0.806906
O O15 0.361944 0.500000 0.846921
O O16 0.341290 0.789672 0.922252
O O17 0.286423 0.000000 0.062067
O O18 0.250000 0.750000 0.000000
#
# Coordination Sequence:
#
# PCOD8101804 Si02
#       7
#     8   8   8   8   8   8   8
#     4  12  25  40  58  82 114 151 196 242 292 347
#     4   9  17  35  62  89 117 146 186 234 289 347
#     4  12  24  40  61  84 114 151 194 242 293 345
#     4  11  23  39  58  81 114 155 199 241 286 344
#     4   8  16  33  61  92 116 145 183 233 290 348
#     4  10  20  36  59  86 118 154 195 239 289 344
#     4  12  23  36  56  85 120 155 191 233 284 337
#
# _framework density 19.841569
#
# number of rings (size 3 to 8) (size 9 to 14) (size 15 to 20)
#    0.000    1.429    1.429    6.429    0.000    1.714 
#    0.000    2.857    0.000    4.286    0.000    0.000 
#    0.000    0.000    0.000    0.000    0.000    0.000 
#
# Total GULP energy -347265.681397 kJ/mol
# GULP energy per Si atom -12402.345764 kJ/mol
# Density = 1.979641 g / cm^3
# Si number density = 19.841569 Si / 1000 Ang^3
#
#
#
# Elastic Constant Matrix: (Units=GPa)
#
#
# Indices 1 2 3 4 5 6 
#
# 1 126.5419 15.1212 44.6389 0.0000 18.0796 0.0000
# 2 15.1212 56.2953 22.2740 0.0000 0.4187 0.0000
# 3 44.6389 22.2740 93.3112 0.0000 15.7356 0.0000
# 4 0.0000 0.0000 0.0000 29.9808 0.0000 -3.1672
# 5 18.0796 0.4187 15.7356 0.0000 27.3708 0.0000
# 6 0.0000 0.0000 0.0000 -3.1672 0.0000 21.8958
#
#
#
# Elastic Compliance Matrix: (Units=1/GPa)
#
#
# Indices 1 2 3 4 5 6 
#
# 1 0.010000 -0.001166 -0.003759 0.000000 -0.004427 0.000000
# 2 -0.001166 0.019927 -0.004737 0.000000 0.003188 0.000000
# 3 -0.003759 -0.004737 0.014634 0.000000 -0.005857 0.000000
# 4 0.000000 0.000000 0.000000 0.033872 0.000000 0.004900
# 5 -0.004427 0.003188 -0.005857 0.000000 0.042778 0.000000
# 6 0.000000 0.000000 0.000000 0.004900 0.000000 0.046380
#
#
# Mechanical properties :
#
#
# Convention : Reuss Voigt Hill
#
# Bulk Modulus (GPa) = 39.62353 48.91295 44.26824
# Shear Modulus (GPa) = 25.59811 28.79044 27.19427
#
# Velocity S-wave (km/s) = 3.59573 3.81335 3.70614
# Velocity P-wave (km/s) = 6.10347 6.64034 6.37756
#
# Compressibility (1/GPa) = 0.02523753
#
# Stress axis : x y z
#
# Youngs Moduli (GPa) = 99.99589 50.18313 68.33560
#
# Poissons Ratio (x) = 0.05850 0.25689
# Poissons Ratio (y) = 0.11658 0.32368
# Poissons Ratio (z) = 0.37591 0.23770
#
# Static dielectric constant tensor:
#      x y z
#    x 3.855110 0.000000 0.099790 
#    y 0.000000 3.510590 0.000000 
#    z 0.099790 0.000000 3.657100 
# 
# 
# High freq. dielectric constant tensor:
#      x y z
#    x 1.777640 0.000000 0.009810 
#    y 0.000000 1.761680 0.000000 
#    z 0.009810 0.000000 1.769130 
# 
# From -- ./inp_files/186450.got.cif
#   From: 2010.06.25/outbox.cif.g09.slc.cpg/sg12_94_cif.got.tgz:186450.got - 2010.06.28 00:19:55.
