data_PCOD8101076
_publ_section_title
;
Structure prediction by ZEFSAII (Michael W. Deem and Ramdas Pophale) SiO2 
 PCOD8101076
Probable space group: C 2/M
;
_chemical_formula_sum "Si O2"
_cell_formula_units_Z 56
_cell_length_a 15.400884
_cell_length_b 26.895730
_cell_length_c 8.915816
_cell_angle_alpha 90.000000
_cell_angle_beta 125.515252
_cell_angle_gamma 90.000000
_cell_volume 3006.032216
_symmetry_space_group_name_H-M "C 2/M"
_symmetry_group_IT_number 12
_symmetry_cell_setting 'monoclinic'
loop_
_space_group_symop_operation_xyz
x,y,z
-x,y,-z
-x,-y,-z
x,-y,z
1/2+x,1/2+y,z
1/2-x,1/2+y,-z
1/2-x,1/2-y,-z
1/2+x,1/2-y,z
loop_
_atom_site_type_symbol
_atom_site_label
_atom_site_fract_x
_atom_site_fract_y
_atom_site_fract_z
Si Si1 0.472842 0.100583 0.800530
Si Si2 0.475500 0.308118 0.305153
Si Si3 0.401316 0.626676 0.803818
Si Si4 0.959046 0.305943 0.295145
Si Si5 0.334777 0.055570 0.173188
Si Si6 0.273193 0.654941 0.949413
Si Si7 0.220186 0.556417 0.543943
O O1 0.485640 0.158411 0.770899
O O2 0.548359 0.065746 0.775001
O O3 0.351118 0.084310 0.651398
O O4 0.500000 0.092324 0.000000
O O5 0.500000 0.321584 0.500000
O O6 0.558642 0.336971 0.285214
O O7 0.491644 0.249944 0.288239
O O8 0.353753 0.323881 0.153489
O O9 0.324751 0.658397 0.836024
O O10 0.337164 0.581047 0.667193
O O11 0.500000 0.604935 0.000000
O O12 0.831780 0.311454 0.158582
O O13 0.000000 0.321798 0.500000
O O14 0.252645 0.097500 0.031137
O O15 0.340770 0.060185 0.358687
O O16 0.296430 0.000000 0.088111
O O17 0.237566 0.500000 0.510511
#
# Coordination Sequence:
#
# PCOD8101076 Si02
#       7
#     8   8   8   8   8   8   8
#     4  11  22  33  50  81 114 138 168 214 267 320
#     4  10  21  36  54  78 107 139 174 216 264 311
#     4   9  19  35  55  78 105 134 175 222 257 300
#     4  10  20  37  57  77 103 138 179 216 259 314
#     4   9  18  34  56  78 103 140 179 215 258 308
#     4   9  18  35  56  77 104 137 174 219 259 305
#     4  10  20  36  57  77 103 142 181 215 256 307
#
# _framework density 18.629207999999998
#
# number of rings (size 3 to 8) (size 9 to 14) (size 15 to 20)
#    0.000    2.286    0.000    3.857    0.000    6.571 
#    0.000    8.571    0.000    0.857    0.000    0.000 
#    0.000    0.000    0.000    0.000    0.000    0.000 
#
# Total GULP energy -347239.621077 kJ/mol
# GULP energy per Si atom -12401.415038 kJ/mol
# Density = 1.858681 g / cm^3
# Si number density = 18.629208 Si / 1000 Ang^3
#
#
#
# Elastic Constant Matrix: (Units=GPa)
#
#
# Indices 1 2 3 4 5 6 
#
# 1 91.0498 52.4332 50.6407 0.0000 13.1533 0.0000
# 2 52.4332 111.4492 64.5023 0.0000 4.4900 0.0000
# 3 50.6407 64.5023 128.6779 0.0000 14.8896 0.0000
# 4 0.0000 0.0000 0.0000 22.2839 0.0000 2.1578
# 5 13.1533 4.4900 14.8896 0.0000 21.6592 0.0000
# 6 0.0000 0.0000 0.0000 2.1578 0.0000 23.1772
#
#
#
# Elastic Compliance Matrix: (Units=1/GPa)
#
#
# Indices 1 2 3 4 5 6 
#
# 1 0.017126 -0.006125 -0.002839 0.000000 -0.007179 0.000000
# 2 -0.006125 0.014901 -0.005576 0.000000 0.004464 0.000000
# 3 -0.002839 -0.005576 0.012331 0.000000 -0.005597 0.000000
# 4 0.000000 0.000000 0.000000 0.045284 0.000000 -0.004216
# 5 -0.007179 0.004464 -0.005597 0.000000 0.053452 0.000000
# 6 0.000000 0.000000 0.000000 -0.004216 0.000000 0.043538
#
#
# Mechanical properties :
#
#
# Convention : Reuss Voigt Hill
#
# Bulk Modulus (GPa) = 65.44659 74.03659 69.74159
# Shear Modulus (GPa) = 22.64433 24.33077 23.48755
#
# Velocity S-wave (km/s) = 3.49023 3.61786 3.55462
# Velocity P-wave (km/s) = 7.17284 7.56838 7.37326
#
# Compressibility (1/GPa) = 0.01527963
#
# Stress axis : x y z
#
# Youngs Moduli (GPa) = 58.38926 67.10739 81.09525
#
# Poissons Ratio (x) = 0.41104 0.23023
# Poissons Ratio (y) = 0.35764 0.45216
# Poissons Ratio (z) = 0.16577 0.37417
#
# Static dielectric constant tensor:
#      x y z
#    x 3.362330 0.000000 0.119940 
#    y 0.000000 3.498140 0.000000 
#    z 0.119940 0.000000 3.381530 
# 
# 
# High freq. dielectric constant tensor:
#      x y z
#    x 1.713700 0.000000 0.009050 
#    y 0.000000 1.726380 0.000000 
#    z 0.009050 0.000000 1.719090 
# 
# From -- ./inp_files/67056.got.cif
#   From: 2010.06.25/outbox.cif.g09.slc.cpg/sg12_34_cif.got.tgz:67056.got - 2010.06.28 00:19:55.
