data_PCOD8101642
_publ_section_title
;
Structure prediction by ZEFSAII (Michael W. Deem and Ramdas Pophale) SiO2 
 PCOD8101642
Probable space group: C 2/M
;
_chemical_formula_sum "Si O2"
_cell_formula_units_Z 40
_cell_length_a 19.277958
_cell_length_b 8.836999
_cell_length_c 27.139068
_cell_angle_alpha 90.000000
_cell_angle_beta 27.331296
_cell_angle_gamma 90.000000
_cell_volume 2122.760694
_symmetry_space_group_name_H-M "C 2/M"
_symmetry_group_IT_number 12
_symmetry_cell_setting 'monoclinic'
loop_
_space_group_symop_operation_xyz
x,y,z
-x,y,-z
-x,-y,-z
x,-y,z
1/2+x,1/2+y,z
1/2-x,1/2+y,-z
1/2-x,1/2-y,-z
1/2+x,1/2-y,z
loop_
_atom_site_type_symbol
_atom_site_label
_atom_site_fract_x
_atom_site_fract_y
_atom_site_fract_z
Si Si1 0.337497 0.326782 0.082630
Si Si2 0.195587 0.824398 0.083712
Si Si3 0.538695 0.823955 0.328877
Si Si4 0.895408 0.820496 0.326238
Si Si5 0.417965 0.677964 0.500756
O O1 0.332238 0.500000 0.067791
O O2 0.312275 0.218214 0.052616
O O3 0.211760 0.298791 0.203709
O O4 0.500000 0.281596 0.000000
O O5 0.028057 0.770373 0.205077
O O6 0.198268 0.000000 0.072993
O O7 0.250000 0.750000 0.000000
O O8 0.422696 0.756530 0.361997
O O9 0.521753 0.736843 0.390858
O O10 0.499033 0.000000 0.361005
O O11 0.741450 0.763242 0.399508
O O12 0.891601 0.000000 0.336429
O O13 0.500000 0.718557 0.500000
O O14 0.390728 0.500000 0.512519
#
# Coordination Sequence:
#
# PCOD8101642 Si02
#       5
#     8   8   8   8   8
#     4   9  19  36  57  82 111 143 181 223 267 317
#     4  10  21  36  56  82 111 144 181 222 267 318
#     4  10  20  36  59  82 108 144 182 222 268 320
#     4  10  21  38  59  81 107 142 184 224 265 320
#     4  11  24  39  55  79 111 143 178 224 274 322
#
# _framework density 18.843385999999999
#
# number of rings (size 3 to 8) (size 9 to 14) (size 15 to 20)
#    0.000    2.000    0.000    3.000    0.000    6.800 
#    0.000    6.000    0.000    0.000    0.000    0.000 
#    0.000    0.000    0.000    0.000    0.000    0.000 
#
# Total GULP energy -248069.653296 kJ/mol
# GULP energy per Si atom -12403.482665 kJ/mol
# Density = 1.880050 g / cm^3
# Si number density = 18.843386 Si / 1000 Ang^3
#
#
#
# Elastic Constant Matrix: (Units=GPa)
#
#
# Indices 1 2 3 4 5 6 
#
# 1 115.3186 35.0272 73.4080 0.0033 1.7405 0.0007
# 2 35.0272 52.0975 31.7638 0.0047 6.3610 0.0004
# 3 73.4080 31.7638 112.5623 0.0016 4.1577 0.0015
# 4 0.0033 0.0047 0.0016 32.9362 0.0009 3.6177
# 5 1.7405 6.3610 4.1577 0.0009 41.5269 0.0002
# 6 0.0007 0.0004 0.0015 3.6177 0.0002 34.9837
#
#
#
# Elastic Compliance Matrix: (Units=1/GPa)
#
#
# Indices 1 2 3 4 5 6 
#
# 1 0.015995 -0.005434 -0.008937 0.000000 0.001057 0.000000
# 2 -0.005434 0.025385 -0.003497 -0.000003 -0.003310 0.000000
# 3 -0.008937 -0.003497 0.015724 0.000001 -0.000664 -0.000001
# 4 0.000000 -0.000003 0.000001 0.030711 0.000000 -0.003176
# 5 0.001057 -0.003310 -0.000664 0.000000 0.024610 0.000000
# 6 0.000000 0.000000 -0.000001 -0.003176 0.000000 0.028913
#
#
# Mechanical properties :
#
#
# Convention : Reuss Voigt Hill
#
# Bulk Modulus (GPa) = 46.80093 62.26404 54.53248
# Shear Modulus (GPa) = 27.14494 31.20798 29.17646
#
# Velocity S-wave (km/s) = 3.79958 4.07403 3.93920
# Velocity P-wave (km/s) = 6.64378 7.43269 7.04928
#
# Compressibility (1/GPa) = 0.02136710
#
# Stress axis : x y z
#
# Youngs Moduli (GPa) = 62.51840 39.39357 63.59905
#
# Poissons Ratio (x) = 0.21408 0.56838
# Poissons Ratio (y) = 0.33976 0.22240
# Poissons Ratio (z) = 0.55872 0.13776
#
# Static dielectric constant tensor:
#      x y z
#    x 3.400880 0.000000 0.043330 
#    y 0.000000 3.591690 0.000000 
#    z 0.043330 0.000000 3.615770 
# 
# 
# High freq. dielectric constant tensor:
#      x y z
#    x 1.726900 0.000000 -0.000240 
#    y 0.000000 1.744480 0.000000 
#    z -0.000240 0.000000 1.744290 
# 
# From -- ./inp_files/151729.got.cif
#   From: 2010.06.25/outbox.cif.g09.slc.cpg/sg12_76_cif.got.tgz:151729.got - 2010.06.28 00:19:55.
