data_PCOD8101864
_publ_section_title
;
Structure prediction by ZEFSAII (Michael W. Deem and Ramdas Pophale) SiO2 
 PCOD8101864
Probable space group: C 2/M
;
_chemical_formula_sum "Si O2"
_cell_formula_units_Z 56
_cell_length_a 22.926588
_cell_length_b 9.010571
_cell_length_c 14.404167
_cell_angle_alpha 90.000000
_cell_angle_beta 69.280664
_cell_angle_gamma 90.000000
_cell_volume 2783.186347
_symmetry_space_group_name_H-M "C 2/M"
_symmetry_group_IT_number 12
_symmetry_cell_setting 'monoclinic'
loop_
_space_group_symop_operation_xyz
x,y,z
-x,y,-z
-x,-y,-z
x,-y,z
1/2+x,1/2+y,z
1/2-x,1/2+y,-z
1/2-x,1/2-y,-z
1/2+x,1/2-y,z
loop_
_atom_site_type_symbol
_atom_site_label
_atom_site_fract_x
_atom_site_fract_y
_atom_site_fract_z
Si Si1 0.219743 0.669018 0.603262
Si Si2 0.091537 0.828480 0.692915
Si Si3 0.311097 0.326424 0.863724
Si Si4 0.340927 0.332714 0.643908
Si Si5 0.937839 0.828966 0.084486
Si Si6 0.330904 0.825444 0.035953
Si Si7 0.557889 0.825285 0.529395
O O1 0.203022 0.500000 0.585428
O O2 0.250000 0.750000 0.500000
O O3 0.158043 0.752376 0.669409
O O4 0.267782 0.673896 0.661330
O O5 0.053419 0.809310 0.809804
O O6 0.052533 0.752837 0.632243
O O7 0.102215 0.000000 0.661574
O O8 0.315160 0.500000 0.883523
O O9 0.346828 0.286822 0.748234
O O10 0.238951 0.276661 0.896832
O O11 0.346398 0.238477 0.925133
O O12 0.366180 0.500000 0.613459
O O13 0.378564 0.220610 0.557725
O O14 0.878018 0.738479 0.084977
O O15 0.926979 0.000000 0.063953
O O16 0.000000 0.767175 0.000000
O O17 0.339201 0.000000 0.029103
O O18 0.500000 0.772079 0.500000
O O19 0.557838 0.000000 0.544964
#
# Coordination Sequence:
#
# PCOD8101864 Si02
#       7
#     8   8   8   8   8   8   8
#     4  11  21  35  59  91 124 155 192 241 295 351
#     4  11  23  40  63  89 117 156 200 245 301 356
#     4   9  19  36  58  85 119 155 189 235 292 350
#     4  10  21  37  59  86 116 154 197 236 286 353
#     4  10  23  42  62  85 116 156 203 249 294 351
#     4  10  20  36  59  88 118 151 192 242 297 350
#     4  11  25  42  59  82 116 155 195 243 295 350
#
# _framework density 20.120823000000001
#
# number of rings (size 3 to 8) (size 9 to 14) (size 15 to 20)
#    0.000    1.714    1.429    2.571    0.000    6.571 
#    0.000    4.286    0.000    0.000    0.000    0.000 
#    0.000    0.000    0.000    0.000    0.000    0.000 
#
# Total GULP energy -347315.095430 kJ/mol
# GULP energy per Si atom -12404.110551 kJ/mol
# Density = 2.007503 g / cm^3
# Si number density = 20.120823 Si / 1000 Ang^3
#
#
#
# Elastic Constant Matrix: (Units=GPa)
#
#
# Indices 1 2 3 4 5 6 
#
# 1 90.3194 38.5816 34.7911 0.0000 12.5355 0.0000
# 2 38.5816 96.4911 46.4807 0.0000 8.7045 0.0000
# 3 34.7911 46.4807 119.7859 0.0000 10.5783 0.0000
# 4 0.0000 0.0000 0.0000 25.2334 0.0000 8.3185
# 5 12.5355 8.7045 10.5783 0.0000 32.5555 0.0000
# 6 0.0000 0.0000 0.0000 8.3185 0.0000 32.1844
#
#
#
# Elastic Compliance Matrix: (Units=1/GPa)
#
#
# Indices 1 2 3 4 5 6 
#
# 1 0.014253 -0.004344 -0.002133 0.000000 -0.003634 0.000000
# 2 -0.004344 0.014180 -0.004173 0.000000 -0.000763 0.000000
# 3 -0.002133 -0.004173 0.010724 0.000000 -0.001547 0.000000
# 4 0.000000 0.000000 0.000000 0.043321 0.000000 -0.011197
# 5 -0.003634 -0.000763 -0.001547 0.000000 0.032823 0.000000
# 6 0.000000 0.000000 0.000000 -0.011197 0.000000 0.033965
#
#
# Mechanical properties :
#
#
# Convention : Reuss Voigt Hill
#
# Bulk Modulus (GPa) = 56.00297 60.70038 58.35167
# Shear Modulus (GPa) = 28.32571 30.44420 29.38495
#
# Velocity S-wave (km/s) = 3.75611 3.89404 3.82570
# Velocity P-wave (km/s) = 6.83410 7.10292 6.96981
#
# Compressibility (1/GPa) = 0.01785620
#
# Stress axis : x y z
#
# Youngs Moduli (GPa) = 70.15856 70.52429 93.25031
#
# Poissons Ratio (x) = 0.30634 0.19894
# Poissons Ratio (y) = 0.30475 0.38915
# Poissons Ratio (z) = 0.14968 0.29431
#
# Static dielectric constant tensor:
#      x y z
#    x 3.529090 0.000000 0.243800 
#    y 0.000000 3.679090 0.000000 
#    z 0.243800 0.000000 3.576190 
# 
# 
# High freq. dielectric constant tensor:
#      x y z
#    x 1.776800 0.000000 0.012280 
#    y 0.000000 1.787730 0.000000 
#    z 0.012280 0.000000 1.793640 
# 
# From -- ./inp_files/237415.got.cif
#   From: 2010.06.25/outbox.cif.g09.slc.cpg/sg12_119_cif.got.tgz:237415.got - 2010.06.28 00:19:55.
