data_PCOD8101049
_publ_section_title
;
Structure prediction by ZEFSAII (Michael W. Deem and Ramdas Pophale) SiO2 
 PCOD8101049
Probable space group: C 2/M
;
_chemical_formula_sum "Si O2"
_cell_formula_units_Z 44
_cell_length_a 26.872281
_cell_length_b 12.478880
_cell_length_c 13.435675
_cell_angle_alpha 90.000000
_cell_angle_beta 28.514334
_cell_angle_gamma 90.000000
_cell_volume 2150.812643
_symmetry_space_group_name_H-M "C 2/M"
_symmetry_group_IT_number 12
_symmetry_cell_setting 'monoclinic'
loop_
_space_group_symop_operation_xyz
x,y,z
-x,y,-z
-x,-y,-z
x,-y,z
1/2+x,1/2+y,z
1/2-x,1/2+y,-z
1/2-x,1/2-y,-z
1/2+x,1/2-y,z
loop_
_atom_site_type_symbol
_atom_site_label
_atom_site_fract_x
_atom_site_fract_y
_atom_site_fract_z
Si Si1 0.529593 0.373631 0.145494
Si Si2 0.698980 0.307582 0.433775
Si Si3 0.621528 0.125774 0.267075
Si Si4 0.295955 0.240923 0.066936
Si Si5 0.183825 0.619477 0.591353
Si Si6 0.000000 0.241902 0.000000
O O1 0.535075 0.500000 0.136503
O O2 0.420350 0.332089 0.381564
O O3 0.548798 0.332466 0.999574
O O4 0.617273 0.329978 0.065186
O O5 0.768717 0.328020 0.213657
O O6 0.729785 0.383344 0.473026
O O7 0.720521 0.183846 0.429003
O O8 0.500000 0.152632 0.500000
O O9 0.690665 0.198377 0.219003
O O10 0.642778 0.000000 0.247741
O O11 0.657399 0.155975 0.092723
O O12 0.156022 0.500000 0.606421
O O13 0.084465 0.680148 0.806643
#
# Coordination Sequence:
#
# PCOD8101049 Si02
#       6
#     8   8   8   8   8   4
#     4  11  22  37  60  87 121 164 205 251 302 355
#     4  10  22  38  56  89 123 162 210 251 296 361
#     4  10  23  43  67  93 120 155 199 256 318 369
#     4  11  22  42  64  91 125 156 204 256 302 374
#     4  10  20  36  56  83 125 168 208 252 295 348
#     4  10  20  38  54  86 122 164 212 250 288 362
#
# _framework density 20.457384000000001
#
# number of rings (size 3 to 8) (size 9 to 14) (size 15 to 20)
#    0.000    1.636    1.818    2.727    0.000    2.909 
#    0.000    2.727    0.000    6.000    0.000    0.000 
#    0.000    0.000    0.000    0.000    0.000    0.000 
#
# Total GULP energy -272800.989442 kJ/mol
# GULP energy per Si atom -12400.044975 kJ/mol
# Density = 2.041082 g / cm^3
# Si number density = 20.457384 Si / 1000 Ang^3
#
#
#
# Elastic Constant Matrix: (Units=GPa)
#
#
# Indices 1 2 3 4 5 6 
#
# 1 42.9151 -14.0690 2.9116 0.0000 -10.2906 0.0000
# 2 -14.0690 75.4067 -10.9020 0.0000 -7.6378 0.0000
# 3 2.9116 -10.9020 67.0581 0.0000 -10.4765 0.0000
# 4 0.0000 0.0000 0.0000 16.8552 0.0000 4.8689
# 5 -10.2906 -7.6378 -10.4765 0.0000 40.6388 0.0000
# 6 0.0000 0.0000 0.0000 4.8689 0.0000 13.3406
#
#
#
# Elastic Compliance Matrix: (Units=1/GPa)
#
#
# Indices 1 2 3 4 5 6 
#
# 1 0.027215 0.006080 0.001107 0.000000 0.008319 0.000000
# 2 0.006080 0.015365 0.003048 0.000000 0.005213 0.000000
# 3 0.001107 0.003048 0.016143 0.000000 0.005015 0.000000
# 4 0.000000 0.000000 0.000000 0.066321 0.000000 -0.024205
# 5 0.008319 0.005213 0.005015 0.000000 0.028986 0.000000
# 6 0.000000 0.000000 0.000000 -0.024205 0.000000 0.083794
#
#
# Mechanical properties :
#
#
# Convention : Reuss Voigt Hill
#
# Bulk Modulus (GPa) = 12.62732 15.69568 14.16150
# Shear Modulus (GPa) = 20.51272 27.99620 24.25446
#
# Velocity S-wave (km/s) = 3.16999 3.70336 3.44700
# Velocity P-wave (km/s) = 4.42542 5.09662 4.77283
#
# Compressibility (1/GPa) = 0.07919338
#
# Stress axis : x y z
#
# Youngs Moduli (GPa) = 36.74450 65.08470 61.94465
#
# Poissons Ratio (x) = -0.39573 -0.06855
# Poissons Ratio (y) = -0.22342 -0.18883
# Poissons Ratio (z) = -0.04066 -0.19840
#
# Static dielectric constant tensor:
#      x y z
#    x 3.877620 0.000000 0.004100 
#    y 0.000000 3.525840 0.000000 
#    z 0.004100 0.000000 3.952290 
# 
# 
# High freq. dielectric constant tensor:
#      x y z
#    x 1.796330 0.000000 -0.006230 
#    y 0.000000 1.791080 0.000000 
#    z -0.006230 0.000000 1.817470 
# 
# From -- ./inp_files/245533.got.cif
#   From: 2010.06.25/outbox.cif.g09.slc.cpg/sg12_123_cif.got.tgz:245533.got - 2010.06.28 00:19:55.
