data_PCOD8101869
_publ_section_title
;
Structure prediction by ZEFSAII (Michael W. Deem and Ramdas Pophale) SiO2 
 PCOD8101869
Probable space group: C 2/M
;
_chemical_formula_sum "Si O2"
_cell_formula_units_Z 64
_cell_length_a 9.272896
_cell_length_b 15.442393
_cell_length_c 27.228064
_cell_angle_alpha 90.000000
_cell_angle_beta 52.739242
_cell_angle_gamma 90.000000
_cell_volume 3103.122306
_symmetry_space_group_name_H-M "C 2/M"
_symmetry_group_IT_number 12
_symmetry_cell_setting 'monoclinic'
loop_
_space_group_symop_operation_xyz
x,y,z
-x,y,-z
-x,-y,-z
x,-y,z
1/2+x,1/2+y,z
1/2-x,1/2+y,-z
1/2-x,1/2-y,-z
1/2+x,1/2-y,z
loop_
_atom_site_type_symbol
_atom_site_label
_atom_site_fract_x
_atom_site_fract_y
_atom_site_fract_z
Si Si1 0.256064 0.897759 0.223925
Si Si2 0.446138 0.601036 0.119205
Si Si3 0.460525 0.402263 0.638333
Si Si4 0.079162 0.102852 0.767292
Si Si5 0.820991 0.341305 0.003010
Si Si6 0.816967 0.598243 0.629921
Si Si7 0.540125 0.744019 0.546463
Si Si8 0.137396 0.400589 0.113288
O O1 0.203884 0.877898 0.291073
O O2 0.104972 0.857889 0.218381
O O3 0.452567 0.855802 0.171334
O O4 0.262898 0.000000 0.213828
O O5 0.411497 0.500000 0.127409
O O6 0.393967 0.640720 0.183319
O O7 0.314191 0.642020 0.104040
O O8 0.658303 0.615872 0.066591
O O9 0.434207 0.500000 0.623088
O O10 0.647608 0.396575 0.628732
O O11 0.458176 0.333490 0.595400
O O12 0.252725 0.126619 0.697851
O O13 0.058935 0.000000 0.772533
O O14 0.857799 0.395600 0.946420
O O15 0.750000 0.250000 0.000000
O O16 0.000000 0.337138 0.000000
O O17 0.895332 0.500000 0.614046
O O18 0.969185 0.663360 0.579826
O O19 0.500000 0.719802 0.500000
O O20 0.750000 0.750000 0.500000
O O21 0.134060 0.500000 0.129153
#
# Coordination Sequence:
#
# PCOD8101869 Si02
#       8
#     8   8   8   8   8   8   8   8
#     4   8  15  32  59  85 110 148 198 243 288 348
#     4  10  20  36  59  88 120 152 191 243 295 348
#     4   9  19  39  64  88 120 162 205 252 306 360
#     4   8  15  32  59  86 110 145 200 247 284 343
#     4  12  25  40  57  79 115 155 201 245 293 354
#     4   9  19  39  65  88 117 164 209 248 301 367
#     4  12  24  40  61  91 126 157 203 252 298 364
#     4  10  20  36  59  88 120 153 191 240 297 351
#
# _framework density 20.624389000000001
#
# number of rings (size 3 to 8) (size 9 to 14) (size 15 to 20)
#    0.000    2.250    1.250    3.750    0.000    4.000 
#    4.500    0.000    0.000    0.000    0.000    0.000 
#    0.000    0.000    0.000    0.000    0.000    0.000 
#
# Total GULP energy -396569.337635 kJ/mol
# GULP energy per Si atom -12392.791801 kJ/mol
# Density = 2.057745 g / cm^3
# Si number density = 20.624389 Si / 1000 Ang^3
#
#
#
# Elastic Constant Matrix: (Units=GPa)
#
#
# Indices 1 2 3 4 5 6 
#
# 1 127.6177 24.3084 54.9649 -0.0002 11.8157 0.0001
# 2 24.3084 59.9238 38.2958 -0.0001 7.3703 0.0000
# 3 54.9649 38.2958 137.1482 -0.0004 13.9731 0.0002
# 4 -0.0002 -0.0001 -0.0004 -8.9425 0.0003 0.0417
# 5 11.8157 7.3703 13.9731 0.0003 36.8327 -0.0001
# 6 0.0001 0.0000 0.0002 0.0417 -0.0001 21.7207
#
#
#
# Elastic Compliance Matrix: (Units=1/GPa)
#
#
# Indices 1 2 3 4 5 6 
#
# 1 0.009702 -0.001657 -0.003269 0.000000 -0.001541 0.000000
# 2 -0.001657 0.020737 -0.004949 0.000000 -0.001740 0.000000
# 3 -0.003269 -0.004949 0.010168 0.000000 -0.001819 0.000000
# 4 0.000000 0.000000 0.000000 -0.111824 0.000001 0.000215
# 5 -0.001541 -0.001740 -0.001819 0.000001 0.028682 0.000000
# 6 0.000000 0.000000 0.000000 0.000215 0.000000 0.046039
#
#
# Mechanical properties :
#
#
# Convention : Reuss Voigt Hill
#
# Bulk Modulus (GPa) = 47.94323 62.20310 55.07317
# Shear Modulus (GPa) = 165.52958 23.73022 94.62990
#
# Velocity S-wave (km/s) = 8.96847 3.39572 6.78101
# Velocity P-wave (km/s) = 11.42545 6.75277 9.38458
#
# Compressibility (1/GPa) = 0.02085800
#
# Stress axis : x y z
#
# Youngs Moduli (GPa) = 103.07164 48.22327 98.34330
#
# Poissons Ratio (x) = 0.07992 0.32144
# Poissons Ratio (y) = 0.17082 0.48668
# Poissons Ratio (z) = 0.33689 0.23865
#
# Static dielectric constant tensor:
#      x y z
#    x 4.071270 0.000000 0.132110 
#    y 0.000000 3.527630 0.000000 
#    z 0.132110 0.000000 4.001770 
# 
# 
# High freq. dielectric constant tensor:
#      x y z
#    x 1.802750 0.000000 0.002130 
#    y 0.000000 1.781920 0.000000 
#    z 0.002130 0.000000 1.820120 
# 
# From -- ./inp_files/372574.got.cif
#   From: 2010.06.25/outbox.cif.g09.slc.cpg/sg12_187_cif.got.tgz:372574.got - 2010.06.28 00:19:55.
