data_PCOD8101775
_publ_section_title
;
Structure prediction by ZEFSAII (Michael W. Deem and Ramdas Pophale) SiO2 
 PCOD8101775
Probable space group: C 2/M
;
_chemical_formula_sum "Si O2"
_cell_formula_units_Z 48
_cell_length_a 20.212510
_cell_length_b 8.598209
_cell_length_c 19.266938
_cell_angle_alpha 90.000000
_cell_angle_beta 130.749874
_cell_angle_gamma 90.000000
_cell_volume 2536.656497
_symmetry_space_group_name_H-M "C 2/M"
_symmetry_group_IT_number 12
_symmetry_cell_setting 'monoclinic'
loop_
_space_group_symop_operation_xyz
x,y,z
-x,y,-z
-x,-y,-z
x,-y,z
1/2+x,1/2+y,z
1/2-x,1/2+y,-z
1/2-x,1/2-y,-z
1/2+x,1/2-y,z
loop_
_atom_site_type_symbol
_atom_site_label
_atom_site_fract_x
_atom_site_fract_y
_atom_site_fract_z
Si Si1 0.775136 0.182923 0.728637
Si Si2 0.221055 0.182028 0.552833
Si Si3 0.742053 0.181069 0.070024
Si Si4 0.871753 0.817974 0.276662
Si Si5 0.036317 0.320911 0.448769
Si Si6 0.599301 0.815648 0.079104
O O1 0.779060 0.232966 0.651197
O O2 0.692983 0.269758 0.706154
O O3 0.865137 0.233169 0.827191
O O4 0.760487 0.000000 0.725276
O O5 0.250000 0.250000 0.500000
O O6 0.118891 0.212375 0.493471
O O7 0.240280 0.000000 0.568928
O O8 0.828191 0.223996 0.173005
O O9 0.656305 0.242643 0.052207
O O10 0.732284 0.000000 0.054192
O O11 0.750000 0.250000 0.000000
O O12 0.961835 0.723638 0.342303
O O13 0.890855 0.000000 0.296894
O O14 0.063601 0.500000 0.457603
O O15 0.000000 0.287666 0.500000
O O16 0.608440 0.000000 0.095469
O O17 0.500000 0.763131 0.000000
#
# Coordination Sequence:
#
# PCOD8101775 Si02
#       6
#     8   8   8   8   8   8
#     4  11  21  36  59  87 117 151 193 240 290 347
#     4  12  25  42  62  85 119 157 194 239 294 347
#     4   9  19  35  56  83 113 147 184 232 289 339
#     4  10  20  36  59  86 114 153 198 238 285 342
#     4  11  22  37  61  91 119 149 194 241 284 346
#     4   9  19  38  61  83 110 148 195 239 283 344
#
# _framework density 18.922546000000001
#
# number of rings (size 3 to 8) (size 9 to 14) (size 15 to 20)
#    0.000    1.667    1.667    5.000    0.000    4.333 
#    3.000    0.000    0.000    0.000    0.000    0.000 
#    0.000    0.000    0.000    0.000    0.000    0.000 
#
# Total GULP energy -297673.130848 kJ/mol
# GULP energy per Si atom -12403.047119 kJ/mol
# Density = 1.887948 g / cm^3
# Si number density = 18.922546 Si / 1000 Ang^3
#
#
#
# Elastic Constant Matrix: (Units=GPa)
#
#
# Indices 1 2 3 4 5 6 
#
# 1 77.8673 24.1277 67.7083 0.0000 -3.9360 0.0000
# 2 24.1277 43.6951 36.7294 0.0000 -2.3343 0.0000
# 3 67.7083 36.7294 154.1647 0.0000 -4.9533 0.0000
# 4 0.0000 0.0000 0.0000 33.4600 0.0000 -4.3596
# 5 -3.9360 -2.3343 -4.9533 0.0000 38.1065 0.0000
# 6 0.0000 0.0000 0.0000 -4.3596 0.0000 27.1615
#
#
#
# Elastic Compliance Matrix: (Units=1/GPa)
#
#
# Indices 1 2 3 4 5 6 
#
# 1 0.021626 -0.004920 -0.008298 0.000000 0.000854 0.000000
# 2 -0.004920 0.029765 -0.004909 0.000000 0.000677 0.000000
# 3 -0.008298 -0.004909 0.011311 0.000000 0.000312 0.000000
# 4 0.000000 0.000000 0.000000 0.030525 0.000000 0.004899
# 5 0.000854 0.000677 0.000312 0.000000 0.026413 0.000000
# 6 0.000000 0.000000 0.000000 0.004899 0.000000 0.037603
#
#
# Mechanical properties :
#
#
# Convention : Reuss Voigt Hill
#
# Bulk Modulus (GPa) = 37.81166 59.20642 48.50904
# Shear Modulus (GPa) = 24.71428 29.55639 27.13533
#
# Velocity S-wave (km/s) = 3.61789 3.95646 3.79096
# Velocity P-wave (km/s) = 6.12192 7.22691 6.69724
#
# Compressibility (1/GPa) = 0.02644687
#
# Stress axis : x y z
#
# Youngs Moduli (GPa) = 46.24126 33.59630 88.41261
#
# Poissons Ratio (x) = 0.16531 0.73366
# Poissons Ratio (y) = 0.22753 0.43399
# Poissons Ratio (z) = 0.38372 0.16491
#
# Static dielectric constant tensor:
#      x y z
#    x 3.145220 0.000000 0.187630 
#    y 0.000000 3.464930 0.000000 
#    z 0.187630 0.000000 3.611240 
# 
# 
# High freq. dielectric constant tensor:
#      x y z
#    x 1.716930 0.000000 0.003230 
#    y 0.000000 1.741590 0.000000 
#    z 0.003230 0.000000 1.748650 
# 
# From -- ./inp_files/280783.got.cif
#   From: 2010.06.25/outbox.cif.g09.slc.cpg/sg12_141_cif.got.tgz:280783.got - 2010.06.28 00:19:55.
