data_PCOD8101084
_publ_section_title
;
Structure prediction by ZEFSAII (Michael W. Deem and Ramdas Pophale) SiO2 
 PCOD8101084
Probable space group: C 2/M
;
_chemical_formula_sum "Si O2"
_cell_formula_units_Z 48
_cell_length_a 13.701459
_cell_length_b 7.738198
_cell_length_c 22.891048
_cell_angle_alpha 90.000000
_cell_angle_beta 90.019826
_cell_angle_gamma 90.000000
_cell_volume 2427.014123
_symmetry_space_group_name_H-M "C 2/M"
_symmetry_group_IT_number 12
_symmetry_cell_setting 'monoclinic'
loop_
_space_group_symop_operation_xyz
x,y,z
-x,y,-z
-x,-y,-z
x,-y,z
1/2+x,1/2+y,z
1/2-x,1/2+y,-z
1/2-x,1/2-y,-z
1/2+x,1/2-y,z
loop_
_atom_site_type_symbol
_atom_site_label
_atom_site_fract_x
_atom_site_fract_y
_atom_site_fract_z
Si Si1 0.629256 0.000000 0.753550
Si Si2 0.029447 0.191966 0.563837
Si Si3 0.345263 0.189931 0.841447
Si Si4 0.878380 0.000000 0.630615
Si Si5 0.139163 0.000000 0.236105
Si Si6 0.618727 0.693741 0.832726
Si Si7 0.477291 0.300092 0.936566
Si Si8 0.354529 0.000000 0.379546
O O1 0.583336 0.829681 0.783799
O O2 0.745019 0.000000 0.760130
O O3 0.602973 0.000000 0.685670
O O4 0.105980 0.326610 0.590268
O O5 0.000000 0.260267 0.500000
O O6 0.930045 0.171141 0.602702
O O7 0.079506 0.000000 0.559298
O O8 0.397820 0.330997 0.799542
O O9 0.231543 0.223313 0.845150
O O10 0.385075 0.205320 0.907407
O O11 0.367935 0.000000 0.815739
O O12 0.904070 0.000000 0.699165
O O13 0.762993 0.000000 0.617589
O O14 0.596247 0.500000 0.809452
O O15 0.569221 0.730636 0.894579
O O16 0.450571 0.500000 0.943994
O O17 0.500000 0.218017 0.000000
#
# Coordination Sequence:
#
# PCOD8101084 Si02
#       8
#     4   8   8   4   4   8   8   4
#     4   9  20  35  58  85 109 144 190 221 279 348
#     4   9  21  43  58  91 129 155 207 251 283 356
#     4  10  20  36  57  78 105 144 179 222 286 335
#     4   9  21  41  60  91 124 158 203 247 297 350
#     4   9  18  39  56  79 119 142 176 239 275 334
#     4   9  20  38  55  76 110 142 174 228 284 332
#     4  10  21  37  54  77 106 138 182 227 275 337
#     4  11  21  39  64  89 122 164 199 247 301 346
#
# _framework density 19.777387999999998
#
# number of rings (size 3 to 8) (size 9 to 14) (size 15 to 20)
#    0.500    2.000    0.833    0.250    1.167    3.667 
#    3.000    1.667    0.000    0.000    0.000    0.000 
#    0.000    0.000    0.000    0.000    0.000    0.000 
#
# Total GULP energy -297489.121577 kJ/mol
# GULP energy per Si atom -12395.380066 kJ/mol
# Density = 1.973237 g / cm^3
# Si number density = 19.777388 Si / 1000 Ang^3
#
#
#
# Elastic Constant Matrix: (Units=GPa)
#
#
# Indices 1 2 3 4 5 6 
#
# 1 38.9401 26.8022 7.4379 0.0000 3.6082 0.0000
# 2 26.8022 95.7559 42.0580 0.0000 9.5312 0.0000
# 3 7.4379 42.0580 130.2116 0.0000 7.3531 0.0000
# 4 0.0000 0.0000 0.0000 24.0121 0.0000 0.3475
# 5 3.6082 9.5312 7.3531 0.0000 30.6772 0.0000
# 6 0.0000 0.0000 0.0000 0.3475 0.0000 22.8081
#
#
#
# Elastic Compliance Matrix: (Units=1/GPa)
#
#
# Indices 1 2 3 4 5 6 
#
# 1 0.032019 -0.009408 0.001275 0.000000 -0.001149 0.000000
# 2 -0.009408 0.015190 -0.004222 0.000000 -0.002601 0.000000
# 3 0.001275 -0.004222 0.009027 0.000000 -0.001002 0.000000
# 4 0.000000 0.000000 0.000000 0.041655 0.000000 -0.000635
# 5 -0.001149 -0.002601 -0.001002 0.000000 0.033781 0.000000
# 6 0.000000 0.000000 0.000000 -0.000635 0.000000 0.043854
#
#
# Mechanical properties :
#
#
# Convention : Reuss Voigt Hill
#
# Bulk Modulus (GPa) = 31.72029 46.38931 39.05480
# Shear Modulus (GPa) = 23.72553 28.07345 25.89949
#
# Velocity S-wave (km/s) = 3.46732 3.77168 3.62270
# Velocity P-wave (km/s) = 5.66597 6.51721 6.10644
#
# Compressibility (1/GPa) = 0.03152557
#
# Stress axis : x y z
#
# Youngs Moduli (GPa) = 31.23184 65.83417 110.77543
#
# Poissons Ratio (x) = 0.61934 -0.14119
# Poissons Ratio (y) = 0.29381 0.46769
# Poissons Ratio (z) = -0.03981 0.27795
#
# Static dielectric constant tensor:
#      x y z
#    x 3.428270 0.000000 0.000790 
#    y 0.000000 3.715300 0.000000 
#    z 0.000790 0.000000 3.726230 
# 
# 
# High freq. dielectric constant tensor:
#      x y z
#    x 1.765990 0.000000 0.004670 
#    y 0.000000 1.772020 0.000000 
#    z 0.004670 0.000000 1.767780 
# 
# From -- ./inp_files/267763.got.cif
#   From: 2010.06.25/outbox.cif.g09.slc.cpg/sg12_134_cif.got.tgz:267763.got - 2010.06.28 00:19:55.
