data_PCOD8101350
_publ_section_title
;
Structure prediction by ZEFSAII (Michael W. Deem and Ramdas Pophale) SiO2 
 PCOD8101350
Probable space group: C 2/M
;
_chemical_formula_sum "Si O2"
_cell_formula_units_Z 64
_cell_length_a 14.662371
_cell_length_b 8.788849
_cell_length_c 26.610708
_cell_angle_alpha 90.000000
_cell_angle_beta 106.912651
_cell_angle_gamma 90.000000
_cell_volume 3280.883603
_symmetry_space_group_name_H-M "C 2/M"
_symmetry_group_IT_number 12
_symmetry_cell_setting 'monoclinic'
loop_
_space_group_symop_operation_xyz
x,y,z
-x,y,-z
-x,-y,-z
x,-y,z
1/2+x,1/2+y,z
1/2-x,1/2+y,-z
1/2-x,1/2-y,-z
1/2+x,1/2-y,z
loop_
_atom_site_type_symbol
_atom_site_label
_atom_site_fract_x
_atom_site_fract_y
_atom_site_fract_z
Si Si1 0.449939 0.680278 0.941901
Si Si2 0.543846 0.320530 0.582759
Si Si3 0.249889 0.823243 0.760090
Si Si4 0.349993 0.321806 0.500252
Si Si5 0.570944 0.319597 0.254504
Si Si6 0.436779 0.821080 0.308514
Si Si7 0.553371 0.318968 0.859345
Si Si8 0.765224 0.323790 0.877416
O O1 0.451847 0.500000 0.941901
O O2 0.505671 0.745632 0.902378
O O3 0.341002 0.734446 0.923332
O O4 0.500000 0.744691 0.000000
O O5 0.549559 0.500000 0.594239
O O6 0.435578 0.273050 0.551310
O O7 0.617865 0.274083 0.550682
O O8 0.576678 0.226754 0.636174
O O9 0.327022 0.760261 0.733614
O O10 0.154024 0.728683 0.738195
O O11 0.287758 0.796819 0.822462
O O12 0.228010 0.000000 0.746225
O O13 0.335655 0.500000 0.500500
O O14 0.250000 0.250000 0.500000
O O15 0.584122 0.500000 0.256157
O O16 0.528144 0.265414 0.300480
O O17 0.504232 0.260620 0.198369
O O18 0.451863 0.000000 0.306523
O O19 0.553616 0.500000 0.858620
O O20 0.661140 0.257478 0.873921
O O21 0.771606 0.500000 0.892641
#
# Coordination Sequence:
#
# PCOD8101350 Si02
#       8
#     8   8   8   8   8   8   8   8
#     4  10  21  37  57  83 114 147 187 237 290 350
#     4   9  20  40  60  84 121 162 197 240 296 352
#     4  11  22  38  59  86 115 152 198 245 295 353
#     4   9  19  37  64  90 116 155 201 244 294 348
#     4  11  21  38  61  84 114 155 195 243 298 352
#     4  12  25  39  58  89 124 159 200 247 297 354
#     4   9  18  35  57  80 109 146 184 228 290 349
#     4  10  20  36  58  81 108 145 188 233 287 349
#
# _framework density 19.506938999999999
#
# number of rings (size 3 to 8) (size 9 to 14) (size 15 to 20)
#    0.000    1.875    2.500    2.625    0.000    3.250 
#    0.000    4.375    0.000    0.000    0.000    0.000 
#    0.000    0.000    0.000    0.000    0.000    0.000 
#
# Total GULP energy -396874.182055 kJ/mol
# GULP energy per Si atom -12402.318189 kJ/mol
# Density = 1.946254 g / cm^3
# Si number density = 19.506939 Si / 1000 Ang^3
#
#
#
# Elastic Constant Matrix: (Units=GPa)
#
#
# Indices 1 2 3 4 5 6 
#
# 1 112.6888 21.5788 9.4563 0.0000 -6.1583 0.0000
# 2 21.5788 24.8694 31.7023 0.0000 1.2675 0.0000
# 3 9.4563 31.7023 68.4139 0.0000 -8.2581 0.0000
# 4 0.0000 0.0000 0.0000 24.2890 0.0000 4.5938
# 5 -6.1583 1.2675 -8.2581 0.0000 26.0744 0.0000
# 6 0.0000 0.0000 0.0000 4.5938 0.0000 35.2432
#
#
#
# Elastic Compliance Matrix: (Units=1/GPa)
#
#
# Indices 1 2 3 4 5 6 
#
# 1 0.013497 -0.026888 0.011579 0.000000 0.008162 0.000000
# 2 -0.026888 0.162924 -0.076425 0.000000 -0.038475 0.000000
# 3 0.011579 -0.076425 0.051165 0.000000 0.022655 0.000000
# 4 0.000000 0.000000 0.000000 0.042212 0.000000 -0.005502
# 5 0.008162 -0.038475 0.022655 0.000000 0.049325 0.000000
# 6 0.000000 0.000000 0.000000 -0.005502 0.000000 0.029091
#
#
# Mechanical properties :
#
#
# Convention : Reuss Voigt Hill
#
# Bulk Modulus (GPa) = 22.66581 36.82743 29.74662
# Shear Modulus (GPa) = 9.15102 26.67029 17.91065
#
# Velocity S-wave (km/s) = 2.16826 3.70161 3.03342
# Velocity P-wave (km/s) = 4.23238 6.09830 5.24892
#
# Compressibility (1/GPa) = 0.04411932
#
# Stress axis : x y z
#
# Youngs Moduli (GPa) = 74.08981 6.13784 19.54443
#
# Poissons Ratio (x) = 0.16503 -0.22631
# Poissons Ratio (y) = 1.99211 1.49368
# Poissons Ratio (z) = -0.85790 0.46908
#
# Static dielectric constant tensor:
#      x y z
#    x 3.889340 0.000000 -0.084500 
#    y 0.000000 3.292230 0.000000 
#    z -0.084500 0.000000 3.568550 
# 
# 
# High freq. dielectric constant tensor:
#      x y z
#    x 1.772090 0.000000 -0.002310 
#    y 0.000000 1.741760 0.000000 
#    z -0.002310 0.000000 1.755630 
# 
# From -- ./inp_files/359991.got.cif
#   From: 2010.06.25/outbox.cif.g09.slc.cpg/sg12_180_cif.got.tgz:359991.got - 2010.06.28 00:19:55.
