data_PCOD8101260
_publ_section_title
;
Structure prediction by ZEFSAII (Michael W. Deem and Ramdas Pophale) SiO2 
 PCOD8101260
Probable space group: C 2/M
;
_chemical_formula_sum "Si O2"
_cell_formula_units_Z 64
_cell_length_a 32.420676
_cell_length_b 8.746022
_cell_length_c 14.992112
_cell_angle_alpha 90.000000
_cell_angle_beta 47.367918
_cell_angle_gamma 90.000000
_cell_volume 3127.568352
_symmetry_space_group_name_H-M "C 2/M"
_symmetry_group_IT_number 12
_symmetry_cell_setting 'monoclinic'
loop_
_space_group_symop_operation_xyz
x,y,z
-x,y,-z
-x,-y,-z
x,-y,z
1/2+x,1/2+y,z
1/2-x,1/2+y,-z
1/2-x,1/2-y,-z
1/2+x,1/2-y,z
loop_
_atom_site_type_symbol
_atom_site_label
_atom_site_fract_x
_atom_site_fract_y
_atom_site_fract_z
Si Si1 0.730282 0.678579 0.937653
Si Si2 0.380066 0.818957 0.868526
Si Si3 0.066508 0.322649 0.760945
Si Si4 0.349877 0.176827 0.719566
Si Si5 0.861545 0.180587 0.192038
Si Si6 0.138948 0.677461 0.489224
Si Si7 0.948662 0.820084 0.912851
Si Si8 0.251062 0.319916 0.596367
O O1 0.716215 0.500000 0.966682
O O2 0.783675 0.709022 0.795612
O O3 0.750000 0.750000 0.000000
O O4 0.673503 0.765746 0.992970
O O5 0.374038 0.748571 0.776088
O O6 0.434744 0.748469 0.835620
O O7 0.384841 0.000000 0.863084
O O8 0.063723 0.500000 0.790533
O O9 0.112120 0.240939 0.755172
O O10 0.085628 0.297378 0.630758
O O11 0.006294 0.248570 0.864654
O O12 0.380684 0.226452 0.582792
O O13 0.358359 0.000000 0.726942
O O14 0.800005 0.252699 0.269866
O O15 0.855115 0.000000 0.207219
O O16 0.900515 0.229117 0.052500
O O17 0.158164 0.500000 0.461916
O O18 0.190475 0.781686 0.442874
O O19 0.955357 0.000000 0.895776
O O20 0.243615 0.500000 0.599381
O O21 0.250000 0.250000 0.500000
#
# Coordination Sequence:
#
# PCOD8101260 Si02
#       8
#     8   8   8   8   8   8   8   8
#     4   9  16  29  50  77 110 151 190 233 289 346
#     4  10  20  36  57  84 117 154 199 253 300 351
#     4  11  23  40  64  90 118 155 200 253 303 357
#     4   8  17  34  57  83 116 157 197 238 293 359
#     4  11  24  42  64  88 120 160 199 245 304 367
#     4  10  21  39  62  89 122 161 201 242 297 364
#     4  11  25  42  62  86 117 161 204 250 307 362
#     4  12  24  39  61  92 126 161 197 245 299 355
#
# _framework density 20.463182
#
# number of rings (size 3 to 8) (size 9 to 14) (size 15 to 20)
#    0.000    1.750    1.250    4.125    1.750    4.000 
#    0.000    3.750    0.000    3.750    0.000    0.000 
#    0.000    0.000    0.000    0.000    0.000    0.000 
#
# Total GULP energy -396671.413640 kJ/mol
# GULP energy per Si atom -12395.981676 kJ/mol
# Density = 2.041661 g / cm^3
# Si number density = 20.463182 Si / 1000 Ang^3
#
#
#
# Elastic Constant Matrix: (Units=GPa)
#
#
# Indices 1 2 3 4 5 6 
#
# 1 56.5915 17.5703 21.6246 0.0000 1.8912 -0.0001
# 2 17.5703 79.2384 42.0806 0.0001 -8.0412 -0.0005
# 3 21.6246 42.0806 95.2729 0.0000 3.5972 0.0000
# 4 0.0000 0.0001 0.0000 23.9585 0.0000 -4.5661
# 5 1.8912 -8.0412 3.5972 0.0000 32.1349 0.0000
# 6 -0.0001 -0.0005 0.0000 -4.5661 0.0000 33.4164
#
#
#
# Elastic Compliance Matrix: (Units=1/GPa)
#
#
# Indices 1 2 3 4 5 6 
#
# 1 0.019825 -0.002864 -0.003177 0.000000 -0.001528 0.000000
# 2 -0.002864 0.017728 -0.007385 0.000000 0.005431 0.000000
# 3 -0.003177 -0.007385 0.014604 0.000000 -0.003296 0.000000
# 4 0.000000 0.000000 0.000000 0.042855 0.000000 0.005856
# 5 -0.001528 0.005431 -0.003296 0.000000 0.032937 0.000000
# 6 0.000000 0.000000 0.000000 0.005856 0.000000 0.030726
#
#
# Mechanical properties :
#
#
# Convention : Reuss Voigt Hill
#
# Bulk Modulus (GPa) = 39.51897 43.73930 41.62914
# Shear Modulus (GPa) = 25.77828 27.89044 26.83436
#
# Velocity S-wave (km/s) = 3.55313 3.69583 3.62518
# Velocity P-wave (km/s) = 6.01558 6.29549 6.15713
#
# Compressibility (1/GPa) = 0.02530430
#
# Stress axis : x y z
#
# Youngs Moduli (GPa) = 50.44205 56.40641 68.47526
#
# Poissons Ratio (x) = 0.16153 0.21756
# Poissons Ratio (y) = 0.14445 0.50572
# Poissons Ratio (z) = 0.16027 0.41659
#
# Static dielectric constant tensor:
#      x y z
#    x 3.794850 0.000000 0.002540 
#    y 0.000000 3.709720 0.000000 
#    z 0.002540 0.000000 4.112250 
# 
# 
# High freq. dielectric constant tensor:
#      x y z
#    x 1.796240 0.000000 0.008190 
#    y 0.000000 1.793850 0.000000 
#    z 0.008190 0.000000 1.798370 
# 
# From -- ./inp_files/249769.got.cif
#   From: 2010.06.25/outbox.cif.g09.slc.cpg/sg12_125_cif.got.tgz:249769.got - 2010.06.28 00:19:55.
