data_PCOD8101605
_publ_section_title
;
Structure prediction by ZEFSAII (Michael W. Deem and Ramdas Pophale) SiO2 
 PCOD8101605
Probable space group: C 2/M
;
_chemical_formula_sum "Si O2"
_cell_formula_units_Z 64
_cell_length_a 12.600297
_cell_length_b 16.258323
_cell_length_c 18.297371
_cell_angle_alpha 90.000000
_cell_angle_beta 52.386327
_cell_angle_gamma 90.000000
_cell_volume 2969.267805
_symmetry_space_group_name_H-M "C 2/M"
_symmetry_group_IT_number 12
_symmetry_cell_setting 'monoclinic'
loop_
_space_group_symop_operation_xyz
x,y,z
-x,y,-z
-x,-y,-z
x,-y,z
1/2+x,1/2+y,z
1/2-x,1/2+y,-z
1/2-x,1/2-y,-z
1/2+x,1/2-y,z
loop_
_atom_site_type_symbol
_atom_site_label
_atom_site_fract_x
_atom_site_fract_y
_atom_site_fract_z
Si Si1 0.418065 0.902066 0.317815
Si Si2 0.632001 0.646857 0.909621
Si Si3 0.867572 0.096723 0.248938
Si Si4 0.064009 0.596793 0.400130
Si Si5 0.147982 0.332106 0.953250
Si Si6 0.614323 0.403059 0.241487
Si Si7 0.874432 0.098065 0.599178
Si Si8 0.376358 0.092415 0.885452
O O1 0.492633 0.864831 0.357986
O O2 0.264092 0.871977 0.380109
O O3 0.492349 0.872871 0.211885
O O4 0.427452 0.000000 0.316039
O O5 0.608993 0.650392 0.832969
O O6 0.657140 0.736576 0.932123
O O7 0.758191 0.589638 0.874968
O O8 0.500000 0.606776 0.000000
O O9 0.720490 0.117631 0.340015
O O10 0.977153 0.127577 0.261339
O O11 0.884021 0.000000 0.224600
O O12 0.038507 0.500000 0.409323
O O13 0.000000 0.635855 0.500000
O O14 0.256435 0.378523 0.859107
O O15 0.171332 0.348062 0.029405
O O16 0.000000 0.367999 0.000000
O O17 0.612818 0.500000 0.247872
O O18 0.619151 0.365710 0.321206
O O19 0.000000 0.132725 0.500000
O O20 0.879238 0.000000 0.598905
O O21 0.400596 0.000000 0.904869
#
# Coordination Sequence:
#
# PCOD8101605 Si02
#       8
#     8   8   8   8   8   8   8   8
#     4   9  17  30  50  81 116 149 188 234 285 340
#     4  11  23  38  56  82 115 151 195 234 286 351
#     4  10  20  36  58  88 121 152 189 238 294 342
#     4   9  17  29  51  83 118 153 189 235 289 342
#     4  11  24  39  56  79 112 154 197 237 285 342
#     4  10  21  37  58  86 117 151 194 243 293 344
#     4   9  18  31  51  81 116 152 190 236 290 343
#     4  11  21  36  59  85 114 147 190 243 289 340
#
# _framework density 21.554134999999999
#
# number of rings (size 3 to 8) (size 9 to 14) (size 15 to 20)
#    0.000    2.000    1.250    2.625    1.750    5.000 
#    0.000    0.000    0.000    0.750    0.000    2.625 
#    0.000    0.000    0.000    0.000    0.000    0.000 
#
# Total GULP energy -396776.536160 kJ/mol
# GULP energy per Si atom -12399.266755 kJ/mol
# Density = 2.150508 g / cm^3
# Si number density = 21.554135 Si / 1000 Ang^3
#
#
#
# Elastic Constant Matrix: (Units=GPa)
#
#
# Indices 1 2 3 4 5 6 
#
# 1 159.3548 17.3711 84.3328 0.0000 -8.6723 0.0000
# 2 17.3711 23.0551 13.5403 0.0000 5.6728 0.0000
# 3 84.3328 13.5403 185.9875 0.0000 1.1668 0.0000
# 4 0.0000 0.0000 0.0000 -1.3348 -0.0001 -2.7722
# 5 -8.6723 5.6728 1.1668 -0.0001 43.7107 0.0000
# 6 0.0000 0.0000 0.0000 -2.7722 0.0000 19.1686
#
#
#
# Elastic Compliance Matrix: (Units=1/GPa)
#
#
# Indices 1 2 3 4 5 6 
#
# 1 0.008931 -0.005189 -0.003688 0.000000 0.002544 0.000000
# 2 -0.005189 0.049843 -0.001229 0.000001 -0.007465 0.000000
# 3 -0.003688 -0.001229 0.007143 0.000000 -0.000763 0.000000
# 4 0.000000 0.000001 0.000000 -0.576124 -0.000001 -0.083319
# 5 0.002544 -0.007465 -0.000763 -0.000001 0.024372 0.000000
# 6 0.000000 0.000000 0.000000 -0.083319 0.000000 0.040119
#
#
# Mechanical properties :
#
#
# Convention : Reuss Voigt Hill
#
# Bulk Modulus (GPa) = 21.87930 66.54286 44.21108
# Shear Modulus (GPa) = -12.18710 29.18578 8.49934
#
# Velocity S-wave (km/s) = -2.38043 3.68376 1.98792
# Velocity P-wave (km/s) = 1.61791 7.00235 5.08186
#
# Compressibility (1/GPa) = 0.04570530
#
# Stress axis : x y z
#
# Youngs Moduli (GPa) = 111.96871 20.06299 139.99472
#
# Poissons Ratio (x) = 0.10411 0.51627
# Poissons Ratio (y) = 0.58104 0.17203
# Poissons Ratio (z) = 0.41292 0.02465
#
# Static dielectric constant tensor:
#      x y z
#    x 4.177760 0.000000 -0.033920 
#    y 0.000000 3.256810 0.000000 
#    z -0.033920 0.000000 4.129580 
# 
# 
# High freq. dielectric constant tensor:
#      x y z
#    x 1.861400 0.000000 -0.003810 
#    y 0.000000 1.794040 0.000000 
#    z -0.003810 0.000000 1.858240 
# 
# From -- ./inp_files/265057.got.cif
#   From: 2010.06.25/outbox.cif.g09.slc.cpg/sg12_133_cif.got.tgz:265057.got - 2010.06.28 00:19:55.
