data_PCOD8101368
_publ_section_title
;
Structure prediction by ZEFSAII (Michael W. Deem and Ramdas Pophale) SiO2 
 PCOD8101368
Probable space group: C 2/M
;
_chemical_formula_sum "Si O2"
_cell_formula_units_Z 64
_cell_length_a 14.560741
_cell_length_b 9.281008
_cell_length_c 25.591961
_cell_angle_alpha 90.000000
_cell_angle_beta 89.771940
_cell_angle_gamma 90.000000
_cell_volume 3458.428081
_symmetry_space_group_name_H-M "C 2/M"
_symmetry_group_IT_number 12
_symmetry_cell_setting 'monoclinic'
loop_
_space_group_symop_operation_xyz
x,y,z
-x,y,-z
-x,-y,-z
x,-y,z
1/2+x,1/2+y,z
1/2-x,1/2+y,-z
1/2-x,1/2-y,-z
1/2+x,1/2-y,z
loop_
_atom_site_type_symbol
_atom_site_label
_atom_site_fract_x
_atom_site_fract_y
_atom_site_fract_z
Si Si1 0.084680 0.163194 0.371274
Si Si2 0.346343 0.332584 0.000485
Si Si3 0.244713 0.833120 0.446171
Si Si4 0.123479 0.167597 0.630877
Si Si5 0.023385 0.671222 0.811035
Si Si6 0.833454 0.835568 0.251050
Si Si7 0.500372 0.331762 0.917456
Si Si8 0.126998 0.664725 0.270120
O O1 0.142212 0.186190 0.423958
O O2 0.126862 0.257052 0.325250
O O3 0.980492 0.203375 0.384883
O O4 0.090725 0.000000 0.351143
O O5 0.321957 0.500000 0.001095
O O6 0.408414 0.294648 0.950072
O O7 0.250000 0.250000 0.000000
O O8 0.407096 0.292043 0.050999
O O9 0.250000 0.750000 0.500000
O O10 0.315218 0.768076 0.404910
O O11 0.268811 0.000000 0.455331
O O12 0.137661 0.211954 0.690902
O O13 0.149292 0.000000 0.621904
O O14 0.027613 0.500000 0.815118
O O15 0.120737 0.732403 0.791795
O O16 0.996492 0.733886 0.866736
O O17 0.948074 0.726534 0.769588
O O18 0.725348 0.816565 0.242935
O O19 0.864286 0.000000 0.240824
O O20 0.501794 0.500000 0.902629
O O21 0.105516 0.500000 0.282929
#
# Coordination Sequence:
#
# PCOD8101368 Si02
#       8
#     8   8   8   8   8   8   8   8
#     4  10  21  37  59  84 109 142 184 228 275 332
#     4   9  19  37  62  87 112 149 195 238 285 339
#     4  11  24  40  59  84 114 145 183 234 284 334
#     4  10  20  37  61  84 109 144 185 226 277 338
#     4  11  23  36  54  85 120 149 188 239 281 324
#     4  10  20  36  58  81 110 152 189 223 279 343
#     4   9  20  39  58  80 116 157 191 229 283 344
#     4  10  21  36  55  81 112 147 185 228 277 331
#
# _framework density 18.505517000000001
#
# number of rings (size 3 to 8) (size 9 to 14) (size 15 to 20)
#    0.000    2.000    2.500    1.500    0.000    5.000 
#    0.000    7.500    0.000    0.000    0.000    0.000 
#    0.000    0.000    0.000    0.000    0.000    0.000 
#
# Total GULP energy -396872.985866 kJ/mol
# GULP energy per Si atom -12402.280808 kJ/mol
# Density = 1.846340 g / cm^3
# Si number density = 18.505517 Si / 1000 Ang^3
#
#
#
# Elastic Constant Matrix: (Units=GPa)
#
#
# Indices 1 2 3 4 5 6 
#
# 1 98.5895 37.2539 20.1459 0.0000 -1.0070 0.0000
# 2 37.2539 76.7399 42.6252 0.0000 -6.0676 0.0000
# 3 20.1459 42.6252 75.4715 0.0000 -5.3869 0.0000
# 4 0.0000 0.0000 0.0000 38.0877 0.0000 -4.0524
# 5 -1.0070 -6.0676 -5.3869 0.0000 21.4576 0.0000
# 6 0.0000 0.0000 0.0000 -4.0524 0.0000 34.0012
#
#
#
# Elastic Compliance Matrix: (Units=1/GPa)
#
#
# Indices 1 2 3 4 5 6 
#
# 1 0.012450 -0.006182 0.000087 0.000000 -0.001142 0.000000
# 2 -0.006182 0.022216 -0.010660 0.000000 0.003316 0.000000
# 3 0.000087 -0.010660 0.019380 0.000000 0.001855 0.000000
# 4 0.000000 0.000000 0.000000 0.026592 0.000000 0.003169
# 5 -0.001142 0.003316 0.001855 0.000000 0.047953 0.000000
# 6 0.000000 0.000000 0.000000 0.003169 0.000000 0.029788
#
#
# Mechanical properties :
#
#
# Convention : Reuss Voigt Hill
#
# Bulk Modulus (GPa) = 48.69936 50.09455 49.39696
# Shear Modulus (GPa) = 25.15906 28.76102 26.96004
#
# Velocity S-wave (km/s) = 3.69120 3.94659 3.82103
# Velocity P-wave (km/s) = 6.67382 6.92072 6.79839
#
# Compressibility (1/GPa) = 0.02053415
#
# Stress axis : x y z
#
# Youngs Moduli (GPa) = 80.32260 45.01320 51.59978
#
# Poissons Ratio (x) = 0.27829 -0.00449
# Poissons Ratio (y) = 0.49659 0.55006
# Poissons Ratio (z) = -0.00699 0.47985
#
# Static dielectric constant tensor:
#      x y z
#    x 3.627720 0.000000 0.025520 
#    y 0.000000 3.371230 0.000000 
#    z 0.025520 0.000000 3.464730 
# 
# 
# High freq. dielectric constant tensor:
#      x y z
#    x 1.729520 0.000000 0.003440 
#    y 0.000000 1.717220 0.000000 
#    z 0.003440 0.000000 1.713830 
# 
# From -- ./inp_files/338748.got.cif
#   From: 2010.06.25/outbox.cif.g09.slc.cpg/sg12_170_cif.got.tgz:338748.got - 2010.06.28 00:19:55.
