data_PCOD8101474
_publ_section_title
;
Structure prediction by ZEFSAII (Michael W. Deem and Ramdas Pophale) SiO2 
 PCOD8101474
Probable space group: C 2/M
;
_chemical_formula_sum "Si O2"
_cell_formula_units_Z 32
_cell_length_a 8.890941
_cell_length_b 9.954884
_cell_length_c 17.402626
_cell_angle_alpha 90.000000
_cell_angle_beta 110.555663
_cell_angle_gamma 90.000000
_cell_volume 1442.209534
_symmetry_space_group_name_H-M "C 2/M"
_symmetry_group_IT_number 12
_symmetry_cell_setting 'monoclinic'
loop_
_space_group_symop_operation_xyz
x,y,z
-x,y,-z
-x,-y,-z
x,-y,z
1/2+x,1/2+y,z
1/2-x,1/2+y,-z
1/2-x,1/2-y,-z
1/2+x,1/2-y,z
loop_
_atom_site_type_symbol
_atom_site_label
_atom_site_fract_x
_atom_site_fract_y
_atom_site_fract_z
Si Si1 0.182981 0.348550 0.551833
Si Si2 0.743409 0.146877 0.302251
Si Si3 0.935086 0.225241 0.192778
Si Si4 0.617782 0.352133 0.082827
O O1 0.262211 0.500000 0.568045
O O2 0.250000 0.250000 0.500000
O O3 0.207234 0.273614 0.636929
O O4 0.000000 0.370002 0.500000
O O5 0.863856 0.142849 0.251437
O O6 0.556802 0.159458 0.244716
O O7 0.760895 0.000000 0.346287
O O8 0.788777 0.281329 0.116648
O O9 0.038981 0.135034 0.153360
O O10 0.652141 0.500000 0.057085
O O11 0.500000 0.278033 0.000000
#
# Coordination Sequence:
#
# PCOD8101474 Si02
#       4
#     8   8   8   8
#     4  11  25  43  64  91 122 156 197 244 295 353
#     4  11  23  39  61  88 120 158 199 245 297 353
#     4  10  22  37  57  86 120 153 198 248 296 349
#     4  10  20  36  58  83 115 156 199 244 295 350
#
# _framework density 22.188175999999999
#
# number of rings (size 3 to 8) (size 9 to 14) (size 15 to 20)
#    0.000    1.500    0.000    4.500    0.000   12.000 
#    0.000    0.000    0.000   12.000    0.000    0.000 
#    0.000    0.000    0.000    0.000    0.000    0.000 
#
# Total GULP energy -198266.720770 kJ/mol
# GULP energy per Si atom -12391.670048 kJ/mol
# Density = 2.213767 g / cm^3
# Si number density = 22.188176 Si / 1000 Ang^3
#
#
#
# Elastic Constant Matrix: (Units=GPa)
#
#
# Indices 1 2 3 4 5 6 
#
# 1 92.2630 21.0546 14.1895 0.0000 8.4973 0.0000
# 2 21.0546 152.2022 34.4932 0.0000 5.0618 0.0000
# 3 14.1895 34.4932 95.5886 0.0000 9.6946 0.0000
# 4 0.0000 0.0000 0.0000 24.8669 0.0000 4.7543
# 5 8.4973 5.0618 9.6946 0.0000 37.4737 0.0000
# 6 0.0000 0.0000 0.0000 4.7543 0.0000 0.7898
#
#
#
# Elastic Compliance Matrix: (Units=1/GPa)
#
#
# Indices 1 2 3 4 5 6 
#
# 1 0.011489 -0.001286 -0.001022 0.000000 -0.002167 0.000000
# 2 -0.001286 0.007303 -0.002438 0.000000 -0.000064 0.000000
# 3 -0.001022 -0.002438 0.011744 0.000000 -0.002477 0.000000
# 4 0.000000 0.000000 0.000000 -0.266519 0.000000 1.604320
# 5 -0.002167 -0.000064 -0.002477 0.000000 0.027826 0.000000
# 6 0.000000 0.000000 0.000000 1.604320 0.000000 -8.391158
#
#
# Mechanical properties :
#
#
# Convention : Reuss Voigt Hill
#
# Bulk Modulus (GPa) = 47.51696 53.28094 50.39895
# Shear Modulus (GPa) = -0.58256 30.64717 15.03230
#
# Velocity S-wave (km/s) = -0.51296 3.72053 2.60569
# Velocity P-wave (km/s) = 4.59468 6.52088 5.64061
#
# Compressibility (1/GPa) = 0.02104512
#
# Stress axis : x y z
#
# Youngs Moduli (GPa) = 87.04217 136.93627 85.14913
#
# Poissons Ratio (x) = 0.17605 0.08700
# Poissons Ratio (y) = 0.11191 0.20758
# Poissons Ratio (z) = 0.08893 0.33383
#
# Static dielectric constant tensor:
#      x y z
#    x 4.048130 0.000000 0.128260 
#    y 0.000000 4.037170 0.000000 
#    z 0.128260 0.000000 4.131720 
# 
# 
# High freq. dielectric constant tensor:
#      x y z
#    x 1.881830 0.000000 0.006240 
#    y 0.000000 1.864550 0.000000 
#    z 0.006240 0.000000 1.878680 
# 
# From -- ./inp_files/193337.got.cif
#   From: 2010.06.25/outbox.cif.g09.slc.cpg/sg12_97_cif.got.tgz:193337.got - 2010.06.28 00:19:55.
