data_PCOD8101327
_publ_section_title
;
Structure prediction by ZEFSAII (Michael W. Deem and Ramdas Pophale) SiO2 
 PCOD8101327
Probable space group: C 2/M
;
_chemical_formula_sum "Si O2"
_cell_formula_units_Z 48
_cell_length_a 32.118393
_cell_length_b 9.147888
_cell_length_c 9.018372
_cell_angle_alpha 90.000000
_cell_angle_beta 73.927405
_cell_angle_gamma 90.000000
_cell_volume 2546.163377
_symmetry_space_group_name_H-M "C 2/M"
_symmetry_group_IT_number 12
_symmetry_cell_setting 'monoclinic'
loop_
_space_group_symop_operation_xyz
x,y,z
-x,y,-z
-x,-y,-z
x,-y,z
1/2+x,1/2+y,z
1/2-x,1/2+y,-z
1/2-x,1/2-y,-z
1/2+x,1/2-y,z
loop_
_atom_site_type_symbol
_atom_site_label
_atom_site_fract_x
_atom_site_fract_y
_atom_site_fract_z
Si Si1 0.877561 0.326363 0.211461
Si Si2 0.207079 0.670043 0.210020
Si Si3 0.292902 0.171717 0.130396
Si Si4 0.119221 0.327170 0.456246
Si Si5 0.458135 0.832218 0.940351
Si Si6 0.542149 0.328043 0.364622
O O1 0.876884 0.500000 0.212668
O O2 0.832717 0.266080 0.187811
O O3 0.883501 0.269184 0.372793
O O4 0.917257 0.270517 0.072390
O O5 0.217112 0.500000 0.215413
O O6 0.248834 0.754570 0.231128
O O7 0.166067 0.716624 0.347471
O O8 0.197728 0.713458 0.049252
O O9 0.287784 0.000000 0.156967
O O10 0.111238 0.500000 0.452050
O O11 0.083575 0.246879 0.395192
O O12 0.465183 0.731793 0.792063
O O13 0.450367 0.000000 0.898170
O O14 0.500000 0.819371 0.000000
O O15 0.500000 0.286314 0.500000
O O16 0.550003 0.500000 0.350711
#
# Coordination Sequence:
#
# PCOD8101327 Si02
#       6
#     8   8   8   8   8   8
#     4   9  18  33  54  81 108 136 177 226 268 308
#     4   9  18  32  51  76 104 136 177 222 264 309
#     4   9  17  31  50  72 104 142 176 215 264 316
#     4  10  20  36  58  80 105 139 180 224 265 310
#     4  10  20  36  60  85 107 137 180 223 262 311
#     4  11  24  39  55  79 112 144 174 214 265 318
#
# _framework density 18.851894000000001
#
# number of rings (size 3 to 8) (size 9 to 14) (size 15 to 20)
#    0.000    2.333    0.000    2.500    0.000    7.000 
#    0.000    5.833    0.000    0.000    0.000    0.000 
#    0.000    0.000    0.000    0.000    0.000    0.000 
#
# Total GULP energy -297668.380722 kJ/mol
# GULP energy per Si atom -12402.849197 kJ/mol
# Density = 1.880899 g / cm^3
# Si number density = 18.851894 Si / 1000 Ang^3
#
#
#
# Elastic Constant Matrix: (Units=GPa)
#
#
# Indices 1 2 3 4 5 6 
#
# 1 133.5694 44.5964 58.7258 0.0000 -10.2371 0.0000
# 2 44.5964 39.8158 37.0578 0.0000 -8.2410 0.0000
# 3 58.7258 37.0578 121.4622 0.0000 -15.0314 0.0000
# 4 0.0000 0.0000 0.0000 11.9933 0.0000 9.9056
# 5 -10.2371 -8.2410 -15.0314 0.0000 35.3091 0.0000
# 6 0.0000 0.0000 0.0000 9.9056 0.0000 13.4659
#
#
#
# Elastic Compliance Matrix: (Units=1/GPa)
#
#
# Indices 1 2 3 4 5 6 
#
# 1 0.012468 -0.011690 -0.002483 0.000000 -0.000170 0.000000
# 2 -0.011690 0.046534 -0.008045 0.000000 0.004047 0.000000
# 3 -0.002483 -0.008045 0.012210 0.000000 0.002600 0.000000
# 4 0.000000 0.000000 0.000000 0.212464 0.000000 -0.156290
# 5 -0.000170 0.004047 0.002600 0.000000 0.030323 0.000000
# 6 0.000000 0.000000 0.000000 -0.156290 0.000000 0.189229
#
#
# Mechanical properties :
#
#
# Convention : Reuss Voigt Hill
#
# Bulk Modulus (GPa) = 37.34499 63.95637 50.65068
# Shear Modulus (GPa) = 8.98328 22.45148 15.71738
#
# Velocity S-wave (km/s) = 2.18530 3.45474 2.89057
# Velocity P-wave (km/s) = 5.12055 7.06492 6.16981
#
# Compressibility (1/GPa) = 0.02677735
#
# Stress axis : x y z
#
# Youngs Moduli (GPa) = 80.20334 21.48965 81.90216
#
# Poissons Ratio (x) = 0.25121 0.20335
# Poissons Ratio (y) = 0.93755 0.65888
# Poissons Ratio (z) = 0.19914 0.17288
#
# Static dielectric constant tensor:
#      x y z
#    x 3.656480 0.000000 -0.079620 
#    y 0.000000 3.248710 0.000000 
#    z -0.079620 0.000000 3.610960 
# 
# 
# High freq. dielectric constant tensor:
#      x y z
#    x 1.749550 0.000000 -0.002180 
#    y 0.000000 1.704440 0.000000 
#    z -0.002180 0.000000 1.739480 
# 
# From -- ./inp_files/108628.got.cif
#   From: 2010.06.25/outbox.cif.g09.slc.cpg/sg12_55_cif.got.tgz:108628.got - 2010.06.28 00:19:55.
