data_PCOD8101281
_publ_section_title
;
Structure prediction by ZEFSAII (Michael W. Deem and Ramdas Pophale) SiO2 
 PCOD8101281
Probable space group: C 2/M
;
_chemical_formula_sum "Si O2"
_cell_formula_units_Z 64
_cell_length_a 14.830723
_cell_length_b 26.603390
_cell_length_c 12.075393
_cell_angle_alpha 90.000000
_cell_angle_beta 136.307803
_cell_angle_gamma 90.000000
_cell_volume 3291.113152
_symmetry_space_group_name_H-M "C 2/M"
_symmetry_group_IT_number 12
_symmetry_cell_setting 'monoclinic'
loop_
_space_group_symop_operation_xyz
x,y,z
-x,y,-z
-x,-y,-z
x,-y,z
1/2+x,1/2+y,z
1/2-x,1/2+y,-z
1/2-x,1/2-y,-z
1/2+x,1/2-y,z
loop_
_atom_site_type_symbol
_atom_site_label
_atom_site_fract_x
_atom_site_fract_y
_atom_site_fract_z
Si Si1 0.617752 0.443939 0.528148
Si Si2 0.539889 0.819000 0.164144
Si Si3 0.050539 0.557936 0.421865
Si Si4 0.356103 0.943700 0.900656
Si Si5 0.244236 0.370460 0.483155
Si Si6 0.844007 0.386435 0.099572
Si Si7 0.111782 0.793198 0.248015
Si Si8 0.613612 0.653725 0.034431
O O1 0.500000 0.425428 0.500000
O O2 0.586084 0.500000 0.454834
O O3 0.758416 0.444392 0.711551
O O4 0.630154 0.403532 0.441087
O O5 0.654220 0.858959 0.295149
O O6 0.416911 0.833974 0.133702
O O7 0.599764 0.766026 0.254515
O O8 0.500000 0.819835 0.000000
O O9 0.092801 0.500000 0.438920
O O10 0.170883 0.595784 0.509927
O O11 0.000000 0.566411 0.500000
O O12 0.937781 0.572091 0.235972
O O13 0.378524 0.000000 0.964906
O O14 0.500000 0.920345 0.000000
O O15 0.290404 0.910395 0.938542
O O16 0.292096 0.317858 0.576857
O O17 0.727019 0.378629 0.081771
O O18 0.168149 0.806341 0.174620
O O19 0.963989 0.815276 0.129575
O O20 0.500000 0.620847 0.000000
#
# Coordination Sequence:
#
# PCOD8101281 Si02
#       8
#     8   8   8   8   8   8   8   8
#     4  10  22  37  53  81 118 150 183 228 284 343
#     4  11  21  38  56  86 116 142 189 240 288 330
#     4  10  21  36  57  86 116 143 186 241 283 329
#     4  10  20  36  57  85 120 149 186 238 286 341
#     4  11  21  35  62  82 109 153 188 228 281 349
#     4  11  20  33  62  87 106 153 194 229 281 343
#     4   9  20  40  54  78 115 149 187 234 283 335
#     4   8  20  38  56  75 111 153 182 238 280 333
#
# _framework density 19.446307999999998
#
# number of rings (size 3 to 8) (size 9 to 14) (size 15 to 20)
#    0.750    1.125    1.250    4.500    1.750    1.500 
#    0.000    0.000    0.000    3.375    0.000    0.000 
#    0.000    0.000    0.000    0.000    0.000    0.000 
#
# Total GULP energy -396462.594059 kJ/mol
# GULP energy per Si atom -12389.456064 kJ/mol
# Density = 1.940205 g / cm^3
# Si number density = 19.446308 Si / 1000 Ang^3
#
#
#
# Elastic Constant Matrix: (Units=GPa)
#
#
# Indices 1 2 3 4 5 6 
#
# 1 115.9503 55.8280 19.2102 0.0000 10.2670 0.0000
# 2 55.8280 115.4925 24.7940 0.0000 -2.0996 0.0000
# 3 19.2102 24.7940 63.2132 0.0000 -3.2188 0.0000
# 4 0.0000 0.0000 0.0000 21.7728 0.0000 -5.1952
# 5 10.2670 -2.0996 -3.2188 0.0000 25.6006 0.0000
# 6 0.0000 0.0000 0.0000 -5.1952 0.0000 19.8863
#
#
#
# Elastic Compliance Matrix: (Units=1/GPa)
#
#
# Indices 1 2 3 4 5 6 
#
# 1 0.012085 -0.005562 -0.001773 0.000000 -0.005526 0.000000
# 2 -0.005562 0.012017 -0.002878 0.000000 0.002854 0.000000
# 3 -0.001773 -0.002878 0.017624 0.000000 0.002691 0.000000
# 4 0.000000 0.000000 0.000000 0.048982 0.000000 0.012796
# 5 -0.005526 0.002854 0.002691 0.000000 0.041850 0.000000
# 6 0.000000 0.000000 0.000000 0.012796 0.000000 0.053629
#
#
# Mechanical properties :
#
#
# Convention : Reuss Voigt Hill
#
# Bulk Modulus (GPa) = 46.94461 54.92451 50.93456
# Shear Modulus (GPa) = 23.39598 26.44019 24.91809
#
# Velocity S-wave (km/s) = 3.47235 3.69134 3.58352
# Velocity P-wave (km/s) = 6.34581 6.81715 6.58570
#
# Compressibility (1/GPa) = 0.02130170
#
# Stress axis : x y z
#
# Youngs Moduli (GPa) = 82.74544 83.21681 56.74116
#
# Poissons Ratio (x) = 0.46284 0.10057
# Poissons Ratio (y) = 0.46022 0.16329
# Poissons Ratio (z) = 0.14667 0.23948
#
# Static dielectric constant tensor:
#      x y z
#    x 3.405240 0.000000 -0.023470 
#    y 0.000000 3.526060 0.000000 
#    z -0.023470 0.000000 3.410370 
# 
# 
# High freq. dielectric constant tensor:
#      x y z
#    x 1.741840 0.000000 -0.003370 
#    y 0.000000 1.754630 0.000000 
#    z -0.003370 0.000000 1.751470 
# 
# From -- ./inp_files/149828.got.cif
#   From: 2010.06.25/outbox.cif.g09.slc.cpg/sg12_75_cif.got.tgz:149828.got - 2010.06.28 00:19:55.
