data_PCOD8101216
_publ_section_title
;
Structure prediction by ZEFSAII (Michael W. Deem and Ramdas Pophale) SiO2 
 PCOD8101216
Probable space group: C 2/M
;
_chemical_formula_sum "Si O2"
_cell_formula_units_Z 48
_cell_length_a 30.433203
_cell_length_b 8.572548
_cell_length_c 9.434788
_cell_angle_alpha 90.000000
_cell_angle_beta 90.597868
_cell_angle_gamma 90.000000
_cell_volume 2461.308719
_symmetry_space_group_name_H-M "C 2/M"
_symmetry_group_IT_number 12
_symmetry_cell_setting 'monoclinic'
loop_
_space_group_symop_operation_xyz
x,y,z
-x,y,-z
-x,-y,-z
x,-y,z
1/2+x,1/2+y,z
1/2-x,1/2+y,-z
1/2-x,1/2-y,-z
1/2+x,1/2-y,z
loop_
_atom_site_type_symbol
_atom_site_label
_atom_site_fract_x
_atom_site_fract_y
_atom_site_fract_z
Si Si1 0.666572 0.316316 0.838647
Si Si2 0.582350 0.318420 0.162808
Si Si3 0.425951 0.182439 0.137580
Si Si4 0.174635 0.683620 0.141491
Si Si5 0.006323 0.318010 0.337591
Si Si6 0.252424 0.315906 0.344359
O O1 0.658693 0.500000 0.829263
O O2 0.621198 0.229619 0.800402
O O3 0.702787 0.257910 0.727999
O O4 0.683258 0.273458 0.995573
O O5 0.593628 0.500000 0.164077
O O6 0.626537 0.223510 0.200277
O O7 0.546855 0.280680 0.280831
O O8 0.563789 0.271677 0.008017
O O9 0.462382 0.229767 0.252907
O O10 0.426510 0.000000 0.103768
O O11 0.178559 0.500000 0.113759
O O12 0.210669 0.744459 0.253955
O O13 0.016910 0.500000 0.319077
O O14 0.000000 0.272005 0.500000
O O15 0.251506 0.500000 0.351488
O O16 0.250000 0.250000 0.500000
#
# Coordination Sequence:
#
# PCOD8101216 Si02
#       6
#     8   8   8   8   8   8
#     4  10  20  36  57  83 111 139 179 230 276 317
#     4  11  22  36  57  84 111 141 180 227 275 320
#     4  10  20  36  59  83 107 142 184 223 269 324
#     4  10  20  37  59  82 108 143 186 225 267 322
#     4  10  22  39  57  79 110 146 183 223 268 324
#     4  10  23  38  55  81 113 148 183 222 269 324
#
# _framework density 19.501819999999999
#
# number of rings (size 3 to 8) (size 9 to 14) (size 15 to 20)
#    0.000    1.833    0.000    6.000    0.000    7.667 
#    0.000    5.000    0.000    0.000    0.000    0.000 
#    0.000    0.000    0.000    0.000    0.000    0.000 
#
# Total GULP energy -297703.704997 kJ/mol
# GULP energy per Si atom -12404.321042 kJ/mol
# Density = 1.945743 g / cm^3
# Si number density = 19.501820 Si / 1000 Ang^3
#
#
#
# Elastic Constant Matrix: (Units=GPa)
#
#
# Indices 1 2 3 4 5 6 
#
# 1 106.3094 10.4892 68.3964 0.0000 -21.0690 0.0000
# 2 10.4892 37.3912 11.3547 0.0000 -8.2774 0.0000
# 3 68.3964 11.3547 111.0062 0.0000 -18.9084 0.0000
# 4 0.0000 0.0000 0.0000 29.4540 0.0000 -5.3985
# 5 -21.0690 -8.2774 -18.9084 0.0000 22.3072 0.0000
# 6 0.0000 0.0000 0.0000 -5.3985 0.0000 28.5485
#
#
#
# Elastic Compliance Matrix: (Units=1/GPa)
#
#
# Indices 1 2 3 4 5 6 
#
# 1 0.016802 -0.000179 -0.008932 0.000000 0.008232 0.000000
# 2 -0.000179 0.029309 -0.001244 0.000000 0.009653 0.000000
# 3 -0.008932 -0.001244 0.015338 0.000000 0.004103 0.000000
# 4 0.000000 0.000000 0.000000 0.035170 0.000000 0.006651
# 5 0.008232 0.009653 0.004103 0.000000 0.059664 0.000000
# 6 0.000000 0.000000 0.000000 0.006651 0.000000 0.036286
#
#
# Mechanical properties :
#
#
# Convention : Reuss Voigt Hill
#
# Bulk Modulus (GPa) = 24.54576 48.35417 36.44996
# Shear Modulus (GPa) = 22.04016 27.02637 24.53327
#
# Velocity S-wave (km/s) = 3.36543 3.72672 3.55068
# Velocity P-wave (km/s) = 5.26452 6.58532 5.96161
#
# Compressibility (1/GPa) = 0.04074023
#
# Stress axis : x y z
#
# Youngs Moduli (GPa) = 59.51532 34.11939 65.19633
#
# Poissons Ratio (x) = 0.00610 0.58235
# Poissons Ratio (y) = 0.01063 0.08109
# Poissons Ratio (z) = 0.53161 0.04244
#
# Static dielectric constant tensor:
#      x y z
#    x 3.794240 0.000000 0.056400 
#    y 0.000000 3.527530 0.000000 
#    z 0.056400 0.000000 3.352260 
# 
# 
# High freq. dielectric constant tensor:
#      x y z
#    x 1.773710 0.000000 -0.001720 
#    y 0.000000 1.761750 0.000000 
#    z -0.001720 0.000000 1.753300 
# 
# From -- ./inp_files/108575.got.cif
#   From: 2010.06.25/outbox.cif.g09.slc.cpg/sg12_55_cif.got.tgz:108575.got - 2010.06.28 00:19:55.
