data_PCOD8101339
_publ_section_title
;
Structure prediction by ZEFSAII (Michael W. Deem and Ramdas Pophale) SiO2 
 PCOD8101339
Probable space group: C 2/M
;
_chemical_formula_sum "Si O2"
_cell_formula_units_Z 56
_cell_length_a 18.220865
_cell_length_b 8.880536
_cell_length_c 22.892560
_cell_angle_alpha 90.000000
_cell_angle_beta 53.208560
_cell_angle_gamma 90.000000
_cell_volume 2966.455965
_symmetry_space_group_name_H-M "C 2/M"
_symmetry_group_IT_number 12
_symmetry_cell_setting 'monoclinic'
loop_
_space_group_symop_operation_xyz
x,y,z
-x,y,-z
-x,-y,-z
x,-y,z
1/2+x,1/2+y,z
1/2-x,1/2+y,-z
1/2-x,1/2-y,-z
1/2+x,1/2-y,z
loop_
_atom_site_type_symbol
_atom_site_label
_atom_site_fract_x
_atom_site_fract_y
_atom_site_fract_z
Si Si1 0.254522 0.677772 0.434700
Si Si2 0.890030 0.821069 0.706006
Si Si3 0.965287 0.320102 0.157795
Si Si4 0.699024 0.180244 0.844237
Si Si5 0.913294 0.664594 0.999645
Si Si6 0.602508 0.674189 0.429511
Si Si7 0.553182 0.678185 0.709226
O O1 0.254735 0.500000 0.442348
O O2 0.250000 0.750000 0.500000
O O3 0.168016 0.727594 0.438424
O O4 0.346789 0.732911 0.358463
O O5 0.799873 0.757383 0.781664
O O6 0.891006 0.762086 0.639262
O O7 0.980324 0.763226 0.696088
O O8 0.888455 0.000000 0.705951
O O9 0.969465 0.500000 0.159005
O O10 0.869384 0.267229 0.174704
O O11 0.974508 0.251170 0.216784
O O12 0.050796 0.256409 0.077267
O O13 0.697249 0.000000 0.848850
O O14 0.665799 0.246985 0.923639
O O15 0.875956 0.500000 0.999866
O O16 0.000000 0.645222 0.000000
O O17 0.500000 0.695893 0.500000
O O18 0.632817 0.500000 0.418996
O O19 0.548852 0.500000 0.718175
#
# Coordination Sequence:
#
# PCOD8101339 Si02
#       7
#     8   8   8   8   8   8   8
#     4  11  23  38  56  78 105 136 170 208 251 300
#     4   9  17  30  48  69  96 133 171 202 242 300
#     4   9  16  28  49  74  96 122 162 210 254 294
#     4   8  13  24  46  72  93 120 165 212 246 287
#     4   7  11  21  40  68  96 119 153 206 255 289
#     4  10  20  36  58  81 105 132 165 209 257 304
#     4  10  21  35  49  70 102 135 164 199 246 296
#
# _framework density 18.877744
#
# number of rings (size 3 to 8) (size 9 to 14) (size 15 to 20)
#    0.000    2.857    0.000    3.857    0.000    4.857 
#    0.000    1.429    0.000    4.714    0.000    0.000 
#    0.000    0.000    0.000    0.000    0.000    0.000 
#
# Total GULP energy -346976.504829 kJ/mol
# GULP energy per Si atom -12392.018030 kJ/mol
# Density = 1.883478 g / cm^3
# Si number density = 18.877744 Si / 1000 Ang^3
#
#
#
# Elastic Constant Matrix: (Units=GPa)
#
#
# Indices 1 2 3 4 5 6 
#
# 1 108.7314 23.7235 62.2573 0.0000 10.3172 -0.0001
# 2 23.7235 23.8466 29.7417 -0.0001 3.7817 -0.0005
# 3 62.2573 29.7417 168.6660 0.0000 13.4369 0.0000
# 4 0.0000 -0.0001 0.0000 13.6827 0.0000 7.9093
# 5 10.3172 3.7817 13.4369 0.0000 33.3207 0.0000
# 6 -0.0001 -0.0005 0.0000 7.9093 0.0000 19.6613
#
#
#
# Elastic Compliance Matrix: (Units=1/GPa)
#
#
# Indices 1 2 3 4 5 6 
#
# 1 0.013086 -0.008830 -0.003131 0.000000 -0.001787 0.000000
# 2 -0.008830 0.059895 -0.007210 0.000000 -0.001156 0.000002
# 3 -0.003131 -0.007210 0.008486 0.000000 -0.001634 0.000000
# 4 0.000000 0.000000 0.000000 0.095229 0.000000 -0.038309
# 5 -0.001787 -0.001156 -0.001634 0.000000 0.031355 0.000000
# 6 0.000000 0.000002 0.000000 -0.038309 0.000000 0.066272
#
#
# Mechanical properties :
#
#
# Convention : Reuss Voigt Hill
#
# Bulk Modulus (GPa) = 23.18839 59.18768 41.18803
# Shear Modulus (GPa) = 15.28862 25.70103 20.49482
#
# Velocity S-wave (km/s) = 2.84892 3.69378 3.29851
# Velocity P-wave (km/s) = 4.80956 7.04367 6.03097
#
# Compressibility (1/GPa) = 0.04312503
#
# Stress axis : x y z
#
# Youngs Moduli (GPa) = 76.41916 16.69580 117.83982
#
# Poissons Ratio (x) = 0.14743 0.36892
# Poissons Ratio (y) = 0.67479 0.84965
# Poissons Ratio (z) = 0.23925 0.12038
#
# Static dielectric constant tensor:
#      x y z
#    x 3.427860 0.000000 -0.049230 
#    y 0.000000 2.944550 0.000000 
#    z -0.049230 0.000000 4.023150 
# 
# 
# High freq. dielectric constant tensor:
#      x y z
#    x 1.720920 0.000000 0.001610 
#    y 0.000000 1.677280 0.000000 
#    z 0.001610 0.000000 1.763020 
# 
# From -- ./inp_files/342252.got.cif
#   From: 2010.06.25/outbox.cif.g09.slc.cpg/sg12_172_cif.got.tgz:342252.got - 2010.06.28 00:19:55.
