data_PCOD8101850
_publ_section_title
;
Structure prediction by ZEFSAII (Michael W. Deem and Ramdas Pophale) SiO2 
 PCOD8101850
Probable space group: C 2/M
;
_chemical_formula_sum "Si O2"
_cell_formula_units_Z 56
_cell_length_a 14.859296
_cell_length_b 9.105695
_cell_length_c 26.412657
_cell_angle_alpha 90.000000
_cell_angle_beta 132.171392
_cell_angle_gamma 90.000000
_cell_volume 2648.644171
_symmetry_space_group_name_H-M "C 2/M"
_symmetry_group_IT_number 12
_symmetry_cell_setting 'monoclinic'
loop_
_space_group_symop_operation_xyz
x,y,z
-x,y,-z
-x,-y,-z
x,-y,z
1/2+x,1/2+y,z
1/2-x,1/2+y,-z
1/2-x,1/2-y,-z
1/2+x,1/2-y,z
loop_
_atom_site_type_symbol
_atom_site_label
_atom_site_fract_x
_atom_site_fract_y
_atom_site_fract_z
Si Si1 0.236053 0.249023 0.802741
Si Si2 0.367103 0.838630 0.944948
Si Si3 0.801997 0.322323 0.569919
Si Si4 0.288311 0.824700 0.366655
Si Si5 0.087778 0.160097 0.212413
Si Si6 0.646971 0.838740 0.870263
Si Si7 0.450156 0.332695 0.348304
O O1 0.325753 0.147469 0.870397
O O2 0.319875 0.351906 0.799707
O O3 0.154906 0.343758 0.811640
O O4 0.148173 0.154413 0.733827
O O5 0.265406 0.745841 0.937188
O O6 0.374400 0.000000 0.972185
O O7 0.500000 0.762737 0.000000
O O8 0.800401 0.500000 0.567439
O O9 0.750000 0.250000 0.500000
O O10 0.716602 0.261592 0.582440
O O11 0.936886 0.260576 0.629613
O O12 0.162206 0.791615 0.290146
O O13 0.399591 0.754614 0.377698
O O14 0.309354 0.000000 0.381659
O O15 0.978788 0.269083 0.159411
O O16 0.030145 0.000000 0.199852
O O17 0.648975 0.000000 0.894127
O O18 0.486913 0.500000 0.377075
#
# Coordination Sequence:
#
# PCOD8101850 Si02
#       7
#     8   8   8   8   8   8   8
#     4   9  21  36  61  87 118 156 199 243 298 350
#     4   9  19  37  59  83 115 157 200 244 299 356
#     4  12  26  44  65  91 124 162 204 246 299 359
#     4  10  22  40  62  91 125 159 201 251 301 354
#     4  10  20  36  59  87 120 155 195 244 297 351
#     4  10  21  34  54  83 115 150 194 243 294 350
#     4  11  22  39  64  93 124 159 202 250 305 360
#
# _framework density 21.142890999999999
#
# number of rings (size 3 to 8) (size 9 to 14) (size 15 to 20)
#    0.857    1.000    0.000    4.286    0.000    8.286 
#    0.000    3.571    0.000    0.000    0.000    0.000 
#    0.000    0.000    0.000    0.000    0.000    0.000 
#
# Total GULP energy -346976.294277 kJ/mol
# GULP energy per Si atom -12392.010510 kJ/mol
# Density = 2.109477 g / cm^3
# Si number density = 21.142891 Si / 1000 Ang^3
#
#
#
# Elastic Constant Matrix: (Units=GPa)
#
#
# Indices 1 2 3 4 5 6 
#
# 1 76.9933 18.2534 11.6344 0.0000 2.5534 0.0000
# 2 18.2534 135.2186 11.6569 0.0000 10.3860 0.0000
# 3 11.6344 11.6569 61.8735 0.0000 3.9714 0.0000
# 4 0.0000 0.0000 0.0000 21.3628 0.0000 5.9485
# 5 2.5534 10.3860 3.9714 0.0000 21.5043 0.0000
# 6 0.0000 0.0000 0.0000 5.9485 0.0000 30.8150
#
#
#
# Elastic Compliance Matrix: (Units=1/GPa)
#
#
# Indices 1 2 3 4 5 6 
#
# 1 0.013728 -0.001626 -0.002247 0.000000 -0.000429 0.000000
# 2 -0.001626 0.007966 -0.000972 0.000000 -0.003475 0.000000
# 3 -0.002247 -0.000972 0.016921 0.000000 -0.002389 0.000000
# 4 0.000000 0.000000 0.000000 0.049469 0.000000 -0.009550
# 5 -0.000429 -0.003475 -0.002389 0.000000 0.048673 0.000000
# 6 0.000000 0.000000 0.000000 -0.009550 0.000000 0.034295
#
#
# Mechanical properties :
#
#
# Convention : Reuss Voigt Hill
#
# Bulk Modulus (GPa) = 34.57447 39.68610 37.13028
# Shear Modulus (GPa) = 26.26276 30.23913 28.25094
#
# Velocity S-wave (km/s) = 3.52825 3.78594 3.65936
# Velocity P-wave (km/s) = 5.74337 6.15811 5.95435
#
# Compressibility (1/GPa) = 0.02892308
#
# Stress axis : x y z
#
# Youngs Moduli (GPa) = 72.84622 125.53913 59.09812
#
# Poissons Ratio (x) = 0.20418 0.13281
# Poissons Ratio (y) = 0.11848 0.05744
# Poissons Ratio (z) = 0.16371 0.12201
#
# Static dielectric constant tensor:
#      x y z
#    x 3.754520 0.000000 0.077710 
#    y 0.000000 3.665420 0.000000 
#    z 0.077710 0.000000 3.641830 
# 
# 
# High freq. dielectric constant tensor:
#      x y z
#    x 1.828910 0.000000 0.008800 
#    y 0.000000 1.826590 0.000000 
#    z 0.008800 0.000000 1.815170 
# 
# From -- ./inp_files/375133.got.cif
#   From: 2010.06.25/outbox.cif.g09.slc.cpg/sg12_188_cif.got.tgz:375133.got - 2010.06.28 00:19:55.
