data_PCOD8101094
_publ_section_title
;
Structure prediction by ZEFSAII (Michael W. Deem and Ramdas Pophale) SiO2 
 PCOD8101094
Probable space group: C 2/M
;
_chemical_formula_sum "Si O2"
_cell_formula_units_Z 56
_cell_length_a 19.093175
_cell_length_b 9.077725
_cell_length_c 24.498126
_cell_angle_alpha 90.000000
_cell_angle_beta 42.724729
_cell_angle_gamma 90.000000
_cell_volume 2880.865878
_symmetry_space_group_name_H-M "C 2/M"
_symmetry_group_IT_number 12
_symmetry_cell_setting 'monoclinic'
loop_
_space_group_symop_operation_xyz
x,y,z
-x,y,-z
-x,-y,-z
x,-y,z
1/2+x,1/2+y,z
1/2-x,1/2+y,-z
1/2-x,1/2-y,-z
1/2+x,1/2-y,z
loop_
_atom_site_type_symbol
_atom_site_label
_atom_site_fract_x
_atom_site_fract_y
_atom_site_fract_z
Si Si1 0.540644 0.327032 0.269526
Si Si2 0.175901 0.670032 0.000969
Si Si3 0.279592 0.169664 0.325643
Si Si4 0.727655 0.326796 0.237203
Si Si5 0.985889 0.334297 0.820219
Si Si6 0.119573 0.174465 0.926381
Si Si7 0.694400 0.674223 0.581842
O O1 0.543749 0.500000 0.263233
O O2 0.623185 0.272268 0.267119
O O3 0.570956 0.265317 0.192676
O O4 0.425266 0.274089 0.351387
O O5 0.207863 0.500000 0.974171
O O6 0.062255 0.685853 0.092286
O O7 0.250000 0.750000 0.000000
O O8 0.181614 0.753058 0.940586
O O9 0.211234 0.206169 0.311209
O O10 0.395477 0.207955 0.241269
O O11 0.250180 0.271041 0.394078
O O12 0.266147 0.000000 0.351078
O O13 0.748667 0.500000 0.216045
O O14 0.827693 0.238536 0.158296
O O15 0.971684 0.500000 0.807186
O O16 0.132721 0.000000 0.920269
O O17 0.000000 0.220805 0.000000
O O18 0.706069 0.500000 0.570866
O O19 0.750000 0.750000 0.500000
#
# Coordination Sequence:
#
# PCOD8101094 Si02
#       7
#     8   8   8   8   8   8   8
#     4   9  19  34  54  80 106 135 172 216 264 313
#     4  11  22  35  52  75 104 139 182 231 281 329
#     4   9  18  34  56  79 102 132 171 212 257 312
#     4  10  20  36  57  79 105 139 180 224 271 322
#     4   9  18  32  50  72  98 132 174 217 261 313
#     4  11  24  38  52  75 109 148 189 233 278 322
#     4  10  20  36  58  83 110 138 170 208 254 311
#
# _framework density 19.438599
#
# number of rings (size 3 to 8) (size 9 to 14) (size 15 to 20)
#    0.000    2.143    0.000    3.000    0.000    7.429 
#    0.000    3.571    0.000    4.286    0.000    0.000 
#    0.000    0.000    0.000    0.000    0.000    0.000 
#
# Total GULP energy -347199.604663 kJ/mol
# GULP energy per Si atom -12399.985881 kJ/mol
# Density = 1.939436 g / cm^3
# Si number density = 19.438599 Si / 1000 Ang^3
#
#
#
# Elastic Constant Matrix: (Units=GPa)
#
#
# Indices 1 2 3 4 5 6 
#
# 1 97.7431 30.6520 23.1887 0.0000 16.0901 -0.0002
# 2 30.6520 60.5909 32.6061 -0.0001 7.0966 -0.0006
# 3 23.1887 32.6061 78.1295 0.0000 18.9057 0.0000
# 4 0.0000 -0.0001 0.0000 31.4751 0.0000 5.2603
# 5 16.0901 7.0966 18.9057 0.0000 26.5996 0.0000
# 6 -0.0002 -0.0006 0.0000 5.2603 0.0000 29.5831
#
#
#
# Elastic Compliance Matrix: (Units=1/GPa)
#
#
# Indices 1 2 3 4 5 6 
#
# 1 0.013129 -0.005970 0.000158 0.000000 -0.006462 0.000000
# 2 -0.005970 0.024012 -0.009146 0.000000 0.003706 0.000000
# 3 0.000158 -0.009146 0.019326 0.000000 -0.011391 0.000000
# 4 0.000000 0.000000 0.000000 0.032744 0.000000 -0.005822
# 5 -0.006462 0.003706 -0.011391 0.000000 0.048611 0.000000
# 6 0.000000 0.000000 0.000000 -0.005822 0.000000 0.034838
#
#
# Mechanical properties :
#
#
# Convention : Reuss Voigt Hill
#
# Bulk Modulus (GPa) = 37.66239 45.48412 41.57326
# Shear Modulus (GPa) = 23.64890 27.53269 25.59079
#
# Velocity S-wave (km/s) = 3.49176 3.76758 3.63229
# Velocity P-wave (km/s) = 5.97274 6.50968 6.24698
#
# Compressibility (1/GPa) = 0.02655169
#
# Stress axis : x y z
#
# Youngs Moduli (GPa) = 76.16560 41.64572 51.74495
#
# Poissons Ratio (x) = 0.24864 -0.00820
# Poissons Ratio (y) = 0.45474 0.47325
# Poissons Ratio (z) = -0.01207 0.38088
#
# Static dielectric constant tensor:
#      x y z
#    x 3.786740 0.000000 0.079230 
#    y 0.000000 3.514540 0.000000 
#    z 0.079230 0.000000 3.633930 
# 
# 
# High freq. dielectric constant tensor:
#      x y z
#    x 1.758370 0.000000 0.009410 
#    y 0.000000 1.754280 0.000000 
#    z 0.009410 0.000000 1.745270 
# 
# From -- ./inp_files/280368.got.cif
#   From: 2010.06.25/outbox.cif.g09.slc.cpg/sg12_141_cif.got.tgz:280368.got - 2010.06.28 00:19:55.
