data_PCOD8101491
_publ_section_title
;
Structure prediction by ZEFSAII (Michael W. Deem and Ramdas Pophale) SiO2 
 PCOD8101491
Probable space group: C 2/M
;
_chemical_formula_sum "Si O2"
_cell_formula_units_Z 64
_cell_length_a 14.631065
_cell_length_b 8.551312
_cell_length_c 25.890502
_cell_angle_alpha 90.000000
_cell_angle_beta 88.845610
_cell_angle_gamma 90.000000
_cell_volume 3238.627571
_symmetry_space_group_name_H-M "C 2/M"
_symmetry_group_IT_number 12
_symmetry_cell_setting 'monoclinic'
loop_
_space_group_symop_operation_xyz
x,y,z
-x,y,-z
-x,-y,-z
x,-y,z
1/2+x,1/2+y,z
1/2-x,1/2+y,-z
1/2-x,1/2-y,-z
1/2+x,1/2-y,z
loop_
_atom_site_type_symbol
_atom_site_label
_atom_site_fract_x
_atom_site_fract_y
_atom_site_fract_z
Si Si1 0.255826 0.684495 0.423069
Si Si2 0.813389 0.680040 0.123628
Si Si3 0.396872 0.184923 0.495910
Si Si4 0.062391 0.181068 0.245489
Si Si5 0.629792 0.178846 0.762045
Si Si6 0.217299 0.681987 0.307923
Si Si7 0.624936 0.817878 0.139288
Si Si8 0.515962 0.184352 0.943186
O O1 0.265399 0.500000 0.427352
O O2 0.349670 0.758309 0.443516
O O3 0.166701 0.743404 0.455873
O O4 0.244998 0.740064 0.364438
O O5 0.781970 0.500000 0.119815
O O6 0.864787 0.709947 0.176978
O O7 0.727512 0.793467 0.118009
O O8 0.882442 0.725731 0.076972
O O9 0.500000 0.254383 0.500000
O O10 0.402653 0.000000 0.494878
O O11 0.129619 0.218794 0.291876
O O12 0.113768 0.221575 0.191868
O O13 0.972397 0.283741 0.254450
O O14 0.035785 0.000000 0.246363
O O15 0.699074 0.291299 0.731779
O O16 0.653654 0.000000 0.748104
O O17 0.191288 0.500000 0.307771
O O18 0.557257 0.748464 0.096708
O O19 0.605635 0.000000 0.150724
O O20 0.500745 0.000000 0.946091
O O21 0.500000 0.259410 0.000000
#
# Coordination Sequence:
#
# PCOD8101491 Si02
#       8
#     8   8   8   8   8   8   8   8
#     4   9  20  37  56  84 119 151 189 240 290 336
#     4  10  20  36  58  84 112 145 187 234 285 346
#     4   9  18  35  60  86 114 153 197 235 281 340
#     4  12  24  38  58  85 116 154 196 239 290 350
#     4  11  22  38  59  85 114 151 194 240 292 347
#     4  11  23  39  58  85 122 158 196 244 292 345
#     4  11  21  36  59  85 112 148 191 235 287 344
#     4   9  19  37  59  82 112 149 187 232 290 351
#
# _framework density 19.761457
#
# number of rings (size 3 to 8) (size 9 to 14) (size 15 to 20)
#    0.000    1.750    2.500    2.250    0.000    3.250 
#    0.000    1.250    0.000    2.625    0.000    0.000 
#    0.000    0.000    0.000    0.000    0.000    0.000 
#
# Total GULP energy -396921.493210 kJ/mol
# GULP energy per Si atom -12403.796663 kJ/mol
# Density = 1.971648 g / cm^3
# Si number density = 19.761457 Si / 1000 Ang^3
#
#
#
# Elastic Constant Matrix: (Units=GPa)
#
#
# Indices 1 2 3 4 5 6 
#
# 1 102.9022 10.9443 10.5882 0.0000 12.3590 0.0000
# 2 10.9443 39.7950 20.4515 0.0000 3.7846 0.0000
# 3 10.5882 20.4515 78.7077 0.0000 10.9118 0.0000
# 4 0.0000 0.0000 0.0000 17.2992 0.0000 -3.5975
# 5 12.3590 3.7846 10.9118 0.0000 28.0947 0.0000
# 6 0.0000 0.0000 0.0000 -3.5975 0.0000 28.2572
#
#
#
# Elastic Compliance Matrix: (Units=1/GPa)
#
#
# Indices 1 2 3 4 5 6 
#
# 1 0.010499 -0.002379 -0.000210 0.000000 -0.004217 0.000000
# 2 -0.002379 0.029569 -0.007352 0.000000 -0.000081 0.000000
# 3 -0.000210 -0.007352 0.015319 0.000000 -0.004867 0.000000
# 4 0.000000 0.000000 0.000000 0.059378 0.000000 0.007560
# 5 -0.004217 -0.000081 -0.004867 0.000000 0.039350 0.000000
# 6 0.000000 0.000000 0.000000 0.007560 0.000000 0.036352
#
#
# Mechanical properties :
#
#
# Convention : Reuss Voigt Hill
#
# Bulk Modulus (GPa) = 28.16431 33.93032 31.04732
# Shear Modulus (GPa) = 22.50403 26.69161 24.59782
#
# Velocity S-wave (km/s) = 3.37825 3.67916 3.53191
# Velocity P-wave (km/s) = 5.43137 5.93764 5.69014
#
# Compressibility (1/GPa) = 0.03550593
#
# Stress axis : x y z
#
# Youngs Moduli (GPa) = 95.24753 33.81916 65.28032
#
# Poissons Ratio (x) = 0.08044 0.01369
# Poissons Ratio (y) = 0.22655 0.47994
# Poissons Ratio (z) = 0.01998 0.24864
#
# Static dielectric constant tensor:
#      x y z
#    x 3.685590 0.000000 0.036400 
#    y 0.000000 3.355440 0.000000 
#    z 0.036400 0.000000 3.711580 
# 
# 
# High freq. dielectric constant tensor:
#      x y z
#    x 1.780540 0.000000 0.003290 
#    y 0.000000 1.753620 0.000000 
#    z 0.003290 0.000000 1.766520 
# 
# From -- ./inp_files/338802.got.cif
#   From: 2010.06.25/outbox.cif.g09.slc.cpg/sg12_170_cif.got.tgz:338802.got - 2010.06.28 00:19:55.
