data_PCOD8101882
_publ_section_title
;
Structure prediction by ZEFSAII (Michael W. Deem and Ramdas Pophale) SiO2 
 PCOD8101882
Probable space group: C 2/M
;
_chemical_formula_sum "Si O2"
_cell_formula_units_Z 48
_cell_length_a 18.185682
_cell_length_b 17.752726
_cell_length_c 15.344682
_cell_angle_alpha 90.000000
_cell_angle_beta 29.691679
_cell_angle_gamma 90.000000
_cell_volume 2453.857680
_symmetry_space_group_name_H-M "C 2/M"
_symmetry_group_IT_number 12
_symmetry_cell_setting 'monoclinic'
loop_
_space_group_symop_operation_xyz
x,y,z
-x,y,-z
-x,-y,-z
x,-y,z
1/2+x,1/2+y,z
1/2-x,1/2+y,-z
1/2-x,1/2-y,-z
1/2+x,1/2-y,z
loop_
_atom_site_type_symbol
_atom_site_label
_atom_site_fract_x
_atom_site_fract_y
_atom_site_fract_z
Si Si1 0.560137 0.413943 0.342265
Si Si2 0.458201 0.916363 0.293533
Si Si3 0.310148 0.802247 0.017799
Si Si4 0.111002 0.582928 0.319132
Si Si5 0.878573 0.086127 0.359466
Si Si6 0.578851 0.663533 0.010084
O O1 0.500000 0.394386 0.500000
O O2 0.623133 0.500000 0.274871
O O3 0.683055 0.353513 0.189732
O O4 0.428328 0.405374 0.408308
O O5 0.523285 0.923089 0.321284
O O6 0.290378 0.885822 0.471300
O O7 0.461572 0.000000 0.245877
O O8 0.555233 0.856530 0.143240
O O9 0.250000 0.750000 0.000000
O O10 0.380316 0.750717 0.020788
O O11 0.145472 0.500000 0.321861
O O12 0.000000 0.626499 0.500000
O O13 0.266297 0.621479 0.145078
O O14 0.977079 0.136931 0.194572
O O15 0.893598 0.000000 0.311932
O O16 0.500000 0.648523 0.000000
#
# Coordination Sequence:
#
# PCOD8101882 Si02
#       6
#     8   8   8   8   8   8
#     4  10  22  43  70  94 122 169 223 265 311 375
#     4  10  21  39  65  89 118 164 211 254 310 375
#     4  12  23  42  61  90 127 169 205 257 321 379
#     4  10  20  36  59  88 122 163 206 249 304 378
#     4  10  21  40  65  94 125 164 212 263 316 376
#     4  12  25  39  59  92 129 167 207 259 319 388
#
# _framework density 19.561036999999999
#
# number of rings (size 3 to 8) (size 9 to 14) (size 15 to 20)
#    0.000    1.333    3.333    2.000    0.000    8.000 
#    3.000    0.000    0.000    5.000    0.000    0.000 
#    0.000    0.000    0.000    0.000    0.000    0.000 
#
# Total GULP energy -297524.354769 kJ/mol
# GULP energy per Si atom -12396.848115 kJ/mol
# Density = 1.951652 g / cm^3
# Si number density = 19.561037 Si / 1000 Ang^3
#
#
#
# Elastic Constant Matrix: (Units=GPa)
#
#
# Indices 1 2 3 4 5 6 
#
# 1 107.4660 41.0521 64.4891 0.0047 -1.5088 0.0010
# 2 41.0521 113.0154 86.1704 0.0133 -7.1878 -0.0003
# 3 64.4891 86.1704 173.2536 0.0075 -18.3936 -0.0008
# 4 0.0047 0.0133 0.0075 580.8115 -0.0076 -60.6465
# 5 -1.5088 -7.1878 -18.3936 -0.0076 32.3957 -0.0005
# 6 0.0010 -0.0003 -0.0008 -60.6465 -0.0005 36.1472
#
#
#
# Elastic Compliance Matrix: (Units=1/GPa)
#
#
# Indices 1 2 3 4 5 6 
#
# 1 0.012276 -0.001513 -0.004035 0.000000 -0.002055 -0.000001
# 2 -0.001513 0.014466 -0.006702 0.000000 -0.000666 0.000000
# 3 -0.004035 -0.006702 0.011098 0.000000 0.004626 0.000001
# 4 0.000000 0.000000 0.000000 0.002087 0.000001 0.003502
# 5 -0.002055 -0.000666 0.004626 0.000001 0.033252 0.000002
# 6 -0.000001 0.000000 0.000001 0.003502 0.000002 0.033541
#
#
# Mechanical properties :
#
#
# Convention : Reuss Voigt Hill
#
# Bulk Modulus (GPa) = 74.96710 86.35092 80.65901
# Shear Modulus (GPa) = 36.85496 143.33912 90.09704
#
# Velocity S-wave (km/s) = 4.34533 8.56954 6.79407
# Velocity P-wave (km/s) = 7.97394 11.92292 10.14248
#
# Compressibility (1/GPa) = 0.01333918
#
# Stress axis : x y z
#
# Youngs Moduli (GPa) = 81.46138 69.12771 90.10325
#
# Poissons Ratio (x) = 0.10462 0.36355
# Poissons Ratio (y) = 0.12328 0.60390
# Poissons Ratio (z) = 0.32868 0.46331
#
# Static dielectric constant tensor:
#      x y z
#    x 3.695880 -0.000010 0.007670 
#    y -0.000010 4.419990 -0.000010 
#    z 0.007670 -0.000010 3.677710 
# 
# 
# High freq. dielectric constant tensor:
#      x y z
#    x 1.763360 0.000000 -0.007330 
#    y 0.000000 1.765520 0.000000 
#    z -0.007330 0.000000 1.771150 
# 
# From -- ./inp_files/75050.got.cif
#   From: 2010.06.25/outbox.cif.g09.slc.cpg/sg12_38_cif.got.tgz:75050.got - 2010.06.28 00:19:55.
