data_PCOD8101207
_publ_section_title
;
Structure prediction by ZEFSAII (Michael W. Deem and Ramdas Pophale) SiO2 
 PCOD8101207
Probable space group: C 2/M
;
_chemical_formula_sum "Si O2"
_cell_formula_units_Z 56
_cell_length_a 35.788565
_cell_length_b 12.615967
_cell_length_c 9.432927
_cell_angle_alpha 90.000000
_cell_angle_beta 135.475631
_cell_angle_gamma 90.000000
_cell_volume 2986.489481
_symmetry_space_group_name_H-M "C 2/M"
_symmetry_group_IT_number 12
_symmetry_cell_setting 'monoclinic'
loop_
_space_group_symop_operation_xyz
x,y,z
-x,y,-z
-x,-y,-z
x,-y,z
1/2+x,1/2+y,z
1/2-x,1/2+y,-z
1/2-x,1/2-y,-z
1/2+x,1/2-y,z
loop_
_atom_site_type_symbol
_atom_site_label
_atom_site_fract_x
_atom_site_fract_y
_atom_site_fract_z
Si Si1 0.259282 0.879731 0.170304
Si Si2 0.640748 0.122505 0.378733
Si Si3 0.522154 0.291924 0.714013
Si Si4 0.111919 0.378790 0.983697
Si Si5 0.543537 0.500000 0.915397
Si Si6 0.174680 0.708286 0.901687
Si Si7 0.088796 0.775762 0.448965
Si Si8 0.577643 0.500000 0.313664
O O1 0.299934 0.850036 0.406565
O O2 0.287976 0.862903 0.096791
O O3 0.240137 0.000000 0.129710
O O4 0.206947 0.809319 0.045446
O O5 0.598318 0.194636 0.346325
O O6 0.627085 0.000000 0.374864
O O7 0.637677 0.148856 0.204796
O O8 0.500000 0.318564 0.500000
O O9 0.560266 0.191131 0.813402
O O10 0.555204 0.394822 0.855111
O O11 0.473787 0.267212 0.689371
O O12 0.092823 0.500000 0.926270
O O13 0.157206 0.360522 0.988802
O O14 0.482711 0.500000 0.798557
O O15 0.582034 0.500000 0.155340
O O16 0.122160 0.746413 0.677790
O O17 0.106212 0.894556 0.450078
#
# Coordination Sequence:
#
# PCOD8101207 Si02
#       8
#     8   8   8   8   4   8   8   4
#     4   9  19  37  60  82 109 145 188 232 284 343
#     4   9  20  38  59  83 113 150 190 236 283 334
#     4  11  21  37  54  85 116 155 192 233 280 335
#     4  11  23  38  57  84 117 150 190 236 284 337
#     4   9  19  34  54  74 113 152 191 224 281 322
#     4  10  20  36  57  86 111 149 182 235 287 334
#     4  10  20  36  57  82 116 151 192 230 276 337
#     4   9  18  32  54  80 106 153 188 233 266 327
#
# _framework density 18.751111999999999
#
# number of rings (size 3 to 8) (size 9 to 14) (size 15 to 20)
#    0.000    2.143    1.429    1.500    1.000    3.714 
#    1.286    1.429    0.000    0.000    0.000    0.000 
#    0.000    0.000    0.000    0.000    0.000    0.000 
#
# Total GULP energy -347290.735575 kJ/mol
# GULP energy per Si atom -12403.240556 kJ/mol
# Density = 1.870843 g / cm^3
# Si number density = 18.751112 Si / 1000 Ang^3
#
#
#
# Elastic Constant Matrix: (Units=GPa)
#
#
# Indices 1 2 3 4 5 6 
#
# 1 67.4375 36.2585 35.9844 0.0000 -11.3373 0.0000
# 2 36.2585 90.8660 28.5225 0.0000 -10.1474 0.0000
# 3 35.9844 28.5225 68.8843 0.0000 -24.8251 0.0000
# 4 0.0000 0.0000 0.0000 30.2892 0.0000 -1.7585
# 5 -11.3373 -10.1474 -24.8251 0.0000 31.2198 0.0000
# 6 0.0000 0.0000 0.0000 -1.7585 0.0000 28.2031
#
#
#
# Elastic Compliance Matrix: (Units=1/GPa)
#
#
# Indices 1 2 3 4 5 6 
#
# 1 0.023389 -0.006316 -0.010207 0.000000 -0.001675 0.000000
# 2 -0.006316 0.014355 -0.002508 0.000000 0.000378 0.000000
# 3 -0.010207 -0.002508 0.026993 0.000000 0.016943 0.000000
# 4 0.000000 0.000000 0.000000 0.033135 0.000000 0.002066
# 5 -0.001675 0.000378 0.016943 0.000000 0.045018 0.000000
# 6 0.000000 0.000000 0.000000 0.002066 0.000000 0.035586
#
#
# Mechanical properties :
#
#
# Convention : Reuss Voigt Hill
#
# Bulk Modulus (GPa) = 37.48798 47.63539 42.56169
# Shear Modulus (GPa) = 22.17979 26.37058 24.27518
#
# Velocity S-wave (km/s) = 3.44299 3.75420 3.60196
# Velocity P-wave (km/s) = 5.98677 6.65216 6.32821
#
# Compressibility (1/GPa) = 0.02667522
#
# Stress axis : x y z
#
# Youngs Moduli (GPa) = 42.75488 69.66146 37.04603
#
# Poissons Ratio (x) = 0.44000 0.37812
# Poissons Ratio (y) = 0.27005 0.09292
# Poissons Ratio (z) = 0.43639 0.17473
#
# Static dielectric constant tensor:
#      x y z
#    x 3.280340 0.000000 -0.162010 
#    y 0.000000 3.581380 0.000000 
#    z -0.162010 0.000000 3.487700 
# 
# 
# High freq. dielectric constant tensor:
#      x y z
#    x 1.711020 0.000000 -0.013790 
#    y 0.000000 1.738780 0.000000 
#    z -0.013790 0.000000 1.731910 
# 
# From -- ./inp_files/110587.got.cif
#   From: 2010.06.25/outbox.cif.g09.slc.cpg/sg12_56_cif.got.tgz:110587.got - 2010.06.28 00:19:55.
