data_PCOD8101235
_publ_section_title
;
Structure prediction by ZEFSAII (Michael W. Deem and Ramdas Pophale) SiO2 
 PCOD8101235
Probable space group: C 2/M
;
_chemical_formula_sum "Si O2"
_cell_formula_units_Z 64
_cell_length_a 18.725319
_cell_length_b 8.664066
_cell_length_c 32.006526
_cell_angle_alpha 90.000000
_cell_angle_beta 140.567835
_cell_angle_gamma 90.000000
_cell_volume 3298.188983
_symmetry_space_group_name_H-M "C 2/M"
_symmetry_group_IT_number 12
_symmetry_cell_setting 'monoclinic'
loop_
_space_group_symop_operation_xyz
x,y,z
-x,y,-z
-x,-y,-z
x,-y,z
1/2+x,1/2+y,z
1/2-x,1/2+y,-z
1/2-x,1/2-y,-z
1/2+x,1/2-y,z
loop_
_atom_site_type_symbol
_atom_site_label
_atom_site_fract_x
_atom_site_fract_y
_atom_site_fract_z
Si Si1 0.976371 0.823385 0.778323
Si Si2 0.954761 0.681177 0.408053
Si Si3 0.302693 0.681440 0.481693
Si Si4 0.348157 0.321206 0.280751
Si Si5 0.339758 0.180333 0.190643
Si Si6 0.613048 0.324010 0.174704
Si Si7 0.752120 0.181420 0.628118
Si Si8 0.410851 0.679167 0.928174
O O1 0.973433 0.798975 0.826842
O O2 0.858129 0.773430 0.704686
O O3 0.076047 0.712524 0.808968
O O4 0.004208 0.000000 0.779361
O O5 0.975482 0.500000 0.421532
O O6 0.918301 0.720320 0.344813
O O7 0.860189 0.736881 0.398342
O O8 0.070389 0.766625 0.469820
O O9 0.296435 0.500000 0.483454
O O10 0.250000 0.750000 0.500000
O O11 0.232405 0.734301 0.409292
O O12 0.375718 0.500000 0.300357
O O13 0.387002 0.270291 0.252253
O O14 0.216325 0.291364 0.227190
O O15 0.215552 0.244502 0.122709
O O16 0.333377 0.000000 0.198257
O O17 0.660451 0.500000 0.196758
O O18 0.550772 0.291571 0.102491
O O19 0.746759 0.000000 0.617587
O O20 0.407611 0.500000 0.937843
O O21 0.500000 0.760981 0.000000
#
# Coordination Sequence:
#
# PCOD8101235 Si02
#       8
#     8   8   8   8   8   8   8   8
#     4  10  20  36  57  83 116 151 190 236 286 340
#     4  11  22  41  65  86 113 149 191 234 286 347
#     4  12  27  44  61  85 117 151 192 240 290 343
#     4  11  21  34  56  85 114 146 187 235 283 337
#     4  10  21  35  54  81 116 152 191 236 286 338
#     4   9  17  34  57  83 114 150 190 230 277 336
#     4  10  22  41  63  84 112 151 192 234 287 346
#     4   8  15  31  57  84 111 150 198 238 274 329
#
# _framework density 19.404589000000001
#
# number of rings (size 3 to 8) (size 9 to 14) (size 15 to 20)
#    0.000    1.875    1.250    4.125    1.750    3.500 
#    0.000    0.625    0.000    9.375    0.000    0.000 
#    0.000    0.000    0.000    0.000    0.000    0.000 
#
# Total GULP energy -396815.148871 kJ/mol
# GULP energy per Si atom -12400.473402 kJ/mol
# Density = 1.936042 g / cm^3
# Si number density = 19.404589 Si / 1000 Ang^3
#
#
#
# Elastic Constant Matrix: (Units=GPa)
#
#
# Indices 1 2 3 4 5 6 
#
# 1 137.4763 37.5729 52.5476 0.0000 -7.7762 0.0002
# 2 37.5729 62.5443 25.5201 0.0001 -3.0399 0.0000
# 3 52.5476 25.5201 105.9649 0.0000 -16.4361 0.0000
# 4 0.0000 0.0001 0.0000 14.2598 0.0000 0.4086
# 5 -7.7762 -3.0399 -16.4361 0.0000 25.1349 -0.0001
# 6 0.0002 0.0000 0.0000 0.4086 -0.0001 31.8866
#
#
#
# Elastic Compliance Matrix: (Units=1/GPa)
#
#
# Indices 1 2 3 4 5 6 
#
# 1 0.009959 -0.004400 -0.003877 0.000000 0.000014 0.000000
# 2 -0.004400 0.019687 -0.002672 0.000000 -0.000728 0.000000
# 3 -0.003877 -0.002672 0.013095 0.000000 0.007041 0.000000
# 4 0.000000 0.000000 0.000000 0.070153 0.000000 -0.000899
# 5 0.000014 -0.000728 0.007041 0.000000 0.044306 0.000000
# 6 0.000000 0.000000 0.000000 -0.000899 0.000000 0.031373
#
#
# Mechanical properties :
#
#
# Convention : Reuss Voigt Hill
#
# Bulk Modulus (GPa) = 47.97795 59.69631 53.83713
# Shear Modulus (GPa) = 22.99706 26.94591 24.97149
#
# Velocity S-wave (km/s) = 3.44631 3.73048 3.59121
# Velocity P-wave (km/s) = 6.37298 7.02753 6.70824
#
# Compressibility (1/GPa) = 0.02084291
#
# Stress axis : x y z
#
# Youngs Moduli (GPa) = 100.40907 50.79467 76.36391
#
# Poissons Ratio (x) = 0.22352 0.29605
# Poissons Ratio (y) = 0.44184 0.20405
# Poissons Ratio (z) = 0.38927 0.13573
#
# Static dielectric constant tensor:
#      x y z
#    x 3.596140 0.000000 -0.142220 
#    y 0.000000 3.355740 0.000000 
#    z -0.142220 0.000000 3.701650 
# 
# 
# High freq. dielectric constant tensor:
#      x y z
#    x 1.760240 0.000000 -0.012380 
#    y 0.000000 1.739570 0.000000 
#    z -0.012380 0.000000 1.748330 
# 
# From -- ./inp_files/378540.got.cif
#   From: 2010.06.25/outbox.cif.g09.slc.cpg/sg12_190_cif.got.tgz:378540.got - 2010.06.28 00:19:55.
