data_PCOD8101972
_publ_section_title
;
Structure prediction by ZEFSAII (Michael W. Deem and Ramdas Pophale) SiO2 
 PCOD8101972
Probable space group: C 2/M
;
_chemical_formula_sum "Si O2"
_cell_formula_units_Z 56
_cell_length_a 28.167290
_cell_length_b 8.945250
_cell_length_c 20.840319
_cell_angle_alpha 90.000000
_cell_angle_beta 146.762580
_cell_angle_gamma 90.000000
_cell_volume 2878.122789
_symmetry_space_group_name_H-M "C 2/M"
_symmetry_group_IT_number 12
_symmetry_cell_setting 'monoclinic'
loop_
_space_group_symop_operation_xyz
x,y,z
-x,y,-z
-x,-y,-z
x,-y,z
1/2+x,1/2+y,z
1/2-x,1/2+y,-z
1/2-x,1/2-y,-z
1/2+x,1/2-y,z
loop_
_atom_site_type_symbol
_atom_site_label
_atom_site_fract_x
_atom_site_fract_y
_atom_site_fract_z
Si Si1 0.572146 0.176058 0.530642
Si Si2 0.891156 0.675291 0.931351
Si Si3 0.827015 0.824724 0.126786
Si Si4 0.522377 0.676026 0.341125
Si Si5 0.791788 0.176084 0.230293
Si Si6 0.077465 0.677224 0.174743
Si Si7 0.157820 0.176236 0.386031
O O1 0.500000 0.225149 0.500000
O O2 0.550603 0.244154 0.437825
O O3 0.661682 0.239875 0.658947
O O4 0.579237 0.000000 0.531011
O O5 0.901522 0.500000 0.938204
O O6 0.808626 0.724146 0.879328
O O7 0.883340 0.729505 0.849115
O O8 0.977521 0.732202 0.064305
O O9 0.824957 0.770533 0.198427
O O10 0.922957 0.781423 0.209334
O O11 0.809757 0.000000 0.103423
O O12 0.750000 0.750000 0.000000
O O13 0.528633 0.500000 0.360363
O O14 0.587162 0.730397 0.358617
O O15 0.804957 0.000000 0.255283
O O16 0.088792 0.500000 0.200726
O O17 0.127450 0.773975 0.282482
O O18 0.250000 0.250000 0.500000
O O19 0.168868 0.000000 0.401949
#
# Coordination Sequence:
#
# PCOD8101972 Si02
#       7
#     8   8   8   8   8   8   8
#     4  11  23  38  58  87 118 148 189 242 291 334
#     4   8  17  34  59  88 113 146 189 233 284 343
#     4  10  22  38  59  87 119 155 196 237 284 344
#     4  10  23  43  62  82 114 160 200 236 289 353
#     4  10  20  36  60  86 114 153 195 232 282 350
#     4   9  18  37  61  84 115 149 189 238 286 342
#     4  11  25  42  60  84 116 154 198 245 294 349
#
# _framework density 19.457127
#
# number of rings (size 3 to 8) (size 9 to 14) (size 15 to 20)
#    0.000    2.143    1.429    1.714    4.000    2.857 
#    0.000    2.143    0.000    0.000    0.000    0.000 
#    0.000    0.000    0.000    0.000    0.000    0.000 
#
# Total GULP energy -347155.537322 kJ/mol
# GULP energy per Si atom -12398.412047 kJ/mol
# Density = 1.941284 g / cm^3
# Si number density = 19.457127 Si / 1000 Ang^3
#
#
#
# Elastic Constant Matrix: (Units=GPa)
#
#
# Indices 1 2 3 4 5 6 
#
# 1 109.1956 31.4674 64.2572 0.0000 17.7616 0.0000
# 2 31.4674 38.0086 38.8434 0.0000 1.4400 0.0000
# 3 64.2572 38.8434 151.5094 0.0000 0.1338 0.0000
# 4 0.0000 0.0000 0.0000 38.0409 0.0000 -4.6708
# 5 17.7616 1.4400 0.1338 0.0000 34.1256 0.0000
# 6 0.0000 0.0000 0.0000 -4.6708 0.0000 25.4446
#
#
#
# Elastic Compliance Matrix: (Units=1/GPa)
#
#
# Indices 1 2 3 4 5 6 
#
# 1 0.015270 -0.007781 -0.004475 0.000000 -0.007602 0.000000
# 2 -0.007781 0.039689 -0.006877 0.000000 0.002402 0.000000
# 3 -0.004475 -0.006877 0.010259 0.000000 0.002579 0.000000
# 4 0.000000 0.000000 0.000000 0.026894 0.000000 0.004937
# 5 -0.007602 0.002402 0.002579 0.000000 0.033149 0.000000
# 6 0.000000 0.000000 0.000000 0.004937 0.000000 0.040207
#
#
# Mechanical properties :
#
#
# Convention : Reuss Voigt Hill
#
# Bulk Modulus (GPa) = 37.10321 63.09439 50.09880
# Shear Modulus (GPa) = 23.50538 30.46526 26.98532
#
# Velocity S-wave (km/s) = 3.47949 3.96127 3.72817
# Velocity P-wave (km/s) = 5.93743 7.30890 6.65857
#
# Compressibility (1/GPa) = 0.02695185
#
# Stress axis : x y z
#
# Youngs Moduli (GPa) = 65.48909 25.19577 97.47650
#
# Poissons Ratio (x) = 0.19605 0.43616
# Poissons Ratio (y) = 0.50957 0.67039
# Poissons Ratio (z) = 0.29303 0.17328
#
# Static dielectric constant tensor:
#      x y z
#    x 3.949000 0.000000 0.286980 
#    y 0.000000 3.305920 0.000000 
#    z 0.286980 0.000000 3.846090 
# 
# 
# High freq. dielectric constant tensor:
#      x y z
#    x 1.765930 0.000000 0.006160 
#    y 0.000000 1.735040 0.000000 
#    z 0.006160 0.000000 1.771030 
# 
# From -- ./inp_files/329677.got.cif
#   From: 2010.06.25/outbox.cif.g09.slc.cpg/sg12_165_cif.got.tgz:329677.got - 2010.06.28 00:19:55.
