data_PCOD8101375
_publ_section_title
;
Structure prediction by ZEFSAII (Michael W. Deem and Ramdas Pophale) SiO2 
 PCOD8101375
Probable space group: C 2/M
;
_chemical_formula_sum "Si O2"
_cell_formula_units_Z 64
_cell_length_a 22.998498
_cell_length_b 9.142362
_cell_length_c 28.956906
_cell_angle_alpha 90.000000
_cell_angle_beta 150.112208
_cell_angle_gamma 90.000000
_cell_volume 3033.916068
_symmetry_space_group_name_H-M "C 2/M"
_symmetry_group_IT_number 12
_symmetry_cell_setting 'monoclinic'
loop_
_space_group_symop_operation_xyz
x,y,z
-x,y,-z
-x,-y,-z
x,-y,z
1/2+x,1/2+y,z
1/2-x,1/2+y,-z
1/2-x,1/2-y,-z
1/2+x,1/2-y,z
loop_
_atom_site_type_symbol
_atom_site_label
_atom_site_fract_x
_atom_site_fract_y
_atom_site_fract_z
Si Si1 0.236667 0.170774 0.039998
Si Si2 0.578053 0.659477 0.404020
Si Si3 0.335681 0.827935 0.701453
Si Si4 0.471453 0.666220 0.867119
Si Si5 0.835817 0.826592 0.194629
Si Si6 0.372634 0.169739 0.394025
Si Si7 0.238176 0.831616 0.211439
Si Si8 0.240251 0.159140 0.430786
O O1 0.319909 0.248078 0.134481
O O2 0.269857 0.000000 0.057132
O O3 0.250000 0.250000 0.000000
O O4 0.106872 0.187733 0.971973
O O5 0.551377 0.500000 0.408257
O O6 0.463643 0.720020 0.300120
O O7 0.628066 0.772889 0.476236
O O8 0.683858 0.638530 0.441536
O O9 0.444842 0.772438 0.806145
O O10 0.213918 0.769340 0.636725
O O11 0.346690 0.763500 0.657703
O O12 0.337056 0.000000 0.701068
O O13 0.444870 0.500000 0.833399
O O14 0.387416 0.706071 0.852145
O O15 0.746100 0.769603 0.171727
O O16 0.821673 0.000000 0.178131
O O17 0.500000 0.213906 0.500000
O O18 0.345512 0.202028 0.320998
O O19 0.346230 0.000000 0.385432
O O20 0.241982 0.000000 0.198110
O O21 0.254148 0.000000 0.416447
#
# Coordination Sequence:
#
# PCOD8101375 Si02
#       8
#     8   8   8   8   8   8   8   8
#     4  11  25  45  69  96 124 157 203 255 312 373
#     4   9  21  39  56  81 117 157 201 250 301 357
#     4  11  22  34  55  88 121 155 199 249 304 360
#     4   9  21  43  66  87 119 162 206 253 303 366
#     4  11  24  41  62  92 129 164 200 252 316 370
#     4   9  19  36  57  84 119 162 210 251 296 359
#     4   9  19  38  62  89 120 160 210 253 300 361
#     4  10  20  36  58  81 113 160 208 248 296 360
#
# _framework density 21.094847000000001
#
# number of rings (size 3 to 8) (size 9 to 14) (size 15 to 20)
#    0.000    2.125    0.000    3.000    3.500    5.250 
#    0.000    2.500    0.000    0.000    0.000    0.000 
#    0.000    0.000    0.000    0.000    0.000    0.000 
#
# Total GULP energy -396692.103323 kJ/mol
# GULP energy per Si atom -12396.628229 kJ/mol
# Density = 2.104683 g / cm^3
# Si number density = 21.094847 Si / 1000 Ang^3
#
#
#
# Elastic Constant Matrix: (Units=GPa)
#
#
# Indices 1 2 3 4 5 6 
#
# 1 59.2190 26.0602 20.2784 0.0000 -10.6887 0.0001
# 2 26.0602 128.8967 37.0427 0.0001 -10.5802 0.0005
# 3 20.2784 37.0427 80.6018 -0.0001 3.0683 -0.0001
# 4 0.0000 0.0001 -0.0001 33.1174 0.0001 -6.1728
# 5 -10.6887 -10.5802 3.0683 0.0001 29.5601 0.0001
# 6 0.0001 0.0005 -0.0001 -6.1728 0.0001 32.6328
#
#
#
# Elastic Compliance Matrix: (Units=1/GPa)
#
#
# Indices 1 2 3 4 5 6 
#
# 1 0.020707 -0.002337 -0.004406 0.000000 0.007108 0.000000
# 2 -0.002337 0.009610 -0.003943 0.000000 0.003004 0.000000
# 3 -0.004406 -0.003943 0.015503 0.000000 -0.004614 0.000000
# 4 0.000000 0.000000 0.000000 0.031299 0.000000 0.005921
# 5 0.007108 0.003004 -0.004614 0.000000 0.037954 0.000000
# 6 0.000000 0.000000 0.000000 0.005921 0.000000 0.031764
#
#
# Mechanical properties :
#
#
# Convention : Reuss Voigt Hill
#
# Bulk Modulus (GPa) = 40.90342 48.38666 44.64504
# Shear Modulus (GPa) = 28.35134 31.41779 29.88457
#
# Velocity S-wave (km/s) = 3.67003 3.86341 3.76796
# Velocity P-wave (km/s) = 6.11483 6.54895 6.33561
#
# Compressibility (1/GPa) = 0.02444783
#
# Stress axis : x y z
#
# Youngs Moduli (GPa) = 48.29374 104.05424 64.50343
#
# Poissons Ratio (x) = 0.24314 0.28422
# Poissons Ratio (y) = 0.11285 0.25435
# Poissons Ratio (z) = 0.21279 0.41030
#
# Static dielectric constant tensor:
#      x y z
#    x 3.650660 0.000000 -0.039500 
#    y 0.000000 3.983870 0.000000 
#    z -0.039500 0.000000 3.875040 
# 
# 
# High freq. dielectric constant tensor:
#      x y z
#    x 1.815010 0.000000 -0.002760 
#    y 0.000000 1.828270 0.000000 
#    z -0.002760 0.000000 1.827580 
# 
# From -- ./inp_files/382513.got.cif
#   From: 2010.06.25/outbox.cif.g09.slc.cpg/sg12_192_cif.got.tgz:382513.got - 2010.06.28 00:19:55.
