data_PCOD8101041
_publ_section_title
;
Structure prediction by ZEFSAII (Michael W. Deem and Ramdas Pophale) SiO2 
 PCOD8101041
Probable space group: C 2/M
;
_chemical_formula_sum "Si O2"
_cell_formula_units_Z 56
_cell_length_a 13.250508
_cell_length_b 9.626323
_cell_length_c 25.111078
_cell_angle_alpha 90.000000
_cell_angle_beta 59.916377
_cell_angle_gamma 90.000000
_cell_volume 2771.547818
_symmetry_space_group_name_H-M "C 2/M"
_symmetry_group_IT_number 12
_symmetry_cell_setting 'monoclinic'
loop_
_space_group_symop_operation_xyz
x,y,z
-x,y,-z
-x,-y,-z
x,-y,z
1/2+x,1/2+y,z
1/2-x,1/2+y,-z
1/2-x,1/2-y,-z
1/2+x,1/2-y,z
loop_
_atom_site_type_symbol
_atom_site_label
_atom_site_fract_x
_atom_site_fract_y
_atom_site_fract_z
Si Si1 0.884395 0.663474 0.560620
Si Si2 0.184103 0.655062 0.626702
Si Si3 0.188723 0.000000 0.927190
Si Si4 0.908529 0.660437 0.238241
Si Si5 0.069956 0.346152 0.333633
Si Si6 0.448864 0.500000 0.927627
Si Si7 0.198645 0.847500 0.223170
Si Si8 0.357107 0.734001 0.871526
O O1 0.865986 0.500000 0.557693
O O2 0.772804 0.748665 0.569445
O O3 0.885101 0.710820 0.622164
O O4 0.000000 0.713802 0.500000
O O5 0.237172 0.500000 0.619701
O O6 0.150300 0.723561 0.693061
O O7 0.068500 0.648569 0.622026
O O8 0.273952 0.864941 0.907978
O O9 0.091501 0.000000 0.903331
O O10 0.114497 0.000000 0.999818
O O11 0.929853 0.500000 0.244562
O O12 0.826282 0.692776 0.210100
O O13 0.031271 0.723602 0.191618
O O14 0.119829 0.500000 0.309502
O O15 0.104248 0.255701 0.273457
O O16 0.401870 0.638002 0.908781
O O17 0.211900 0.850600 0.155568
O O18 0.163401 0.000000 0.252889
#
# Coordination Sequence:
#
# PCOD8101041 Si02
#       8
#     8   8   4   8   8   4   8   8
#     4  10  22  40  58  82 117 157 206 257 310 376
#     4  10  20  36  56  83 115 154 198 247 301 375
#     4  11  26  46  75  91 139 187 219 272 333 385
#     4  10  20  36  59  88 125 160 204 252 319 390
#     4  10  21  37  58  84 117 162 201 249 319 382
#     4  11  26  48  65 107 133 173 239 272 311 405
#     4  11  22  36  58  90 127 157 199 266 317 376
#     4  12  22  43  66  98 131 173 215 273 330 385
#
# _framework density 20.205316
#
# number of rings (size 3 to 8) (size 9 to 14) (size 15 to 20)
#    0.000    1.429    4.286    1.286    1.000    1.429 
#    2.571    0.000    0.000    3.429    0.000    0.000 
#    0.000    0.000    0.000    0.000    0.000    0.000 
#
# Total GULP energy -346869.537920 kJ/mol
# GULP energy per Si atom -12388.197783 kJ/mol
# Density = 2.015933 g / cm^3
# Si number density = 20.205316 Si / 1000 Ang^3
#
#
#
# Elastic Constant Matrix: (Units=GPa)
#
#
# Indices 1 2 3 4 5 6 
#
# 1 63.5955 40.6512 12.5157 0.0000 -1.0462 0.0000
# 2 40.6512 81.1130 33.8948 0.0000 -14.8940 0.0000
# 3 12.5157 33.8948 58.2552 0.0000 -17.2905 0.0000
# 4 0.0000 0.0000 0.0000 26.9947 0.0000 -0.8366
# 5 -1.0462 -14.8940 -17.2905 0.0000 29.4118 0.0000
# 6 0.0000 0.0000 0.0000 -0.8366 0.0000 28.6507
#
#
#
# Elastic Compliance Matrix: (Units=1/GPa)
#
#
# Indices 1 2 3 4 5 6 
#
# 1 0.024041 -0.013487 0.001101 0.000000 -0.005327 0.000000
# 2 -0.013487 0.024114 -0.009268 0.000000 0.006283 0.000000
# 3 0.001101 -0.009268 0.025366 0.000000 0.010258 0.000000
# 4 0.000000 0.000000 0.000000 0.037078 0.000000 0.001083
# 5 -0.005327 0.006283 0.010258 0.000000 0.043023 0.000000
# 6 0.000000 0.000000 0.000000 0.001083 0.000000 0.034935
#
#
# Mechanical properties :
#
#
# Convention : Reuss Voigt Hill
#
# Bulk Modulus (GPa) = 33.09750 41.89856 37.49803
# Shear Modulus (GPa) = 20.66658 24.73824 22.70241
#
# Velocity S-wave (km/s) = 3.20164 3.50286 3.35563
# Velocity P-wave (km/s) = 5.48484 6.09438 5.79762
#
# Compressibility (1/GPa) = 0.03021376
#
# Stress axis : x y z
#
# Youngs Moduli (GPa) = 41.59546 41.46929 39.42214
#
# Poissons Ratio (x) = 0.55929 -0.04340
# Poissons Ratio (y) = 0.56099 0.36537
# Poissons Ratio (z) = -0.04579 0.38434
#
# Static dielectric constant tensor:
#      x y z
#    x 3.954150 0.000000 0.110060 
#    y 0.000000 3.669630 0.000000 
#    z 0.110060 0.000000 3.501100 
# 
# 
# High freq. dielectric constant tensor:
#      x y z
#    x 1.805410 0.000000 0.004890 
#    y 0.000000 1.782000 0.000000 
#    z 0.004890 0.000000 1.777800 
# 
# From -- ./inp_files/338592.got.cif
#   From: 2010.06.25/outbox.cif.g09.slc.cpg/sg12_170_cif.got.tgz:338592.got - 2010.06.28 00:19:55.
