data_PCOD8101537
_publ_section_title
;
Structure prediction by ZEFSAII (Michael W. Deem and Ramdas Pophale) SiO2 
 PCOD8101537
Probable space group: C 2/M
;
_chemical_formula_sum "Si O2"
_cell_formula_units_Z 56
_cell_length_a 19.675699
_cell_length_b 9.504014
_cell_length_c 28.834020
_cell_angle_alpha 90.000000
_cell_angle_beta 32.342224
_cell_angle_gamma 90.000000
_cell_volume 2884.536350
_symmetry_space_group_name_H-M "C 2/M"
_symmetry_group_IT_number 12
_symmetry_cell_setting 'monoclinic'
loop_
_space_group_symop_operation_xyz
x,y,z
-x,y,-z
-x,-y,-z
x,-y,z
1/2+x,1/2+y,z
1/2-x,1/2+y,-z
1/2-x,1/2-y,-z
1/2+x,1/2-y,z
loop_
_atom_site_type_symbol
_atom_site_label
_atom_site_fract_x
_atom_site_fract_y
_atom_site_fract_z
Si Si1 0.083158 0.653215 0.011758
Si Si2 0.378036 0.662680 0.267270
Si Si3 0.123792 0.160263 0.068639
Si Si4 0.703359 0.838506 0.282936
Si Si5 0.199886 0.652715 0.854308
Si Si6 0.688524 0.164490 0.604254
Si Si7 0.913343 0.339898 0.436039
O O1 0.122284 0.500000 0.011439
O O2 0.056555 0.779524 0.062160
O O3 0.948127 0.632574 0.067083
O O4 0.198652 0.696565 0.909659
O O5 0.345431 0.500000 0.297590
O O6 0.524598 0.678047 0.167739
O O7 0.281435 0.718626 0.282586
O O8 0.366167 0.758096 0.319355
O O9 0.161231 0.000000 0.039317
O O10 0.250000 0.250000 0.000000
O O11 0.736495 0.764017 0.215798
O O12 0.553208 0.817312 0.376453
O O13 0.740588 0.000000 0.254405
O O14 0.267393 0.500000 0.808158
O O15 0.825023 0.230340 0.513685
O O16 0.592798 0.187984 0.615990
O O17 0.706128 0.000000 0.605260
O O18 0.867487 0.500000 0.472165
#
# Coordination Sequence:
#
# PCOD8101537 Si02
#       7
#     8   8   8   8   8   8   8
#     4   9  18  34  53  76 107 144 184 227 279 333
#     4  10  22  39  58  82 114 151 187 231 286 338
#     4  11  23  38  56  80 110 149 193 235 282 336
#     4  10  20  36  58  85 115 147 193 239 280 336
#     4   9  18  32  53  79 109 143 179 227 284 331
#     4  10  21  38  61  87 114 147 187 228 277 340
#     4   9  20  39  61  84 113 148 184 231 282 333
#
# _framework density 19.413865999999999
#
# number of rings (size 3 to 8) (size 9 to 14) (size 15 to 20)
#    0.000    2.286    1.429    1.714    0.000    5.143 
#    0.000    7.143    0.000    0.000    0.000    0.000 
#    0.000    0.000    0.000    0.000    0.000    0.000 
#
# Total GULP energy -346912.016950 kJ/mol
# GULP energy per Si atom -12389.714891 kJ/mol
# Density = 1.936968 g / cm^3
# Si number density = 19.413866 Si / 1000 Ang^3
#
#
#
# Elastic Constant Matrix: (Units=GPa)
#
#
# Indices 1 2 3 4 5 6 
#
# 1 47.0605 38.1598 36.6738 -0.0022 3.3312 0.0070
# 2 38.1598 117.4305 64.1424 -0.0046 17.5219 0.0121
# 3 36.6738 64.1424 86.0117 -0.0007 12.9977 0.0034
# 4 -0.0022 -0.0046 -0.0007 39.4534 0.0001 6.3100
# 5 3.3312 17.5219 12.9977 0.0001 34.3078 -0.0015
# 6 0.0070 0.0121 0.0034 6.3100 -0.0015 28.4234
#
#
#
# Elastic Compliance Matrix: (Units=1/GPa)
#
#
# Indices 1 2 3 4 5 6 
#
# 1 0.034047 -0.005706 -0.010822 0.000002 0.003708 -0.000005
# 2 -0.005706 0.015727 -0.008661 0.000002 -0.004197 -0.000005
# 3 -0.010822 -0.008661 0.023201 -0.000002 -0.003315 0.000004
# 4 0.000002 0.000002 -0.000002 0.026279 -0.000001 -0.005834
# 5 0.003708 -0.004197 -0.003315 -0.000001 0.032187 0.000003
# 6 -0.000005 -0.000005 0.000004 -0.005834 0.000003 0.036477
#
#
# Mechanical properties :
#
#
# Convention : Reuss Voigt Hill
#
# Bulk Modulus (GPa) = 44.25534 58.71719 51.48627
# Shear Modulus (GPa) = 22.14057 27.87205 25.00631
#
# Velocity S-wave (km/s) = 3.38072 3.79314 3.59285
# Velocity P-wave (km/s) = 6.17124 7.03524 6.61736
#
# Compressibility (1/GPa) = 0.02259614
#
# Stress axis : x y z
#
# Youngs Moduli (GPa) = 29.37091 63.58556 43.10202
#
# Poissons Ratio (x) = 0.36281 0.46647
# Poissons Ratio (y) = 0.16759 0.37331
# Poissons Ratio (z) = 0.31787 0.55072
#
# Static dielectric constant tensor:
#      x y z
#    x -39.415950 -0.019840 -16.482360 
#    y -0.019840 13.005330 -0.007600 
#    z -16.482360 -0.007600 -2.914910 
# 
# 
# High freq. dielectric constant tensor:
#      x y z
#    x 1.751700 0.000000 0.002820 
#    y 0.000000 1.757860 0.000000 
#    z 0.002820 0.000000 1.750400 
# 
# From -- ./inp_files/380571.got.cif
#   From: 2010.06.25/outbox.cif.g09.slc.cpg/sg12_191_cif.got.tgz:380571.got - 2010.06.28 00:19:55.
