data_PCOD8101528
_publ_section_title
;
Structure prediction by ZEFSAII (Michael W. Deem and Ramdas Pophale) SiO2 
 PCOD8101528
Probable space group: C 2/M
;
_chemical_formula_sum "Si O2"
_cell_formula_units_Z 64
_cell_length_a 23.839270
_cell_length_b 8.741274
_cell_length_c 16.591960
_cell_angle_alpha 90.000000
_cell_angle_beta 112.413040
_cell_angle_gamma 90.000000
_cell_volume 3196.341439
_symmetry_space_group_name_H-M "C 2/M"
_symmetry_group_IT_number 12
_symmetry_cell_setting 'monoclinic'
loop_
_space_group_symop_operation_xyz
x,y,z
-x,y,-z
-x,-y,-z
x,-y,z
1/2+x,1/2+y,z
1/2-x,1/2+y,-z
1/2-x,1/2-y,-z
1/2+x,1/2-y,z
loop_
_atom_site_type_symbol
_atom_site_label
_atom_site_fract_x
_atom_site_fract_y
_atom_site_fract_z
Si Si1 0.336674 0.178738 0.916476
Si Si2 0.712376 0.180404 0.842724
Si Si3 0.025122 0.180078 0.599428
Si Si4 0.358294 0.180272 0.745333
Si Si5 0.015877 0.681404 0.261488
Si Si6 0.251836 0.180304 0.413248
Si Si7 0.163113 0.179684 0.660084
Si Si8 0.102129 0.320411 0.891316
O O1 0.278110 0.274801 0.912660
O O2 0.359215 0.224532 0.840140
O O3 0.320142 0.000000 0.913026
O O4 0.389880 0.220107 0.009710
O O5 0.706920 0.269869 0.755849
O O6 0.660420 0.241309 0.874336
O O7 0.707836 0.000000 0.825160
O O8 0.095017 0.230490 0.643697
O O9 0.000000 0.236483 0.500000
O O10 0.987315 0.261582 0.648661
O O11 0.016748 0.000000 0.604938
O O12 0.421618 0.239218 0.743240
O O13 0.304476 0.265795 0.671084
O O14 0.349236 0.000000 0.728082
O O15 0.013657 0.500000 0.259744
O O16 0.959911 0.751449 0.178414
O O17 0.250000 0.250000 0.500000
O O18 0.314886 0.235202 0.408276
O O19 0.250969 0.000000 0.419542
O O20 0.168264 0.000000 0.647951
O O21 0.098511 0.500000 0.876760
#
# Coordination Sequence:
#
# PCOD8101528 Si02
#       8
#     8   8   8   8   8   8   8   8
#     4  10  20  36  58  84 119 160 199 243 297 355
#     4  11  20  34  57  87 121 154 197 248 300 353
#     4  10  23  41  61  88 119 154 196 243 299 359
#     4  10  22  39  60  88 121 158 203 247 294 353
#     4  10  21  39  60  86 120 156 200 249 294 352
#     4  12  26  43  65  90 122 158 198 246 297 352
#     4  11  22  39  63  90 122 156 197 244 298 358
#     4   9  19  35  57  86 119 156 199 246 295 352
#
# _framework density 20.022894000000001
#
# number of rings (size 3 to 8) (size 9 to 14) (size 15 to 20)
#    0.000    1.625    2.500    2.250    1.750    1.750 
#    0.000    3.750    0.000    0.000    0.000    2.625 
#    0.000    0.000    0.000    0.000    0.000    0.000 
#
# Total GULP energy -396884.544885 kJ/mol
# GULP energy per Si atom -12402.642028 kJ/mol
# Density = 1.997732 g / cm^3
# Si number density = 20.022894 Si / 1000 Ang^3
#
#
#
# Elastic Constant Matrix: (Units=GPa)
#
#
# Indices 1 2 3 4 5 6 
#
# 1 116.1888 34.2474 37.1969 0.0000 -14.7673 0.0000
# 2 34.2474 57.7658 30.4871 0.0000 -6.0895 0.0000
# 3 37.1969 30.4871 123.6136 0.0000 -13.7246 0.0000
# 4 0.0000 0.0000 0.0000 21.8918 0.0000 -1.5918
# 5 -14.7673 -6.0895 -13.7246 0.0000 34.3892 0.0000
# 6 0.0000 0.0000 0.0000 -1.5918 0.0000 24.1952
#
#
#
# Elastic Compliance Matrix: (Units=1/GPa)
#
#
# Indices 1 2 3 4 5 6 
#
# 1 0.011130 -0.005384 -0.001671 0.000000 0.003159 0.000000
# 2 -0.005384 0.022595 -0.003940 0.000000 0.000117 0.000000
# 3 -0.001671 -0.003940 0.009843 0.000000 0.002513 0.000000
# 4 0.000000 0.000000 0.000000 0.045899 0.000000 0.003020
# 5 0.003159 0.000117 0.002513 0.000000 0.031459 0.000000
# 6 0.000000 0.000000 0.000000 0.003020 0.000000 0.041529
#
#
# Mechanical properties :
#
#
# Convention : Reuss Voigt Hill
#
# Bulk Modulus (GPa) = 46.33955 55.71454 51.02705
# Shear Modulus (GPa) = 26.09113 29.13771 27.61442
#
# Velocity S-wave (km/s) = 3.61371 3.81887 3.71771
# Velocity P-wave (km/s) = 6.37224 6.87974 6.63085
#
# Compressibility (1/GPa) = 0.02157984
#
# Stress axis : x y z
#
# Youngs Moduli (GPa) = 89.84757 44.25824 101.59419
#
# Poissons Ratio (x) = 0.23828 0.16972
# Poissons Ratio (y) = 0.48373 0.40023
# Poissons Ratio (z) = 0.15009 0.17436
#
# Static dielectric constant tensor:
#      x y z
#    x 3.856970 0.000000 -0.000660 
#    y 0.000000 3.410980 0.000000 
#    z -0.000660 0.000000 3.703790 
# 
# 
# High freq. dielectric constant tensor:
#      x y z
#    x 1.787150 0.000000 -0.002620 
#    y 0.000000 1.760910 0.000000 
#    z -0.002620 0.000000 1.793800 
# 
# From -- ./inp_files/244194.got.cif
#   From: 2010.06.25/outbox.cif.g09.slc.cpg/sg12_123_cif.got.tgz:244194.got - 2010.06.28 00:19:55.
