data_PCOD8101311
_publ_section_title
;
Structure prediction by ZEFSAII (Michael W. Deem and Ramdas Pophale) SiO2 
 PCOD8101311
Probable space group: C 2/M
;
_chemical_formula_sum "Si O2"
_cell_formula_units_Z 48
_cell_length_a 18.141621
_cell_length_b 8.901915
_cell_length_c 15.622294
_cell_angle_alpha 90.000000
_cell_angle_beta 92.274119
_cell_angle_gamma 90.000000
_cell_volume 2520.937993
_symmetry_space_group_name_H-M "C 2/M"
_symmetry_group_IT_number 12
_symmetry_cell_setting 'monoclinic'
loop_
_space_group_symop_operation_xyz
x,y,z
-x,y,-z
-x,-y,-z
x,-y,z
1/2+x,1/2+y,z
1/2-x,1/2+y,-z
1/2-x,1/2-y,-z
1/2+x,1/2-y,z
loop_
_atom_site_type_symbol
_atom_site_label
_atom_site_fract_x
_atom_site_fract_y
_atom_site_fract_z
Si Si1 0.085029 0.324173 0.519582
Si Si2 0.570302 0.820160 0.193320
Si Si3 0.912905 0.335980 0.988409
Si Si4 0.403252 0.179579 0.172758
Si Si5 0.334017 0.821741 0.645685
Si Si6 0.669412 0.677694 0.673917
O O1 0.098418 0.500000 0.535405
O O2 0.131871 0.262138 0.441427
O O3 0.108998 0.237243 0.605220
O O4 0.000000 0.288454 0.500000
O O5 0.485747 0.770403 0.204097
O O6 0.619355 0.754646 0.272746
O O7 0.573887 0.000000 0.188635
O O8 0.602309 0.753644 0.103784
O O9 0.875457 0.500000 0.983280
O O10 0.885018 0.257752 0.075343
O O11 0.000000 0.356245 0.000000
O O12 0.345139 0.255376 0.233208
O O13 0.395953 0.000000 0.175735
O O14 0.250017 0.766608 0.647851
O O15 0.340356 0.000000 0.648696
O O16 0.665410 0.500000 0.678678
#
# Coordination Sequence:
#
# PCOD8101311 Si02
#       6
#     8   8   8   8   8   8
#     4  10  20  36  58  77  90 114 159 207 241 274
#     4   8  13  26  50  75  95 119 160 209 243 271
#     4   7  11  21  43  74  97 115 152 207 250 269
#     4   9  16  29  51  75  96 123 164 207 238 270
#     4   9  18  31  47  70  99 128 156 190 239 291
#     4  11  22  33  46  69 103 135 156 183 234 295
#
# _framework density 19.040531000000001
#
# number of rings (size 3 to 8) (size 9 to 14) (size 15 to 20)
#    0.000    3.000    0.000    4.000    0.000    3.000 
#    0.000    1.667    0.000    6.500    0.000    0.000 
#    0.000    0.000    0.000    0.000    0.000    0.000 
#
# Total GULP energy -297384.468585 kJ/mol
# GULP energy per Si atom -12391.019524 kJ/mol
# Density = 1.899719 g / cm^3
# Si number density = 19.040531 Si / 1000 Ang^3
#
#
#
# Elastic Constant Matrix: (Units=GPa)
#
#
# Indices 1 2 3 4 5 6 
#
# 1 65.9247 19.2161 34.5597 0.0000 -21.3787 0.0000
# 2 19.2161 24.3074 20.2096 0.0000 -7.9804 0.0000
# 3 34.5597 20.2096 141.5422 0.0000 -26.7701 0.0000
# 4 0.0000 0.0000 0.0000 11.4743 0.0000 -7.7585
# 5 -21.3787 -7.9804 -26.7701 0.0000 30.1943 0.0000
# 6 0.0000 0.0000 0.0000 -7.7585 0.0000 14.5539
#
#
#
# Elastic Compliance Matrix: (Units=1/GPa)
#
#
# Indices 1 2 3 4 5 6 
#
# 1 0.023823 -0.013588 -0.001641 0.000000 0.011822 0.000000
# 2 -0.013588 0.055980 -0.004441 0.000000 0.001237 0.000000
# 3 -0.001641 -0.004441 0.009201 0.000000 0.005822 0.000000
# 4 0.000000 0.000000 0.000000 0.136271 0.000000 0.072645
# 5 0.011822 0.001237 0.005822 0.000000 0.046978 0.000000
# 6 0.000000 0.000000 0.000000 0.072645 0.000000 0.107436
#
#
# Mechanical properties :
#
#
# Convention : Reuss Voigt Hill
#
# Bulk Modulus (GPa) = 20.13513 42.19390 31.16452
# Shear Modulus (GPa) = 11.47881 21.76375 16.62128
#
# Velocity S-wave (km/s) = 2.45799 3.38453 2.95776
# Velocity P-wave (km/s) = 4.31896 6.12222 5.29788
#
# Compressibility (1/GPa) = 0.04966445
#
# Stress axis : x y z
#
# Youngs Moduli (GPa) = 41.97550 17.86339 108.68519
#
# Poissons Ratio (x) = 0.24273 0.17834
# Poissons Ratio (y) = 0.57037 0.48270
# Poissons Ratio (z) = 0.06888 0.07934
#
# Static dielectric constant tensor:
#      x y z
#    x 3.356170 0.000000 -0.010520 
#    y 0.000000 2.873360 0.000000 
#    z -0.010520 0.000000 4.027750 
# 
# 
# High freq. dielectric constant tensor:
#      x y z
#    x 1.720590 0.000000 -0.002500 
#    y 0.000000 1.676160 0.000000 
#    z -0.002500 0.000000 1.770250 
# 
# From -- ./inp_files/212663.got.cif
#   From: 2010.06.25/outbox.cif.g09.slc.cpg/sg12_107_cif.got.tgz:212663.got - 2010.06.28 00:19:55.
