data_PCOD8101841
_publ_section_title
;
Structure prediction by ZEFSAII (Michael W. Deem and Ramdas Pophale) SiO2 
 PCOD8101841
Probable space group: C 2/M
;
_chemical_formula_sum "Si O2"
_cell_formula_units_Z 56
_cell_length_a 19.136245
_cell_length_b 8.546413
_cell_length_c 26.532740
_cell_angle_alpha 90.000000
_cell_angle_beta 39.573080
_cell_angle_gamma 90.000000
_cell_volume 2764.421946
_symmetry_space_group_name_H-M "C 2/M"
_symmetry_group_IT_number 12
_symmetry_cell_setting 'monoclinic'
loop_
_space_group_symop_operation_xyz
x,y,z
-x,y,-z
-x,-y,-z
x,-y,z
1/2+x,1/2+y,z
1/2-x,1/2+y,-z
1/2-x,1/2-y,-z
1/2+x,1/2-y,z
loop_
_atom_site_type_symbol
_atom_site_label
_atom_site_fract_x
_atom_site_fract_y
_atom_site_fract_z
Si Si1 0.415364 0.317004 0.688850
Si Si2 0.305377 0.817706 0.017959
Si Si3 0.629507 0.818385 0.180556
Si Si4 0.980673 0.816975 0.068256
Si Si5 0.592280 0.683395 0.718520
Si Si6 0.784705 0.183135 0.248482
Si Si7 0.139450 0.315446 0.584258
O O1 0.412471 0.500000 0.703120
O O2 0.376159 0.213370 0.757344
O O3 0.330553 0.276278 0.691151
O O4 0.540195 0.265372 0.607946
O O5 0.249730 0.735266 0.096900
O O6 0.285496 0.000000 0.031951
O O7 0.250000 0.750000 0.000000
O O8 0.433460 0.777772 0.945567
O O9 0.535968 0.723231 0.202155
O O10 0.612146 0.000000 0.179133
O O11 0.861119 0.776149 0.157461
O O12 0.004657 0.000000 0.060777
O O13 0.000000 0.762105 0.000000
O O14 0.606253 0.500000 0.700842
O O15 0.657936 0.737435 0.731580
O O16 0.635607 0.776023 0.645707
O O17 0.759455 0.000000 0.264279
O O18 0.132314 0.500000 0.580673
O O19 0.250000 0.250000 0.500000
#
# Coordination Sequence:
#
# PCOD8101841 Si02
#       7
#     8   8   8   8   8   8   8
#     4  11  22  37  60  88 117 150 190 231 275 334
#     4  12  24  37  54  78 109 145 191 244 296 346
#     4  11  21  36  57  80 110 148 193 240 288 342
#     4  10  21  37  57  81 113 154 197 242 294 345
#     4  10  20  36  59  87 119 154 193 236 288 344
#     4  10  21  37  57  83 118 156 193 238 289 341
#     4  11  22  40  65  91 120 150 187 231 281 341
#
# _framework density 20.257398999999999
#
# number of rings (size 3 to 8) (size 9 to 14) (size 15 to 20)
#    0.000    1.286    0.000    9.000    0.000    4.286 
#    0.000    0.714    0.000    4.286    0.000    0.000 
#    0.000    0.000    0.000    0.000    0.000    0.000 
#
# Total GULP energy -347262.124379 kJ/mol
# GULP energy per Si atom -12402.218728 kJ/mol
# Density = 2.021129 g / cm^3
# Si number density = 20.257399 Si / 1000 Ang^3
#
#
#
# Elastic Constant Matrix: (Units=GPa)
#
#
# Indices 1 2 3 4 5 6 
#
# 1 119.9189 33.7499 28.3573 -0.0006 -19.4238 0.0028
# 2 33.7499 91.5681 26.6383 -0.0018 -7.5834 0.0083
# 3 28.3573 26.6383 90.8363 0.0002 -19.6259 0.0005
# 4 -0.0006 -0.0018 0.0002 32.1212 -0.0003 -4.2585
# 5 -19.4238 -7.5834 -19.6259 -0.0003 28.2070 -0.0012
# 6 0.0028 0.0083 0.0005 -4.2585 -0.0012 35.0991
#
#
#
# Elastic Compliance Matrix: (Units=1/GPa)
#
#
# Indices 1 2 3 4 5 6 
#
# 1 0.010357 -0.003025 -0.001155 0.000000 0.005515 0.000000
# 2 -0.003025 0.012843 -0.002973 0.000000 -0.000699 -0.000003
# 3 -0.001155 -0.002973 0.014001 0.000000 0.008148 0.000001
# 4 0.000000 0.000000 0.000000 0.031641 0.000001 0.003839
# 5 0.005515 -0.000699 0.008148 0.000001 0.044731 0.000001
# 6 0.000000 -0.000003 0.000001 0.003839 0.000001 0.028957
#
#
# Mechanical properties :
#
#
# Convention : Reuss Voigt Hill
#
# Bulk Modulus (GPa) = 43.67453 53.31269 48.49361
# Shear Modulus (GPa) = 30.40149 33.32398 31.86274
#
# Velocity S-wave (km/s) = 3.87817 4.06029 3.97028
# Velocity P-wave (km/s) = 6.45447 6.95385 6.70881
#
# Compressibility (1/GPa) = 0.02289664
#
# Stress axis : x y z
#
# Youngs Moduli (GPa) = 96.55740 77.86573 71.42128
#
# Poissons Ratio (x) = 0.23551 0.08246
# Poissons Ratio (y) = 0.29204 0.21233
# Poissons Ratio (z) = 0.11148 0.23149
#
# Static dielectric constant tensor:
#      x y z
#    x 0.068510 0.000270 2.407190 
#    y 0.000270 3.299320 -0.000200 
#    z 2.407190 -0.000200 1.969900 
# 
# 
# High freq. dielectric constant tensor:
#      x y z
#    x 1.795730 0.000000 -0.013640 
#    y 0.000000 1.797820 0.000000 
#    z -0.013640 0.000000 1.779380 
# 
# From -- ./inp_files/363023.got.cif
#   From: 2010.06.25/outbox.cif.g09.slc.cpg/sg12_182_cif.got.tgz:363023.got - 2010.06.28 00:19:55.
