data_PCOD8101064
_publ_section_title
;
Structure prediction by ZEFSAII (Michael W. Deem and Ramdas Pophale) SiO2 
 PCOD8101064
Probable space group: C 2/M
;
_chemical_formula_sum "Si O2"
_cell_formula_units_Z 64
_cell_length_a 22.917557
_cell_length_b 22.980982
_cell_length_c 6.655631
_cell_angle_alpha 90.000000
_cell_angle_beta 63.478779
_cell_angle_gamma 90.000000
_cell_volume 3136.440743
_symmetry_space_group_name_H-M "C 2/M"
_symmetry_group_IT_number 12
_symmetry_cell_setting 'monoclinic'
loop_
_space_group_symop_operation_xyz
x,y,z
-x,y,-z
-x,-y,-z
x,-y,z
1/2+x,1/2+y,z
1/2-x,1/2+y,-z
1/2-x,1/2-y,-z
1/2+x,1/2-y,z
loop_
_atom_site_type_symbol
_atom_site_label
_atom_site_fract_x
_atom_site_fract_y
_atom_site_fract_z
Si Si1 0.429096 0.150750 0.113210
Si Si2 0.901480 0.246598 0.888782
Si Si3 0.852221 0.189926 0.349233
Si Si4 0.568597 0.354546 0.432943
Si Si5 0.690990 0.565870 0.134607
Si Si6 0.317013 0.064971 0.187960
Si Si7 0.654978 0.197570 0.404837
Si Si8 0.744031 0.395104 0.656386
O O1 0.377609 0.109140 0.078748
O O2 0.404087 0.167811 0.375495
O O3 0.500000 0.119317 0.000000
O O4 0.442531 0.209464 0.963904
O O5 0.942616 0.201397 0.694251
O O6 0.861102 0.287176 0.799259
O O7 0.858794 0.207399 0.106049
O O8 0.919146 0.168656 0.358092
O O9 0.821806 0.243936 0.517905
O O10 0.803357 0.135585 0.432621
O O11 0.500000 0.388967 0.500000
O O12 0.630172 0.393293 0.278324
O O13 0.673667 0.500000 0.227120
O O14 0.758408 0.586179 0.134415
O O15 0.702751 0.567533 0.877591
O O16 0.291269 0.063033 0.456971
O O17 0.340456 0.000000 0.092603
O O18 0.715134 0.154315 0.292696
#
# Coordination Sequence:
#
# PCOD8101064 Si02
#       8
#     8   8   8   8   8   8   8   8
#     4  10  22  37  59  90 123 159 200 240 292 353
#     4  10  21  37  57  86 126 158 193 240 294 364
#     4  10  20  36  56  86 118 158 192 239 299 360
#     4  11  24  39  60  86 119 158 196 243 301 360
#     4  11  23  41  63  86 113 155 205 252 305 352
#     4  10  22  41  62  85 118 158 203 254 297 344
#     4   9  21  34  55  89 122 160 189 240 294 357
#     4  11  19  37  60  86 119 150 202 245 302 352
#
# _framework density 20.405294000000001
#
# number of rings (size 3 to 8) (size 9 to 14) (size 15 to 20)
#    0.000    1.750    2.500    1.500    5.250    1.000 
#    0.000    0.000    0.000    0.750    0.000    7.000 
#    0.000    0.000    0.000    0.000    0.000    0.000 
#
# Total GULP energy -396556.033456 kJ/mol
# GULP energy per Si atom -12392.376045 kJ/mol
# Density = 2.035885 g / cm^3
# Si number density = 20.405294 Si / 1000 Ang^3
#
#
#
# Elastic Constant Matrix: (Units=GPa)
#
#
# Indices 1 2 3 4 5 6 
#
# 1 119.8773 50.9163 39.6968 0.0000 -13.7846 0.0000
# 2 50.9163 73.4838 18.8204 0.0000 -4.4012 0.0000
# 3 39.6968 18.8204 84.4228 0.0000 12.4005 0.0000
# 4 0.0000 0.0000 0.0000 9.0454 0.0000 10.3063
# 5 -13.7846 -4.4012 12.4005 0.0000 21.7989 0.0000
# 6 0.0000 0.0000 0.0000 10.3063 0.0000 19.5160
#
#
#
# Elastic Compliance Matrix: (Units=1/GPa)
#
#
# Indices 1 2 3 4 5 6 
#
# 1 0.015734 -0.008261 -0.007391 0.000000 0.012486 0.000000
# 2 -0.008261 0.019326 -0.000251 0.000000 -0.001180 0.000000
# 3 -0.007391 -0.000251 0.017535 0.000000 -0.014699 0.000000
# 4 0.000000 0.000000 0.000000 0.277568 0.000000 -0.146582
# 5 0.012486 -0.001180 -0.014699 0.000000 0.061893 0.000000
# 6 0.000000 0.000000 0.000000 -0.146582 0.000000 0.128649
#
#
# Mechanical properties :
#
#
# Convention : Reuss Voigt Hill
#
# Bulk Modulus (GPa) = 48.09890 55.18343 51.64116
# Shear Modulus (GPa) = 8.93751 21.29541 15.11646
#
# Velocity S-wave (km/s) = 2.09511 3.23402 2.72474
# Velocity P-wave (km/s) = 5.42914 6.40684 5.93815
#
# Compressibility (1/GPa) = 0.02079050
#
# Stress axis : x y z
#
# Youngs Moduli (GPa) = 63.55776 51.74360 57.02805
#
# Poissons Ratio (x) = 0.42746 0.42147
# Poissons Ratio (y) = 0.52506 0.01429
# Poissons Ratio (z) = 0.46973 0.01297
#
# Static dielectric constant tensor:
#      x y z
#    x 3.604350 0.000000 0.175730 
#    y 0.000000 3.564440 0.000000 
#    z 0.175730 0.000000 3.670720 
# 
# 
# High freq. dielectric constant tensor:
#      x y z
#    x 1.786790 0.000000 0.015690 
#    y 0.000000 1.787710 0.000000 
#    z 0.015690 0.000000 1.796280 
# 
# From -- ./inp_files/26190.got.cif
#   From: 2010.06.25/outbox.cif.g09.slc.cpg/sg12_14_cif.got.tgz:26190.got - 2010.06.28 00:19:55.
