data_PCOD8101769
_publ_section_title
;
Structure prediction by ZEFSAII (Michael W. Deem and Ramdas Pophale) SiO2 
 PCOD8101769
Probable space group: C 2/M
;
_chemical_formula_sum "Si O2"
_cell_formula_units_Z 48
_cell_length_a 14.969780
_cell_length_b 8.434741
_cell_length_c 29.014402
_cell_angle_alpha 90.000000
_cell_angle_beta 40.254678
_cell_angle_gamma 90.000000
_cell_volume 2367.328544
_symmetry_space_group_name_H-M "C 2/M"
_symmetry_group_IT_number 12
_symmetry_cell_setting 'monoclinic'
loop_
_space_group_symop_operation_xyz
x,y,z
-x,y,-z
-x,-y,-z
x,-y,z
1/2+x,1/2+y,z
1/2-x,1/2+y,-z
1/2-x,1/2-y,-z
1/2+x,1/2-y,z
loop_
_atom_site_type_symbol
_atom_site_label
_atom_site_fract_x
_atom_site_fract_y
_atom_site_fract_z
Si Si1 0.282213 0.686379 0.083326
Si Si2 0.992843 0.315280 0.070363
Si Si3 0.500442 0.317836 0.832893
Si Si4 0.954793 0.184759 0.431892
Si Si5 0.273487 0.317334 0.416932
Si Si6 0.269332 0.183150 0.320494
O O1 0.259239 0.500000 0.089575
O O2 0.361842 0.730089 0.098761
O O3 0.135009 0.772197 0.142703
O O4 0.366396 0.742603 0.005306
O O5 0.987224 0.500000 0.060684
O O6 0.988664 0.290750 0.126368
O O7 0.493861 0.500000 0.850683
O O8 0.632387 0.290960 0.749003
O O9 0.876343 0.281998 0.502373
O O10 0.892786 0.227198 0.406418
O O11 0.113788 0.235759 0.369787
O O12 0.935499 0.000000 0.450861
O O13 0.280568 0.500000 0.399521
O O14 0.300421 0.210237 0.361906
O O15 0.295078 0.000000 0.298337
#
# Coordination Sequence:
#
# PCOD8101769 Si02
#       6
#     8   8   8   8   8   8
#     4  11  22  40  64  91 119 153 197 243 291 346
#     4  11  22  40  64  91 120 154 195 242 293 345
#     4  12  25  41  59  85 120 158 198 243 295 351
#     4   9  20  38  59  82 112 149 188 232 285 343
#     4  10  20  36  59  86 113 145 189 238 286 340
#     4  11  23  39  57  81 115 154 192 234 290 351
#
# _framework density 20.276019000000002
#
# number of rings (size 3 to 8) (size 9 to 14) (size 15 to 20)
#    0.000    1.333    0.000    7.500    0.000    5.333 
#    0.000    5.000    0.000    0.000    0.000    0.000 
#    0.000    0.000    0.000    0.000    0.000    0.000 
#
# Total GULP energy -297788.189350 kJ/mol
# GULP energy per Si atom -12407.841223 kJ/mol
# Density = 2.022987 g / cm^3
# Si number density = 20.276019 Si / 1000 Ang^3
#
#
#
# Elastic Constant Matrix: (Units=GPa)
#
#
# Indices 1 2 3 4 5 6 
#
# 1 79.0520 19.8203 48.8221 -0.0008 -0.1150 -0.0037
# 2 19.8203 79.9389 31.9896 -0.0016 -0.3156 -0.0029
# 3 48.8221 31.9896 140.7490 0.0010 0.9092 0.0013
# 4 -0.0008 -0.0016 0.0010 35.1854 -0.0001 1.3821
# 5 -0.1150 -0.3156 0.9092 -0.0001 19.7760 -0.0004
# 6 -0.0037 -0.0029 0.0013 1.3821 -0.0004 33.9175
#
#
#
# Elastic Compliance Matrix: (Units=1/GPa)
#
#
# Indices 1 2 3 4 5 6 
#
# 1 0.016377 -0.001964 -0.005236 0.000000 0.000305 0.000002
# 2 -0.001964 0.013999 -0.002503 0.000001 0.000327 0.000001
# 3 -0.005236 -0.002503 0.009493 0.000000 -0.000507 -0.000001
# 4 0.000000 0.000001 0.000000 0.028466 0.000000 -0.001160
# 5 0.000305 0.000327 -0.000507 0.000000 0.050597 0.000001
# 6 0.000002 0.000001 -0.000001 -0.001160 0.000001 0.029531
#
#
# Mechanical properties :
#
#
# Convention : Reuss Voigt Hill
#
# Bulk Modulus (GPa) = 48.86726 55.66710 52.26718
# Shear Modulus (GPa) = 28.62219 31.04962 29.83591
#
# Velocity S-wave (km/s) = 3.76124 3.91749 3.84016
# Velocity P-wave (km/s) = 6.55865 6.92651 6.74509
#
# Compressibility (1/GPa) = 0.02046360
#
# Stress axis : x y z
#
# Youngs Moduli (GPa) = 61.06274 71.43220 105.33811
#
# Poissons Ratio (x) = 0.14028 0.55157
# Poissons Ratio (y) = 0.11992 0.26363
# Poissons Ratio (z) = 0.31974 0.17877
#
# Static dielectric constant tensor:
#      x y z
#    x 3.774700 0.000000 -0.080870 
#    y 0.000000 3.691470 0.000000 
#    z -0.080870 0.000000 3.545270 
# 
# 
# High freq. dielectric constant tensor:
#      x y z
#    x 1.803020 0.000000 -0.002230 
#    y 0.000000 1.803020 0.000000 
#    z -0.002230 0.000000 1.784140 
# 
# From -- ./inp_files/360220.got.cif
#   From: 2010.06.25/outbox.cif.g09.slc.cpg/sg12_181_cif.got.tgz:360220.got - 2010.06.28 00:19:55.
