data_PCOD8101655
_publ_section_title
;
Structure prediction by ZEFSAII (Michael W. Deem and Ramdas Pophale) SiO2 
 PCOD8101655
Probable space group: C 2/M
;
_chemical_formula_sum "Si O2"
_cell_formula_units_Z 56
_cell_length_a 18.953928
_cell_length_b 9.000920
_cell_length_c 16.488956
_cell_angle_alpha 90.000000
_cell_angle_beta 86.702622
_cell_angle_gamma 90.000000
_cell_volume 2808.404726
_symmetry_space_group_name_H-M "C 2/M"
_symmetry_group_IT_number 12
_symmetry_cell_setting 'monoclinic'
loop_
_space_group_symop_operation_xyz
x,y,z
-x,y,-z
-x,-y,-z
x,-y,z
1/2+x,1/2+y,z
1/2-x,1/2+y,-z
1/2-x,1/2-y,-z
1/2+x,1/2-y,z
loop_
_atom_site_type_symbol
_atom_site_label
_atom_site_fract_x
_atom_site_fract_y
_atom_site_fract_z
Si Si1 0.322766 0.331443 0.501115
Si Si2 0.812826 0.827389 0.231794
Si Si3 0.451746 0.827792 0.429754
Si Si4 0.095809 0.174627 0.174963
Si Si5 0.719101 0.174038 0.080824
Si Si6 0.191289 0.832040 0.317995
Si Si7 0.038215 0.326284 0.754753
O O1 0.313617 0.500000 0.474119
O O2 0.250000 0.250000 0.500000
O O3 0.377962 0.257377 0.437125
O O4 0.347059 0.316150 0.592967
O O5 0.773943 0.794860 0.149545
O O6 0.760062 0.773495 0.306647
O O7 0.884952 0.736375 0.229638
O O8 0.829680 0.000000 0.243249
O O9 0.500000 0.765267 0.500000
O O10 0.483172 0.798634 0.338243
O O11 0.436356 0.000000 0.445715
O O12 0.142667 0.252228 0.102517
O O13 0.131864 0.212605 0.258001
O O14 0.017696 0.244362 0.183301
O O15 0.090158 0.000000 0.157260
O O16 0.707875 0.000000 0.067103
O O17 0.750000 0.250000 0.000000
O O18 0.218194 0.000000 0.301514
O O19 0.037475 0.500000 0.774951
#
# Coordination Sequence:
#
# PCOD8101655 Si02
#       7
#     8   8   8   8   8   8   8
#     4  11  22  34  50  74 104 139 183 233 281 328
#     4  10  21  36  57  84 112 145 183 224 271 325
#     4  10  22  38  54  75 107 147 189 235 285 330
#     4  10  20  36  59  83 109 143 181 222 269 323
#     4  10  21  39  63  90 117 144 177 217 265 323
#     4   9  19  35  53  75 104 140 183 229 276 327
#     4  11  22  36  55  80 112 148 187 231 277 327
#
# _framework density 19.940145999999999
#
# number of rings (size 3 to 8) (size 9 to 14) (size 15 to 20)
#    0.000    1.857    0.000    3.857    0.000    8.286 
#    0.000    0.714    0.000    4.286    0.000    0.000 
#    0.000    0.000    0.000    0.000    0.000    0.000 
#
# Total GULP energy -347262.956713 kJ/mol
# GULP energy per Si atom -12402.248454 kJ/mol
# Density = 1.989476 g / cm^3
# Si number density = 19.940146 Si / 1000 Ang^3
#
#
#
# Elastic Constant Matrix: (Units=GPa)
#
#
# Indices 1 2 3 4 5 6 
#
# 1 89.0239 49.5643 19.8829 0.0000 -24.1526 0.0000
# 2 49.5643 112.4652 41.7932 0.0000 -19.7954 0.0000
# 3 19.8829 41.7932 72.6817 0.0000 -23.3663 0.0000
# 4 0.0000 0.0000 0.0000 33.4950 0.0000 -6.4124
# 5 -24.1526 -19.7954 -23.3663 0.0000 29.8917 0.0000
# 6 0.0000 0.0000 0.0000 -6.4124 0.0000 37.9195
#
#
#
# Elastic Compliance Matrix: (Units=1/GPa)
#
#
# Indices 1 2 3 4 5 6 
#
# 1 0.017589 -0.006718 0.002925 0.000000 0.012050 0.000000
# 2 -0.006718 0.014109 -0.006700 0.000000 -0.001322 0.000000
# 3 0.002925 -0.006700 0.021564 0.000000 0.014782 0.000000
# 4 0.000000 0.000000 0.000000 0.030854 0.000000 0.005218
# 5 0.012050 -0.001322 0.014782 0.000000 0.053870 0.000000
# 6 0.000000 0.000000 0.000000 0.005218 0.000000 0.027254
#
#
# Mechanical properties :
#
#
# Convention : Reuss Voigt Hill
#
# Bulk Modulus (GPa) = 30.98298 55.18351 43.08324
# Shear Modulus (GPa) = 25.38263 31.12325 28.25294
#
# Velocity S-wave (km/s) = 3.57170 3.95502 3.76824
# Velocity P-wave (km/s) = 5.70799 6.97072 6.37072
#
# Compressibility (1/GPa) = 0.03227579
#
# Stress axis : x y z
#
# Youngs Moduli (GPa) = 56.85426 70.87460 46.37426
#
# Poissons Ratio (x) = 0.47610 -0.13564
# Poissons Ratio (y) = 0.38192 0.31073
# Poissons Ratio (z) = -0.16629 0.47489
#
# Static dielectric constant tensor:
#      x y z
#    x 3.480020 0.000000 -0.040630 
#    y 0.000000 3.695360 0.000000 
#    z -0.040630 0.000000 3.801300 
# 
# 
# High freq. dielectric constant tensor:
#      x y z
#    x 1.773890 0.000000 -0.008710 
#    y 0.000000 1.788380 0.000000 
#    z -0.008710 0.000000 1.769990 
# 
# From -- ./inp_files/275036.got.cif
#   From: 2010.06.25/outbox.cif.g09.slc.cpg/sg12_138_cif.got.tgz:275036.got - 2010.06.28 00:19:55.
