data_PCOD8101205
_publ_section_title
;
Structure prediction by ZEFSAII (Michael W. Deem and Ramdas Pophale) SiO2 
 PCOD8101205
Probable space group: C 2/M
;
_chemical_formula_sum "Si O2"
_cell_formula_units_Z 32
_cell_length_a 14.335452
_cell_length_b 16.459504
_cell_length_c 10.524018
_cell_angle_alpha 90.000000
_cell_angle_beta 141.869351
_cell_angle_gamma 90.000000
_cell_volume 1533.261574
_symmetry_space_group_name_H-M "C 2/M"
_symmetry_group_IT_number 12
_symmetry_cell_setting 'monoclinic'
loop_
_space_group_symop_operation_xyz
x,y,z
-x,y,-z
-x,-y,-z
x,-y,z
1/2+x,1/2+y,z
1/2-x,1/2+y,-z
1/2-x,1/2-y,-z
1/2+x,1/2-y,z
loop_
_atom_site_type_symbol
_atom_site_label
_atom_site_fract_x
_atom_site_fract_y
_atom_site_fract_z
Si Si1 0.823675 0.141352 0.325450
Si Si2 0.127264 0.591470 0.892250
Si Si3 0.802094 0.342358 0.550917
Si Si4 0.321243 0.172510 0.299566
O O1 0.780973 0.111499 0.422692
O O2 0.770434 0.233705 0.241657
O O3 0.000000 0.127392 0.500000
O O4 0.734178 0.086911 0.129311
O O5 0.073060 0.500000 0.802617
O O6 0.227296 0.626453 0.881188
O O7 0.982498 0.648414 0.763446
O O8 0.750000 0.250000 0.500000
O O9 0.757038 0.371928 0.359160
O O10 0.500000 0.168531 0.500000
#
# Coordination Sequence:
#
# PCOD8101205 Si02
#       4
#     8   8   8   8
#     4  10  20  36  57  82 115 153 194 235 278 333
#     4  11  22  36  58  87 117 151 190 234 286 341
#     4   9  19  36  57  83 111 146 192 236 283 339
#     4   8  17  34  56  81 108 144 191 238 280 331
#
# _framework density 20.870542
#
# number of rings (size 3 to 8) (size 9 to 14) (size 15 to 20)
#    0.000    2.500    0.000    3.000    0.000    7.000 
#    0.000    3.750    0.000    1.500    0.000    0.000 
#    0.000    0.000    0.000    0.000    0.000    0.000 
#
# Total GULP energy -198239.698830 kJ/mol
# GULP energy per Si atom -12389.981177 kJ/mol
# Density = 2.082304 g / cm^3
# Si number density = 20.870542 Si / 1000 Ang^3
#
#
#
# Elastic Constant Matrix: (Units=GPa)
#
#
# Indices 1 2 3 4 5 6 
#
# 1 199.8069 29.5240 50.7720 0.0000 -23.8174 0.0000
# 2 29.5240 69.8232 23.0634 0.0000 -0.4284 0.0000
# 3 50.7720 23.0634 76.2687 0.0000 0.0711 0.0000
# 4 0.0000 0.0000 0.0000 18.0083 0.0000 0.2863
# 5 -23.8174 -0.4284 0.0711 0.0000 24.8789 0.0000
# 6 0.0000 0.0000 0.0000 0.2863 0.0000 9.2748
#
#
#
# Elastic Compliance Matrix: (Units=1/GPa)
#
#
# Indices 1 2 3 4 5 6 
#
# 1 0.007137 -0.001560 -0.004286 0.000000 0.006818 0.000000
# 2 -0.001560 0.016254 -0.003875 0.000000 -0.001203 0.000000
# 3 -0.004286 -0.003875 0.017140 0.000000 -0.004219 0.000000
# 4 0.000000 0.000000 0.000000 0.055557 0.000000 -0.001715
# 5 0.006818 -0.001203 -0.004219 0.000000 0.046713 0.000000
# 6 0.000000 0.000000 0.000000 -0.001715 0.000000 0.107872
#
#
# Mechanical properties :
#
#
# Convention : Reuss Voigt Hill
#
# Bulk Modulus (GPa) = 47.41827 61.40196 54.41011
# Shear Modulus (GPa) = 18.04095 26.60167 22.32131
#
# Velocity S-wave (km/s) = 2.94329 3.57403 3.27389
# Velocity P-wave (km/s) = 5.85834 6.82025 6.35752
#
# Compressibility (1/GPa) = 0.02108892
#
# Stress axis : x y z
#
# Youngs Moduli (GPa) = 140.11213 61.52179 58.34184
#
# Poissons Ratio (x) = 0.09600 0.25003
# Poissons Ratio (y) = 0.21863 0.22610
# Poissons Ratio (z) = 0.60048 0.23842
#
# Static dielectric constant tensor:
#      x y z
#    x 4.806580 0.000000 -0.388830 
#    y 0.000000 3.515930 0.000000 
#    z -0.388830 0.000000 3.412530 
# 
# 
# High freq. dielectric constant tensor:
#      x y z
#    x 1.844180 0.000000 -0.023600 
#    y 0.000000 1.784470 0.000000 
#    z -0.023600 0.000000 1.787300 
# 
# From -- ./inp_files/46416.got.cif
#   From: 2010.06.25/outbox.cif.g09.slc.cpg/sg12_24_cif.got.tgz:46416.got - 2010.06.28 00:19:55.
