data_PCOD8101050
_publ_section_title
;
Structure prediction by ZEFSAII (Michael W. Deem and Ramdas Pophale) SiO2 
 PCOD8101050
Probable space group: C 2/M
;
_chemical_formula_sum "Si O2"
_cell_formula_units_Z 40
_cell_length_a 17.804388
_cell_length_b 10.182712
_cell_length_c 27.434343
_cell_angle_alpha 90.000000
_cell_angle_beta 152.310769
_cell_angle_gamma 90.000000
_cell_volume 2311.186358
_symmetry_space_group_name_H-M "C 2/M"
_symmetry_group_IT_number 12
_symmetry_cell_setting 'monoclinic'
loop_
_space_group_symop_operation_xyz
x,y,z
-x,y,-z
-x,-y,-z
x,-y,z
1/2+x,1/2+y,z
1/2-x,1/2+y,-z
1/2-x,1/2-y,-z
1/2+x,1/2-y,z
loop_
_atom_site_type_symbol
_atom_site_label
_atom_site_fract_x
_atom_site_fract_y
_atom_site_fract_z
Si Si1 0.691780 0.261403 0.201201
Si Si2 0.272083 0.500000 0.048175
Si Si3 0.645023 0.847067 0.615921
Si Si4 0.012346 0.775288 0.191281
Si Si5 0.936386 0.500000 0.909037
Si Si6 0.372720 0.000000 0.135112
Si Si7 0.821070 0.000000 0.877992
O O1 0.846610 0.270480 0.327054
O O2 0.531431 0.280196 0.142967
O O3 0.680260 0.123294 0.167161
O O4 0.709325 0.371548 0.170933
O O5 0.364770 0.370692 0.120825
O O6 0.266678 0.500000 0.986207
O O7 0.089301 0.500000 0.961378
O O8 0.500000 0.788352 0.500000
O O9 0.817930 0.826350 0.687760
O O10 0.615015 0.000000 0.609226
O O11 0.983335 0.628608 0.193124
O O12 0.000000 0.500000 0.000000
O O13 0.299967 0.000000 0.146711
O O14 0.000000 0.000000 0.000000
#
# Coordination Sequence:
#
# PCOD8101050 Si02
#       7
#     8   4   8   8   4   4   4
#     4  10  20  41  52  86 114 147 196 239 277 351
#     4  12  20  36  52  78 114 159 187 235 283 342
#     4   9  17  35  64  90 106 145 197 250 287 335
#     4  10  20  36  56  84 108 146 190 239 285 334
#     4  12  26  34  54  81 124 158 192 233 288 349
#     4  12  24  34  56  83 120 150 189 244 277 344
#     4  12  24  34  56  82 117 161 194 222 288 350
#
# _framework density 17.307127999999999
#
# number of rings (size 3 to 8) (size 9 to 14) (size 15 to 20)
#    1.200    0.200    4.000    3.000    5.600    0.000 
#    0.000    2.000    0.000    1.200    5.200    0.000 
#    0.000    0.000    0.000    0.000    0.000    0.000 
#
# Total GULP energy -247834.467525 kJ/mol
# GULP energy per Si atom -12391.723376 kJ/mol
# Density = 1.726774 g / cm^3
# Si number density = 17.307128 Si / 1000 Ang^3
#
#
#
# Elastic Constant Matrix: (Units=GPa)
#
#
# Indices 1 2 3 4 5 6 
#
# 1 93.7397 40.8324 30.2827 0.0001 -13.1675 -0.0001
# 2 40.8324 139.1849 58.3623 0.0002 -12.0317 0.0004
# 3 30.2827 58.3623 139.2637 0.0030 -20.3661 0.0014
# 4 0.0001 0.0002 0.0030 18.3870 0.0006 7.4832
# 5 -13.1675 -12.0317 -20.3661 0.0006 22.9489 0.0001
# 6 -0.0001 0.0004 0.0014 7.4832 0.0001 19.6368
#
#
#
# Elastic Compliance Matrix: (Units=1/GPa)
#
#
# Indices 1 2 3 4 5 6 
#
# 1 0.012966 -0.003024 -0.000800 0.000000 0.005144 0.000000
# 2 -0.003024 0.009468 -0.003261 0.000000 0.000335 0.000000
# 3 -0.000800 -0.003261 0.009658 -0.000002 0.006402 0.000000
# 4 0.000000 0.000000 -0.000002 0.064369 -0.000003 -0.024530
# 5 0.005144 0.000335 0.006402 -0.000003 0.052384 0.000000
# 6 0.000000 0.000000 0.000000 -0.024530 0.000000 0.060273
#
#
# Mechanical properties :
#
#
# Convention : Reuss Voigt Hill
#
# Bulk Modulus (GPa) = 55.79865 70.12700 62.96283
# Shear Modulus (GPa) = 21.80915 28.37527 25.09221
#
# Velocity S-wave (km/s) = 3.55368 4.05348 3.81178
# Velocity P-wave (km/s) = 7.01059 7.90663 7.47205
#
# Compressibility (1/GPa) = 0.01792158
#
# Stress axis : x y z
#
# Youngs Moduli (GPa) = 77.12489 105.61602 103.54557
#
# Poissons Ratio (x) = 0.31935 0.08283
# Poissons Ratio (y) = 0.23320 0.33771
# Poissons Ratio (z) = 0.06170 0.34447
#
# Static dielectric constant tensor:
#      x y z
#    x 3.008410 0.000000 -0.085150 
#    y 0.000000 3.124940 0.000000 
#    z -0.085150 0.000000 3.183030 
# 
# 
# High freq. dielectric constant tensor:
#      x y z
#    x 1.644060 0.000000 -0.007560 
#    y 0.000000 1.681200 0.000000 
#    z -0.007560 0.000000 1.649800 
# 
# From -- ./inp_files/362859.got.cif
#   From: 2010.06.25/outbox.cif.g09.slc.cpg/sg12_182_cif.got.tgz:362859.got - 2010.06.28 00:19:55.
