data_PCOD8101251
_publ_section_title
;
Structure prediction by ZEFSAII (Michael W. Deem and Ramdas Pophale) SiO2 
 PCOD8101251
Probable space group: C 2/M
;
_chemical_formula_sum "Si O2"
_cell_formula_units_Z 64
_cell_length_a 28.539447
_cell_length_b 9.196772
_cell_length_c 18.058585
_cell_angle_alpha 90.000000
_cell_angle_beta 43.097288
_cell_angle_gamma 90.000000
_cell_volume 3238.452074
_symmetry_space_group_name_H-M "C 2/M"
_symmetry_group_IT_number 12
_symmetry_cell_setting 'monoclinic'
loop_
_space_group_symop_operation_xyz
x,y,z
-x,y,-z
-x,-y,-z
x,-y,z
1/2+x,1/2+y,z
1/2-x,1/2+y,-z
1/2-x,1/2-y,-z
1/2+x,1/2-y,z
loop_
_atom_site_type_symbol
_atom_site_label
_atom_site_fract_x
_atom_site_fract_y
_atom_site_fract_z
Si Si1 0.790314 0.327820 0.017984
Si Si2 0.944256 0.329862 0.356818
Si Si3 0.818494 0.671023 0.397630
Si Si4 0.822519 0.332472 0.225527
Si Si5 0.702399 0.333680 0.262853
Si Si6 0.569934 0.169808 0.455673
Si Si7 0.559587 0.334174 0.981495
Si Si8 0.433819 0.331937 0.858265
O O1 0.795024 0.500000 0.998936
O O2 0.865629 0.261481 0.931295
O O3 0.750000 0.250000 0.000000
O O4 0.751742 0.290076 0.138484
O O5 0.961125 0.500000 0.326365
O O6 0.880650 0.281616 0.378951
O O7 0.926082 0.293040 0.462247
O O8 0.010216 0.235019 0.260997
O O9 0.804984 0.500000 0.417535
O O10 0.750000 0.750000 0.500000
O O11 0.835070 0.720470 0.294739
O O12 0.841903 0.500000 0.194074
O O13 0.743882 0.305139 0.291442
O O14 0.869931 0.247702 0.113714
O O15 0.679401 0.500000 0.282858
O O16 0.633865 0.239770 0.339669
O O17 0.500000 0.231154 0.500000
O O18 0.575125 0.000000 0.434860
O O19 0.571659 0.500000 0.944040
O O20 0.500000 0.263591 0.000000
O O21 0.536979 0.319740 0.092472
O O22 0.419556 0.500000 0.853124
#
# Coordination Sequence:
#
# PCOD8101251 Si02
#       8
#     8   8   8   8   8   8   8   8
#     4  11  24  42  64  91 123 159 201 249 303 361
#     4  10  22  40  59  86 122 160 202 250 303 359
#     4  10  21  36  58  86 117 155 201 249 303 362
#     4  10  20  36  57  84 115 150 193 239 293 353
#     4  10  22  40  62  89 119 151 194 245 296 354
#     4  10  23  41  61  86 115 154 200 244 298 356
#     4  10  21  36  55  84 120 157 198 241 288 346
#     4  11  23  39  61  91 124 161 204 247 301 361
#
# _framework density 19.762528
#
# number of rings (size 3 to 8) (size 9 to 14) (size 15 to 20)
#    0.000    1.750    1.250    2.250    1.750    4.000 
#    0.000    0.000    0.000    0.000    0.000    0.000 
#    0.000    0.000    0.000    0.000    0.000    0.000 
#
# Total GULP energy -396909.354200 kJ/mol
# GULP energy per Si atom -12403.417319 kJ/mol
# Density = 1.971755 g / cm^3
# Si number density = 19.762528 Si / 1000 Ang^3
#
#
#
# Elastic Constant Matrix: (Units=GPa)
#
#
# Indices 1 2 3 4 5 6 
#
# 1 127.2374 40.9351 41.6079 0.0048 -5.3959 -0.0009
# 2 40.9351 72.7369 55.6855 0.0352 -9.4442 -0.0168
# 3 41.6079 55.6855 106.9911 0.0185 -19.7282 -0.0097
# 4 0.0048 0.0352 0.0185 38.6223 -0.0078 -7.3714
# 5 -5.3959 -9.4442 -19.7282 -0.0078 33.4521 0.0019
# 6 -0.0009 -0.0168 -0.0097 -7.3714 0.0019 29.6399
#
#
#
# Elastic Compliance Matrix: (Units=1/GPa)
#
#
# Indices 1 2 3 4 5 6 
#
# 1 0.009762 -0.004290 -0.001679 0.000003 -0.000627 -0.000002
# 2 -0.004290 0.024752 -0.011280 -0.000015 -0.000356 0.000006
# 3 -0.001679 -0.011280 0.017092 0.000004 0.006625 0.000000
# 4 0.000003 -0.000015 0.000004 0.027182 0.000004 0.006760
# 5 -0.000627 -0.000356 0.006625 0.000004 0.033599 0.000001
# 6 -0.000002 0.000006 0.000000 0.006760 0.000001 0.035420
#
#
# Mechanical properties :
#
#
# Convention : Reuss Voigt Hill
#
# Bulk Modulus (GPa) = 58.45267 64.82470 61.63868
# Shear Modulus (GPa) = 26.59485 31.59198 29.09341
#
# Velocity S-wave (km/s) = 3.67239 4.00256 3.84102
# Velocity P-wave (km/s) = 6.90099 7.36435 7.13643
#
# Compressibility (1/GPa) = 0.01710786
#
# Stress axis : x y z
#
# Youngs Moduli (GPa) = 102.43849 40.40123 58.50676
#
# Poissons Ratio (x) = 0.17331 0.09825
# Poissons Ratio (y) = 0.43942 0.65996
# Poissons Ratio (z) = 0.17203 0.45573
#
# Static dielectric constant tensor:
#      x y z
#    x 3.934870 0.000000 0.043090 
#    y 0.000000 3.563510 0.000010 
#    z 0.043090 0.000010 3.660100 
# 
# 
# High freq. dielectric constant tensor:
#      x y z
#    x 1.786700 0.000000 0.001690 
#    y 0.000000 1.765450 0.000000 
#    z 0.001690 0.000000 1.771890 
# 
# From -- ./inp_files/295560.got.cif
#   From: 2010.06.25/outbox.cif.g09.slc.cpg/sg12_148_cif.got.tgz:295560.got - 2010.06.28 00:19:55.
