data_PCOD8101782
_publ_section_title
;
Structure prediction by ZEFSAII (Michael W. Deem and Ramdas Pophale) SiO2 
 PCOD8101782
Probable space group: C 2/M
;
_chemical_formula_sum "Si O2"
_cell_formula_units_Z 64
_cell_length_a 29.592859
_cell_length_b 9.197144
_cell_length_c 18.958969
_cell_angle_alpha 90.000000
_cell_angle_beta 139.915689
_cell_angle_gamma 90.000000
_cell_volume 3322.634707
_symmetry_space_group_name_H-M "C 2/M"
_symmetry_group_IT_number 12
_symmetry_cell_setting 'monoclinic'
loop_
_space_group_symop_operation_xyz
x,y,z
-x,y,-z
-x,-y,-z
x,-y,z
1/2+x,1/2+y,z
1/2-x,1/2+y,-z
1/2-x,1/2-y,-z
1/2+x,1/2-y,z
loop_
_atom_site_type_symbol
_atom_site_label
_atom_site_fract_x
_atom_site_fract_y
_atom_site_fract_z
Si Si1 0.673079 0.830138 0.670156
Si Si2 0.041396 0.166856 0.254120
Si Si3 0.109021 0.842442 0.968983
Si Si4 0.821008 0.327636 0.831181
Si Si5 0.935192 0.668014 0.577607
Si Si6 0.414533 0.829990 0.296762
Si Si7 0.181977 0.158139 0.918497
Si Si8 0.429861 0.328728 0.870964
O O1 0.744423 0.738199 0.755020
O O2 0.633234 0.795483 0.549980
O O3 0.621052 0.783199 0.671754
O O4 0.692488 0.000000 0.699646
O O5 0.074671 0.252241 0.359391
O O6 0.063995 0.219801 0.203219
O O7 0.958574 0.194913 0.158250
O O8 0.062073 0.000000 0.290156
O O9 0.170667 0.863404 0.987684
O O10 0.097213 0.000000 0.995187
O O11 0.127183 0.712240 0.042811
O O12 0.814849 0.500000 0.815167
O O13 0.859593 0.256588 0.810318
O O14 0.939776 0.500000 0.602039
O O15 0.002923 0.710559 0.610347
O O16 0.380234 0.742339 0.192778
O O17 0.402510 0.000000 0.270030
O O18 0.192339 0.000000 0.894738
O O19 0.250000 0.250000 0.000000
O O20 0.416770 0.500000 0.861952
O O21 0.500000 0.285248 0.000000
#
# Coordination Sequence:
#
# PCOD8101782 Si02
#       8
#     8   8   8   8   8   8   8   8
#     4  10  22  41  61  82 116 163 203 236 287 355
#     4  10  20  37  62  89 115 149 192 235 285 350
#     4  10  20  37  57  79 114 158 193 227 284 357
#     4  12  25  38  58  90 122 150 191 250 299 338
#     4  10  21  38  62  89 118 153 198 249 293 336
#     4  10  20  36  59  86 115 151 199 246 287 339
#     4  11  22  34  51  78 116 156 194 235 286 344
#     4  10  20  39  65  88 115 155 195 229 285 365
#
# _framework density 19.261821999999999
#
# number of rings (size 3 to 8) (size 9 to 14) (size 15 to 20)
#    0.000    1.625    2.500    2.625    0.000    7.750 
#    0.000    0.625    0.000    2.250    0.000    0.000 
#    0.000    0.000    0.000    0.000    0.000    0.000 
#
# Total GULP energy -396586.148100 kJ/mol
# GULP energy per Si atom -12393.317128 kJ/mol
# Density = 1.921798 g / cm^3
# Si number density = 19.261822 Si / 1000 Ang^3
#
#
#
# Elastic Constant Matrix: (Units=GPa)
#
#
# Indices 1 2 3 4 5 6 
#
# 1 99.1808 42.2014 26.9577 0.0000 -18.8845 0.0000
# 2 42.2014 74.3554 31.8356 0.0000 -2.2643 0.0000
# 3 26.9577 31.8356 59.6427 0.0000 -12.6908 0.0000
# 4 0.0000 0.0000 0.0000 28.9310 0.0000 -3.2092
# 5 -18.8845 -2.2643 -12.6908 0.0000 30.6983 0.0000
# 6 0.0000 0.0000 0.0000 -3.2092 0.0000 27.3667
#
#
#
# Elastic Compliance Matrix: (Units=1/GPa)
#
#
# Indices 1 2 3 4 5 6 
#
# 1 0.015384 -0.008130 -0.000798 0.000000 0.008534 0.000000
# 2 -0.008130 0.021953 -0.009608 0.000000 -0.007354 0.000000
# 3 -0.000798 -0.009608 0.024122 0.000000 0.008773 0.000000
# 4 0.000000 0.000000 0.000000 0.035021 0.000000 0.004107
# 5 0.008534 -0.007354 0.008773 0.000000 0.040909 0.000000
# 6 0.000000 0.000000 0.000000 0.004107 0.000000 0.037022
#
#
# Mechanical properties :
#
#
# Convention : Reuss Voigt Hill
#
# Bulk Modulus (GPa) = 41.00473 48.35203 44.67838
# Shear Modulus (GPa) = 22.76752 26.21146 24.48949
#
# Velocity S-wave (km/s) = 3.44176 3.69290 3.56954
# Velocity P-wave (km/s) = 6.09332 6.58334 6.34306
#
# Compressibility (1/GPa) = 0.02438743
#
# Stress axis : x y z
#
# Youngs Moduli (GPa) = 65.00465 45.55234 41.45530
#
# Poissons Ratio (x) = 0.37032 0.03308
# Poissons Ratio (y) = 0.52846 0.39831
# Poissons Ratio (z) = 0.05187 0.43767
#
# Static dielectric constant tensor:
#      x y z
#    x 3.594850 0.000000 0.011790 
#    y 0.000000 3.839600 0.000000 
#    z 0.011790 0.000000 3.236370 
# 
# 
# High freq. dielectric constant tensor:
#      x y z
#    x 1.759510 0.000000 -0.003530 
#    y 0.000000 1.739490 0.000000 
#    z -0.003530 0.000000 1.739770 
# 
# From -- ./inp_files/295855.got.cif
#   From: 2010.06.25/outbox.cif.g09.slc.cpg/sg12_148_cif.got.tgz:295855.got - 2010.06.28 00:19:55.
