data_PCOD8101961
_publ_section_title
;
Structure prediction by ZEFSAII (Michael W. Deem and Ramdas Pophale) SiO2 
 PCOD8101961
Probable space group: C 2/M
;
_chemical_formula_sum "Si O2"
_cell_formula_units_Z 64
_cell_length_a 21.109842
_cell_length_b 8.909998
_cell_length_c 18.293930
_cell_angle_alpha 90.000000
_cell_angle_beta 104.752705
_cell_angle_gamma 90.000000
_cell_volume 3327.448244
_symmetry_space_group_name_H-M "C 2/M"
_symmetry_group_IT_number 12
_symmetry_cell_setting 'monoclinic'
loop_
_space_group_symop_operation_xyz
x,y,z
-x,y,-z
-x,-y,-z
x,-y,z
1/2+x,1/2+y,z
1/2-x,1/2+y,-z
1/2-x,1/2-y,-z
1/2+x,1/2-y,z
loop_
_atom_site_type_symbol
_atom_site_label
_atom_site_fract_x
_atom_site_fract_y
_atom_site_fract_z
Si Si1 0.880020 0.164093 0.639795
Si Si2 0.123830 0.676859 0.696779
Si Si3 0.154508 0.327097 0.150943
Si Si4 0.043135 0.164492 0.188470
Si Si5 0.818755 0.324071 0.008247
Si Si6 0.733107 0.322952 0.299382
Si Si7 0.001854 0.178271 0.416055
Si Si8 0.104426 0.177574 0.840961
O O1 0.921686 0.150427 0.724643
O O2 0.810554 0.242802 0.644177
O O3 0.928734 0.245111 0.595538
O O4 0.863465 0.000000 0.602328
O O5 0.112430 0.500000 0.700160
O O6 0.189663 0.712590 0.668507
O O7 0.060996 0.750038 0.640751
O O8 0.137714 0.745484 0.780631
O O9 0.165361 0.500000 0.171623
O O10 0.080313 0.281046 0.147780
O O11 0.207779 0.239198 0.214637
O O12 0.162032 0.289328 0.068742
O O13 0.971057 0.224161 0.182806
O O14 0.040945 0.000000 0.149998
O O15 0.816606 0.500000 0.024702
O O16 0.869115 0.243321 0.076218
O O17 0.750000 0.250000 0.000000
O O18 0.719950 0.500000 0.292970
O O19 0.000000 0.221209 0.500000
O O20 0.998674 0.000000 0.401048
O O21 0.117023 0.000000 0.840587
#
# Coordination Sequence:
#
# PCOD8101961 Si02
#       8
#     8   8   8   8   8   8   8   8
#     4   8  14  32  56  78 106 143 186 223 265 329
#     4  11  22  36  57  85 115 146 185 237 285 333
#     4  10  21  35  53  79 111 142 181 236 284 323
#     4   9  18  34  56  78 104 143 184 224 274 337
#     4  11  24  39  53  75 108 147 187 233 287 335
#     4   9  19  35  56  79 108 150 192 228 274 335
#     4  10  20  36  60  86 113 147 187 232 279 333
#     4  11  22  37  58  81 108 144 187 233 278 335
#
# _framework density 19.233958000000001
#
# number of rings (size 3 to 8) (size 9 to 14) (size 15 to 20)
#    0.000    2.125    1.250    3.000    0.000    6.750 
#    0.000    3.125    0.000    0.000    0.000    0.000 
#    0.000    0.000    0.000    0.000    0.000    0.000 
#
# Total GULP energy -396561.857218 kJ/mol
# GULP energy per Si atom -12392.558038 kJ/mol
# Density = 1.919018 g / cm^3
# Si number density = 19.233958 Si / 1000 Ang^3
#
#
#
# Elastic Constant Matrix: (Units=GPa)
#
#
# Indices 1 2 3 4 5 6 
#
# 1 116.5028 27.3236 43.7480 0.0000 -29.0402 0.0000
# 2 27.3236 48.2583 36.8087 0.0000 -11.6884 0.0000
# 3 43.7480 36.8087 81.5102 0.0000 -25.4555 0.0000
# 4 0.0000 0.0000 0.0000 22.4749 0.0000 0.0961
# 5 -29.0402 -11.6884 -25.4555 0.0000 27.6669 0.0000
# 6 0.0000 0.0000 0.0000 0.0961 0.0000 28.5174
#
#
#
# Elastic Compliance Matrix: (Units=1/GPa)
#
#
# Indices 1 2 3 4 5 6 
#
# 1 0.012612 -0.002957 -0.002371 0.000000 0.009807 0.000000
# 2 -0.002957 0.032305 -0.013623 0.000000 -0.001990 0.000000
# 3 -0.002371 -0.013623 0.024020 0.000000 0.013856 0.000000
# 4 0.000000 0.000000 0.000000 0.044495 0.000000 -0.000150
# 5 0.009807 -0.001990 0.013856 0.000000 0.058346 0.000000
# 6 0.000000 0.000000 0.000000 -0.000150 0.000000 0.035067
#
#
# Mechanical properties :
#
#
# Convention : Reuss Voigt Hill
#
# Bulk Modulus (GPa) = 32.22122 51.33689 41.77906
# Shear Modulus (GPa) = 19.60088 24.95792 22.27940
#
# Velocity S-wave (km/s) = 3.19576 3.60612 3.40713
# Velocity P-wave (km/s) = 5.51415 6.63985 6.10301
#
# Compressibility (1/GPa) = 0.03103544
#
# Stress axis : x y z
#
# Youngs Moduli (GPa) = 79.28997 30.95530 41.63211
#
# Poissons Ratio (x) = 0.09154 0.09871
# Poissons Ratio (y) = 0.23446 0.56714
# Poissons Ratio (z) = 0.18799 0.42169
#
# Static dielectric constant tensor:
#      x y z
#    x 4.098880 0.000000 -0.397560 
#    y 0.000000 3.590020 0.000000 
#    z -0.397560 0.000000 3.388880 
# 
# 
# High freq. dielectric constant tensor:
#      x y z
#    x 1.767910 0.000000 -0.016800 
#    y 0.000000 1.734050 0.000000 
#    z -0.016800 0.000000 1.731400 
# 
# From -- ./inp_files/281293.got.cif
#   From: 2010.06.25/outbox.cif.g09.slc.cpg/sg12_141_cif.got.tgz:281293.got - 2010.06.28 00:19:55.
