data_PCOD8101693
_publ_section_title
;
Structure prediction by ZEFSAII (Michael W. Deem and Ramdas Pophale) SiO2 
 PCOD8101693
Probable space group: C 2/M
;
_chemical_formula_sum "Si O2"
_cell_formula_units_Z 56
_cell_length_a 18.133974
_cell_length_b 8.469074
_cell_length_c 26.365207
_cell_angle_alpha 90.000000
_cell_angle_beta 137.715089
_cell_angle_gamma 90.000000
_cell_volume 2724.316206
_symmetry_space_group_name_H-M "C 2/M"
_symmetry_group_IT_number 12
_symmetry_cell_setting 'monoclinic'
loop_
_space_group_symop_operation_xyz
x,y,z
-x,y,-z
-x,-y,-z
x,-y,z
1/2+x,1/2+y,z
1/2-x,1/2+y,-z
1/2-x,1/2-y,-z
1/2+x,1/2-y,z
loop_
_atom_site_type_symbol
_atom_site_label
_atom_site_fract_x
_atom_site_fract_y
_atom_site_fract_z
Si Si1 0.407366 0.185213 0.733379
Si Si2 0.170601 0.314295 0.594687
Si Si3 0.098724 0.674242 0.011082
Si Si4 0.757780 0.684616 0.826370
Si Si5 0.550035 0.681157 0.140188
Si Si6 0.979039 0.184474 0.562819
Si Si7 0.524046 0.183476 0.690638
O O1 0.280363 0.228193 0.667233
O O2 0.466368 0.274545 0.809622
O O3 0.466788 0.243954 0.712679
O O4 0.422137 0.000000 0.748728
O O5 0.190492 0.500000 0.599621
O O6 0.131425 0.242895 0.521015
O O7 0.081208 0.281626 0.592545
O O8 0.123037 0.500000 0.001315
O O9 0.202874 0.735664 0.096792
O O10 0.000000 0.664219 0.000000
O O11 0.065550 0.787844 0.947709
O O12 0.728146 0.500000 0.809659
O O13 0.852537 0.714209 0.833408
O O14 0.653439 0.787537 0.758896
O O15 0.582652 0.500000 0.150775
O O16 0.968828 0.218466 0.617128
O O17 0.996829 0.000000 0.561554
O O18 0.501380 0.000000 0.669678
#
# Coordination Sequence:
#
# PCOD8101693 Si02
#       7
#     8   8   8   8   8   8   8
#     4  11  24  41  58  79 113 153 190 229 279 335
#     4  11  22  39  63  89 116 144 185 234 275 324
#     4   8  16  32  54  81 111 144 183 229 281 332
#     4  10  20  36  59  84 113 148 186 230 281 336
#     4  11  21  34  57  86 114 145 187 235 279 329
#     4  11  22  39  63  88 116 148 184 226 278 335
#     4  11  24  40  58  82 113 149 190 234 278 328
#
# _framework density 20.555616000000001
#
# number of rings (size 3 to 8) (size 9 to 14) (size 15 to 20)
#    0.000    1.571    0.000    7.714    0.000    6.000 
#    0.000    0.714    0.000    0.000    0.000    0.000 
#    0.000    0.000    0.000    0.000    0.000    0.000 
#
# Total GULP energy -347280.035217 kJ/mol
# GULP energy per Si atom -12402.858401 kJ/mol
# Density = 2.050883 g / cm^3
# Si number density = 20.555616 Si / 1000 Ang^3
#
#
#
# Elastic Constant Matrix: (Units=GPa)
#
#
# Indices 1 2 3 4 5 6 
#
# 1 59.1325 14.5842 28.6173 0.0000 -29.2961 0.0000
# 2 14.5842 64.5692 26.5864 0.0000 -8.6686 0.0001
# 3 28.6173 26.5864 103.3018 0.0000 -37.9072 0.0000
# 4 0.0000 0.0000 0.0000 29.6987 0.0000 -1.8860
# 5 -29.2961 -8.6686 -37.9072 0.0000 26.5888 0.0000
# 6 0.0000 0.0001 0.0000 -1.8860 0.0000 24.4550
#
#
#
# Elastic Compliance Matrix: (Units=1/GPa)
#
#
# Indices 1 2 3 4 5 6 
#
# 1 0.045475 -0.006968 0.014152 0.000000 0.068011 0.000000
# 2 -0.006968 0.018419 -0.007180 0.000000 -0.011909 0.000000
# 3 0.014152 -0.007180 0.026153 0.000000 0.050539 0.000000
# 4 0.000000 0.000000 0.000000 0.033837 0.000000 0.002610
# 5 0.068011 -0.011909 0.050539 0.000000 0.180714 0.000000
# 6 0.000000 0.000000 0.000000 0.002610 0.000000 0.041093
#
#
# Mechanical properties :
#
#
# Convention : Reuss Voigt Hill
#
# Bulk Modulus (GPa) = 11.10429 40.73104 25.91766
# Shear Modulus (GPa) = 13.30843 26.62954 19.96898
#
# Velocity S-wave (km/s) = 2.54723 3.60319 3.12021
# Velocity P-wave (km/s) = 3.75033 6.09662 5.06131
#
# Compressibility (1/GPa) = 0.09005531
#
# Stress axis : x y z
#
# Youngs Moduli (GPa) = 21.98997 54.29252 38.23629
#
# Poissons Ratio (x) = 0.37832 -0.54114
# Poissons Ratio (y) = 0.15323 0.27455
# Poissons Ratio (z) = -0.31121 0.38983
#
# Static dielectric constant tensor:
#      x y z
#    x 3.468590 0.000000 -0.222650 
#    y 0.000000 3.661810 0.000000 
#    z -0.222650 0.000000 4.113630 
# 
# 
# High freq. dielectric constant tensor:
#      x y z
#    x 1.772550 0.000000 -0.016890 
#    y 0.000000 1.809940 0.000000 
#    z -0.016890 0.000000 1.820760 
# 
# From -- ./inp_files/363241.got.cif
#   From: 2010.06.25/outbox.cif.g09.slc.cpg/sg12_182_cif.got.tgz:363241.got - 2010.06.28 00:19:55.
