data_PCOD8101425
_publ_section_title
;
Structure prediction by ZEFSAII (Michael W. Deem and Ramdas Pophale) SiO2 
 PCOD8101425
Probable space group: C 2/M
;
_chemical_formula_sum "Si O2"
_cell_formula_units_Z 32
_cell_length_a 15.098718
_cell_length_b 8.813200
_cell_length_c 12.753870
_cell_angle_alpha 90.000000
_cell_angle_beta 88.116856
_cell_angle_gamma 90.000000
_cell_volume 1696.215671
_symmetry_space_group_name_H-M "C 2/M"
_symmetry_group_IT_number 12
_symmetry_cell_setting 'monoclinic'
loop_
_space_group_symop_operation_xyz
x,y,z
-x,y,-z
-x,-y,-z
x,-y,z
1/2+x,1/2+y,z
1/2-x,1/2+y,-z
1/2-x,1/2-y,-z
1/2+x,1/2-y,z
loop_
_atom_site_type_symbol
_atom_site_label
_atom_site_fract_x
_atom_site_fract_y
_atom_site_fract_z
Si Si1 0.784498 0.328722 0.102063
Si Si2 0.285677 0.328382 0.679167
Si Si3 0.885391 0.179216 0.266902
Si Si4 0.963266 0.677117 0.614984
O O1 0.814064 0.500000 0.074444
O O2 0.706544 0.328111 0.193541
O O3 0.868703 0.237812 0.147946
O O4 0.750000 0.250000 0.000000
O O5 0.289333 0.500000 0.634949
O O6 0.190050 0.253584 0.653895
O O7 0.361900 0.228628 0.624536
O O8 0.981775 0.231790 0.300000
O O9 0.878029 0.000000 0.271528
O O10 0.971004 0.500000 0.638748
O O11 0.000000 0.719604 0.500000
#
# Coordination Sequence:
#
# PCOD8101425 Si02
#       4
#     8   8   8   8
#     4   9  18  34  58  84 112 145 183 226 275 329
#     4   9  20  37  57  82 113 145 185 230 273 330
#     4  10  20  36  58  82 113 148 184 229 276 327
#     4  11  23  38  57  82 112 147 188 232 278 329
#
# _framework density 18.865525000000002
#
# number of rings (size 3 to 8) (size 9 to 14) (size 15 to 20)
#    1.500    0.750    0.000    3.750    0.000    3.000 
#    0.000    1.250    0.000    7.500    0.000    0.000 
#    0.000    0.000    0.000    0.000    0.000    0.000 
#
# Total GULP energy -198286.557219 kJ/mol
# GULP energy per Si atom -12392.909826 kJ/mol
# Density = 1.882259 g / cm^3
# Si number density = 18.865525 Si / 1000 Ang^3
#
#
#
# Elastic Constant Matrix: (Units=GPa)
#
#
# Indices 1 2 3 4 5 6 
#
# 1 45.1419 9.8344 -12.8478 0.0000 -0.2886 0.0000
# 2 9.8344 128.6391 23.6345 0.0000 7.7237 0.0000
# 3 -12.8478 23.6345 30.1691 0.0000 5.5313 0.0000
# 4 0.0000 0.0000 0.0000 28.4897 0.0000 0.7910
# 5 -0.2886 7.7237 5.5313 0.0000 27.2173 0.0000
# 6 0.0000 0.0000 0.0000 0.7910 0.0000 35.2368
#
#
#
# Elastic Compliance Matrix: (Units=1/GPa)
#
#
# Indices 1 2 3 4 5 6 
#
# 1 0.027783 -0.004973 0.016011 0.000000 -0.001548 0.000000
# 2 -0.004973 0.010007 -0.009792 0.000000 -0.000903 0.000000
# 3 0.016011 -0.009792 0.048918 0.000000 -0.006993 0.000000
# 4 0.000000 0.000000 0.000000 0.035122 0.000000 -0.000788
# 5 -0.001548 -0.000903 -0.006993 0.000000 0.038402 0.000000
# 6 0.000000 0.000000 0.000000 -0.000788 0.000000 0.028397
#
#
# Mechanical properties :
#
#
# Convention : Reuss Voigt Hill
#
# Bulk Modulus (GPa) = 11.21067 27.24361 19.22714
# Shear Modulus (GPa) = 23.16212 30.41069 26.78641
#
# Velocity S-wave (km/s) = 3.50773 4.01929 3.77219
# Velocity P-wave (km/s) = 4.72872 6.00099 5.40244
#
# Compressibility (1/GPa) = 0.08920074
#
# Stress axis : x y z
#
# Youngs Moduli (GPa) = 35.99369 99.92969 20.44241
#
# Poissons Ratio (x) = 0.49692 -0.32730
# Poissons Ratio (y) = 0.17898 0.20017
# Poissons Ratio (z) = -0.57629 0.97848
#
# Static dielectric constant tensor:
#      x y z
#    x 3.224720 0.000000 0.050360 
#    y 0.000000 3.502750 0.000000 
#    z 0.050360 0.000000 3.210000 
# 
# 
# High freq. dielectric constant tensor:
#      x y z
#    x 1.713070 0.000000 0.010410 
#    y 0.000000 1.753160 0.000000 
#    z 0.010410 0.000000 1.711940 
# 
# From -- ./inp_files/138723.got.cif
#   From: 2010.06.25/outbox.cif.g09.slc.cpg/sg12_70_cif.got.tgz:138723.got - 2010.06.28 00:19:55.
