data_PCOD8101626
_publ_section_title
;
Structure prediction by ZEFSAII (Michael W. Deem and Ramdas Pophale) SiO2 
 PCOD8101626
Probable space group: C 2/M
;
_chemical_formula_sum "Si O2"
_cell_formula_units_Z 64
_cell_length_a 16.797468
_cell_length_b 14.397400
_cell_length_c 18.602589
_cell_angle_alpha 90.000000
_cell_angle_beta 43.545207
_cell_angle_gamma 90.000000
_cell_volume 3099.376203
_symmetry_space_group_name_H-M "C 2/M"
_symmetry_group_IT_number 12
_symmetry_cell_setting 'monoclinic'
loop_
_space_group_symop_operation_xyz
x,y,z
-x,y,-z
-x,-y,-z
x,-y,z
1/2+x,1/2+y,z
1/2-x,1/2+y,-z
1/2-x,1/2-y,-z
1/2+x,1/2-y,z
loop_
_atom_site_type_symbol
_atom_site_label
_atom_site_fract_x
_atom_site_fract_y
_atom_site_fract_z
Si Si1 0.242687 0.107617 0.644360
Si Si2 0.238094 0.104618 0.105289
Si Si3 0.540615 0.781306 0.054388
Si Si4 0.904085 0.390989 0.408769
Si Si5 0.340109 0.601549 0.685590
Si Si6 0.920569 0.296769 0.616382
Si Si7 0.518632 0.393724 0.154916
Si Si8 0.877763 0.395429 0.264363
O O1 0.301827 0.139529 0.530584
O O2 0.291787 0.167216 0.680434
O O3 0.106239 0.126557 0.728067
O O4 0.269259 0.000000 0.642640
O O5 0.232673 0.114861 0.194345
O O6 0.113241 0.128367 0.153918
O O7 0.276010 0.000000 0.059451
O O8 0.332619 0.176701 0.014921
O O9 0.542390 0.671507 0.070472
O O10 0.455121 0.828897 0.166106
O O11 0.500000 0.799374 0.000000
O O12 0.922837 0.500000 0.400190
O O13 0.872455 0.358375 0.349398
O O14 0.027553 0.343501 0.346233
O O15 0.403398 0.500000 0.645030
O O16 0.430164 0.685384 0.618869
O O17 0.253622 0.606491 0.675629
O O18 0.000000 0.332675 0.500000
O O19 0.526978 0.500000 0.122471
O O20 0.928141 0.500000 0.226897
#
# Coordination Sequence:
#
# PCOD8101626 Si02
#       8
#     8   8   8   8   8   8   8   8
#     4   9  18  37  64  90 122 160 194 236 302 364
#     4  10  22  41  62  84 114 156 203 247 294 351
#     4  12  23  38  65  89 117 159 198 250 306 350
#     4   9  19  37  63  94 122 150 193 252 299 349
#     4  10  21  38  56  79 119 161 199 242 290 352
#     4  10  20  36  58  90 121 157 198 243 298 356
#     4  10  23  42  62  88 120 157 201 243 293 361
#     4  10  21  38  61  91 120 150 200 251 297 351
#
# _framework density 20.649317
#
# number of rings (size 3 to 8) (size 9 to 14) (size 15 to 20)
#    0.000    2.000    1.250    1.875    1.750    2.500 
#    2.250    1.875    0.000    0.000    0.000    0.000 
#    0.000    0.000    0.000    0.000    0.000    0.000 
#
# Total GULP energy -396790.613753 kJ/mol
# GULP energy per Si atom -12399.706680 kJ/mol
# Density = 2.060232 g / cm^3
# Si number density = 20.649317 Si / 1000 Ang^3
#
#
#
# Elastic Constant Matrix: (Units=GPa)
#
#
# Indices 1 2 3 4 5 6 
#
# 1 110.4695 50.8107 51.7529 0.0000 -2.4787 0.0000
# 2 50.8107 100.8400 48.2087 0.0000 1.8445 0.0000
# 3 51.7529 48.2087 74.8120 0.0000 -0.0658 0.0000
# 4 0.0000 0.0000 0.0000 34.8867 0.0000 -0.2969
# 5 -2.4787 1.8445 -0.0658 0.0000 30.8668 0.0000
# 6 0.0000 0.0000 0.0000 -0.2969 0.0000 25.8014
#
#
#
# Elastic Compliance Matrix: (Units=1/GPa)
#
#
# Indices 1 2 3 4 5 6 
#
# 1 0.014281 -0.003610 -0.007551 0.000000 0.001346 0.000000
# 2 -0.003610 0.015268 -0.007343 0.000000 -0.001218 0.000000
# 3 -0.007551 -0.007343 0.023322 0.000000 -0.000118 0.000000
# 4 0.000000 0.000000 0.000000 0.028667 0.000000 0.000330
# 5 0.001346 -0.001218 -0.000118 0.000000 0.032578 0.000000
# 6 0.000000 0.000000 0.000000 0.000330 0.000000 0.038761
#
#
# Mechanical properties :
#
#
# Convention : Reuss Voigt Hill
#
# Bulk Modulus (GPa) = 63.04026 65.29623 64.16824
# Shear Modulus (GPa) = 25.61825 27.33424 26.47625
#
# Velocity S-wave (km/s) = 3.52608 3.64227 3.58465
# Velocity P-wave (km/s) = 6.86826 7.02697 6.94807
#
# Compressibility (1/GPa) = 0.01586288
#
# Stress axis : x y z
#
# Youngs Moduli (GPa) = 70.02460 65.49510 42.87778
#
# Poissons Ratio (x) = 0.23645 0.32379
# Poissons Ratio (y) = 0.25280 0.31483
# Poissons Ratio (z) = 0.52878 0.48090
#
# Static dielectric constant tensor:
#      x y z
#    x 3.804430 0.000000 0.053510 
#    y 0.000000 3.932700 0.000000 
#    z 0.053510 0.000000 3.514730 
# 
# 
# High freq. dielectric constant tensor:
#      x y z
#    x 1.811000 0.000000 0.000710 
#    y 0.000000 1.819830 0.000000 
#    z 0.000710 0.000000 1.783940 
# 
# From -- ./inp_files/270678.got.cif
#   From: 2010.06.25/outbox.cif.g09.slc.cpg/sg12_136_cif.got.tgz:270678.got - 2010.06.28 00:19:55.
