data_PCOD8101296
_publ_section_title
;
Structure prediction by ZEFSAII (Michael W. Deem and Ramdas Pophale) SiO2 
 PCOD8101296
Probable space group: C 2/M
;
_chemical_formula_sum "Si O2"
_cell_formula_units_Z 56
_cell_length_a 17.329475
_cell_length_b 15.619025
_cell_length_c 12.623433
_cell_angle_alpha 90.000000
_cell_angle_beta 56.730122
_cell_angle_gamma 90.000000
_cell_volume 2856.754301
_symmetry_space_group_name_H-M "C 2/M"
_symmetry_group_IT_number 12
_symmetry_cell_setting 'monoclinic'
loop_
_space_group_symop_operation_xyz
x,y,z
-x,y,-z
-x,-y,-z
x,-y,z
1/2+x,1/2+y,z
1/2-x,1/2+y,-z
1/2-x,1/2-y,-z
1/2+x,1/2-y,z
loop_
_atom_site_type_symbol
_atom_site_label
_atom_site_fract_x
_atom_site_fract_y
_atom_site_fract_z
Si Si1 0.411568 0.274030 0.997315
Si Si2 0.255469 0.406160 0.130249
Si Si3 0.162556 0.223689 0.498810
Si Si4 0.324113 0.903639 0.038860
Si Si5 0.031693 0.209326 0.280994
Si Si6 0.344344 0.596115 0.675409
Si Si7 0.591929 0.855962 0.382646
O O1 0.427027 0.305028 0.865938
O O2 0.500000 0.296663 0.000000
O O3 0.326314 0.330235 0.107419
O O4 0.395201 0.171595 0.016713
O O5 0.304254 0.500000 0.089234
O O6 0.173708 0.416211 0.279135
O O7 0.212019 0.383112 0.050400
O O8 0.250000 0.250000 0.500000
O O9 0.185634 0.141072 0.410910
O O10 0.133359 0.299905 0.444788
O O11 0.079030 0.202872 0.642100
O O12 0.240047 0.897653 0.181604
O O13 0.368811 0.000000 0.010601
O O14 0.066350 0.137544 0.336904
O O15 0.062723 0.300631 0.302686
O O16 0.370879 0.500000 0.626931
O O17 0.500000 0.903472 0.500000
#
# Coordination Sequence:
#
# PCOD8101296 Si02
#       7
#     8   8   8   8   8   8   8
#     4  12  24  36  62  91 127 165 195 247 316 364
#     4  11  22  39  62  89 120 158 205 250 295 361
#     4  10  22  36  58  84 119 154 200 249 304 360
#     4  10  21  39  65  91 116 152 204 257 299 360
#     4  10  20  36  57  88 114 155 207 245 290 366
#     4  10  20  38  63  88 116 153 202 255 301 354
#     4   9  19  38  61  82 112 154 204 249 291 356
#
# _framework density 19.602665999999999
#
# number of rings (size 3 to 8) (size 9 to 14) (size 15 to 20)
#    0.000    1.714    2.857    3.429    4.000    2.000 
#    0.000    0.714    0.000    0.857    0.000    0.000 
#    0.000    0.000    0.000    0.000    0.000    0.000 
#
# Total GULP energy -347095.074214 kJ/mol
# GULP energy per Si atom -12396.252650 kJ/mol
# Density = 1.955805 g / cm^3
# Si number density = 19.602666 Si / 1000 Ang^3
#
#
#
# Elastic Constant Matrix: (Units=GPa)
#
#
# Indices 1 2 3 4 5 6 
#
# 1 107.6154 44.2126 39.8094 0.0000 -8.8168 0.0000
# 2 44.2126 111.3569 29.7765 0.0000 -5.8417 0.0000
# 3 39.8094 29.7765 89.1494 0.0000 -17.6117 0.0000
# 4 0.0000 0.0000 0.0000 58.7585 0.0000 -0.6930
# 5 -8.8168 -5.8417 -17.6117 0.0000 22.7695 0.0000
# 6 0.0000 0.0000 0.0000 -0.6930 0.0000 15.1549
#
#
#
# Elastic Compliance Matrix: (Units=1/GPa)
#
#
# Indices 1 2 3 4 5 6 
#
# 1 0.012443 -0.003794 -0.004166 0.000000 0.000622 0.000000
# 2 -0.003794 0.011017 -0.002027 0.000000 -0.000211 0.000000
# 3 -0.004166 -0.002027 0.015738 0.000000 0.010040 0.000000
# 4 0.000000 0.000000 0.000000 0.017028 0.000000 0.000779
# 5 0.000622 -0.000211 0.010040 0.000000 0.051871 0.000000
# 6 0.000000 0.000000 0.000000 0.000779 0.000000 0.066021
#
#
# Mechanical properties :
#
#
# Convention : Reuss Voigt Hill
#
# Bulk Modulus (GPa) = 52.01899 59.52429 55.77164
# Shear Modulus (GPa) = 24.93747 32.29146 28.61446
#
# Velocity S-wave (km/s) = 3.57059 4.06310 3.82478
# Velocity P-wave (km/s) = 6.60251 7.24175 6.92951
#
# Compressibility (1/GPa) = 0.01922375
#
# Stress axis : x y z
#
# Youngs Moduli (GPa) = 80.36544 90.76527 63.53971
#
# Poissons Ratio (x) = 0.34433 0.26473
# Poissons Ratio (y) = 0.30488 0.12882
# Poissons Ratio (z) = 0.33484 0.18402
#
# Static dielectric constant tensor:
#      x y z
#    x 3.395910 0.000000 -0.148400 
#    y 0.000000 3.577590 0.000000 
#    z -0.148400 0.000000 3.803560 
# 
# 
# High freq. dielectric constant tensor:
#      x y z
#    x 1.740550 0.000000 -0.008740 
#    y 0.000000 1.756530 0.000000 
#    z -0.008740 0.000000 1.779750 
# 
# From -- ./inp_files/156522.got.cif
#   From: 2010.06.25/outbox.cif.g09.slc.cpg/sg12_79_cif.got.tgz:156522.got - 2010.06.28 00:19:55.
