data_PCOD8101494
_publ_section_title
;
Structure prediction by ZEFSAII (Michael W. Deem and Ramdas Pophale) SiO2 
 PCOD8101494
Probable space group: C 2/M
;
_chemical_formula_sum "Si O2"
_cell_formula_units_Z 64
_cell_length_a 29.161463
_cell_length_b 14.230803
_cell_length_c 9.290878
_cell_angle_alpha 90.000000
_cell_angle_beta 60.035080
_cell_angle_gamma 90.000000
_cell_volume 3340.254163
_symmetry_space_group_name_H-M "C 2/M"
_symmetry_group_IT_number 12
_symmetry_cell_setting 'monoclinic'
loop_
_space_group_symop_operation_xyz
x,y,z
-x,y,-z
-x,-y,-z
x,-y,z
1/2+x,1/2+y,z
1/2-x,1/2+y,-z
1/2-x,1/2-y,-z
1/2+x,1/2-y,z
loop_
_atom_site_type_symbol
_atom_site_label
_atom_site_fract_x
_atom_site_fract_y
_atom_site_fract_z
Si Si1 0.655275 0.608134 0.379665
Si Si2 0.977844 0.609410 0.190188
Si Si3 0.427149 0.890512 0.744823
Si Si4 0.244909 0.649460 0.577616
Si Si5 0.229080 0.110389 0.023401
Si Si6 0.286570 0.898388 0.666293
Si Si7 0.676796 0.111216 0.936129
Si Si8 0.104097 0.706021 0.494552
O O1 0.634344 0.500000 0.413364
O O2 0.704357 0.615133 0.413224
O O3 0.675550 0.643020 0.188639
O O4 0.607479 0.679645 0.494020
O O5 0.961852 0.500000 0.205043
O O6 0.926101 0.669492 0.315226
O O7 0.019307 0.627456 0.252689
O O8 0.000000 0.642989 0.000000
O O9 0.426372 0.830664 0.599423
O O10 0.421084 0.000000 0.712140
O O11 0.381036 0.856021 0.924309
O O12 0.250000 0.750000 0.500000
O O13 0.235521 0.581622 0.457493
O O14 0.191592 0.650726 0.756438
O O15 0.281241 0.154009 0.016695
O O16 0.229139 0.000000 0.049001
O O17 0.236767 0.138085 0.843327
O O18 0.335193 0.827380 0.597093
O O19 0.305797 0.000000 0.697943
O O20 0.679771 0.000000 0.923249
#
# Coordination Sequence:
#
# PCOD8101494 Si02
#       8
#     8   8   8   8   8   8   8   8
#     4  10  22  40  56  75 113 157 192 232 280 322
#     4  10  23  40  59  86 121 148 171 221 291 351
#     4  10  20  36  58  84 113 144 176 222 286 342
#     4  11  21  33  48  78 112 153 193 225 271 325
#     4   8  16  32  51  74 106 144 181 219 267 318
#     4  11  20  31  51  80 113 143 183 232 271 323
#     4   9  17  31  51  74 107 147 180 216 270 330
#     4  12  22  35  58  84 108 144 196 234 268 335
#
# _framework density 19.160216999999999
#
# number of rings (size 3 to 8) (size 9 to 14) (size 15 to 20)
#    0.000    1.875    2.500    3.375    1.750    2.500 
#    0.000    0.000    0.000    1.875    0.000    0.000 
#    0.000    0.000    0.000    0.000    0.000    0.000 
#
# Total GULP energy -396519.433364 kJ/mol
# GULP energy per Si atom -12391.232293 kJ/mol
# Density = 1.911661 g / cm^3
# Si number density = 19.160217 Si / 1000 Ang^3
#
#
#
# Elastic Constant Matrix: (Units=GPa)
#
#
# Indices 1 2 3 4 5 6 
#
# 1 46.3801 19.2912 27.6315 0.0000 6.8765 0.0000
# 2 19.2912 87.9747 41.3459 0.0000 -8.7423 0.0000
# 3 27.6315 41.3459 150.4085 0.0000 2.3253 0.0000
# 4 0.0000 0.0000 0.0000 24.7543 0.0000 -2.8880
# 5 6.8765 -8.7423 2.3253 0.0000 30.1245 0.0000
# 6 0.0000 0.0000 0.0000 -2.8880 0.0000 20.3849
#
#
#
# Elastic Compliance Matrix: (Units=1/GPa)
#
#
# Indices 1 2 3 4 5 6 
#
# 1 0.026758 -0.004977 -0.003435 0.000000 -0.007287 0.000000
# 2 -0.004977 0.014497 -0.003157 0.000000 0.005587 0.000000
# 3 -0.003435 -0.003157 0.008159 0.000000 -0.000762 0.000000
# 4 0.000000 0.000000 0.000000 0.041076 0.000000 0.005819
# 5 -0.007287 0.005587 -0.000762 0.000000 0.036539 0.000000
# 6 0.000000 0.000000 0.000000 0.005819 0.000000 0.049880
#
#
# Mechanical properties :
#
#
# Convention : Reuss Voigt Hill
#
# Bulk Modulus (GPa) = 38.05778 51.25560 44.65669
# Shear Modulus (GPa) = 23.94550 28.15239 26.04894
#
# Velocity S-wave (km/s) = 3.53902 3.83732 3.69118
# Velocity P-wave (km/s) = 6.05025 6.81487 6.44391
#
# Compressibility (1/GPa) = 0.02627583
#
# Stress axis : x y z
#
# Youngs Moduli (GPa) = 37.37199 68.97813 122.56076
#
# Poissons Ratio (x) = 0.34333 0.42097
# Poissons Ratio (y) = 0.18602 0.38694
# Poissons Ratio (z) = 0.12837 0.21778
#
# Static dielectric constant tensor:
#      x y z
#    x 3.735660 0.000000 1.135750 
#    y 0.000000 3.305710 0.000000 
#    z 1.135750 0.000000 6.356740 
# 
# 
# High freq. dielectric constant tensor:
#      x y z
#    x 1.707430 0.000000 0.014240 
#    y 0.000000 1.730660 0.000000 
#    z 0.014240 0.000000 1.761620 
# 
# From -- ./inp_files/111605.got.cif
#   From: 2010.06.25/outbox.cif.g09.slc.cpg/sg12_56_cif.got.tgz:111605.got - 2010.06.28 00:19:55.
