data_PCOD8101043
_publ_section_title
;
Structure prediction by ZEFSAII (Michael W. Deem and Ramdas Pophale) SiO2 
 PCOD8101043
Probable space group: C 2/M
;
_chemical_formula_sum "Si O2"
_cell_formula_units_Z 64
_cell_length_a 20.298743
_cell_length_b 24.934219
_cell_length_c 8.617502
_cell_angle_alpha 90.000000
_cell_angle_beta 46.795325
_cell_angle_gamma 90.000000
_cell_volume 3179.229403
_symmetry_space_group_name_H-M "C 2/M"
_symmetry_group_IT_number 12
_symmetry_cell_setting 'monoclinic'
loop_
_space_group_symop_operation_xyz
x,y,z
-x,y,-z
-x,-y,-z
x,-y,z
1/2+x,1/2+y,z
1/2-x,1/2+y,-z
1/2-x,1/2-y,-z
1/2+x,1/2-y,z
loop_
_atom_site_type_symbol
_atom_site_label
_atom_site_fract_x
_atom_site_fract_y
_atom_site_fract_z
Si Si1 0.395312 0.204918 0.674440
Si Si2 0.200882 0.903862 0.937297
Si Si3 0.718668 0.631402 0.405517
Si Si4 0.393884 0.324438 0.678196
Si Si5 0.175055 0.650663 0.488196
Si Si6 0.842673 0.600169 0.937275
Si Si7 0.400116 0.559841 0.174950
Si Si8 0.474976 0.937886 0.216807
O O1 0.500000 0.193692 0.500000
O O2 0.370093 0.264335 0.775441
O O3 0.369207 0.199740 0.533553
O O4 0.349046 0.161794 0.864047
O O5 0.236624 0.863256 0.751461
O O6 0.140763 0.944914 0.934487
O O7 0.140935 0.869981 0.152594
O O8 0.284288 0.931368 0.898781
O O9 0.650379 0.668805 0.420611
O O10 0.787808 0.666589 0.401245
O O11 0.784938 0.597678 0.187346
O O12 0.662174 0.590951 0.602936
O O13 0.500000 0.331824 0.500000
O O14 0.107795 0.599403 0.599962
O O15 0.939681 0.573353 0.807624
O O16 0.409294 0.500000 0.227013
O O17 0.500000 0.586435 0.000000
O O18 0.446307 0.000000 0.280348
O O19 0.500000 0.923895 0.000000
#
# Coordination Sequence:
#
# PCOD8101043 Si02
#       8
#     8   8   8   8   8   8   8   8
#     4  10  20  36  60  82 116 156 193 233 286 350
#     4   9  21  36  57  84 116 144 189 245 281 341
#     4  10  21  36  59  86 117 146 191 246 280 345
#     4  10  21  39  61  85 111 153 192 239 298 342
#     4  10  20  36  56  83 118 153 189 241 285 334
#     4  10  20  37  58  85 119 155 190 239 284 333
#     4  10  21  39  62  83 111 151 185 233 298 347
#     4  11  22  36  59  86 119 161 197 232 286 342
#
# _framework density 20.130662999999998
#
# number of rings (size 3 to 8) (size 9 to 14) (size 15 to 20)
#    0.000    2.000    2.500    0.750    0.000    8.000 
#    0.000    7.500    0.000   12.750    0.000    0.000 
#    0.000    0.000    0.000    0.000    0.000    0.000 
#
# Total GULP energy -396485.465743 kJ/mol
# GULP energy per Si atom -12390.170804 kJ/mol
# Density = 2.008484 g / cm^3
# Si number density = 20.130663 Si / 1000 Ang^3
#
#
#
# Elastic Constant Matrix: (Units=GPa)
#
#
# Indices 1 2 3 4 5 6 
#
# 1 145.6249 7.8009 31.4596 0.0000 -0.8729 0.0000
# 2 7.8009 56.3797 25.4153 0.0000 -5.1306 0.0000
# 3 31.4596 25.4153 80.6945 0.0000 4.1133 0.0000
# 4 0.0000 0.0000 0.0000 2.7662 0.0000 24.1759
# 5 -0.8729 -5.1306 4.1133 0.0000 30.0489 0.0000
# 6 0.0000 0.0000 0.0000 24.1759 0.0000 -6.7621
#
#
#
# Elastic Compliance Matrix: (Units=1/GPa)
#
#
# Indices 1 2 3 4 5 6 
#
# 1 0.007518 0.000423 -0.003101 0.000000 0.000715 0.000000
# 2 0.000423 0.021304 -0.007110 0.000000 0.004623 0.000000
# 3 -0.003101 -0.007110 0.016019 0.000000 -0.003497 0.000000
# 4 0.000000 0.000000 0.000000 0.011211 0.000000 0.040081
# 5 0.000715 0.004623 -0.003497 0.000000 0.034568 0.000000
# 6 0.000000 0.000000 0.000000 0.040081 0.000000 -0.004586
#
#
# Mechanical properties :
#
#
# Convention : Reuss Voigt Hill
#
# Bulk Modulus (GPa) = 39.58073 45.78340 42.68207
# Shear Modulus (GPa) = 43.84697 19.74549 31.79623
#
# Velocity S-wave (km/s) = 4.67209 3.13528 3.97859
# Velocity P-wave (km/s) = 6.98636 5.99159 6.50801
#
# Compressibility (1/GPa) = 0.02526482
#
# Stress axis : x y z
#
# Youngs Moduli (GPa) = 133.00610 46.93867 62.42609
#
# Poissons Ratio (x) = -0.01983 0.19356
# Poissons Ratio (y) = -0.05620 0.44387
# Poissons Ratio (z) = 0.41241 0.33375
#
# Static dielectric constant tensor:
#      x y z
#    x 4.452050 0.000000 0.138820 
#    y 0.000000 3.297060 0.000000 
#    z 0.138820 0.000000 3.671370 
# 
# 
# High freq. dielectric constant tensor:
#      x y z
#    x 1.815320 0.000000 -0.004310 
#    y 0.000000 1.749160 0.000000 
#    z -0.004310 0.000000 1.788110 
# 
# From -- ./inp_files/90643.got.cif
#   From: 2010.06.25/outbox.cif.g09.slc.cpg/sg12_46_cif.got.tgz:90643.got - 2010.06.28 00:19:55.
