data_PCOD8101413
_publ_section_title
;
Structure prediction by ZEFSAII (Michael W. Deem and Ramdas Pophale) SiO2 
 PCOD8101413
Probable space group: C 2/M
;
_chemical_formula_sum "Si O2"
_cell_formula_units_Z 64
_cell_length_a 20.423242
_cell_length_b 9.059817
_cell_length_c 19.340843
_cell_angle_alpha 90.000000
_cell_angle_beta 109.947214
_cell_angle_gamma 90.000000
_cell_volume 3363.959392
_symmetry_space_group_name_H-M "C 2/M"
_symmetry_group_IT_number 12
_symmetry_cell_setting 'monoclinic'
loop_
_space_group_symop_operation_xyz
x,y,z
-x,y,-z
-x,-y,-z
x,-y,z
1/2+x,1/2+y,z
1/2-x,1/2+y,-z
1/2-x,1/2-y,-z
1/2+x,1/2-y,z
loop_
_atom_site_type_symbol
_atom_site_label
_atom_site_fract_x
_atom_site_fract_y
_atom_site_fract_z
Si Si1 0.572634 0.338460 0.992002
Si Si2 0.317755 0.833325 0.342188
Si Si3 0.659794 0.173214 0.136332
Si Si4 0.203481 0.663435 0.821484
Si Si5 0.065455 0.330316 0.849110
Si Si6 0.021469 0.171704 0.298660
Si Si7 0.661557 0.671676 0.278882
Si Si8 0.455590 0.674173 0.419385
O O1 0.608656 0.500000 0.993588
O O2 0.555150 0.260080 0.914329
O O3 0.500000 0.368740 0.000000
O O4 0.617910 0.233394 0.056309
O O5 0.332720 0.822965 0.266055
O O6 0.238948 0.773733 0.330303
O O7 0.377391 0.736422 0.399442
O O8 0.325373 0.000000 0.372407
O O9 0.740003 0.209190 0.149374
O O10 0.636207 0.245555 0.200324
O O11 0.648160 0.000000 0.137785
O O12 0.237835 0.500000 0.840506
O O13 0.146097 0.686361 0.858879
O O14 0.044450 0.500000 0.853429
O O15 0.017239 0.266326 0.772234
O O16 0.105003 0.197823 0.319265
O O17 0.996479 0.225852 0.365040
O O18 0.003249 0.000000 0.281041
O O19 0.667729 0.500000 0.260975
O O20 0.500000 0.733354 0.500000
O O21 0.448582 0.500000 0.418524
#
# Coordination Sequence:
#
# PCOD8101413 Si02
#       8
#     8   8   8   8   8   8   8   8
#     4  11  24  40  55  73 105 149 188 224 277 339
#     4   9  17  34  57  80 108 145 187 226 270 329
#     4  11  22  35  55  82 110 142 184 233 280 324
#     4   9  19  36  56  79 109 145 180 223 278 333
#     4  11  22  36  57  83 110 139 182 237 281 321
#     4  10  20  36  58  82 111 149 189 226 274 339
#     4   9  19  36  57  80 110 150 190 228 276 334
#     4  10  21  36  56  84 116 147 181 226 277 329
#
# _framework density 19.025200000000002
#
# number of rings (size 3 to 8) (size 9 to 14) (size 15 to 20)
#    0.000    2.000    1.250    3.375    0.000    8.250 
#    0.000    0.625    0.000    0.000    0.000    0.000 
#    0.000    0.000    0.000    0.000    0.000    0.000 
#
# Total GULP energy -396734.518593 kJ/mol
# GULP energy per Si atom -12397.953706 kJ/mol
# Density = 1.898190 g / cm^3
# Si number density = 19.025200 Si / 1000 Ang^3
#
#
#
# Elastic Constant Matrix: (Units=GPa)
#
#
# Indices 1 2 3 4 5 6 
#
# 1 93.9845 38.1738 48.5661 0.0000 -1.8638 0.0000
# 2 38.1738 89.9610 46.8118 0.0000 6.5636 0.0000
# 3 48.5661 46.8118 114.1367 0.0000 10.7925 0.0000
# 4 0.0000 0.0000 0.0000 26.3348 0.0000 5.9609
# 5 -1.8638 6.5636 10.7925 0.0000 18.8142 0.0000
# 6 0.0000 0.0000 0.0000 5.9609 0.0000 28.1290
#
#
#
# Elastic Compliance Matrix: (Units=1/GPa)
#
#
# Indices 1 2 3 4 5 6 
#
# 1 0.015188 -0.004100 -0.005349 0.000000 0.006003 0.000000
# 2 -0.004100 0.015290 -0.004212 0.000000 -0.003324 0.000000
# 3 -0.005349 -0.004212 0.013403 0.000000 -0.006749 0.000000
# 4 0.000000 0.000000 0.000000 0.039886 0.000000 -0.008452
# 5 0.006003 -0.003324 -0.006749 0.000000 0.058777 0.000000
# 6 0.000000 0.000000 0.000000 -0.008452 0.000000 0.037342
#
#
# Mechanical properties :
#
#
# Convention : Reuss Voigt Hill
#
# Bulk Modulus (GPa) = 60.38730 62.79840 61.59285
# Shear Modulus (GPa) = 23.50424 25.62430 24.56427
#
# Velocity S-wave (km/s) = 3.51868 3.67394 3.59715
# Velocity P-wave (km/s) = 6.95109 7.14680 7.04963
#
# Compressibility (1/GPa) = 0.01655977
#
# Stress axis : x y z
#
# Youngs Moduli (GPa) = 65.84012 65.40245 74.60878
#
# Poissons Ratio (x) = 0.26812 0.39908
# Poissons Ratio (y) = 0.26992 0.31427
# Poissons Ratio (z) = 0.35218 0.27549
#
# Static dielectric constant tensor:
#      x y z
#    x 2.994480 0.000000 -1.675120 
#    y 0.000000 3.505290 0.000000 
#    z -1.675120 0.000000 -0.725380 
# 
# 
# High freq. dielectric constant tensor:
#      x y z
#    x 1.748210 0.000000 0.005690 
#    y 0.000000 1.738730 0.000000 
#    z 0.005690 0.000000 1.719920 
# 
# From -- ./inp_files/320142.got.cif
#   From: 2010.06.25/outbox.cif.g09.slc.cpg/sg12_161_cif.got.tgz:320142.got - 2010.06.28 00:19:55.
