data_PCOD8101080
_publ_section_title
;
Structure prediction by ZEFSAII (Michael W. Deem and Ramdas Pophale) SiO2 
 PCOD8101080
Probable space group: C 2/M
;
_chemical_formula_sum "Si O2"
_cell_formula_units_Z 56
_cell_length_a 18.080276
_cell_length_b 9.170652
_cell_length_c 18.694495
_cell_angle_alpha 90.000000
_cell_angle_beta 74.871231
_cell_angle_gamma 90.000000
_cell_volume 2992.265167
_symmetry_space_group_name_H-M "C 2/M"
_symmetry_group_IT_number 12
_symmetry_cell_setting 'monoclinic'
loop_
_space_group_symop_operation_xyz
x,y,z
-x,y,-z
-x,-y,-z
x,-y,z
1/2+x,1/2+y,z
1/2-x,1/2+y,-z
1/2-x,1/2-y,-z
1/2+x,1/2-y,z
loop_
_atom_site_type_symbol
_atom_site_label
_atom_site_fract_x
_atom_site_fract_y
_atom_site_fract_z
Si Si1 0.939141 0.169914 0.575448
Si Si2 0.519241 0.172778 0.290206
Si Si3 0.630027 0.665108 0.160024
Si Si4 0.692446 0.170133 0.857168
Si Si5 0.674353 0.331954 0.996185
Si Si6 0.352172 0.172942 0.287101
Si Si7 0.270091 0.328532 0.567640
O O1 0.955039 0.261387 0.641678
O O2 0.855815 0.212426 0.568070
O O3 0.000000 0.214632 0.500000
O O4 0.944775 0.000000 0.593469
O O5 0.575218 0.222495 0.213150
O O6 0.434147 0.229530 0.293506
O O7 0.521949 0.000000 0.295046
O O8 0.610975 0.500000 0.189289
O O9 0.717314 0.701727 0.158757
O O10 0.615913 0.681866 0.077903
O O11 0.644563 0.256156 0.930761
O O12 0.664095 0.232456 0.788342
O O13 0.674459 0.000000 0.870952
O O14 0.693416 0.500000 0.975883
O O15 0.750000 0.250000 0.000000
O O16 0.286847 0.231606 0.356917
O O17 0.348919 0.000000 0.285717
O O18 0.260034 0.500000 0.558638
O O19 0.250000 0.250000 0.500000
#
# Coordination Sequence:
#
# PCOD8101080 Si02
#       7
#     8   8   8   8   8   8   8
#     4  10  21  37  57  80 106 137 170 206 256 313
#     4  11  22  34  52  77 104 136 175 217 254 297
#     4   9  18  33  53  75 102 137 171 209 262 313
#     4   9  17  33  56  76  99 135 175 214 257 307
#     4   9  17  30  50  77 105 133 169 213 260 308
#     4   9  19  35  52  73 103 138 172 208 257 306
#     4  10  20  36  57  78 104 136 169 208 252 302
#
# _framework density 18.714918999999998
#
# number of rings (size 3 to 8) (size 9 to 14) (size 15 to 20)
#    0.000    2.429    0.000    3.429    0.000    6.000 
#    0.000    3.571    0.000    4.286    0.000    0.000 
#    0.000    0.000    0.000    0.000    0.000    0.000 
#
# Total GULP energy -347176.530739 kJ/mol
# GULP energy per Si atom -12399.161812 kJ/mol
# Density = 1.867232 g / cm^3
# Si number density = 18.714919 Si / 1000 Ang^3
#
#
#
# Elastic Constant Matrix: (Units=GPa)
#
#
# Indices 1 2 3 4 5 6 
#
# 1 114.5314 45.9628 79.3158 0.0000 7.8273 0.0000
# 2 45.9628 67.8837 64.9082 0.0000 3.8727 0.0000
# 3 79.3158 64.9082 173.2958 0.0000 16.5453 0.0000
# 4 0.0000 0.0000 0.0000 39.1173 0.0000 3.5876
# 5 7.8273 3.8727 16.5453 0.0000 31.1611 0.0000
# 6 0.0000 0.0000 0.0000 3.5876 0.0000 19.5509
#
#
#
# Elastic Compliance Matrix: (Units=1/GPa)
#
#
# Indices 1 2 3 4 5 6 
#
# 1 0.013865 -0.005201 -0.004348 0.000000 -0.000528 0.000000
# 2 -0.005201 0.024998 -0.007174 0.000000 0.002009 0.000000
# 3 -0.004348 -0.007174 0.010806 0.000000 -0.003754 0.000000
# 4 0.000000 0.000000 0.000000 0.026002 0.000000 -0.004771
# 5 -0.000528 0.002009 -0.003754 0.000000 0.033967 0.000000
# 6 0.000000 0.000000 0.000000 -0.004771 0.000000 0.052024
#
#
# Mechanical properties :
#
#
# Convention : Reuss Voigt Hill
#
# Bulk Modulus (GPa) = 61.63950 81.78716 71.71333
# Shear Modulus (GPa) = 24.93573 29.00081 26.96827
#
# Velocity S-wave (km/s) = 3.65416 3.94078 3.80017
# Velocity P-wave (km/s) = 7.12821 8.03136 7.59323
#
# Compressibility (1/GPa) = 0.01622336
#
# Stress axis : x y z
#
# Youngs Moduli (GPa) = 72.12253 40.00361 92.54169
#
# Poissons Ratio (x) = 0.20805 0.40234
# Poissons Ratio (y) = 0.37509 0.66393
# Poissons Ratio (z) = 0.31356 0.28700
#
# Static dielectric constant tensor:
#      x y z
#    x 3.433850 0.000000 0.051910 
#    y 0.000000 3.343350 0.000000 
#    z 0.051910 0.000000 4.019290 
# 
# 
# High freq. dielectric constant tensor:
#      x y z
#    x 1.711750 0.000000 0.005800 
#    y 0.000000 1.711940 0.000000 
#    z 0.005800 0.000000 1.747290 
# 
# From -- ./inp_files/275086.got.cif
#   From: 2010.06.25/outbox.cif.g09.slc.cpg/sg12_138_cif.got.tgz:275086.got - 2010.06.28 00:19:55.
