data_PCOD8101171
_publ_section_title
;
Structure prediction by ZEFSAII (Michael W. Deem and Ramdas Pophale) SiO2 
 PCOD8101171
Probable space group: C 2/M
;
_chemical_formula_sum "Si O2"
_cell_formula_units_Z 48
_cell_length_a 17.863074
_cell_length_b 8.765278
_cell_length_c 15.509637
_cell_angle_alpha 90.000000
_cell_angle_beta 90.044880
_cell_angle_gamma 90.000000
_cell_volume 2428.417714
_symmetry_space_group_name_H-M "C 2/M"
_symmetry_group_IT_number 12
_symmetry_cell_setting 'monoclinic'
loop_
_space_group_symop_operation_xyz
x,y,z
-x,y,-z
-x,-y,-z
x,-y,z
1/2+x,1/2+y,z
1/2-x,1/2+y,-z
1/2-x,1/2-y,-z
1/2+x,1/2-y,z
loop_
_atom_site_type_symbol
_atom_site_label
_atom_site_fract_x
_atom_site_fract_y
_atom_site_fract_z
Si Si1 0.206809 0.821765 0.079223
Si Si2 0.290438 0.679584 0.581303
Si Si3 0.458949 0.318678 0.584499
Si Si4 0.544469 0.179342 0.084840
Si Si5 0.799481 0.678122 0.248842
Si Si6 0.540825 0.679582 0.757001
O O1 0.123632 0.760493 0.086288
O O2 0.249688 0.780931 0.166595
O O3 0.202926 0.000000 0.063592
O O4 0.250000 0.750000 0.000000
O O5 0.292582 0.500000 0.568993
O O6 0.250000 0.750000 0.500000
O O7 0.374557 0.745310 0.587511
O O8 0.247298 0.726059 0.667544
O O9 0.500000 0.251683 0.500000
O O10 0.458560 0.500000 0.581264
O O11 0.503050 0.262616 0.668733
O O12 0.496175 0.227822 0.166236
O O13 0.557990 0.000000 0.085863
O O14 0.500000 0.231089 0.000000
O O15 0.821926 0.500000 0.250042
O O16 0.871996 0.783165 0.246537
O O17 0.528704 0.500000 0.771478
#
# Coordination Sequence:
#
# PCOD8101171 Si02
#       6
#     8   8   8   8   8   8
#     4  11  23  40  62  87 116 152 193 235 283 339
#     4  10  20  36  57  81 112 149 188 233 285 339
#     4   9  18  34  56  82 113 148 186 231 284 340
#     4  11  24  41  60  84 117 154 189 232 289 343
#     4  10  22  39  57  81 118 156 187 231 291 343
#     4  11  22  37  61  88 112 147 195 239 282 338
#
# _framework density 19.765955999999999
#
# number of rings (size 3 to 8) (size 9 to 14) (size 15 to 20)
#    0.000    1.667    0.000    4.500    0.000   11.333 
#    0.000    3.333    0.000    4.500    0.000    0.000 
#    0.000    0.000    0.000    0.000    0.000    0.000 
#
# Total GULP energy -297715.337115 kJ/mol
# GULP energy per Si atom -12404.805713 kJ/mol
# Density = 1.972097 g / cm^3
# Si number density = 19.765956 Si / 1000 Ang^3
#
#
#
# Elastic Constant Matrix: (Units=GPa)
#
#
# Indices 1 2 3 4 5 6 
#
# 1 173.5301 39.9803 84.2207 0.0000 4.7941 0.0000
# 2 39.9803 39.1968 42.2007 0.0000 10.8079 0.0000
# 3 84.2207 42.2007 188.1468 0.0000 2.7913 0.0000
# 4 0.0000 0.0000 0.0000 12.5304 0.0000 2.3094
# 5 4.7941 10.8079 2.7913 0.0000 42.5048 0.0000
# 6 0.0000 0.0000 0.0000 2.3094 0.0000 36.2989
#
#
#
# Elastic Compliance Matrix: (Units=1/GPa)
#
#
# Indices 1 2 3 4 5 6 
#
# 1 0.008297 -0.006154 -0.002345 0.000000 0.000783 0.000000
# 2 -0.006154 0.041208 -0.006349 0.000000 -0.009367 0.000000
# 3 -0.002345 -0.006349 0.007769 0.000000 0.001369 0.000000
# 4 0.000000 0.000000 0.000000 0.080753 0.000000 -0.005138
# 5 0.000783 -0.009367 0.001369 0.000000 0.025730 0.000000
# 6 0.000000 0.000000 0.000000 -0.005138 0.000000 0.027876
#
#
# Mechanical properties :
#
#
# Convention : Reuss Voigt Hill
#
# Bulk Modulus (GPa) = 36.26236 81.51965 58.89101
# Shear Modulus (GPa) = 21.68995 33.89828 27.79412
#
# Velocity S-wave (km/s) = 3.31620 4.14573 3.75395
# Velocity P-wave (km/s) = 5.74879 8.01549 6.97484
#
# Compressibility (1/GPa) = 0.02757680
#
# Stress axis : x y z
#
# Youngs Moduli (GPa) = 120.52299 24.26740 128.72198
#
# Poissons Ratio (x) = 0.14933 0.30191
# Poissons Ratio (y) = 0.74166 0.81727
# Poissons Ratio (z) = 0.28268 0.15408
#
# Static dielectric constant tensor:
#      x y z
#    x 3.747500 0.000000 0.065310 
#    y 0.000000 3.415440 0.000000 
#    z 0.065310 0.000000 3.828900 
# 
# 
# High freq. dielectric constant tensor:
#      x y z
#    x 1.791250 0.000000 -0.000750 
#    y 0.000000 1.755420 0.000000 
#    z -0.000750 0.000000 1.792680 
# 
# From -- ./inp_files/221689.got.cif
#   From: 2010.06.25/outbox.cif.g09.slc.cpg/sg12_111_cif.got.tgz:221689.got - 2010.06.28 00:19:55.
