data_PCOD8101667
_publ_section_title
;
Structure prediction by ZEFSAII (Michael W. Deem and Ramdas Pophale) SiO2 
 PCOD8101667
Probable space group: C 2/M
;
_chemical_formula_sum "Si O2"
_cell_formula_units_Z 64
_cell_length_a 18.671799
_cell_length_b 8.983506
_cell_length_c 30.529576
_cell_angle_alpha 90.000000
_cell_angle_beta 38.795649
_cell_angle_gamma 90.000000
_cell_volume 3208.520428
_symmetry_space_group_name_H-M "C 2/M"
_symmetry_group_IT_number 12
_symmetry_cell_setting 'monoclinic'
loop_
_space_group_symop_operation_xyz
x,y,z
-x,y,-z
-x,-y,-z
x,-y,z
1/2+x,1/2+y,z
1/2-x,1/2+y,-z
1/2-x,1/2-y,-z
1/2+x,1/2-y,z
loop_
_atom_site_type_symbol
_atom_site_label
_atom_site_fract_x
_atom_site_fract_y
_atom_site_fract_z
Si Si1 0.551146 0.824160 0.301971
Si Si2 0.688721 0.671390 0.069592
Si Si3 0.562103 0.326103 0.834888
Si Si4 0.788155 0.324031 0.436982
Si Si5 0.804311 0.335090 0.846845
Si Si6 0.707360 0.676695 0.301053
Si Si7 0.371631 0.676652 0.565997
Si Si8 0.558720 0.665713 0.931035
O O1 0.418936 0.778173 0.366074
O O2 0.596164 0.772812 0.232465
O O3 0.619395 0.742983 0.307994
O O4 0.569819 0.000000 0.298918
O O5 0.720377 0.500000 0.050110
O O6 0.552619 0.697639 0.137837
O O7 0.731141 0.732256 0.095741
O O8 0.750000 0.750000 0.000000
O O9 0.597931 0.500000 0.820791
O O10 0.663685 0.231935 0.766061
O O11 0.530994 0.259307 0.897790
O O12 0.774645 0.500000 0.448124
O O13 0.750000 0.250000 0.500000
O O14 0.709774 0.262985 0.434321
O O15 0.836581 0.500000 0.848934
O O16 0.694373 0.341501 0.868534
O O17 0.703533 0.500000 0.298401
O O18 0.673174 0.731517 0.365722
O O19 0.500000 0.740210 0.500000
O O20 0.372407 0.500000 0.563500
O O21 0.503666 0.500000 0.956428
O O22 0.500000 0.752670 0.000000
#
# Coordination Sequence:
#
# PCOD8101667 Si02
#       8
#     8   8   8   8   8   8   8   8
#     4  10  21  38  60  84 117 161 198 236 292 359
#     4  11  24  40  60  85 117 156 196 247 301 354
#     4  10  21  39  59  82 116 157 196 237 292 353
#     4  10  21  38  61  88 118 155 198 240 291 351
#     4  10  20  36  59  83 113 154 195 240 290 348
#     4  11  22  36  61  90 117 152 194 247 295 341
#     4   9  19  36  58  85 117 154 194 237 288 343
#     4   9  16  31  57  81 102 142 195 232 273 341
#
# _framework density 19.946888999999999
#
# number of rings (size 3 to 8) (size 9 to 14) (size 15 to 20)
#    0.000    2.000    1.250    2.250    1.750    5.000 
#    0.000    1.250    0.000    4.875    0.000    0.000 
#    0.000    0.000    0.000    0.000    0.000    0.000 
#
# Total GULP energy -396708.739927 kJ/mol
# GULP energy per Si atom -12397.148123 kJ/mol
# Density = 1.990149 g / cm^3
# Si number density = 19.946889 Si / 1000 Ang^3
#
#
#
# Elastic Constant Matrix: (Units=GPa)
#
#
# Indices 1 2 3 4 5 6 
#
# 1 100.0090 32.3305 37.7794 0.0005 10.9788 0.0041
# 2 32.3305 55.7755 32.2379 0.0021 5.7238 0.0046
# 3 37.7794 32.2379 136.8018 -0.0003 14.2916 -0.0004
# 4 0.0005 0.0021 -0.0003 30.7511 -0.0001 3.9349
# 5 10.9788 5.7238 14.2916 -0.0001 40.6668 0.0009
# 6 0.0041 0.0046 -0.0004 3.9349 0.0009 24.1075
#
#
#
# Elastic Compliance Matrix: (Units=1/GPa)
#
#
# Indices 1 2 3 4 5 6 
#
# 1 0.012937 -0.006196 -0.001909 0.000000 -0.001950 -0.000001
# 2 -0.006196 0.023784 -0.003861 -0.000001 -0.000318 -0.000003
# 3 -0.001909 -0.003861 0.008965 0.000000 -0.002092 0.000001
# 4 0.000000 -0.000001 0.000000 0.033213 0.000000 -0.005421
# 5 -0.001950 -0.000318 -0.002092 0.000000 0.025896 -0.000001
# 6 -0.000001 -0.000003 0.000001 -0.005421 -0.000001 0.042366
#
#
# Mechanical properties :
#
#
# Convention : Reuss Voigt Hill
#
# Bulk Modulus (GPa) = 45.96358 55.25356 50.60857
# Shear Modulus (GPa) = 28.03560 31.78764 29.91162
#
# Velocity S-wave (km/s) = 3.75308 3.99634 3.87662
# Velocity P-wave (km/s) = 6.47100 7.00391 6.74272
#
# Compressibility (1/GPa) = 0.02175636
#
# Stress axis : x y z
#
# Youngs Moduli (GPa) = 77.29658 42.04436 111.54011
#
# Poissons Ratio (x) = 0.26049 0.21294
# Poissons Ratio (y) = 0.47890 0.43062
# Poissons Ratio (z) = 0.14756 0.16232
#
# Static dielectric constant tensor:
#      x y z
#    x 3.715350 0.000000 0.015650 
#    y 0.000000 3.324220 0.000000 
#    z 0.015650 0.000000 3.873920 
# 
# 
# High freq. dielectric constant tensor:
#      x y z
#    x 1.788410 0.000000 0.001580 
#    y 0.000000 1.741470 0.000000 
#    z 0.001580 0.000000 1.797120 
# 
# From -- ./inp_files/378227.got.cif
#   From: 2010.06.25/outbox.cif.g09.slc.cpg/sg12_190_cif.got.tgz:378227.got - 2010.06.28 00:19:55.
