data_PCOD8101169
_publ_section_title
;
Structure prediction by ZEFSAII (Michael W. Deem and Ramdas Pophale) SiO2 
 PCOD8101169
Probable space group: C 2/M
;
_chemical_formula_sum "Si O2"
_cell_formula_units_Z 56
_cell_length_a 23.439354
_cell_length_b 8.932852
_cell_length_c 15.864492
_cell_angle_alpha 90.000000
_cell_angle_beta 56.773734
_cell_angle_gamma 90.000000
_cell_volume 2778.655775
_symmetry_space_group_name_H-M "C 2/M"
_symmetry_group_IT_number 12
_symmetry_cell_setting 'monoclinic'
loop_
_space_group_symop_operation_xyz
x,y,z
-x,y,-z
-x,-y,-z
x,-y,z
1/2+x,1/2+y,z
1/2-x,1/2+y,-z
1/2-x,1/2-y,-z
1/2+x,1/2-y,z
loop_
_atom_site_type_symbol
_atom_site_label
_atom_site_fract_x
_atom_site_fract_y
_atom_site_fract_z
Si Si1 0.290255 0.826453 0.891877
Si Si2 0.070099 0.822595 0.673367
Si Si3 0.929967 0.821804 0.517357
Si Si4 0.659185 0.174023 0.735910
Si Si5 0.578501 0.169379 0.957476
Si Si6 0.294659 0.326476 0.715360
Si Si7 0.933474 0.325317 0.849022
O O1 0.269018 0.758441 0.819375
O O2 0.371435 0.800319 0.835281
O O3 0.271460 0.000000 0.908741
O O4 0.250000 0.750000 0.000000
O O5 0.077698 0.764100 0.571783
O O6 0.134615 0.760709 0.672928
O O7 0.998660 0.765393 0.766619
O O8 0.070501 0.000000 0.677787
O O9 0.866422 0.761203 0.623681
O O10 0.000000 0.757646 0.500000
O O11 0.930239 0.000000 0.518860
O O12 0.621269 0.247219 0.848216
O O13 0.739882 0.195923 0.684528
O O14 0.639510 0.000000 0.740595
O O15 0.605283 0.000000 0.939398
O O16 0.500000 0.181432 0.000000
O O17 0.590514 0.239627 0.040308
O O18 0.301304 0.500000 0.734278
O O19 0.953925 0.500000 0.841135
#
# Coordination Sequence:
#
# PCOD8101169 Si02
#       7
#     8   8   8   8   8   8   8
#     4  11  23  38  59  87 120 154 190 237 289 341
#     4  11  22  35  56  86 115 146 189 242 294 343
#     4   9  19  37  59  82 111 148 190 238 294 349
#     4  10  20  36  57  81 111 151 193 234 287 353
#     4   9  15  28  52  75 102 142 183 221 265 326
#     4  10  21  39  62  83 110 154 201 237 281 346
#     4  10  20  36  57  82 112 150 195 237 281 339
#
# _framework density 20.153631000000001
#
# number of rings (size 3 to 8) (size 9 to 14) (size 15 to 20)
#    0.000    2.000    1.429    2.571    0.000    5.714 
#    0.000    2.857    0.000    3.857    0.000    0.000 
#    0.000    0.000    0.000    0.000    0.000    0.000 
#
# Total GULP energy -347191.552007 kJ/mol
# GULP energy per Si atom -12399.698286 kJ/mol
# Density = 2.010776 g / cm^3
# Si number density = 20.153631 Si / 1000 Ang^3
#
#
#
# Elastic Constant Matrix: (Units=GPa)
#
#
# Indices 1 2 3 4 5 6 
#
# 1 114.4963 43.2337 63.2115 0.0000 10.1063 0.0000
# 2 43.2337 65.6561 37.6092 -0.0001 6.2377 0.0001
# 3 63.2115 37.6092 133.8521 0.0000 9.2889 0.0000
# 4 0.0000 -0.0001 0.0000 21.7955 0.0000 4.7310
# 5 10.1063 6.2377 9.2889 0.0000 38.9628 0.0000
# 6 0.0000 0.0001 0.0000 4.7310 0.0000 26.7812
#
#
#
# Elastic Compliance Matrix: (Units=1/GPa)
#
#
# Indices 1 2 3 4 5 6 
#
# 1 0.013805 -0.006287 -0.004651 0.000000 -0.001465 0.000000
# 2 -0.006287 0.021129 -0.002894 0.000000 -0.001062 0.000000
# 3 -0.004651 -0.002894 0.010539 0.000000 -0.000843 0.000000
# 4 0.000000 0.000000 0.000000 0.047711 0.000000 -0.008428
# 5 -0.001465 -0.001062 -0.000843 0.000000 0.026417 0.000000
# 6 0.000000 0.000000 0.000000 -0.008428 0.000000 0.038828
#
#
# Mechanical properties :
#
#
# Convention : Reuss Voigt Hill
#
# Bulk Modulus (GPa) = 56.15138 66.90147 61.52643
# Shear Modulus (GPa) = 26.03755 28.83790 27.43772
#
# Velocity S-wave (km/s) = 3.59827 3.78683 3.69376
# Velocity P-wave (km/s) = 6.72202 7.23795 6.98475
#
# Compressibility (1/GPa) = 0.01780900
#
# Stress axis : x y z
#
# Youngs Moduli (GPa) = 72.43714 47.32727 94.88411
#
# Poissons Ratio (x) = 0.29754 0.44133
# Poissons Ratio (y) = 0.45540 0.27461
# Poissons Ratio (z) = 0.33692 0.13697
#
# Static dielectric constant tensor:
#      x y z
#    x 3.808110 0.000000 0.094560 
#    y 0.000000 3.317270 0.000000 
#    z 0.094560 0.000000 3.780820 
# 
# 
# High freq. dielectric constant tensor:
#      x y z
#    x 1.802140 0.000000 0.003500 
#    y 0.000000 1.746140 0.000000 
#    z 0.003500 0.000000 1.791880 
# 
# From -- ./inp_files/238295.got.cif
#   From: 2010.06.25/outbox.cif.g09.slc.cpg/sg12_120_cif.got.tgz:238295.got - 2010.06.28 00:19:55.
