data_PCOD8101639
_publ_section_title
;
Structure prediction by ZEFSAII (Michael W. Deem and Ramdas Pophale) SiO2 
 PCOD8101639
Probable space group: C 2/M
;
_chemical_formula_sum "Si O2"
_cell_formula_units_Z 56
_cell_length_a 17.900002
_cell_length_b 8.807750
_cell_length_c 18.719166
_cell_angle_alpha 90.000000
_cell_angle_beta 75.715952
_cell_angle_gamma 90.000000
_cell_volume 2860.000997
_symmetry_space_group_name_H-M "C 2/M"
_symmetry_group_IT_number 12
_symmetry_cell_setting 'monoclinic'
loop_
_space_group_symop_operation_xyz
x,y,z
-x,y,-z
-x,-y,-z
x,-y,z
1/2+x,1/2+y,z
1/2-x,1/2+y,-z
1/2-x,1/2-y,-z
1/2+x,1/2-y,z
loop_
_atom_site_type_symbol
_atom_site_label
_atom_site_fract_x
_atom_site_fract_y
_atom_site_fract_z
Si Si1 0.872709 0.320941 0.858783
Si Si2 0.084713 0.819655 0.001161
Si Si3 0.440061 0.680351 0.571974
Si Si4 0.771387 0.820780 0.569935
Si Si5 0.839173 0.823760 0.290875
Si Si6 0.703958 0.680047 0.855836
Si Si7 0.982759 0.823872 0.719511
O O1 0.872237 0.500000 0.869349
O O2 0.893182 0.243902 0.927835
O O3 0.789220 0.260415 0.853649
O O4 0.934693 0.276571 0.785267
O O5 0.087221 0.000000 0.004587
O O6 0.144437 0.755225 0.928438
O O7 0.000000 0.761815 0.000000
O O8 0.500000 0.747939 0.500000
O O9 0.442546 0.500000 0.568653
O O10 0.354920 0.741363 0.574229
O O11 0.464467 0.736621 0.644579
O O12 0.750000 0.750000 0.500000
O O13 0.709102 0.774969 0.642894
O O14 0.773050 0.000000 0.560969
O O15 0.820706 0.761176 0.216280
O O16 0.928191 0.797559 0.285755
O O17 0.816403 0.000000 0.304722
O O18 0.700337 0.500000 0.857588
O O19 0.959937 0.000000 0.734226
#
# Coordination Sequence:
#
# PCOD8101639 Si02
#       7
#     8   8   8   8   8   8   8
#     4  11  22  35  53  80 115 146 174 220 275 322
#     4  10  20  37  60  81 104 141 188 228 264 318
#     4   9  18  34  56  81 107 138 181 227 265 308
#     4  11  22  36  56  82 112 145 181 223 270 321
#     4  10  20  37  60  82 107 141 181 225 270 318
#     4   9  19  35  55  81 111 143 179 220 270 324
#     4  10  20  36  59  82 106 143 186 223 265 321
#
# _framework density 19.580411999999999
#
# number of rings (size 3 to 8) (size 9 to 14) (size 15 to 20)
#    0.000    2.000    0.000    3.857    0.000    5.429 
#    0.000    2.857    0.000    3.000    0.000    0.000 
#    0.000    0.000    0.000    0.000    0.000    0.000 
#
# Total GULP energy -347298.879473 kJ/mol
# GULP energy per Si atom -12403.531410 kJ/mol
# Density = 1.953585 g / cm^3
# Si number density = 19.580412 Si / 1000 Ang^3
#
#
#
# Elastic Constant Matrix: (Units=GPa)
#
#
# Indices 1 2 3 4 5 6 
#
# 1 149.5471 21.4429 68.7567 0.0000 16.3170 0.0000
# 2 21.4429 14.5537 10.2435 0.0000 0.4743 0.0000
# 3 68.7567 10.2435 163.2176 0.0000 13.2051 0.0000
# 4 0.0000 0.0000 0.0000 20.7344 0.0000 6.7402
# 5 16.3170 0.4743 13.2051 0.0000 46.2727 0.0000
# 6 0.0000 0.0000 0.0000 6.7402 0.0000 6.7551
#
#
#
# Elastic Compliance Matrix: (Units=1/GPa)
#
#
# Indices 1 2 3 4 5 6 
#
# 1 0.010339 -0.012795 -0.003345 0.000000 -0.002560 0.000000
# 2 -0.012795 0.087735 -0.000418 0.000000 0.003732 0.000000
# 3 -0.003345 -0.000418 0.007643 0.000000 -0.000997 0.000000
# 4 0.000000 0.000000 0.000000 0.071382 0.000000 -0.071224
# 5 -0.002560 0.003732 -0.000997 0.000000 0.022760 0.000000
# 6 0.000000 0.000000 0.000000 -0.071224 0.000000 0.219102
#
#
# Mechanical properties :
#
#
# Convention : Reuss Voigt Hill
#
# Bulk Modulus (GPa) = 13.77401 58.68940 36.23170
# Shear Modulus (GPa) = 10.49809 29.87748 20.18779
#
# Velocity S-wave (km/s) = 2.31801 3.91050 3.21443
# Velocity P-wave (km/s) = 3.77016 7.10126 5.68516
#
# Compressibility (1/GPa) = 0.07260050
#
# Stress axis : x y z
#
# Youngs Moduli (GPa) = 96.72335 11.39791 130.84037
#
# Poissons Ratio (x) = 0.14583 0.43768
# Poissons Ratio (y) = 1.23756 0.05472
# Poissons Ratio (z) = 0.32356 0.00477
#
# Static dielectric constant tensor:
#      x y z
#    x 3.876960 0.000000 0.042490 
#    y 0.000000 3.241520 0.000000 
#    z 0.042490 0.000000 3.459640 
# 
# 
# High freq. dielectric constant tensor:
#      x y z
#    x 1.783930 0.000000 0.002260 
#    y 0.000000 1.728350 0.000000 
#    z 0.002260 0.000000 1.783350 
# 
# From -- ./inp_files/275186.got.cif
#   From: 2010.06.25/outbox.cif.g09.slc.cpg/sg12_138_cif.got.tgz:275186.got - 2010.06.28 00:19:55.
