data_PCOD8101227
_publ_section_title
;
Structure prediction by ZEFSAII (Michael W. Deem and Ramdas Pophale) SiO2 
 PCOD8101227
Probable space group: C 2/M
;
_chemical_formula_sum "Si O2"
_cell_formula_units_Z 56
_cell_length_a 27.128238
_cell_length_b 8.838380
_cell_length_c 13.574333
_cell_angle_alpha 90.000000
_cell_angle_beta 119.660468
_cell_angle_gamma 90.000000
_cell_volume 2828.258599
_symmetry_space_group_name_H-M "C 2/M"
_symmetry_group_IT_number 12
_symmetry_cell_setting 'monoclinic'
loop_
_space_group_symop_operation_xyz
x,y,z
-x,y,-z
-x,-y,-z
x,-y,z
1/2+x,1/2+y,z
1/2-x,1/2+y,-z
1/2-x,1/2-y,-z
1/2+x,1/2-y,z
loop_
_atom_site_type_symbol
_atom_site_label
_atom_site_fract_x
_atom_site_fract_y
_atom_site_fract_z
Si Si1 0.773519 0.679851 0.731714
Si Si2 0.437697 0.173883 0.405306
Si Si3 0.349070 0.678264 0.456236
Si Si4 0.127852 0.321405 0.312824
Si Si5 0.920787 0.674260 0.158809
Si Si6 0.515782 0.674437 0.127424
Si Si7 0.295335 0.821512 0.972836
O O1 0.775029 0.500000 0.735229
O O2 0.712934 0.740473 0.634518
O O3 0.821265 0.742573 0.704570
O O4 0.785626 0.742569 0.853119
O O5 0.500000 0.225546 0.500000
O O6 0.392267 0.279441 0.413014
O O7 0.431743 0.199139 0.284054
O O8 0.426577 0.000000 0.424292
O O9 0.348012 0.500000 0.468949
O O10 0.369062 0.751891 0.576607
O O11 0.131494 0.500000 0.326464
O O12 0.068871 0.278493 0.205089
O O13 0.930982 0.500000 0.138271
O O14 0.857489 0.726532 0.070091
O O15 0.962854 0.781923 0.142110
O O16 0.531390 0.500000 0.161581
O O17 0.500000 0.706635 0.000000
O O18 0.287270 0.000000 0.968132
O O19 0.250000 0.750000 0.000000
#
# Coordination Sequence:
#
# PCOD8101227 Si02
#       7
#     8   8   8   8   8   8   8
#     4   9  20  37  57  82 113 150 189 232 282 340
#     4  10  21  37  56  81 113 149 192 238 284 339
#     4  11  22  37  58  85 116 148 187 236 290 342
#     4  11  22  39  62  84 112 152 193 233 281 337
#     4  10  21  37  59  85 114 153 198 240 282 337
#     4  11  24  40  59  87 120 150 186 235 287 338
#     4  10  20  36  57  83 114 149 193 237 282 338
#
# _framework density 19.800167999999999
#
# number of rings (size 3 to 8) (size 9 to 14) (size 15 to 20)
#    0.000    1.714    0.000    4.286    0.000    4.857 
#    0.000    4.286    0.000    0.000    0.000    0.000 
#    0.000    0.000    0.000    0.000    0.000    0.000 
#
# Total GULP energy -347359.907819 kJ/mol
# GULP energy per Si atom -12405.710994 kJ/mol
# Density = 1.975510 g / cm^3
# Si number density = 19.800168 Si / 1000 Ang^3
#
#
#
# Elastic Constant Matrix: (Units=GPa)
#
#
# Indices 1 2 3 4 5 6 
#
# 1 143.5375 36.0613 49.2329 0.0000 6.2918 0.0000
# 2 36.0613 50.1153 32.7074 0.0000 0.2598 0.0000
# 3 49.2329 32.7074 112.9985 0.0000 8.4670 0.0000
# 4 0.0000 0.0000 0.0000 -27.7412 0.0000 -18.4767
# 5 6.2918 0.2598 8.4670 0.0000 39.1409 0.0000
# 6 0.0000 0.0000 0.0000 -18.4767 0.0000 28.8534
#
#
#
# Elastic Compliance Matrix: (Units=1/GPa)
#
#
# Indices 1 2 3 4 5 6 
#
# 1 0.009090 -0.004926 -0.002468 0.000000 -0.000895 0.000000
# 2 -0.004926 0.027346 -0.005911 0.000000 0.001889 0.000000
# 3 -0.002468 -0.005911 0.011794 0.000000 -0.002115 0.000000
# 4 0.000000 0.000000 0.000000 -0.025270 0.000000 -0.016182
# 5 -0.000895 0.001889 -0.002115 0.000000 0.026138 0.000000
# 6 0.000000 0.000000 0.000000 -0.016182 0.000000 0.024296
#
#
# Mechanical properties :
#
#
# Convention : Reuss Voigt Hill
#
# Bulk Modulus (GPa) = 46.24906 60.29492 53.27199
# Shear Modulus (GPa) = 46.63766 20.62726 33.63246
#
# Velocity S-wave (km/s) = 4.85853 3.23115 4.12587
# Velocity P-wave (km/s) = 7.40826 6.66620 7.04701
#
# Compressibility (1/GPa) = 0.02162206
#
# Stress axis : x y z
#
# Youngs Moduli (GPa) = 110.01192 36.56821 84.78734
#
# Poissons Ratio (x) = 0.18012 0.20923
# Poissons Ratio (y) = 0.54188 0.50116
# Poissons Ratio (z) = 0.27147 0.21615
#
# Static dielectric constant tensor:
#      x y z
#    x 3.727890 0.000000 0.058940 
#    y 0.000000 3.441470 0.000000 
#    z 0.058940 0.000000 3.770210 
# 
# 
# High freq. dielectric constant tensor:
#      x y z
#    x 1.788130 0.000000 0.001800 
#    y 0.000000 1.756030 0.000000 
#    z 0.001800 0.000000 1.793310 
# 
# From -- ./inp_files/181058.got.cif
#   From: 2010.06.25/outbox.cif.g09.slc.cpg/sg12_91_cif.got.tgz:181058.got - 2010.06.28 00:19:55.
