data_PCOD8101285
_publ_section_title
;
Structure prediction by ZEFSAII (Michael W. Deem and Ramdas Pophale) SiO2 
 PCOD8101285
Probable space group: C 2/M
;
_chemical_formula_sum "Si O2"
_cell_formula_units_Z 64
_cell_length_a 14.843698
_cell_length_b 26.693252
_cell_length_c 9.797731
_cell_angle_alpha 90.000000
_cell_angle_beta 127.821296
_cell_angle_gamma 90.000000
_cell_volume 3066.593060
_symmetry_space_group_name_H-M "C 2/M"
_symmetry_group_IT_number 12
_symmetry_cell_setting 'monoclinic'
loop_
_space_group_symop_operation_xyz
x,y,z
-x,y,-z
-x,-y,-z
x,-y,z
1/2+x,1/2+y,z
1/2-x,1/2+y,-z
1/2-x,1/2-y,-z
1/2+x,1/2-y,z
loop_
_atom_site_type_symbol
_atom_site_label
_atom_site_fract_x
_atom_site_fract_y
_atom_site_fract_z
Si Si1 0.598408 0.647792 0.743527
Si Si2 0.871262 0.850664 0.916315
Si Si3 0.364879 0.702579 0.474702
Si Si4 0.782385 0.940718 0.273457
Si Si5 0.902263 0.557651 0.124984
Si Si6 0.738902 0.055310 0.752002
Si Si7 0.854786 0.411222 0.597974
Si Si8 0.804217 0.308140 0.443659
O O1 0.467327 0.666814 0.621799
O O2 0.668844 0.684869 0.709296
O O3 0.612571 0.590745 0.696455
O O4 0.649671 0.651758 0.941347
O O5 0.845794 0.906809 0.836447
O O6 0.787869 0.811199 0.764764
O O7 0.000000 0.836277 0.000000
O O8 0.255758 0.698521 0.466529
O O9 0.392575 0.762508 0.496656
O O10 0.748611 0.916800 0.388754
O O11 0.814587 0.000000 0.314455
O O12 0.672636 0.932305 0.077175
O O13 0.925102 0.500000 0.170757
O O14 0.841409 0.578714 0.204395
O O15 0.025780 0.581525 0.215313
O O16 0.671082 0.049202 0.546540
O O17 0.783869 0.000000 0.836427
O O18 0.868911 0.359867 0.525675
#
# Coordination Sequence:
#
# PCOD8101285 Si02
#       8
#     8   8   8   8   8   8   8   8
#     4  11  22  42  67  91 126 165 204 257 318 370
#     4  11  22  39  65  92 122 160 207 259 316 374
#     4  10  22  43  67  86 119 162 205 256 319 366
#     4  11  22  38  62  95 130 167 209 257 310 373
#     4  10  20  36  57  85 126 169 206 253 307 366
#     4  10  21  36  56  87 124 164 207 255 309 369
#     4  11  21  37  62  89 125 165 212 256 311 372
#     4  10  22  42  65  89 120 159 205 262 311 370
#
# _framework density 20.870065
#
# number of rings (size 3 to 8) (size 9 to 14) (size 15 to 20)
#    0.000    1.500    3.750    1.875    0.000    2.750 
#    9.000    2.500    2.750    0.000    0.000    0.000 
#    0.000    0.000    0.000    0.000    0.000    0.000 
#
# Total GULP energy -396545.347017 kJ/mol
# GULP energy per Si atom -12392.042094 kJ/mol
# Density = 2.082256 g / cm^3
# Si number density = 20.870065 Si / 1000 Ang^3
#
#
#
# Elastic Constant Matrix: (Units=GPa)
#
#
# Indices 1 2 3 4 5 6 
#
# 1 63.6170 24.3581 23.9285 0.0000 -10.4495 0.0000
# 2 24.3581 112.5164 33.0861 0.0000 6.7538 0.0000
# 3 23.9285 33.0861 92.4342 0.0000 -11.0415 0.0000
# 4 0.0000 0.0000 0.0000 22.9041 0.0000 0.0283
# 5 -10.4495 6.7538 -11.0415 0.0000 43.7296 0.0000
# 6 0.0000 0.0000 0.0000 0.0283 0.0000 27.0813
#
#
#
# Elastic Compliance Matrix: (Units=1/GPa)
#
#
# Indices 1 2 3 4 5 6 
#
# 1 0.018917 -0.003419 -0.003166 0.000000 0.004249 0.000000
# 2 -0.003419 0.010825 -0.003389 0.000000 -0.003345 0.000000
# 3 -0.003166 -0.003389 0.013222 0.000000 0.003106 0.000000
# 4 0.000000 0.000000 0.000000 0.043660 0.000000 -0.000046
# 5 0.004249 -0.003345 0.003106 0.000000 0.025184 0.000000
# 6 0.000000 0.000000 0.000000 -0.000046 0.000000 0.036926
#
#
# Mechanical properties :
#
#
# Convention : Reuss Voigt Hill
#
# Bulk Modulus (GPa) = 43.44802 47.92366 45.68584
# Shear Modulus (GPa) = 28.35196 31.22264 29.78730
#
# Velocity S-wave (km/s) = 3.68978 3.87208 3.78203
# Velocity P-wave (km/s) = 6.24629 6.55769 6.40389
#
# Compressibility (1/GPa) = 0.02301601
#
# Stress axis : x y z
#
# Youngs Moduli (GPa) = 52.86268 92.37691 75.63129
#
# Poissons Ratio (x) = 0.31588 0.23941
# Poissons Ratio (y) = 0.18076 0.25632
# Poissons Ratio (z) = 0.16734 0.31308
#
# Static dielectric constant tensor:
#      x y z
#    x 3.726270 0.000000 -0.274880 
#    y 0.000000 4.117310 0.000000 
#    z -0.274880 0.000000 3.784260 
# 
# 
# High freq. dielectric constant tensor:
#      x y z
#    x 1.808660 0.000000 -0.025430 
#    y 0.000000 1.815740 0.000000 
#    z -0.025430 0.000000 1.814240 
# 
# From -- ./inp_files/68638.got.cif
#   From: 2010.06.25/outbox.cif.g09.slc.cpg/sg12_35_cif.got.tgz:68638.got - 2010.06.28 00:19:55.
