data_PCOD8101464
_publ_section_title
;
Structure prediction by ZEFSAII (Michael W. Deem and Ramdas Pophale) SiO2 
 PCOD8101464
Probable space group: C 2/M
;
_chemical_formula_sum "Si O2"
_cell_formula_units_Z 64
_cell_length_a 19.215439
_cell_length_b 9.273310
_cell_length_c 30.047493
_cell_angle_alpha 90.000000
_cell_angle_beta 38.860277
_cell_angle_gamma 90.000000
_cell_volume 3359.340386
_symmetry_space_group_name_H-M "C 2/M"
_symmetry_group_IT_number 12
_symmetry_cell_setting 'monoclinic'
loop_
_space_group_symop_operation_xyz
x,y,z
-x,y,-z
-x,-y,-z
x,-y,z
1/2+x,1/2+y,z
1/2-x,1/2+y,-z
1/2-x,1/2-y,-z
1/2+x,1/2-y,z
loop_
_atom_site_type_symbol
_atom_site_label
_atom_site_fract_x
_atom_site_fract_y
_atom_site_fract_z
Si Si1 0.269233 0.664331 0.286521
Si Si2 0.935727 0.164337 0.631278
Si Si3 0.070153 0.165220 0.262784
Si Si4 0.671217 0.665160 0.644705
Si Si5 0.313120 0.328358 0.508174
Si Si6 0.668454 0.670695 0.006573
Si Si7 0.917479 0.171345 0.132418
Si Si8 0.270540 0.330438 0.123996
O O1 0.241611 0.500000 0.288375
O O2 0.152789 0.743825 0.351994
O O3 0.336941 0.678694 0.298267
O O4 0.343486 0.732533 0.209992
O O5 0.905490 0.186460 0.697699
O O6 0.058739 0.217523 0.558525
O O7 0.922493 0.000000 0.623109
O O8 0.152958 0.259744 0.192743
O O9 0.945679 0.218750 0.316108
O O10 0.083369 0.000000 0.241162
O O11 0.695585 0.500000 0.617881
O O12 0.766042 0.769717 0.578242
O O13 0.298256 0.500000 0.511460
O O14 0.250000 0.250000 0.500000
O O15 0.679094 0.500000 0.009057
O O16 0.697221 0.713575 0.941790
O O17 0.750000 0.750000 0.000000
O O18 0.542917 0.727553 0.076399
O O19 0.864839 0.224689 0.111753
O O20 0.920794 0.000000 0.131647
O O21 0.256017 0.500000 0.136382
#
# Coordination Sequence:
#
# PCOD8101464 Si02
#       8
#     8   8   8   8   8   8   8   8
#     4  10  21  37  60  86 112 149 193 236 279 334
#     4  10  21  38  58  82 114 149 187 233 287 341
#     4  10  20  36  58  83 114 151 186 231 286 337
#     4  10  22  39  57  84 117 149 192 236 284 342
#     4  11  22  38  60  84 113 152 192 235 288 341
#     4  10  22  38  58  85 117 150 184 231 283 332
#     4   9  18  36  60  82 109 149 191 228 275 330
#     4  10  20  36  59  86 111 144 195 239 272 327
#
# _framework density 19.051359999999999
#
# number of rings (size 3 to 8) (size 9 to 14) (size 15 to 20)
#    0.000    2.000    2.500    0.750    1.750    4.500 
#    0.000    3.750    0.000    1.500    0.000    0.000 
#    0.000    0.000    0.000    0.000    0.000    0.000 
#
# Total GULP energy -396847.528465 kJ/mol
# GULP energy per Si atom -12401.485265 kJ/mol
# Density = 1.900800 g / cm^3
# Si number density = 19.051360 Si / 1000 Ang^3
#
#
#
# Elastic Constant Matrix: (Units=GPa)
#
#
# Indices 1 2 3 4 5 6 
#
# 1 87.4316 28.4507 42.7342 0.0004 -1.5778 -0.0021
# 2 28.4507 42.2424 39.3694 0.0007 -4.7606 -0.0026
# 3 42.7342 39.3694 128.7794 0.0000 -9.0696 0.0001
# 4 0.0004 0.0007 0.0000 32.1067 0.0001 -2.6781
# 5 -1.5778 -4.7606 -9.0696 0.0001 31.9859 0.0006
# 6 -0.0021 -0.0026 0.0001 -2.6781 0.0006 30.5082
#
#
#
# Elastic Compliance Matrix: (Units=1/GPa)
#
#
# Indices 1 2 3 4 5 6 
#
# 1 0.015332 -0.007889 -0.002761 0.000000 -0.001201 0.000000
# 2 -0.007889 0.037303 -0.008594 -0.000001 0.002726 0.000003
# 3 -0.002761 -0.008594 0.011437 0.000000 0.001828 -0.000001
# 4 0.000000 -0.000001 0.000000 0.031376 0.000000 0.002754
# 5 -0.001201 0.002726 0.001828 0.000000 0.032129 0.000000
# 6 0.000000 0.000003 -0.000001 0.002754 0.000000 0.033020
#
#
# Mechanical properties :
#
#
# Convention : Reuss Voigt Hill
#
# Bulk Modulus (GPa) = 39.08502 53.28469 46.18486
# Shear Modulus (GPa) = 24.08333 28.78010 26.43171
#
# Velocity S-wave (km/s) = 3.55931 3.89094 3.72881
# Velocity P-wave (km/s) = 6.11978 6.94374 6.54474
#
# Compressibility (1/GPa) = 0.02558525
#
# Stress axis : x y z
#
# Youngs Moduli (GPa) = 65.22199 26.80758 87.43254
#
# Poissons Ratio (x) = 0.21148 0.24138
# Poissons Ratio (y) = 0.51452 0.75141
# Poissons Ratio (z) = 0.18006 0.23039
#
# Static dielectric constant tensor:
#      x y z
#    x 3.504110 0.000000 -0.035100 
#    y 0.000000 3.323510 0.000000 
#    z -0.035100 0.000000 3.672780 
# 
# 
# High freq. dielectric constant tensor:
#      x y z
#    x 1.747290 0.000000 -0.001730 
#    y 0.000000 1.717650 0.000000 
#    z -0.001730 0.000000 1.750630 
# 
# From -- ./inp_files/346163.got.cif
#   From: 2010.06.25/outbox.cif.g09.slc.cpg/sg12_174_cif.got.tgz:346163.got - 2010.06.28 00:19:55.
