data_PCOD8101541
_publ_section_title
;
Structure prediction by ZEFSAII (Michael W. Deem and Ramdas Pophale) SiO2 
 PCOD8101541
Probable space group: C 2/M
;
_chemical_formula_sum "Si O2"
_cell_formula_units_Z 64
_cell_length_a 18.674238
_cell_length_b 8.935785
_cell_length_c 20.008102
_cell_angle_alpha 90.000000
_cell_angle_beta 82.572313
_cell_angle_gamma 90.000000
_cell_volume 3310.715554
_symmetry_space_group_name_H-M "C 2/M"
_symmetry_group_IT_number 12
_symmetry_cell_setting 'monoclinic'
loop_
_space_group_symop_operation_xyz
x,y,z
-x,y,-z
-x,-y,-z
x,-y,z
1/2+x,1/2+y,z
1/2-x,1/2+y,-z
1/2-x,1/2-y,-z
1/2+x,1/2-y,z
loop_
_atom_site_type_symbol
_atom_site_label
_atom_site_fract_x
_atom_site_fract_y
_atom_site_fract_z
Si Si1 0.439175 0.822098 0.872604
Si Si2 0.402390 0.667996 0.349402
Si Si3 0.702612 0.673967 0.305857
Si Si4 0.578056 0.324921 0.908265
Si Si5 0.549016 0.324585 0.271271
Si Si6 0.826574 0.824586 0.974435
Si Si7 0.778245 0.675975 0.429978
Si Si8 0.321428 0.331952 0.220320
O O1 0.503086 0.764666 0.913478
O O2 0.455514 0.771244 0.795293
O O3 0.362507 0.751704 0.904960
O O4 0.434295 0.000000 0.876773
O O5 0.397914 0.500000 0.378989
O O6 0.484936 0.719801 0.329910
O O7 0.361111 0.776306 0.405899
O O8 0.368395 0.676221 0.280704
O O9 0.717987 0.500000 0.301952
O O10 0.619811 0.715363 0.304960
O O11 0.728556 0.735879 0.374750
O O12 0.747336 0.742874 0.239034
O O13 0.560715 0.500000 0.899002
O O14 0.631951 0.261590 0.845034
O O15 0.616476 0.295576 0.973564
O O16 0.544658 0.500000 0.252309
O O17 0.814216 0.000000 0.962911
O O18 0.750000 0.750000 0.000000
O O19 0.774086 0.500000 0.439117
O O20 0.750000 0.750000 0.500000
O O21 0.299686 0.500000 0.203620
#
# Coordination Sequence:
#
# PCOD8101541 Si02
#       8
#     8   8   8   8   8   8   8   8
#     4  12  25  39  59  86 116 153 197 241 290 350
#     4   9  17  33  58  83 110 145 184 227 279 334
#     4   9  20  35  55  84 115 147 187 235 281 329
#     4  10  21  40  62  83 111 150 194 240 294 350
#     4  10  20  38  60  84 116 152 189 237 294 343
#     4  11  25  43  62  84 115 152 194 244 298 354
#     4  10  20  36  58  85 116 150 191 229 273 331
#     4   9  17  32  55  82 110 142 182 229 282 341
#
# _framework density 19.331168000000002
#
# number of rings (size 3 to 8) (size 9 to 14) (size 15 to 20)
#    0.000    2.000    1.250    2.250    1.750    4.500 
#    0.000    0.625    0.000    3.750    0.000    0.000 
#    0.000    0.000    0.000    0.000    0.000    0.000 
#
# Total GULP energy -396836.570930 kJ/mol
# GULP energy per Si atom -12401.142842 kJ/mol
# Density = 1.928717 g / cm^3
# Si number density = 19.331168 Si / 1000 Ang^3
#
#
#
# Elastic Constant Matrix: (Units=GPa)
#
#
# Indices 1 2 3 4 5 6 
#
# 1 140.3754 54.7817 42.5773 0.0000 -19.3278 0.0000
# 2 54.7817 83.7715 35.5898 0.0000 -5.9906 0.0000
# 3 42.5773 35.5898 75.0295 0.0000 -20.8362 0.0000
# 4 0.0000 0.0000 0.0000 26.2703 0.0000 -6.9403
# 5 -19.3278 -5.9906 -20.8362 0.0000 28.7372 0.0000
# 6 0.0000 0.0000 0.0000 -6.9403 0.0000 33.7047
#
#
#
# Elastic Compliance Matrix: (Units=1/GPa)
#
#
# Indices 1 2 3 4 5 6 
#
# 1 0.010599 -0.005739 -0.002060 0.000000 0.004439 0.000000
# 2 -0.005739 0.018206 -0.006758 0.000000 -0.004964 0.000000
# 3 -0.002060 -0.006758 0.021194 0.000000 0.012573 0.000000
# 4 0.000000 0.000000 0.000000 0.040256 0.000000 0.008289
# 5 0.004439 -0.004964 0.012573 0.000000 0.045865 0.000000
# 6 0.000000 0.000000 0.000000 0.008289 0.000000 0.031376
#
#
# Mechanical properties :
#
#
# Convention : Reuss Voigt Hill
#
# Bulk Modulus (GPa) = 47.87852 62.78598 55.33225
# Shear Modulus (GPa) = 24.56133 28.82428 26.69281
#
# Velocity S-wave (km/s) = 3.56835 3.86564 3.71997
# Velocity P-wave (km/s) = 6.46520 7.24388 6.86559
#
# Compressibility (1/GPa) = 0.02088619
#
# Stress axis : x y z
#
# Youngs Moduli (GPa) = 94.34600 54.92663 47.18255
#
# Poissons Ratio (x) = 0.31521 0.09720
# Poissons Ratio (y) = 0.54142 0.31886
# Poissons Ratio (z) = 0.19435 0.37120
#
# Static dielectric constant tensor:
#      x y z
#    x 3.771820 0.000000 -0.145920 
#    y 0.000000 3.515360 0.000000 
#    z -0.145920 0.000000 3.498150 
# 
# 
# High freq. dielectric constant tensor:
#      x y z
#    x 1.761170 0.000000 -0.014180 
#    y 0.000000 1.743940 0.000000 
#    z -0.014180 0.000000 1.741850 
# 
# From -- ./inp_files/314053.got.cif
#   From: 2010.06.25/outbox.cif.g09.slc.cpg/sg12_158_cif.got.tgz:314053.got - 2010.06.28 00:19:55.
