data_PCOD8101352
_publ_section_title
;
Structure prediction by ZEFSAII (Michael W. Deem and Ramdas Pophale) SiO2 
 PCOD8101352
Probable space group: C 2/M
;
_chemical_formula_sum "Si O2"
_cell_formula_units_Z 48
_cell_length_a 20.440746
_cell_length_b 9.021844
_cell_length_c 26.528664
_cell_angle_alpha 90.000000
_cell_angle_beta 150.172508
_cell_angle_gamma 90.000000
_cell_volume 2433.350831
_symmetry_space_group_name_H-M "C 2/M"
_symmetry_group_IT_number 12
_symmetry_cell_setting 'monoclinic'
loop_
_space_group_symop_operation_xyz
x,y,z
-x,y,-z
-x,-y,-z
x,-y,z
1/2+x,1/2+y,z
1/2-x,1/2+y,-z
1/2-x,1/2-y,-z
1/2+x,1/2-y,z
loop_
_atom_site_type_symbol
_atom_site_label
_atom_site_fract_x
_atom_site_fract_y
_atom_site_fract_z
Si Si1 0.963262 0.171870 0.253888
Si Si2 0.221029 0.325519 0.700919
Si Si3 0.261747 0.327938 0.612502
Si Si4 0.522600 0.676095 0.070881
Si Si5 0.265375 0.675309 0.956781
Si Si6 0.983730 0.173429 0.595380
O O1 0.093073 0.211159 0.309298
O O2 0.982506 0.213355 0.324828
O O3 0.847169 0.274443 0.156537
O O4 0.925756 0.000000 0.221571
O O5 0.202974 0.500000 0.695708
O O6 0.252995 0.283776 0.664988
O O7 0.339947 0.264033 0.814975
O O8 0.086341 0.248369 0.626287
O O9 0.229050 0.500000 0.582048
O O10 0.161141 0.232729 0.512621
O O11 0.526637 0.500000 0.071290
O O12 0.500000 0.742688 0.000000
O O13 0.404701 0.728639 0.027841
O O14 0.259711 0.500000 0.959464
O O15 0.250000 0.750000 0.000000
O O16 0.986409 0.000000 0.587326
#
# Coordination Sequence:
#
# PCOD8101352 Si02
#       6
#     8   8   8   8   8   8
#     4  10  22  40  59  82 113 147 186 232 280 331
#     4  10  20  36  58  81 108 146 190 230 271 328
#     4  10  21  38  59  80 108 150 194 232 272 330
#     4   9  18  34  57  83 109 143 189 231 266 319
#     4  11  22  37  60  87 115 148 186 230 278 329
#     4  11  23  37  56  84 116 145 179 233 291 336
#
# _framework density 19.725885000000002
#
# number of rings (size 3 to 8) (size 9 to 14) (size 15 to 20)
#    0.000    1.833    0.000    4.000    0.000    8.667 
#    0.000    3.333    0.000    4.500    0.000    0.000 
#    0.000    0.000    0.000    0.000    0.000    0.000 
#
# Total GULP energy -297725.086515 kJ/mol
# GULP energy per Si atom -12405.211938 kJ/mol
# Density = 1.968099 g / cm^3
# Si number density = 19.725885 Si / 1000 Ang^3
#
#
#
# Elastic Constant Matrix: (Units=GPa)
#
#
# Indices 1 2 3 4 5 6 
#
# 1 81.7000 22.0406 -4.2568 0.0022 -1.8707 0.0001
# 2 22.0406 44.0396 21.6197 -0.0003 -11.7401 -0.0006
# 3 -4.2568 21.6197 79.1571 -0.0004 -11.6935 -0.0002
# 4 0.0022 -0.0003 -0.0004 33.2065 0.0004 -0.8662
# 5 -1.8707 -11.7401 -11.6935 0.0004 23.7452 0.0002
# 6 0.0001 -0.0006 -0.0002 -0.8662 0.0002 28.2713
#
#
#
# Elastic Compliance Matrix: (Units=1/GPa)
#
#
# Indices 1 2 3 4 5 6 
#
# 1 0.014928 -0.009532 0.003110 -0.000001 -0.002005 0.000000
# 2 -0.009532 0.034808 -0.008183 0.000001 0.012429 0.000001
# 3 0.003110 -0.008183 0.015609 0.000000 0.003886 0.000000
# 4 -0.000001 0.000001 0.000000 0.030139 0.000000 0.000923
# 5 -0.002005 0.012429 0.003886 0.000000 0.050014 0.000000
# 6 0.000000 0.000001 0.000000 0.000923 0.000000 0.035400
#
#
# Mechanical properties :
#
#
# Convention : Reuss Voigt Hill
#
# Bulk Modulus (GPa) = 27.67487 31.52263 29.59875
# Shear Modulus (GPa) = 22.50691 28.07748 25.29220
#
# Velocity S-wave (km/s) = 3.38151 3.77687 3.58464
# Velocity P-wave (km/s) = 5.41353 5.91901 5.67190
#
# Compressibility (1/GPa) = 0.03613386
#
# Stress axis : x y z
#
# Youngs Moduli (GPa) = 66.99024 28.72898 64.06361
#
# Poissons Ratio (x) = 0.27385 -0.19924
# Poissons Ratio (y) = 0.63856 0.52426
# Poissons Ratio (z) = -0.20834 0.23510
#
# Static dielectric constant tensor:
#      x y z
#    x 3.821830 0.000000 -0.132320 
#    y 0.000000 3.383270 0.000000 
#    z -0.132320 0.000000 4.056470 
# 
# 
# High freq. dielectric constant tensor:
#      x y z
#    x 1.788380 0.000000 -0.001370 
#    y 0.000000 1.747270 0.000000 
#    z -0.001370 0.000000 1.784860 
# 
# From -- ./inp_files/365548.got.cif
#   From: 2010.06.25/outbox.cif.g09.slc.cpg/sg12_183_cif.got.tgz:365548.got - 2010.06.28 00:19:55.
