data_PCOD8101127
_publ_section_title
;
Structure prediction by ZEFSAII (Michael W. Deem and Ramdas Pophale) SiO2 
 PCOD8101127
Probable space group: C 2/M
;
_chemical_formula_sum "Si O2"
_cell_formula_units_Z 48
_cell_length_a 20.150922
_cell_length_b 8.478945
_cell_length_c 15.554169
_cell_angle_alpha 90.000000
_cell_angle_beta 71.537966
_cell_angle_gamma 90.000000
_cell_volume 2520.787985
_symmetry_space_group_name_H-M "C 2/M"
_symmetry_group_IT_number 12
_symmetry_cell_setting 'monoclinic'
loop_
_space_group_symop_operation_xyz
x,y,z
-x,y,-z
-x,-y,-z
x,-y,z
1/2+x,1/2+y,z
1/2-x,1/2+y,-z
1/2-x,1/2-y,-z
1/2+x,1/2-y,z
loop_
_atom_site_type_symbol
_atom_site_label
_atom_site_fract_x
_atom_site_fract_y
_atom_site_fract_z
Si Si1 0.157323 0.815633 0.601246
Si Si2 0.203880 0.181700 0.393087
Si Si3 0.678201 0.684378 0.064956
Si Si4 0.034134 0.684995 0.074921
Si Si5 0.365306 0.818274 0.742544
Si Si6 0.507919 0.315421 0.731141
O O1 0.164903 0.775744 0.497664
O O2 0.214036 0.719740 0.633024
O O3 0.081507 0.758071 0.662759
O O4 0.169299 0.000000 0.613798
O O5 0.169679 0.288652 0.334457
O O6 0.193903 0.000000 0.372402
O O7 0.672538 0.500000 0.048973
O O8 0.615944 0.772376 0.040292
O O9 0.673145 0.715228 0.168931
O O10 0.750000 0.750000 0.000000
O O11 0.024411 0.500000 0.094162
O O12 0.994501 0.777353 0.166833
O O13 0.000000 0.740496 0.000000
O O14 0.447206 0.775038 0.704588
O O15 0.357157 0.000000 0.771325
O O16 0.496964 0.500000 0.720919
#
# Coordination Sequence:
#
# PCOD8101127 Si02
#       6
#     8   8   8   8   8   8
#     4   9  20  37  56  80 110 143 180 225 274 325
#     4  10  20  36  57  80 109 144 182 224 272 324
#     4  11  22  38  59  82 110 143 181 223 270 321
#     4  10  21  37  56  80 111 144 180 222 268 320
#     4  11  22  37  56  80 111 143 181 225 269 320
#     4  10  20  36  57  80 108 141 180 224 271 322
#
# _framework density 19.041665999999999
#
# number of rings (size 3 to 8) (size 9 to 14) (size 15 to 20)
#    0.000    1.833    0.000    6.500    0.000    5.333 
#    0.000    6.667    0.000    0.000    0.000    0.000 
#    0.000    0.000    0.000    0.000    0.000    0.000 
#
# Total GULP energy -297720.261443 kJ/mol
# GULP energy per Si atom -12405.010893 kJ/mol
# Density = 1.899833 g / cm^3
# Si number density = 19.041666 Si / 1000 Ang^3
#
#
#
# Elastic Constant Matrix: (Units=GPa)
#
#
# Indices 1 2 3 4 5 6 
#
# 1 124.6616 19.5052 82.5272 0.0000 -8.0785 0.0000
# 2 19.5052 52.2228 12.0542 0.0000 1.3643 0.0000
# 3 82.5272 12.0542 88.1853 0.0000 -5.4847 0.0000
# 4 0.0000 0.0000 0.0000 30.0882 0.0000 2.0267
# 5 -8.0785 1.3643 -5.4847 0.0000 44.8091 0.0000
# 6 0.0000 0.0000 0.0000 2.0267 0.0000 34.9243
#
#
#
# Elastic Compliance Matrix: (Units=1/GPa)
#
#
# Indices 1 2 3 4 5 6 
#
# 1 0.021811 -0.003614 -0.019817 0.000000 0.001617 0.000000
# 2 -0.003614 0.020411 0.000517 0.000000 -0.001210 0.000000
# 3 -0.019817 0.000517 0.029818 0.000000 0.000061 0.000000
# 4 0.000000 0.000000 0.000000 0.033366 0.000000 -0.001936
# 5 0.001617 -0.001210 0.000061 0.000000 0.022653 0.000000
# 6 0.000000 0.000000 0.000000 -0.001936 0.000000 0.028746
#
#
# Mechanical properties :
#
#
# Convention : Reuss Voigt Hill
#
# Bulk Modulus (GPa) = 38.15042 54.80478 46.47760
# Shear Modulus (GPa) = 23.65513 32.02985 27.84249
#
# Velocity S-wave (km/s) = 3.52843 4.10578 3.82800
# Velocity P-wave (km/s) = 6.05627 7.16384 6.63321
#
# Compressibility (1/GPa) = 0.02621203
#
# Stress axis : x y z
#
# Youngs Moduli (GPa) = 45.84824 48.99337 33.53634
#
# Poissons Ratio (x) = 0.17709 0.66459
# Poissons Ratio (y) = 0.16572 -0.01735
# Poissons Ratio (z) = 0.90858 -0.02535
#
# Static dielectric constant tensor:
#      x y z
#    x 3.544960 0.000000 -0.049860 
#    y 0.000000 3.555900 0.000000 
#    z -0.049860 0.000000 3.459640 
# 
# 
# High freq. dielectric constant tensor:
#      x y z
#    x 1.745240 0.000000 -0.000870 
#    y 0.000000 1.751780 0.000000 
#    z -0.000870 0.000000 1.737340 
# 
# From -- ./inp_files/229941.got.cif
#   From: 2010.06.25/outbox.cif.g09.slc.cpg/sg12_115_cif.got.tgz:229941.got - 2010.06.28 00:19:55.
