data_PCOD8101481
_publ_section_title
;
Structure prediction by ZEFSAII (Michael W. Deem and Ramdas Pophale) SiO2 
 PCOD8101481
Probable space group: C 2/M
;
_chemical_formula_sum "Si O2"
_cell_formula_units_Z 64
_cell_length_a 30.214906
_cell_length_b 8.865611
_cell_length_c 14.456458
_cell_angle_alpha 90.000000
_cell_angle_beta 59.298118
_cell_angle_gamma 90.000000
_cell_volume 3329.715980
_symmetry_space_group_name_H-M "C 2/M"
_symmetry_group_IT_number 12
_symmetry_cell_setting 'monoclinic'
loop_
_space_group_symop_operation_xyz
x,y,z
-x,y,-z
-x,-y,-z
x,-y,z
1/2+x,1/2+y,z
1/2-x,1/2+y,-z
1/2-x,1/2-y,-z
1/2+x,1/2-y,z
loop_
_atom_site_type_symbol
_atom_site_label
_atom_site_fract_x
_atom_site_fract_y
_atom_site_fract_z
Si Si1 0.834732 0.178446 0.677908
Si Si2 0.963134 0.827403 0.958947
Si Si3 0.704032 0.678256 0.605734
Si Si4 0.383328 0.678699 0.435247
Si Si5 0.002349 0.173772 0.713687
Si Si6 0.636505 0.825199 0.993312
Si Si7 0.225328 0.178146 0.789956
Si Si8 0.598196 0.175589 0.238154
O O1 0.856046 0.238425 0.557142
O O2 0.780235 0.253272 0.755966
O O3 0.874405 0.225677 0.714075
O O4 0.828073 0.000000 0.684914
O O5 0.994191 0.811131 0.831347
O O6 0.946486 0.000000 0.995178
O O7 0.912153 0.726712 0.015116
O O8 0.000000 0.766695 0.000000
O O9 0.710309 0.500000 0.591986
O O10 0.750000 0.750000 0.500000
O O11 0.650089 0.731681 0.617802
O O12 0.705844 0.733255 0.709921
O O13 0.386925 0.500000 0.432599
O O14 0.441285 0.742446 0.367777
O O15 0.961173 0.273315 0.702140
O O16 0.996997 0.000000 0.687452
O O17 0.686385 0.732901 0.909994
O O18 0.646438 0.000000 0.964584
O O19 0.626207 0.789629 0.111527
O O20 0.229836 0.000000 0.789517
O O21 0.600838 0.000000 0.260721
#
# Coordination Sequence:
#
# PCOD8101481 Si02
#       8
#     8   8   8   8   8   8   8   8
#     4  11  22  38  61  84 112 150 193 236 284 340
#     4   9  18  32  55  84 113 147 189 234 279 332
#     4  10  20  36  58  83 117 154 187 230 279 331
#     4   9  19  35  57  85 115 149 189 228 272 335
#     4   9  18  35  58  82 112 149 189 230 278 336
#     4  10  22  39  58  80 113 152 189 235 287 340
#     4  11  23  37  59  88 118 150 190 235 282 337
#     4  10  22  41  60  81 113 147 188 241 291 336
#
# _framework density 19.220859000000001
#
# number of rings (size 3 to 8) (size 9 to 14) (size 15 to 20)
#    0.000    2.125    1.250    1.500    1.750    3.250 
#    0.000    4.375    0.000    0.000    0.000    0.000 
#    0.000    0.000    0.000    0.000    0.000    0.000 
#
# Total GULP energy -396897.783986 kJ/mol
# GULP energy per Si atom -12403.055750 kJ/mol
# Density = 1.917711 g / cm^3
# Si number density = 19.220859 Si / 1000 Ang^3
#
#
#
# Elastic Constant Matrix: (Units=GPa)
#
#
# Indices 1 2 3 4 5 6 
#
# 1 123.9971 23.2114 37.5973 0.0000 -8.3483 0.0000
# 2 23.2114 48.7544 18.5449 0.0000 -3.8983 0.0000
# 3 37.5973 18.5449 53.5263 0.0000 -21.4957 0.0000
# 4 0.0000 0.0000 0.0000 25.2090 0.0000 -3.9505
# 5 -8.3483 -3.8983 -21.4957 0.0000 37.4504 0.0000
# 6 0.0000 0.0000 0.0000 -3.9505 0.0000 32.6297
#
#
#
# Elastic Compliance Matrix: (Units=1/GPa)
#
#
# Indices 1 2 3 4 5 6 
#
# 1 0.010648 -0.002377 -0.007539 0.000000 -0.002201 0.000000
# 2 -0.002377 0.024402 -0.007768 0.000000 -0.002448 0.000000
# 3 -0.007539 -0.007768 0.033359 0.000000 0.016658 0.000000
# 4 0.000000 0.000000 0.000000 0.040435 0.000000 0.004896
# 5 -0.002201 -0.002448 0.016658 0.000000 0.035518 0.000000
# 6 0.000000 0.000000 0.000000 0.004896 0.000000 0.031240
#
#
# Mechanical properties :
#
#
# Convention : Reuss Voigt Hill
#
# Bulk Modulus (GPa) = 30.26671 42.77610 36.52140
# Shear Modulus (GPa) = 22.52425 28.85276 25.68850
#
# Velocity S-wave (km/s) = 3.42697 3.87863 3.65977
# Velocity P-wave (km/s) = 5.60712 6.50859 6.07460
#
# Compressibility (1/GPa) = 0.03303960
#
# Stress axis : x y z
#
# Youngs Moduli (GPa) = 93.91850 40.98079 29.97692
#
# Poissons Ratio (x) = 0.09743 0.22600
# Poissons Ratio (y) = 0.22329 0.23285
# Poissons Ratio (z) = 0.70808 0.31832
#
# Static dielectric constant tensor:
#      x y z
#    x 3.690060 0.000000 -0.031790 
#    y 0.000000 3.387060 0.000000 
#    z -0.031790 0.000000 3.616630 
# 
# 
# High freq. dielectric constant tensor:
#      x y z
#    x 1.759600 0.000000 -0.002750 
#    y 0.000000 1.735080 0.000000 
#    z -0.002750 0.000000 1.748160 
# 
# From -- ./inp_files/249043.got.cif
#   From: 2010.06.25/outbox.cif.g09.slc.cpg/sg12_125_cif.got.tgz:249043.got - 2010.06.28 00:19:55.
