data_PCOD8101898
_publ_section_title
;
Structure prediction by ZEFSAII (Michael W. Deem and Ramdas Pophale) SiO2 
 PCOD8101898
Probable space group: C 2/M
;
_chemical_formula_sum "Si O2"
_cell_formula_units_Z 56
_cell_length_a 16.701828
_cell_length_b 15.826963
_cell_length_c 19.551625
_cell_angle_alpha 90.000000
_cell_angle_beta 146.641051
_cell_angle_gamma 90.000000
_cell_volume 2841.936126
_symmetry_space_group_name_H-M "C 2/M"
_symmetry_group_IT_number 12
_symmetry_cell_setting 'monoclinic'
loop_
_space_group_symop_operation_xyz
x,y,z
-x,y,-z
-x,-y,-z
x,-y,z
1/2+x,1/2+y,z
1/2-x,1/2+y,-z
1/2-x,1/2-y,-z
1/2+x,1/2-y,z
loop_
_atom_site_type_symbol
_atom_site_label
_atom_site_fract_x
_atom_site_fract_y
_atom_site_fract_z
Si Si1 0.758399 0.095255 0.301166
Si Si2 0.186948 0.200356 0.891825
Si Si3 0.548950 0.095194 0.964004
Si Si4 0.365241 0.248571 0.292493
Si Si5 0.670996 0.681571 0.515583
Si Si6 0.861526 0.164067 0.658545
Si Si7 0.167963 0.594640 0.638016
O O1 0.583425 0.102870 0.184659
O O2 0.807816 0.161664 0.279218
O O3 0.835465 0.113035 0.428723
O O4 0.801394 0.000000 0.308830
O O5 0.172151 0.259936 0.814315
O O6 0.031723 0.158128 0.799343
O O7 0.250000 0.250000 0.000000
O O8 0.303333 0.128428 0.961726
O O9 0.586393 0.000000 0.009946
O O10 0.500000 0.141592 0.000000
O O11 0.539032 0.251001 0.427462
O O12 0.294537 0.167639 0.279962
O O13 0.816011 0.737257 0.629229
O O14 0.666051 0.632823 0.439375
O O15 0.769313 0.106460 0.644011
O O16 0.198511 0.500000 0.688996
O O17 0.000000 0.603386 0.500000
#
# Coordination Sequence:
#
# PCOD8101898 Si02
#       7
#     8   8   8   8   8   8   8
#     4  11  21  35  62  93 124 158 195 246 305 365
#     4  11  24  38  63  90 116 164 203 244 310 360
#     4  10  21  40  61  86 119 157 204 247 291 364
#     4  11  21  39  62  89 124 157 201 257 295 360
#     4  10  20  36  59  89 127 154 192 250 309 357
#     4  10  21  38  60  87 123 159 200 252 300 353
#     4  11  22  40  64  88 120 164 205 243 299 362
#
# _framework density 19.704877
#
# number of rings (size 3 to 8) (size 9 to 14) (size 15 to 20)
#    0.000    1.429    4.286    1.286    0.000    2.286 
#    0.000    3.571    0.000    0.857    0.000    0.000 
#    0.000    0.000    0.000    0.000    0.000    0.000 
#
# Total GULP energy -347104.738335 kJ/mol
# GULP energy per Si atom -12396.597798 kJ/mol
# Density = 1.966003 g / cm^3
# Si number density = 19.704877 Si / 1000 Ang^3
#
#
#
# Elastic Constant Matrix: (Units=GPa)
#
#
# Indices 1 2 3 4 5 6 
#
# 1 128.1163 54.4674 55.2318 0.0003 1.4662 0.0002
# 2 54.4674 109.6534 39.7577 -0.0001 -7.2619 0.0002
# 3 55.2318 39.7577 100.3860 0.0006 -6.0423 0.0008
# 4 0.0003 -0.0001 0.0006 18.6820 0.0006 5.0433
# 5 1.4662 -7.2619 -6.0423 0.0006 39.8502 0.0005
# 6 0.0002 0.0002 0.0008 5.0433 0.0005 23.4165
#
#
#
# Elastic Compliance Matrix: (Units=1/GPa)
#
#
# Indices 1 2 3 4 5 6 
#
# 1 0.011717 -0.004167 -0.004913 0.000000 -0.001935 0.000000
# 2 -0.004167 0.012199 -0.002418 0.000000 0.002010 0.000000
# 3 -0.004913 -0.002418 0.013732 0.000000 0.001822 0.000000
# 4 0.000000 0.000000 0.000000 0.056832 -0.000001 -0.012240
# 5 -0.001935 0.002010 0.001822 -0.000001 0.025808 0.000000
# 6 0.000000 0.000000 0.000000 -0.012240 0.000000 0.045341
#
#
# Mechanical properties :
#
#
# Convention : Reuss Voigt Hill
#
# Bulk Modulus (GPa) = 68.24655 70.78551 69.51603
# Shear Modulus (GPa) = 25.83868 28.96966 27.40417
#
# Velocity S-wave (km/s) = 3.62509 3.83845 3.73330
# Velocity P-wave (km/s) = 7.22712 7.45961 7.34428
#
# Compressibility (1/GPa) = 0.01465276
#
# Stress axis : x y z
#
# Youngs Moduli (GPa) = 85.34549 81.97213 72.82359
#
# Poissons Ratio (x) = 0.34158 0.35777
# Poissons Ratio (y) = 0.35564 0.17608
# Poissons Ratio (z) = 0.41929 0.19820
#
# Static dielectric constant tensor:
#      x y z
#    x 3.441790 0.000000 0.134280 
#    y 0.000000 3.378740 0.000000 
#    z 0.134280 0.000000 3.673570 
# 
# 
# High freq. dielectric constant tensor:
#      x y z
#    x 1.774300 0.000000 0.007660 
#    y 0.000000 1.741710 0.000000 
#    z 0.007660 0.000000 1.769840 
# 
# From -- ./inp_files/316802.got.cif
#   From: 2010.06.25/outbox.cif.g09.slc.cpg/sg12_159_cif.got.tgz:316802.got - 2010.06.28 00:19:55.
