data_PCOD8101272
_publ_section_title
;
Structure prediction by ZEFSAII (Michael W. Deem and Ramdas Pophale) SiO2 
 PCOD8101272
Probable space group: C 2/M
;
_chemical_formula_sum "Si O2"
_cell_formula_units_Z 56
_cell_length_a 22.988479
_cell_length_b 12.364749
_cell_length_c 26.909190
_cell_angle_alpha 90.000000
_cell_angle_beta 159.246500
_cell_angle_gamma 90.000000
_cell_volume 2710.356082
_symmetry_space_group_name_H-M "C 2/M"
_symmetry_group_IT_number 12
_symmetry_cell_setting 'monoclinic'
loop_
_space_group_symop_operation_xyz
x,y,z
-x,y,-z
-x,-y,-z
x,-y,z
1/2+x,1/2+y,z
1/2-x,1/2+y,-z
1/2-x,1/2-y,-z
1/2+x,1/2-y,z
loop_
_atom_site_type_symbol
_atom_site_label
_atom_site_fract_x
_atom_site_fract_y
_atom_site_fract_z
Si Si1 0.748690 0.876254 0.642525
Si Si2 0.446511 0.821098 0.603550
Si Si3 0.193669 0.204465 0.102780
Si Si4 0.731422 0.617616 0.517728
Si Si5 0.253549 0.370549 0.069805
Si Si6 0.652234 0.377177 0.173596
Si Si7 0.004105 0.731490 0.795738
O O1 0.586069 0.844464 0.481083
O O2 0.722528 0.856017 0.680741
O O3 0.907069 0.807489 0.755410
O O4 0.793840 0.000000 0.669452
O O5 0.630260 0.855510 0.766613
O O6 0.425187 0.693666 0.598369
O O7 0.300336 0.881568 0.516247
O O8 0.192902 0.321071 0.074443
O O9 0.184930 0.211195 0.156306
O O10 0.037883 0.135257 0.959572
O O11 0.664890 0.500000 0.477836
O O12 0.883058 0.647900 0.673327
O O13 0.278186 0.500000 0.094574
O O14 0.418568 0.307984 0.185266
O O15 0.128213 0.343334 0.925390
O O16 0.674267 0.500000 0.170975
#
# Coordination Sequence:
#
# PCOD8101272 Si02
#       7
#     8   8   8   8   8   8   8
#     4  10  20  37  61  87 120 157 192 246 307 358
#     4  10  22  36  55  90 123 155 197 247 297 361
#     4  11  21  41  58  85 121 155 203 250 294 357
#     4  10  20  36  57  84 122 163 197 236 297 363
#     4  11  22  36  59  89 123 161 201 249 305 360
#     4  10  23  41  64  87 118 160 202 254 307 352
#     4  10  20  38  56  90 122 155 200 246 297 362
#
# _framework density 20.661493
#
# number of rings (size 3 to 8) (size 9 to 14) (size 15 to 20)
#    0.000    1.714    2.857    2.143    0.000    3.429 
#    0.000    2.857    0.000    0.000    0.000    3.000 
#    0.000    0.000    0.000    0.000    0.000    0.000 
#
# Total GULP energy -346920.968608 kJ/mol
# GULP energy per Si atom -12390.034593 kJ/mol
# Density = 2.061447 g / cm^3
# Si number density = 20.661493 Si / 1000 Ang^3
#
#
#
# Elastic Constant Matrix: (Units=GPa)
#
#
# Indices 1 2 3 4 5 6 
#
# 1 104.2468 45.1719 15.5158 0.0028 -22.2514 0.0012
# 2 45.1719 117.2085 -0.9822 -0.0894 -3.5674 -0.0145
# 3 15.5158 -0.9822 46.9719 -0.1402 -11.0120 -0.0189
# 4 0.0028 -0.0894 -0.1402 12.5728 0.0058 -3.1314
# 5 -22.2514 -3.5674 -11.0120 0.0058 31.6999 0.0057
# 6 0.0012 -0.0145 -0.0189 -3.1314 0.0057 20.0965
#
#
#
# Elastic Compliance Matrix: (Units=1/GPa)
#
#
# Indices 1 2 3 4 5 6 
#
# 1 0.014020 -0.005175 -0.002797 -0.000080 0.008287 -0.000022
# 2 -0.005175 0.010479 0.001474 0.000099 -0.001941 0.000025
# 3 -0.002797 0.001474 0.023758 0.000290 0.006456 0.000067
# 4 -0.000080 0.000099 0.000290 0.082752 0.000038 0.012895
# 5 0.008287 -0.001941 0.006456 0.000038 0.039387 -0.000001
# 6 -0.000022 0.000025 0.000067 0.012895 -0.000001 0.051769
#
#
# Mechanical properties :
#
#
# Convention : Reuss Voigt Hill
#
# Bulk Modulus (GPa) = 28.35860 43.09312 35.72586
# Shear Modulus (GPa) = 20.24982 26.78863 23.51923
#
# Velocity S-wave (km/s) = 3.13401 3.60467 3.37755
# Velocity P-wave (km/s) = 5.18181 6.18279 5.70430
#
# Compressibility (1/GPa) = 0.03526267
#
# Stress axis : x y z
#
# Youngs Moduli (GPa) = 71.32648 95.42511 42.09046
#
# Poissons Ratio (x) = 0.49378 0.11771
# Poissons Ratio (y) = 0.36908 -0.06203
# Poissons Ratio (z) = 0.19948 -0.14062
#
# Static dielectric constant tensor:
#      x y z
#    x 3.815690 0.000010 -0.199470 
#    y 0.000010 3.546410 -0.000040 
#    z -0.199470 -0.000040 3.845240 
# 
# 
# High freq. dielectric constant tensor:
#      x y z
#    x 1.803390 0.000000 -0.023260 
#    y 0.000000 1.781560 0.000000 
#    z -0.023260 0.000000 1.822130 
# 
# From -- ./inp_files/382913.got.cif
#   From: 2010.06.25/outbox.cif.g09.slc.cpg/sg12_192_cif.got.tgz:382913.got - 2010.06.28 00:19:55.
