data_PCOD8101614
_publ_section_title
;
Structure prediction by ZEFSAII (Michael W. Deem and Ramdas Pophale) SiO2 
 PCOD8101614
Probable space group: C 2/M
;
_chemical_formula_sum "Si O2"
_cell_formula_units_Z 56
_cell_length_a 27.390111
_cell_length_b 8.699248
_cell_length_c 17.600988
_cell_angle_alpha 90.000000
_cell_angle_beta 39.525309
_cell_angle_gamma 90.000000
_cell_volume 2669.043739
_symmetry_space_group_name_H-M "C 2/M"
_symmetry_group_IT_number 12
_symmetry_cell_setting 'monoclinic'
loop_
_space_group_symop_operation_xyz
x,y,z
-x,y,-z
-x,-y,-z
x,-y,z
1/2+x,1/2+y,z
1/2-x,1/2+y,-z
1/2-x,1/2-y,-z
1/2+x,1/2-y,z
loop_
_atom_site_type_symbol
_atom_site_label
_atom_site_fract_x
_atom_site_fract_y
_atom_site_fract_z
Si Si1 0.326694 0.177370 0.938825
Si Si2 0.334183 0.819047 0.377662
Si Si3 0.346111 0.324158 0.659053
Si Si4 0.433887 0.324701 0.695822
Si Si5 0.102260 0.824933 0.555124
Si Si6 0.084180 0.179593 0.870167
Si Si7 0.826339 0.323225 0.104932
O O1 0.396505 0.212598 0.800966
O O2 0.308563 0.000000 0.966768
O O3 0.250000 0.250000 0.000000
O O4 0.355241 0.232720 0.987903
O O5 0.250000 0.750000 0.500000
O O6 0.391336 0.781515 0.378670
O O7 0.377757 0.758775 0.249745
O O8 0.323464 0.000000 0.380440
O O9 0.367587 0.500000 0.617522
O O10 0.411046 0.260734 0.639302
O O11 0.343023 0.254317 0.577025
O O12 0.264383 0.301179 0.794892
O O13 0.402839 0.500000 0.741598
O O14 0.522605 0.315840 0.606284
O O15 0.121673 0.000000 0.557194
O O16 0.140941 0.209704 0.871553
O O17 0.078484 0.000000 0.858672
O O18 0.000000 0.241162 0.000000
O O19 0.848178 0.500000 0.098721
#
# Coordination Sequence:
#
# PCOD8101614 Si02
#       7
#     8   8   8   8   8   8   8
#     4  11  22  37  58  88 123 164 209 252 305 368
#     4  12  26  46  71  96 129 170 220 273 328 390
#     4   9  17  35  60  89 122 160 204 248 298 365
#     4  10  20  36  58  88 126 165 204 249 305 372
#     4  10  21  37  64  94 123 161 207 256 315 374
#     4  11  26  46  68  97 131 167 215 273 334 394
#     4  10  21  38  62  89 122 164 211 257 311 377
#
# _framework density 20.981297000000001
#
# number of rings (size 3 to 8) (size 9 to 14) (size 15 to 20)
#    0.000    1.571    1.429    3.429    2.000    5.714 
#    0.000    0.714    0.000    1.714    0.000    0.000 
#    0.000    0.000    0.000    0.000    0.000    0.000 
#
# Total GULP energy -346940.612932 kJ/mol
# GULP energy per Si atom -12390.736176 kJ/mol
# Density = 2.093354 g / cm^3
# Si number density = 20.981297 Si / 1000 Ang^3
#
#
#
# Elastic Constant Matrix: (Units=GPa)
#
#
# Indices 1 2 3 4 5 6 
#
# 1 130.7964 36.9107 46.4246 -0.0045 25.0078 0.0015
# 2 36.9107 68.0577 39.4178 -0.0029 11.5298 0.0027
# 3 46.4246 39.4178 119.4963 -0.0100 22.9527 0.0028
# 4 -0.0045 -0.0029 -0.0100 31.1990 0.0070 2.2176
# 5 25.0078 11.5298 22.9527 0.0070 42.2291 -0.0032
# 6 0.0015 0.0027 0.0028 2.2176 -0.0032 31.9466
#
#
#
# Elastic Compliance Matrix: (Units=1/GPa)
#
#
# Indices 1 2 3 4 5 6 
#
# 1 0.010136 -0.003694 -0.001965 0.000001 -0.003926 0.000000
# 2 -0.003694 0.019648 -0.004953 0.000000 -0.000485 -0.000001
# 3 -0.001965 -0.004953 0.011481 0.000004 -0.003724 -0.000001
# 4 0.000001 0.000000 0.000004 0.032211 -0.000008 -0.002236
# 5 -0.003926 -0.000485 -0.003724 -0.000008 0.028162 0.000004
# 6 0.000000 -0.000001 -0.000001 -0.002236 0.000004 0.031457
#
#
# Mechanical properties :
#
#
# Convention : Reuss Voigt Hill
#
# Bulk Modulus (GPa) = 49.89883 62.65075 56.27479
# Shear Modulus (GPa) = 31.05601 34.11474 32.58537
#
# Velocity S-wave (km/s) = 3.85148 4.03669 3.94517
# Velocity P-wave (km/s) = 6.60399 7.18691 6.90161
#
# Compressibility (1/GPa) = 0.02004055
#
# Stress axis : x y z
#
# Youngs Moduli (GPa) = 98.65787 50.89704 87.09963
#
# Poissons Ratio (x) = 0.18801 0.17118
# Poissons Ratio (y) = 0.36443 0.43139
# Poissons Ratio (z) = 0.19390 0.25208
#
# Static dielectric constant tensor:
#      x y z
#    x 3.826390 0.000070 0.115690 
#    y 0.000070 2.772000 0.000110 
#    z 0.115690 0.000110 4.709040 
# 
# 
# High freq. dielectric constant tensor:
#      x y z
#    x 1.837700 0.000000 0.012890 
#    y 0.000000 1.791730 0.000000 
#    z 0.012890 0.000000 1.836780 
# 
# From -- ./inp_files/292456.got.cif
#   From: 2010.06.25/outbox.cif.g09.slc.cpg/sg12_147_cif.got.tgz:292456.got - 2010.06.28 00:19:55.
