data_PCOD8101653
_publ_section_title
;
Structure prediction by ZEFSAII (Michael W. Deem and Ramdas Pophale) SiO2 
 PCOD8101653
Probable space group: C 2/M
;
_chemical_formula_sum "Si O2"
_cell_formula_units_Z 64
_cell_length_a 17.859524
_cell_length_b 9.034475
_cell_length_c 20.555160
_cell_angle_alpha 90.000000
_cell_angle_beta 89.792514
_cell_angle_gamma 90.000000
_cell_volume 3316.582571
_symmetry_space_group_name_H-M "C 2/M"
_symmetry_group_IT_number 12
_symmetry_cell_setting 'monoclinic'
loop_
_space_group_symop_operation_xyz
x,y,z
-x,y,-z
-x,-y,-z
x,-y,z
1/2+x,1/2+y,z
1/2-x,1/2+y,-z
1/2-x,1/2-y,-z
1/2+x,1/2-y,z
loop_
_atom_site_type_symbol
_atom_site_label
_atom_site_fract_x
_atom_site_fract_y
_atom_site_fract_z
Si Si1 0.413657 0.171016 0.484611
Si Si2 0.830766 0.326766 0.864773
Si Si3 0.584621 0.174772 0.751453
Si Si4 0.844361 0.831104 0.132840
Si Si5 0.339800 0.675371 0.367076
Si Si6 0.914657 0.675788 0.737078
Si Si7 0.827824 0.170715 0.989876
Si Si8 0.670707 0.175575 0.388232
O O1 0.500000 0.191668 0.500000
O O2 0.396444 0.265625 0.421017
O O3 0.365361 0.234809 0.544843
O O4 0.394493 0.000000 0.470379
O O5 0.844513 0.500000 0.873752
O O6 0.742995 0.289386 0.859418
O O7 0.871938 0.263612 0.800819
O O8 0.867916 0.246219 0.927618
O O9 0.606277 0.220873 0.824317
O O10 0.640448 0.256359 0.702424
O O11 0.500354 0.228375 0.737365
O O12 0.592646 0.000000 0.742986
O O13 0.856631 0.000000 0.155956
O O14 0.872549 0.811868 0.057914
O O15 0.345445 0.500000 0.362312
O O16 0.256268 0.728203 0.385201
O O17 0.909264 0.500000 0.736653
O O18 0.874716 0.741899 0.673012
O O19 0.813444 0.000000 0.974094
O O20 0.750000 0.250000 0.000000
O O21 0.663948 0.000000 0.386581
#
# Coordination Sequence:
#
# PCOD8101653 Si02
#       8
#     8   8   8   8   8   8   8   8
#     4  10  20  36  59  83 108 140 176 214 255 303
#     4   9  17  32  55  78 102 135 175 218 262 311
#     4  11  22  35  54  78 104 137 177 219 260 309
#     4   9  18  33  53  76 103 136 171 212 264 314
#     4  11  22  36  56  80 108 140 172 213 263 311
#     4   9  18  34  54  76 102 135 176 218 262 310
#     4   9  17  30  50  76 105 137 174 216 262 311
#     4   9  18  34  56  79 104 137 175 214 258 307
#
# _framework density 19.296970000000002
#
# number of rings (size 3 to 8) (size 9 to 14) (size 15 to 20)
#    0.000    2.375    0.000    3.750    0.000    6.750 
#    0.000    2.500    0.000    9.000    0.000    0.000 
#    0.000    0.000    0.000    0.000    0.000    0.000 
#
# Total GULP energy -396793.218919 kJ/mol
# GULP energy per Si atom -12399.788091 kJ/mol
# Density = 1.925305 g / cm^3
# Si number density = 19.296970 Si / 1000 Ang^3
#
#
#
# Elastic Constant Matrix: (Units=GPa)
#
#
# Indices 1 2 3 4 5 6 
#
# 1 66.0661 26.4486 22.6777 0.0000 9.6687 0.0000
# 2 26.4486 59.0201 33.7153 0.0000 10.6086 0.0000
# 3 22.6777 33.7153 112.8822 0.0000 12.3262 0.0000
# 4 0.0000 0.0000 0.0000 34.3242 0.0000 1.3150
# 5 9.6687 10.6086 12.3262 0.0000 25.0435 0.0000
# 6 0.0000 0.0000 0.0000 1.3150 0.0000 21.6472
#
#
#
# Elastic Compliance Matrix: (Units=1/GPa)
#
#
# Indices 1 2 3 4 5 6 
#
# 1 0.018959 -0.007100 -0.001287 0.000000 -0.003679 0.000000
# 2 -0.007100 0.023969 -0.005203 0.000000 -0.004852 0.000000
# 3 -0.001287 -0.005203 0.010966 0.000000 -0.002696 0.000000
# 4 0.000000 0.000000 0.000000 0.029202 0.000000 -0.001774
# 5 -0.003679 -0.004852 -0.002696 0.000000 0.044733 0.000000
# 6 0.000000 0.000000 0.000000 -0.001774 0.000000 0.046303
#
#
# Mechanical properties :
#
#
# Convention : Reuss Voigt Hill
#
# Bulk Modulus (GPa) = 37.43198 44.85020 41.14109
# Shear Modulus (GPa) = 23.78516 26.54479 25.16497
#
# Velocity S-wave (km/s) = 3.51463 3.71292 3.61514
# Velocity P-wave (km/s) = 5.99250 6.45551 6.22831
#
# Compressibility (1/GPa) = 0.02671513
#
# Stress axis : x y z
#
# Youngs Moduli (GPa) = 52.74646 41.72007 91.19351
#
# Poissons Ratio (x) = 0.29620 0.11732
# Poissons Ratio (y) = 0.37449 0.47448
# Poissons Ratio (z) = 0.06786 0.21707
#
# Static dielectric constant tensor:
#      x y z
#    x 3.412640 0.000000 -0.067330 
#    y 0.000000 3.308390 0.000000 
#    z -0.067330 0.000000 3.924300 
# 
# 
# High freq. dielectric constant tensor:
#      x y z
#    x 1.735650 0.000000 -0.001430 
#    y 0.000000 1.724780 0.000000 
#    z -0.001430 0.000000 1.772730 
# 
# From -- ./inp_files/314181.got.cif
#   From: 2010.06.25/outbox.cif.g09.slc.cpg/sg12_158_cif.got.tgz:314181.got - 2010.06.28 00:19:55.
