data_PCOD8101381
_publ_section_title
;
Structure prediction by ZEFSAII (Michael W. Deem and Ramdas Pophale) SiO2 
 PCOD8101381
Probable space group: C 2/M
;
_chemical_formula_sum "Si O2"
_cell_formula_units_Z 64
_cell_length_a 19.126731
_cell_length_b 9.010476
_cell_length_c 19.437686
_cell_angle_alpha 90.000000
_cell_angle_beta 98.412387
_cell_angle_gamma 90.000000
_cell_volume 3313.866697
_symmetry_space_group_name_H-M "C 2/M"
_symmetry_group_IT_number 12
_symmetry_cell_setting 'monoclinic'
loop_
_space_group_symop_operation_xyz
x,y,z
-x,y,-z
-x,-y,-z
x,-y,z
1/2+x,1/2+y,z
1/2-x,1/2+y,-z
1/2-x,1/2-y,-z
1/2+x,1/2-y,z
loop_
_atom_site_type_symbol
_atom_site_label
_atom_site_fract_x
_atom_site_fract_y
_atom_site_fract_z
Si Si1 0.104369 0.170879 0.190047
Si Si2 0.075070 0.673154 0.527762
Si Si3 0.304798 0.171358 0.555549
Si Si4 0.946529 0.175342 0.208816
Si Si5 0.184441 0.829484 0.068320
Si Si6 0.369178 0.822922 0.318280
Si Si7 0.673670 0.325316 0.912494
Si Si8 0.278461 0.175898 0.704752
O O1 0.118982 0.193691 0.110818
O O2 0.158384 0.275516 0.237397
O O3 0.024646 0.219949 0.194868
O O4 0.117160 0.000000 0.213249
O O5 0.064461 0.500000 0.540342
O O6 0.118838 0.704632 0.465122
O O7 0.111819 0.736606 0.602164
O O8 0.000000 0.749458 0.500000
O O9 0.250000 0.250000 0.500000
O O10 0.300791 0.231760 0.632172
O O11 0.285760 0.000000 0.551222
O O12 0.930107 0.263753 0.276388
O O13 0.891992 0.230142 0.142462
O O14 0.940298 0.000000 0.221364
O O15 0.253301 0.742361 0.105437
O O16 0.207303 0.000000 0.067601
O O17 0.160645 0.773037 0.989421
O O18 0.294603 0.753611 0.284230
O O19 0.364165 0.000000 0.313678
O O20 0.680595 0.500000 0.907664
O O21 0.268357 0.000000 0.708093
#
# Coordination Sequence:
#
# PCOD8101381 Si02
#       8
#     8   8   8   8   8   8   8   8
#     4  10  22  38  56  81 114 149 185 229 276 327
#     4   9  19  35  56  80 107 139 178 224 272 324
#     4  10  20  36  58  82 108 139 180 228 275 327
#     4  10  22  38  55  80 116 149 181 228 281 328
#     4   9  18  34  57  83 108 141 188 227 265 323
#     4  11  22  37  60  82 108 148 189 228 274 332
#     4   9  18  34  57  82 109 144 182 225 274 322
#     4  11  23  37  58  83 112 146 186 233 277 328
#
# _framework density 19.312785999999999
#
# number of rings (size 3 to 8) (size 9 to 14) (size 15 to 20)
#    0.000    2.125    1.250    1.500    1.750    4.500 
#    0.000    2.500    0.000    1.875    0.000    5.250 
#    0.000    0.000    0.000    0.000    0.000    0.000 
#
# Total GULP energy -396812.236605 kJ/mol
# GULP energy per Si atom -12400.382394 kJ/mol
# Density = 1.926883 g / cm^3
# Si number density = 19.312786 Si / 1000 Ang^3
#
#
#
# Elastic Constant Matrix: (Units=GPa)
#
#
# Indices 1 2 3 4 5 6 
#
# 1 121.4389 31.4911 41.2605 0.0000 -7.8427 0.0000
# 2 31.4911 38.1539 23.3766 0.0000 -5.9405 0.0000
# 3 41.2605 23.3766 86.8765 0.0000 -11.6175 0.0000
# 4 0.0000 0.0000 0.0000 26.1017 0.0000 -2.6919
# 5 -7.8427 -5.9405 -11.6175 0.0000 36.1843 0.0000
# 6 0.0000 0.0000 0.0000 -2.6919 0.0000 26.5372
#
#
#
# Elastic Compliance Matrix: (Units=1/GPa)
#
#
# Indices 1 2 3 4 5 6 
#
# 1 0.011263 -0.007192 -0.003391 0.000000 0.000172 0.000000
# 2 -0.007192 0.036203 -0.005997 0.000000 0.002459 0.000000
# 3 -0.003391 -0.005997 0.015155 0.000000 0.003146 0.000000
# 4 0.000000 0.000000 0.000000 0.038717 0.000000 0.003927
# 5 0.000172 0.002459 0.003146 0.000000 0.029087 0.000000
# 6 0.000000 0.000000 0.000000 0.003927 0.000000 0.038081
#
#
# Mechanical properties :
#
#
# Convention : Reuss Voigt Hill
#
# Bulk Modulus (GPa) = 33.94226 48.74730 41.34478
# Shear Modulus (GPa) = 23.64226 27.78738 25.71482
#
# Velocity S-wave (km/s) = 3.50262 3.79728 3.65292
# Velocity P-wave (km/s) = 5.82846 6.67244 6.26468
#
# Compressibility (1/GPa) = 0.02946180
#
# Stress axis : x y z
#
# Youngs Moduli (GPa) = 88.78874 27.62237 65.98277
#
# Poissons Ratio (x) = 0.19865 0.22375
# Poissons Ratio (y) = 0.63853 0.39570
# Poissons Ratio (z) = 0.30108 0.16565
#
# Static dielectric constant tensor:
#      x y z
#    x 3.459430 0.000000 0.006220 
#    y 0.000000 3.279090 0.000000 
#    z 0.006220 0.000000 3.732630 
# 
# 
# High freq. dielectric constant tensor:
#      x y z
#    x 1.753830 0.000000 -0.007220 
#    y 0.000000 1.732130 0.000000 
#    z -0.007220 0.000000 1.764140 
# 
# From -- ./inp_files/314146.got.cif
#   From: 2010.06.25/outbox.cif.g09.slc.cpg/sg12_158_cif.got.tgz:314146.got - 2010.06.28 00:19:55.
