data_PCOD8101570
_publ_section_title
;
Structure prediction by ZEFSAII (Michael W. Deem and Ramdas Pophale) SiO2 
 PCOD8101570
Probable space group: C 2/M
;
_chemical_formula_sum "Si O2"
_cell_formula_units_Z 64
_cell_length_a 15.434085
_cell_length_b 8.976115
_cell_length_c 25.106423
_cell_angle_alpha 90.000000
_cell_angle_beta 72.136533
_cell_angle_gamma 90.000000
_cell_volume 3310.513479
_symmetry_space_group_name_H-M "C 2/M"
_symmetry_group_IT_number 12
_symmetry_cell_setting 'monoclinic'
loop_
_space_group_symop_operation_xyz
x,y,z
-x,y,-z
-x,-y,-z
x,-y,z
1/2+x,1/2+y,z
1/2-x,1/2+y,-z
1/2-x,1/2-y,-z
1/2+x,1/2-y,z
loop_
_atom_site_type_symbol
_atom_site_label
_atom_site_fract_x
_atom_site_fract_y
_atom_site_fract_z
Si Si1 0.034199 0.676970 0.937261
Si Si2 0.206534 0.669623 0.758139
Si Si3 0.583643 0.175139 0.640573
Si Si4 0.030162 0.824244 0.756191
Si Si5 0.285649 0.670652 0.632301
Si Si6 0.533177 0.824069 0.437289
Si Si7 0.411105 0.823729 0.863464
Si Si8 0.264280 0.827797 0.127774
O O1 0.031669 0.500000 0.938559
O O2 0.136153 0.732529 0.906541
O O3 0.968473 0.735352 0.903010
O O4 0.000000 0.742725 0.000000
O O5 0.168320 0.500000 0.760848
O O6 0.122491 0.781304 0.769187
O O7 0.278431 0.699075 0.697270
O O8 0.253979 0.694630 0.805767
O O9 0.529758 0.262233 0.696448
O O10 0.690717 0.216738 0.621740
O O11 0.540055 0.227386 0.593088
O O12 0.571160 0.000000 0.653157
O O13 0.945903 0.753360 0.803184
O O14 0.018133 0.000000 0.756900
O O15 0.309039 0.500000 0.615686
O O16 0.365638 0.769543 0.593941
O O17 0.500000 0.758029 0.500000
O O18 0.538115 0.000000 0.438832
O O19 0.307211 0.771695 0.891362
O O20 0.417228 0.000000 0.856396
O O21 0.252896 0.000000 0.113683
#
# Coordination Sequence:
#
# PCOD8101570 Si02
#       8
#     8   8   8   8   8   8   8   8
#     4   9  19  38  62  83 112 157 199 234 282 343
#     4   9  18  36  58  82 117 155 185 228 293 348
#     4   9  20  39  58  80 114 154 186 226 290 344
#     4  11  21  34  57  87 117 148 192 239 284 341
#     4   9  19  35  56  81 112 148 188 227 278 343
#     4  10  22  39  58  82 113 148 190 235 280 335
#     4  11  22  37  57  85 118 153 192 236 290 342
#     4  10  20  36  58  86 118 153 191 234 285 342
#
# _framework density 19.332348
#
# number of rings (size 3 to 8) (size 9 to 14) (size 15 to 20)
#    0.000    2.250    1.250    2.250    1.750    4.250 
#    0.000    0.000    0.000    2.625    0.000    0.000 
#    0.000    0.000    0.000    0.000    0.000    0.000 
#
# Total GULP energy -396840.004255 kJ/mol
# GULP energy per Si atom -12401.250133 kJ/mol
# Density = 1.928835 g / cm^3
# Si number density = 19.332348 Si / 1000 Ang^3
#
#
#
# Elastic Constant Matrix: (Units=GPa)
#
#
# Indices 1 2 3 4 5 6 
#
# 1 141.4244 39.3552 79.8786 0.0000 -2.1646 0.0000
# 2 39.3552 57.6551 38.3875 0.0000 2.4818 0.0000
# 3 79.8786 38.3875 138.2898 0.0000 -2.7437 0.0000
# 4 0.0000 0.0000 0.0000 14.8525 0.0000 -6.9006
# 5 -2.1646 2.4818 -2.7437 0.0000 22.3650 0.0000
# 6 0.0000 0.0000 0.0000 -6.9006 0.0000 32.8691
#
#
#
# Elastic Compliance Matrix: (Units=1/GPa)
#
#
# Indices 1 2 3 4 5 6 
#
# 1 0.011253 -0.004176 -0.005323 0.000000 0.000900 0.000000
# 2 -0.004176 0.023042 -0.004053 0.000000 -0.003458 0.000000
# 3 -0.005323 -0.004053 0.011457 0.000000 0.001340 0.000000
# 4 0.000000 0.000000 0.000000 0.074606 0.000000 0.015663
# 5 0.000900 -0.003458 0.001340 0.000000 0.045348 0.000000
# 6 0.000000 0.000000 0.000000 0.015663 0.000000 0.033712
#
#
# Mechanical properties :
#
#
# Convention : Reuss Voigt Hill
#
# Bulk Modulus (GPa) = 53.62092 72.51243 63.06668
# Shear Modulus (GPa) = 21.48331 26.00052 23.74191
#
# Velocity S-wave (km/s) = 3.33718 3.67130 3.50822
# Velocity P-wave (km/s) = 6.53036 7.45393 7.00737
#
# Compressibility (1/GPa) = 0.01864944
#
# Stress axis : x y z
#
# Youngs Moduli (GPa) = 88.86266 43.39853 87.27944
#
# Poissons Ratio (x) = 0.18123 0.46459
# Poissons Ratio (y) = 0.37109 0.35372
# Poissons Ratio (z) = 0.47302 0.17588
#
# Static dielectric constant tensor:
#      x y z
#    x 3.549400 0.000000 0.092960 
#    y 0.000000 3.258090 0.000000 
#    z 0.092960 0.000000 3.715930 
# 
# 
# High freq. dielectric constant tensor:
#      x y z
#    x 1.756730 0.000000 0.000900 
#    y 0.000000 1.729560 0.000000 
#    z 0.000900 0.000000 1.752030 
# 
# From -- ./inp_files/359746.got.cif
#   From: 2010.06.25/outbox.cif.g09.slc.cpg/sg12_180_cif.got.tgz:359746.got - 2010.06.28 00:19:55.
