data_PCOD8101517
_publ_section_title
;
Structure prediction by ZEFSAII (Michael W. Deem and Ramdas Pophale) SiO2 
 PCOD8101517
Probable space group: C 2/M
;
_chemical_formula_sum "Si O2"
_cell_formula_units_Z 56
_cell_length_a 13.222995
_cell_length_b 17.709554
_cell_length_c 13.265696
_cell_angle_alpha 90.000000
_cell_angle_beta 119.147911
_cell_angle_gamma 90.000000
_cell_volume 2713.085012
_symmetry_space_group_name_H-M "C 2/M"
_symmetry_group_IT_number 12
_symmetry_cell_setting 'monoclinic'
loop_
_space_group_symop_operation_xyz
x,y,z
-x,y,-z
-x,-y,-z
x,-y,z
1/2+x,1/2+y,z
1/2-x,1/2+y,-z
1/2-x,1/2-y,-z
1/2+x,1/2-y,z
loop_
_atom_site_type_symbol
_atom_site_label
_atom_site_fract_x
_atom_site_fract_y
_atom_site_fract_z
Si Si1 0.783301 0.814240 0.854870
Si Si2 0.607891 0.911353 0.318824
Si Si3 0.417510 0.857338 0.374276
Si Si4 0.944731 0.089291 0.801909
Si Si5 0.792171 0.086070 0.043638
Si Si6 0.122317 0.350151 0.107342
Si Si7 0.761203 0.084317 0.565771
O O1 0.673497 0.801803 0.726414
O O2 0.885264 0.869032 0.866151
O O3 0.838337 0.733608 0.902600
O O4 0.741331 0.855077 0.937213
O O5 0.489207 0.899928 0.322715
O O6 0.611821 0.860845 0.221630
O O7 0.713240 0.878217 0.439587
O O8 0.619578 0.000000 0.298564
O O9 0.500000 0.816921 0.500000
O O10 0.338615 0.916947 0.396831
O O11 0.880135 0.119784 0.668259
O O12 0.078567 0.110597 0.861633
O O13 0.924320 0.000000 0.805611
O O14 0.714521 0.091361 0.106057
O O15 0.789498 0.000000 0.001682
O O16 0.000000 0.368995 0.000000
O O17 0.789326 0.000000 0.548053
#
# Coordination Sequence:
#
# PCOD8101517 Si02
#       7
#     8   8   8   8   8   8   8
#     4  11  22  38  59  83 112 147 184 229 285 334
#     4  10  20  36  58  84 115 151 188 226 275 331
#     4   9  18  34  58  88 114 142 185 234 277 321
#     4   9  18  35  60  87 110 137 184 240 282 320
#     4  11  23  39  60  84 110 145 191 236 277 327
#     4  12  26  40  54  79 116 153 186 224 277 342
#     4   8  15  31  57  87 115 143 182 234 280 318
#
# _framework density 20.640709999999999
#
# number of rings (size 3 to 8) (size 9 to 14) (size 15 to 20)
#    0.000    2.000    0.000    3.857    0.000    8.000 
#    0.000    8.571    0.000    3.429    0.000    0.000 
#    0.000    0.000    0.000    0.000    0.000    0.000 
#
# Total GULP energy -346975.927399 kJ/mol
# GULP energy per Si atom -12391.997407 kJ/mol
# Density = 2.059373 g / cm^3
# Si number density = 20.640710 Si / 1000 Ang^3
#
#
#
# Elastic Constant Matrix: (Units=GPa)
#
#
# Indices 1 2 3 4 5 6 
#
# 1 94.0603 20.6426 62.0430 0.0000 10.6789 0.0000
# 2 20.6426 54.1681 23.8437 0.0000 -2.8999 0.0000
# 3 62.0430 23.8437 138.6041 0.0000 2.4556 0.0000
# 4 0.0000 0.0000 0.0000 11.6838 0.0000 7.5697
# 5 10.6789 -2.8999 2.4556 0.0000 36.3662 0.0000
# 6 0.0000 0.0000 0.0000 7.5697 0.0000 15.8083
#
#
#
# Elastic Compliance Matrix: (Units=1/GPa)
#
#
# Indices 1 2 3 4 5 6 
#
# 1 0.016287 -0.003550 -0.006598 0.000000 -0.004620 0.000000
# 2 -0.003550 0.020869 -0.002051 0.000000 0.002845 0.000000
# 3 -0.006598 -0.002051 0.010502 0.000000 0.001065 0.000000
# 4 0.000000 0.000000 0.000000 0.124084 0.000000 -0.059417
# 5 -0.004620 0.002845 0.001065 0.000000 0.029010 0.000000
# 6 0.000000 0.000000 0.000000 -0.059417 0.000000 0.091709
#
#
# Mechanical properties :
#
#
# Convention : Reuss Voigt Hill
#
# Bulk Modulus (GPa) = 42.99237 55.54348 49.26792
# Shear Modulus (GPa) = 15.40291 24.79188 20.09739
#
# Velocity S-wave (km/s) = 2.73470 3.46947 3.12377
# Velocity P-wave (km/s) = 5.55388 6.55879 6.07714
#
# Compressibility (1/GPa) = 0.02325994
#
# Stress axis : x y z
#
# Youngs Moduli (GPa) = 61.39778 47.91763 95.21695
#
# Poissons Ratio (x) = 0.17010 0.62825
# Poissons Ratio (y) = 0.21795 0.19534
# Poissons Ratio (z) = 0.40511 0.09830
#
# Static dielectric constant tensor:
#      x y z
#    x 3.705800 0.000000 0.240300 
#    y 0.000000 3.305520 0.000000 
#    z 0.240300 0.000000 4.154660 
# 
# 
# High freq. dielectric constant tensor:
#      x y z
#    x 1.801740 0.000000 0.014400 
#    y 0.000000 1.771620 0.000000 
#    z 0.014400 0.000000 1.825380 
# 
# From -- ./inp_files/133953.got.cif
#   From: 2010.06.25/outbox.cif.g09.slc.cpg/sg12_67_cif.got.tgz:133953.got - 2010.06.28 00:19:55.
