data_PCOD8101749
_publ_section_title
;
Structure prediction by ZEFSAII (Michael W. Deem and Ramdas Pophale) SiO2 
 PCOD8101749
Probable space group: C 2/M
;
_chemical_formula_sum "Si O2"
_cell_formula_units_Z 56
_cell_length_a 27.204439
_cell_length_b 8.683481
_cell_length_c 13.680194
_cell_angle_alpha 90.000000
_cell_angle_beta 59.834031
_cell_angle_gamma 90.000000
_cell_volume 2794.008793
_symmetry_space_group_name_H-M "C 2/M"
_symmetry_group_IT_number 12
_symmetry_cell_setting 'monoclinic'
loop_
_space_group_symop_operation_xyz
x,y,z
-x,y,-z
-x,-y,-z
x,-y,z
1/2+x,1/2+y,z
1/2-x,1/2+y,-z
1/2-x,1/2-y,-z
1/2+x,1/2-y,z
loop_
_atom_site_type_symbol
_atom_site_label
_atom_site_fract_x
_atom_site_fract_y
_atom_site_fract_z
Si Si1 0.918128 0.683024 0.332624
Si Si2 0.935190 0.677889 0.535896
Si Si3 0.842921 0.179665 0.761450
Si Si4 0.014256 0.317766 0.092825
Si Si5 0.703211 0.818908 0.617213
Si Si6 0.729409 0.678863 0.796850
Si Si7 0.630580 0.320952 0.044875
O O1 0.919901 0.500000 0.326726
O O2 0.926507 0.739742 0.434826
O O3 0.858357 0.746969 0.351966
O O4 0.968775 0.751469 0.215177
O O5 0.916164 0.500000 0.565173
O O6 0.898609 0.784353 0.643253
O O7 0.000000 0.699435 0.500000
O O8 0.791534 0.280511 0.772763
O O9 0.854689 0.230478 0.860440
O O10 0.827579 0.000000 0.769525
O O11 0.009425 0.500000 0.095871
O O12 0.077342 0.274108 0.060301
O O13 0.000000 0.249890 0.000000
O O14 0.750000 0.750000 0.500000
O O15 0.715300 0.777595 0.716284
O O16 0.704530 0.000000 0.602820
O O17 0.727425 0.500000 0.770816
O O18 0.684456 0.721747 0.925084
O O19 0.615272 0.500000 0.054716
#
# Coordination Sequence:
#
# PCOD8101749 Si02
#       7
#     8   8   8   8   8   8   8
#     4   9  19  35  55  82 115 149 187 231 279 337
#     4  10  20  36  59  85 115 153 192 231 283 345
#     4  11  23  39  59  85 115 148 193 244 293 345
#     4  10  20  36  60  87 113 147 192 236 280 337
#     4  11  22  38  60  86 118 154 194 239 286 338
#     4  11  23  40  60  83 114 151 192 237 291 351
#     4  10  23  40  58  84 117 151 188 237 293 346
#
# _framework density 20.042884999999998
#
# number of rings (size 3 to 8) (size 9 to 14) (size 15 to 20)
#    0.000    1.714    0.000    4.286    0.000    6.286 
#    0.000    2.857    0.000    0.000    0.000    0.000 
#    0.000    0.000    0.000    0.000    0.000    0.000 
#
# Total GULP energy -347348.916220 kJ/mol
# GULP energy per Si atom -12405.318436 kJ/mol
# Density = 1.999727 g / cm^3
# Si number density = 20.042885 Si / 1000 Ang^3
#
#
#
# Elastic Constant Matrix: (Units=GPa)
#
#
# Indices 1 2 3 4 5 6 
#
# 1 129.6561 19.3300 55.2783 0.0000 7.0138 0.0000
# 2 19.3300 32.0334 23.2181 0.0000 -2.1119 0.0000
# 3 55.2783 23.2181 156.8643 0.0000 7.7962 0.0000
# 4 0.0000 0.0000 0.0000 18.3867 0.0000 -12.1648
# 5 7.0138 -2.1119 7.7962 0.0000 42.9144 0.0000
# 6 0.0000 0.0000 0.0000 -12.1648 0.0000 22.8847
#
#
#
# Elastic Compliance Matrix: (Units=1/GPa)
#
#
# Indices 1 2 3 4 5 6 
#
# 1 0.009515 -0.003852 -0.002721 0.000000 -0.001250 0.000000
# 2 -0.003852 0.036838 -0.004255 0.000000 0.003215 0.000000
# 3 -0.002721 -0.004255 0.008024 0.000000 -0.001222 0.000000
# 4 0.000000 0.000000 0.000000 0.083891 0.000000 0.044594
# 5 -0.001250 0.003215 -0.001222 0.000000 0.023887 0.000000
# 6 0.000000 0.000000 0.000000 0.044594 0.000000 0.067402
#
#
# Mechanical properties :
#
#
# Convention : Reuss Voigt Hill
#
# Bulk Modulus (GPa) = 30.56075 57.13407 43.84741
# Shear Modulus (GPa) = 19.07533 31.55230 25.31382
#
# Velocity S-wave (km/s) = 3.08835 3.97197 3.55770
# Velocity P-wave (km/s) = 5.29131 7.04296 6.22901
#
# Compressibility (1/GPa) = 0.03272171
#
# Stress axis : x y z
#
# Youngs Moduli (GPa) = 105.10238 27.14602 124.62280
#
# Poissons Ratio (x) = 0.10456 0.33905
# Poissons Ratio (y) = 0.40484 0.53026
# Poissons Ratio (z) = 0.28594 0.11550
#
# Static dielectric constant tensor:
#      x y z
#    x 3.790460 0.000000 0.061970 
#    y 0.000000 3.566530 0.000000 
#    z 0.061970 0.000000 3.969410 
# 
# 
# High freq. dielectric constant tensor:
#      x y z
#    x 1.799120 0.000000 0.000660 
#    y 0.000000 1.762250 0.000000 
#    z 0.000660 0.000000 1.803480 
# 
# From -- ./inp_files/180639.got.cif
#   From: 2010.06.25/outbox.cif.g09.slc.cpg/sg12_91_cif.got.tgz:180639.got - 2010.06.28 00:19:55.
