data_PCOD8101105
_publ_section_title
;
Structure prediction by ZEFSAII (Michael W. Deem and Ramdas Pophale) SiO2 
 PCOD8101105
Probable space group: C 2/M
;
_chemical_formula_sum "Si O2"
_cell_formula_units_Z 56
_cell_length_a 18.857433
_cell_length_b 8.896436
_cell_length_c 26.154459
_cell_angle_alpha 90.000000
_cell_angle_beta 40.404668
_cell_angle_gamma 90.000000
_cell_volume 2844.076682
_symmetry_space_group_name_H-M "C 2/M"
_symmetry_group_IT_number 12
_symmetry_cell_setting 'monoclinic'
loop_
_space_group_symop_operation_xyz
x,y,z
-x,y,-z
-x,-y,-z
x,-y,z
1/2+x,1/2+y,z
1/2-x,1/2+y,-z
1/2-x,1/2-y,-z
1/2+x,1/2-y,z
loop_
_atom_site_type_symbol
_atom_site_label
_atom_site_fract_x
_atom_site_fract_y
_atom_site_fract_z
Si Si1 0.063638 0.669468 0.517380
Si Si2 0.393228 0.823582 0.090098
Si Si3 0.768442 0.675765 0.435018
Si Si4 0.342967 0.321838 0.223487
Si Si5 0.041918 0.675231 0.744941
Si Si6 0.160867 0.167698 0.185769
Si Si7 0.121307 0.169187 0.326744
O O1 0.088879 0.500000 0.521313
O O2 0.176324 0.758692 0.447752
O O3 0.000000 0.674622 0.500000
O O4 0.991950 0.747417 0.600294
O O5 0.395217 0.731925 0.141562
O O6 0.288166 0.781899 0.112392
O O7 0.389163 0.000000 0.106337
O O8 0.500000 0.778558 0.000000
O O9 0.752246 0.500000 0.450328
O O10 0.750000 0.750000 0.500000
O O11 0.885030 0.714472 0.345201
O O12 0.334300 0.500000 0.228594
O O13 0.419350 0.268646 0.227601
O O14 0.221892 0.255369 0.297939
O O15 0.049117 0.500000 0.754354
O O16 0.916177 0.718246 0.802684
O O17 0.131611 0.168915 0.260922
O O18 0.144521 0.000000 0.172172
O O19 0.118763 0.000000 0.350200
#
# Coordination Sequence:
#
# PCOD8101105 Si02
#       7
#     8   8   8   8   8   8   8
#     4  11  23  36  52  77 108 142 184 236 289 336
#     4   9  19  39  65  90 118 150 183 223 274 334
#     4  11  24  39  56  78 108 149 194 241 290 341
#     4  11  22  36  58  86 116 149 187 233 281 331
#     4  11  23  38  56  80 112 150 192 234 279 335
#     4   9  19  35  57  84 110 140 179 223 273 328
#     4  10  20  36  57  79 107 144 187 232 279 336
#
# _framework density 19.690045000000001
#
# number of rings (size 3 to 8) (size 9 to 14) (size 15 to 20)
#    0.000    1.714    0.000    5.571    0.000   11.143 
#    0.000    0.714    0.000    0.000    0.000    0.000 
#    0.000    0.000    0.000    0.000    0.000    0.000 
#
# Total GULP energy -347267.077009 kJ/mol
# GULP energy per Si atom -12402.395607 kJ/mol
# Density = 1.964523 g / cm^3
# Si number density = 19.690045 Si / 1000 Ang^3
#
#
#
# Elastic Constant Matrix: (Units=GPa)
#
#
# Indices 1 2 3 4 5 6 
#
# 1 99.8276 50.8705 30.8890 0.0000 -15.7342 -0.0002
# 2 50.8705 115.6843 41.5360 0.0002 -6.1088 -0.0005
# 3 30.8890 41.5360 87.6098 0.0000 -20.5699 0.0000
# 4 0.0000 0.0002 0.0000 25.8154 0.0000 -2.7264
# 5 -15.7342 -6.1088 -20.5699 0.0000 26.6098 0.0000
# 6 -0.0002 -0.0005 0.0000 -2.7264 0.0000 36.4317
#
#
#
# Elastic Compliance Matrix: (Units=1/GPa)
#
#
# Indices 1 2 3 4 5 6 
#
# 1 0.014129 -0.005576 -0.000827 0.000000 0.006435 0.000000
# 2 -0.005576 0.012685 -0.005056 0.000000 -0.004294 0.000000
# 3 -0.000827 -0.005056 0.016757 0.000000 0.011304 0.000000
# 4 0.000000 0.000000 0.000000 0.039045 0.000000 0.002922
# 5 0.006435 -0.004294 0.011304 0.000000 0.049137 0.000000
# 6 0.000000 0.000000 0.000000 0.002922 0.000000 0.027667
#
#
# Mechanical properties :
#
#
# Convention : Reuss Voigt Hill
#
# Bulk Modulus (GPa) = 48.42058 61.07921 54.74990
# Shear Modulus (GPa) = 26.42386 29.75981 28.09183
#
# Velocity S-wave (km/s) = 3.66729 3.89191 3.78127
# Velocity P-wave (km/s) = 6.52509 7.16126 6.85056
#
# Compressibility (1/GPa) = 0.02065237
#
# Stress axis : x y z
#
# Youngs Moduli (GPa) = 70.77660 78.83381 59.67712
#
# Poissons Ratio (x) = 0.43960 0.04935
# Poissons Ratio (y) = 0.39467 0.30173
# Poissons Ratio (z) = 0.05853 0.39858
#
# Static dielectric constant tensor:
#      x y z
#    x 3.684580 0.000000 -0.376660 
#    y 0.000000 3.761380 0.000000 
#    z -0.376660 0.000000 3.825940 
# 
# 
# High freq. dielectric constant tensor:
#      x y z
#    x 1.770520 0.000000 -0.012030 
#    y 0.000000 1.775130 0.000000 
#    z -0.012030 0.000000 1.756200 
# 
# From -- ./inp_files/362972.got.cif
#   From: 2010.06.25/outbox.cif.g09.slc.cpg/sg12_182_cif.got.tgz:362972.got - 2010.06.28 00:19:55.
