data_PCOD8101965
_publ_section_title
;
Structure prediction by ZEFSAII (Michael W. Deem and Ramdas Pophale) SiO2 
 PCOD8101965
Probable space group: C 2/M
;
_chemical_formula_sum "Si O2"
_cell_formula_units_Z 56
_cell_length_a 17.987789
_cell_length_b 8.729432
_cell_length_c 19.676738
_cell_angle_alpha 90.000000
_cell_angle_beta 63.273815
_cell_angle_gamma 90.000000
_cell_volume 2759.618399
_symmetry_space_group_name_H-M "C 2/M"
_symmetry_group_IT_number 12
_symmetry_cell_setting 'monoclinic'
loop_
_space_group_symop_operation_xyz
x,y,z
-x,y,-z
-x,-y,-z
x,-y,z
1/2+x,1/2+y,z
1/2-x,1/2+y,-z
1/2-x,1/2-y,-z
1/2+x,1/2-y,z
loop_
_atom_site_type_symbol
_atom_site_label
_atom_site_fract_x
_atom_site_fract_y
_atom_site_fract_z
Si Si1 0.200122 0.322664 0.267155
Si Si2 0.987752 0.175900 0.854630
Si Si3 0.664831 0.179558 0.009638
Si Si4 0.967007 0.824374 0.707487
Si Si5 0.878424 0.677096 0.418241
Si Si6 0.728706 0.176182 0.409829
Si Si7 0.357254 0.179594 0.135238
O O1 0.221283 0.500000 0.244453
O O2 0.112503 0.282395 0.269891
O O3 0.194657 0.287446 0.349360
O O4 0.269393 0.216275 0.205235
O O5 0.001375 0.200156 0.769124
O O6 0.071190 0.227429 0.856990
O O7 0.969663 0.000000 0.879873
O O8 0.909473 0.274313 0.910372
O O9 0.644259 0.234884 0.942044
O O10 0.676577 0.000000 0.006420
O O11 0.750000 0.250000 0.000000
O O12 0.038944 0.776155 0.625832
O O13 0.942012 0.000000 0.704259
O O14 0.901464 0.500000 0.399855
O O15 0.808806 0.719762 0.391303
O O16 0.845069 0.714934 0.507289
O O17 0.756728 0.000000 0.406267
O O18 0.376230 0.000000 0.133404
#
# Coordination Sequence:
#
# PCOD8101965 Si02
#       7
#     8   8   8   8   8   8   8
#     4  11  23  39  60  85 115 153 194 236 286 342
#     4  11  24  41  62  87 116 153 195 238 284 337
#     4  11  24  41  62  89 121 154 189 235 287 338
#     4  11  24  40  57  83 119 152 189 240 290 337
#     4  10  20  36  60  86 113 150 193 235 284 343
#     4   9  20  38  58  84 117 149 188 239 287 336
#     4  11  24  41  61  88 120 151 189 238 287 337
#
# _framework density 20.292660999999999
#
# number of rings (size 3 to 8) (size 9 to 14) (size 15 to 20)
#    0.000    1.429    0.000    4.714    0.000   15.429 
#    0.000    2.857    0.000    0.000    0.000    0.000 
#    0.000    0.000    0.000    0.000    0.000    0.000 
#
# Total GULP energy -347403.434502 kJ/mol
# GULP energy per Si atom -12407.265518 kJ/mol
# Density = 2.024647 g / cm^3
# Si number density = 20.292661 Si / 1000 Ang^3
#
#
#
# Elastic Constant Matrix: (Units=GPa)
#
#
# Indices 1 2 3 4 5 6 
#
# 1 80.4183 22.2552 21.3852 0.0000 -8.3017 -0.0001
# 2 22.2552 46.9615 28.0074 -0.0001 13.2300 -0.0004
# 3 21.3852 28.0074 85.2701 0.0000 -11.9122 0.0000
# 4 0.0000 -0.0001 0.0000 36.1359 0.0000 -4.4992
# 5 -8.3017 13.2300 -11.9122 0.0000 33.7061 0.0000
# 6 -0.0001 -0.0004 0.0000 -4.4992 0.0000 37.7050
#
#
#
# Elastic Compliance Matrix: (Units=1/GPa)
#
#
# Indices 1 2 3 4 5 6 
#
# 1 0.015937 -0.010075 0.000435 0.000000 0.008033 0.000000
# 2 -0.010075 0.041345 -0.014377 0.000000 -0.023791 0.000000
# 3 0.000435 -0.014377 0.018034 0.000000 0.012124 0.000000
# 4 0.000000 0.000000 0.000000 0.028091 0.000000 0.003352
# 5 0.008033 -0.023791 0.012124 0.000000 0.045270 0.000000
# 6 0.000000 0.000000 0.000000 0.003352 0.000000 0.026922
#
#
# Mechanical properties :
#
#
# Convention : Reuss Voigt Hill
#
# Bulk Modulus (GPa) = 36.65431 39.54951 38.10191
# Shear Modulus (GPa) = 21.48440 30.90954 26.19697
#
# Velocity S-wave (km/s) = 3.25734 3.90704 3.59689
# Velocity P-wave (km/s) = 5.67883 6.31547 6.00559
#
# Compressibility (1/GPa) = 0.02728192
#
# Stress axis : x y z
#
# Youngs Moduli (GPa) = 62.74762 24.18657 55.44974
#
# Poissons Ratio (x) = 0.24368 -0.02409
# Poissons Ratio (y) = 0.63217 0.79720
# Poissons Ratio (z) = -0.02726 0.34773
#
# Static dielectric constant tensor:
#      x y z
#    x 2.828450 0.000000 0.532600 
#    y 0.000000 3.749550 0.000000 
#    z 0.532600 0.000000 3.690850 
# 
# 
# High freq. dielectric constant tensor:
#      x y z
#    x 1.797350 0.000000 -0.000500 
#    y 0.000000 1.801920 0.000000 
#    z -0.000500 0.000000 1.805610 
# 
# From -- ./inp_files/275299.got.cif
#   From: 2010.06.25/outbox.cif.g09.slc.cpg/sg12_138_cif.got.tgz:275299.got - 2010.06.28 00:19:55.
