data_PCOD8101155
_publ_section_title
;
Structure prediction by ZEFSAII (Michael W. Deem and Ramdas Pophale) SiO2 
 PCOD8101155
Probable space group: C 2/M
;
_chemical_formula_sum "Si O2"
_cell_formula_units_Z 64
_cell_length_a 14.432030
_cell_length_b 9.087828
_cell_length_c 31.923605
_cell_angle_alpha 90.000000
_cell_angle_beta 130.829571
_cell_angle_gamma 90.000000
_cell_volume 3168.100252
_symmetry_space_group_name_H-M "C 2/M"
_symmetry_group_IT_number 12
_symmetry_cell_setting 'monoclinic'
loop_
_space_group_symop_operation_xyz
x,y,z
-x,y,-z
-x,-y,-z
x,-y,z
1/2+x,1/2+y,z
1/2-x,1/2+y,-z
1/2-x,1/2-y,-z
1/2+x,1/2-y,z
loop_
_atom_site_type_symbol
_atom_site_label
_atom_site_fract_x
_atom_site_fract_y
_atom_site_fract_z
Si Si1 0.296347 0.831556 0.953550
Si Si2 0.508148 0.833169 0.569569
Si Si3 0.190237 0.826724 0.676217
Si Si4 0.941268 0.170641 0.063727
Si Si5 0.151065 0.325202 0.747411
Si Si6 0.371625 0.171702 0.656280
Si Si7 0.312664 0.172859 0.861467
Si Si8 0.302399 0.165416 0.450138
O O1 0.162675 0.801275 0.932608
O O2 0.291113 0.790954 0.903579
O O3 0.336692 0.000000 0.972830
O O4 0.397256 0.730061 0.005631
O O5 0.556625 0.726339 0.620426
O O6 0.601747 0.827381 0.559094
O O7 0.374114 0.779509 0.513341
O O8 0.500237 0.000000 0.584853
O O9 0.221772 0.742782 0.728486
O O10 0.294947 0.779099 0.674381
O O11 0.187281 0.000000 0.683309
O O12 0.057592 0.261098 0.114444
O O13 0.975397 0.000000 0.069338
O O14 0.167634 0.500000 0.753098
O O15 0.205166 0.254937 0.805248
O O16 0.009833 0.275509 0.703590
O O17 0.315912 0.238007 0.596750
O O18 0.363233 0.000000 0.647646
O O19 0.309370 0.000000 0.850793
O O20 0.256513 0.000000 0.443585
#
# Coordination Sequence:
#
# PCOD8101155 Si02
#       8
#     8   8   8   8   8   8   8   8
#     4   9  20  38  59  86 120 153 184 221 269 322
#     4   8  14  27  48  77 108 138 172 215 269 328
#     4  10  20  36  57  81 107 139 179 225 276 327
#     4  10  20  36  60  90 120 150 185 223 267 320
#     4  11  24  41  57  77 107 144 186 229 272 324
#     4   9  20  37  56  78 107 140 177 225 278 326
#     4  11  23  39  58  81 112 149 187 229 273 318
#     4   8  14  26  49  78 106 136 174 217 267 328
#
# _framework density 20.201381000000001
#
# number of rings (size 3 to 8) (size 9 to 14) (size 15 to 20)
#    0.000    2.500    0.000    2.625    0.000    6.000 
#    0.000    5.625    0.000    0.000    0.000    0.000 
#    0.000    0.000    0.000    0.000    0.000    0.000 
#
# Total GULP energy -396821.283940 kJ/mol
# GULP energy per Si atom -12400.665123 kJ/mol
# Density = 2.015540 g / cm^3
# Si number density = 20.201381 Si / 1000 Ang^3
#
#
#
# Elastic Constant Matrix: (Units=GPa)
#
#
# Indices 1 2 3 4 5 6 
#
# 1 47.1764 24.5846 32.3030 0.0000 9.5867 0.0000
# 2 24.5846 76.7905 43.8499 0.0000 7.9916 0.0000
# 3 32.3030 43.8499 111.2014 0.0000 13.9061 0.0000
# 4 0.0000 0.0000 0.0000 43.2346 0.0000 2.7373
# 5 9.5867 7.9916 13.9061 0.0000 28.6107 0.0000
# 6 0.0000 0.0000 0.0000 2.7373 0.0000 22.8660
#
#
#
# Elastic Compliance Matrix: (Units=1/GPa)
#
#
# Indices 1 2 3 4 5 6 
#
# 1 0.029001 -0.005544 -0.005554 0.000000 -0.005469 0.000000
# 2 -0.005544 0.017933 -0.005395 0.000000 -0.000529 0.000000
# 3 -0.005554 -0.005395 0.013109 0.000000 -0.003004 0.000000
# 4 0.000000 0.000000 0.000000 0.023306 0.000000 -0.002790
# 5 -0.005469 -0.000529 -0.003004 0.000000 0.038392 0.000000
# 6 0.000000 0.000000 0.000000 -0.002790 0.000000 0.044067
#
#
# Mechanical properties :
#
#
# Convention : Reuss Voigt Hill
#
# Bulk Modulus (GPa) = 36.95928 48.51591 42.73759
# Shear Modulus (GPa) = 24.06004 27.90431 25.98217
#
# Velocity S-wave (km/s) = 3.45484 3.72063 3.59020
# Velocity P-wave (km/s) = 5.85233 6.52117 6.19578
#
# Compressibility (1/GPa) = 0.02705681
#
# Stress axis : x y z
#
# Youngs Moduli (GPa) = 34.48200 55.76312 76.28232
#
# Poissons Ratio (x) = 0.30913 0.42371
# Poissons Ratio (y) = 0.19115 0.41154
# Poissons Ratio (z) = 0.19153 0.30084
#
# Static dielectric constant tensor:
#      x y z
#    x 3.619010 0.000000 0.083130 
#    y 0.000000 3.646280 0.000000 
#    z 0.083130 0.000000 3.817890 
# 
# 
# High freq. dielectric constant tensor:
#      x y z
#    x 1.784060 0.000000 0.001020 
#    y 0.000000 1.787160 0.000000 
#    z 0.001020 0.000000 1.790250 
# 
# From -- ./inp_files/375690.got.cif
#   From: 2010.06.25/outbox.cif.g09.slc.cpg/sg12_188_cif.got.tgz:375690.got - 2010.06.28 00:19:55.
