data_PCOD8101636
_publ_section_title
;
Structure prediction by ZEFSAII (Michael W. Deem and Ramdas Pophale) SiO2 
 PCOD8101636
Probable space group: C 2/M
;
_chemical_formula_sum "Si O2"
_cell_formula_units_Z 48
_cell_length_a 16.132200
_cell_length_b 8.940699
_cell_length_c 29.601999
_cell_angle_alpha 90.000000
_cell_angle_beta 145.283979
_cell_angle_gamma 90.000000
_cell_volume 2431.571246
_symmetry_space_group_name_H-M "C 2/M"
_symmetry_group_IT_number 12
_symmetry_cell_setting 'monoclinic'
loop_
_space_group_symop_operation_xyz
x,y,z
-x,y,-z
-x,-y,-z
x,-y,z
1/2+x,1/2+y,z
1/2-x,1/2+y,-z
1/2-x,1/2-y,-z
1/2+x,1/2-y,z
loop_
_atom_site_type_symbol
_atom_site_label
_atom_site_fract_x
_atom_site_fract_y
_atom_site_fract_z
Si Si1 0.050515 0.174013 0.642742
Si Si2 0.593638 0.839262 0.500432
Si Si3 0.616782 0.822036 0.914617
Si Si4 0.123039 0.326929 0.361416
Si Si5 0.364551 0.826362 0.180403
Si Si6 0.813848 0.676210 0.822630
O O1 0.203148 0.223471 0.733368
O O2 0.020928 0.265482 0.584786
O O3 0.922322 0.216052 0.619209
O O4 0.049045 0.000000 0.630725
O O5 0.500000 0.886688 0.500000
O O6 0.711134 0.719797 0.571392
O O7 0.657116 0.000000 0.510069
O O8 0.624303 0.765468 0.865934
O O9 0.471157 0.767826 0.875655
O O10 0.626116 0.000000 0.920224
O O11 0.750000 0.750000 0.000000
O O12 0.111798 0.500000 0.370864
O O13 0.023650 0.296379 0.273029
O O14 0.235800 0.748192 0.151789
O O15 0.325085 0.000000 0.162852
O O16 0.811954 0.500000 0.829756
#
# Coordination Sequence:
#
# PCOD8101636 Si02
#       6
#     8   8   8   8   8   8
#     4  10  20  36  59  81 107 146 189 233 280 334
#     4  11  24  37  50  77 115 149 186 235 280 327
#     4  10  22  40  60  87 118 151 187 232 285 344
#     4  10  20  36  59  81 107 146 189 233 280 334
#     4   9  20  38  61  86 116 150 191 237 284 338
#     4   9  20  38  61  86 116 150 191 237 284 338
#
# _framework density 19.740323
#
# number of rings (size 3 to 8) (size 9 to 14) (size 15 to 20)
#    0.000    2.167    0.000    2.000    2.333    4.667 
#    0.000    3.333    0.000    0.000    0.000    0.000 
#    0.000    0.000    0.000    0.000    0.000    0.000 
#
# Total GULP energy -297444.546566 kJ/mol
# GULP energy per Si atom -12393.522774 kJ/mol
# Density = 1.969539 g / cm^3
# Si number density = 19.740323 Si / 1000 Ang^3
#
#
#
# Elastic Constant Matrix: (Units=GPa)
#
#
# Indices 1 2 3 4 5 6 
#
# 1 120.6481 27.8099 62.9147 0.0000 2.1400 0.0000
# 2 27.8099 55.1973 37.3026 0.0000 -1.7996 0.0001
# 3 62.9147 37.3026 105.7155 0.0000 1.6749 0.0000
# 4 0.0000 0.0000 0.0000 37.0026 0.0000 -0.1967
# 5 2.1400 -1.7996 1.6749 0.0000 36.4660 0.0000
# 6 0.0000 0.0001 0.0000 -0.1967 0.0000 27.1826
#
#
#
# Elastic Compliance Matrix: (Units=1/GPa)
#
#
# Indices 1 2 3 4 5 6 
#
# 1 0.012136 -0.001647 -0.006634 0.000000 -0.000489 0.000000
# 2 -0.001647 0.024103 -0.007550 0.000000 0.001633 0.000000
# 3 -0.006634 -0.007550 0.016083 0.000000 -0.000722 0.000000
# 4 0.000000 0.000000 0.000000 0.027026 0.000000 0.000196
# 5 -0.000489 0.001633 -0.000722 0.000000 0.027565 0.000000
# 6 0.000000 0.000000 0.000000 0.000196 0.000000 0.036790
#
#
# Mechanical properties :
#
#
# Convention : Reuss Voigt Hill
#
# Bulk Modulus (GPa) = 48.40490 59.73504 54.06997
# Shear Modulus (GPa) = 27.43461 30.36582 28.90021
#
# Velocity S-wave (km/s) = 3.73201 3.92633 3.83040
# Velocity P-wave (km/s) = 6.56846 7.13308 6.85658
#
# Compressibility (1/GPa) = 0.02065907
#
# Stress axis : x y z
#
# Youngs Moduli (GPa) = 82.39793 41.48936 62.17823
#
# Poissons Ratio (x) = 0.06835 0.41246
# Poissons Ratio (y) = 0.13575 0.46946
# Poissons Ratio (z) = 0.54659 0.31325
#
# Static dielectric constant tensor:
#      x y z
#    x 3.628480 0.000000 -0.065430 
#    y 0.000000 3.520280 0.000000 
#    z -0.065430 0.000000 3.785700 
# 
# 
# High freq. dielectric constant tensor:
#      x y z
#    x 1.767250 0.000000 -0.001650 
#    y 0.000000 1.771590 0.000000 
#    z -0.001650 0.000000 1.770090 
# 
# From -- ./inp_files/360317.got.cif
#   From: 2010.06.25/outbox.cif.g09.slc.cpg/sg12_181_cif.got.tgz:360317.got - 2010.06.28 00:19:55.
