data_PCOD8101687
_publ_section_title
;
Structure prediction by ZEFSAII (Michael W. Deem and Ramdas Pophale) SiO2 
 PCOD8101687
Probable space group: C 2/M
;
_chemical_formula_sum "Si O2"
_cell_formula_units_Z 64
_cell_length_a 27.620027
_cell_length_b 9.216827
_cell_length_c 24.028556
_cell_angle_alpha 90.000000
_cell_angle_beta 29.378162
_cell_angle_gamma 90.000000
_cell_volume 3000.790403
_symmetry_space_group_name_H-M "C 2/M"
_symmetry_group_IT_number 12
_symmetry_cell_setting 'monoclinic'
loop_
_space_group_symop_operation_xyz
x,y,z
-x,y,-z
-x,-y,-z
x,-y,z
1/2+x,1/2+y,z
1/2-x,1/2+y,-z
1/2-x,1/2-y,-z
1/2+x,1/2-y,z
loop_
_atom_site_type_symbol
_atom_site_label
_atom_site_fract_x
_atom_site_fract_y
_atom_site_fract_z
Si Si1 0.297720 0.666442 0.263059
Si Si2 0.391014 0.835783 0.268838
Si Si3 0.624795 0.161681 0.038070
Si Si4 0.217432 0.667687 0.833470
Si Si5 0.590737 0.666072 0.296315
Si Si6 0.603254 0.166224 0.522356
Si Si7 0.623690 0.660344 0.142371
Si Si8 0.111752 0.835686 0.622716
O O1 0.332870 0.500000 0.226840
O O2 0.364894 0.752440 0.238955
O O3 0.314781 0.735574 0.185862
O O4 0.182754 0.678300 0.393769
O O5 0.507895 0.836357 0.157790
O O6 0.343717 0.752754 0.369330
O O7 0.349819 0.000000 0.308204
O O8 0.670474 0.237400 0.047628
O O9 0.668722 0.000000 0.995557
O O10 0.659588 0.231788 0.945024
O O11 0.189018 0.500000 0.850193
O O12 0.334651 0.682655 0.727063
O O13 0.552370 0.500000 0.328850
O O14 0.498325 0.769737 0.399905
O O15 0.649083 0.708253 0.180445
O O16 0.645037 0.257081 0.532641
O O17 0.585917 0.000000 0.558245
O O18 0.662811 0.500000 0.090198
O O19 0.505687 0.665620 0.256522
O O20 0.152973 0.000000 0.582767
#
# Coordination Sequence:
#
# PCOD8101687 Si02
#       8
#     8   8   8   8   8   8   8   8
#     4  11  25  41  55  77 108 143 188 234 274 321
#     4  10  20  36  59  84 112 146 181 221 272 325
#     4   9  19  35  56  83 112 142 178 221 269 321
#     4  10  22  40  58  78 108 145 186 228 270 322
#     4   9  19  36  58  83 111 144 180 220 270 328
#     4  10  21  37  57  81 111 144 179 225 276 324
#     4   8  15  29  51  81 113 141 172 213 264 322
#     4   9  17  32  56  85 115 143 176 220 269 326
#
# _framework density 21.327712999999999
#
# number of rings (size 3 to 8) (size 9 to 14) (size 15 to 20)
#    0.000    2.500    0.000    2.250    0.000    8.500 
#    0.000    5.000    0.000    0.000    0.000    0.000 
#    0.000    0.000    0.000    0.000    0.000    0.000 
#
# Total GULP energy -396841.219404 kJ/mol
# GULP energy per Si atom -12401.288106 kJ/mol
# Density = 2.127917 g / cm^3
# Si number density = 21.327713 Si / 1000 Ang^3
#
#
#
# Elastic Constant Matrix: (Units=GPa)
#
#
# Indices 1 2 3 4 5 6 
#
# 1 88.8077 37.0433 -3.8653 -0.0028 22.6605 -0.0062
# 2 37.0433 124.0872 15.8703 -0.0050 14.3203 0.0163
# 3 -3.8653 15.8703 36.2870 -0.0100 20.4762 0.0199
# 4 -0.0028 -0.0050 -0.0100 29.0154 0.0131 6.6443
# 5 22.6605 14.3203 20.4762 0.0131 25.4530 -0.0265
# 6 -0.0062 0.0163 0.0199 6.6443 -0.0265 33.5631
#
#
#
# Elastic Compliance Matrix: (Units=1/GPa)
#
#
# Indices 1 2 3 4 5 6 
#
# 1 0.027312 -0.006917 0.031974 0.000046 -0.046146 -0.000056
# 2 -0.006917 0.010442 -0.010006 -0.000008 0.008333 0.000008
# 3 0.031974 -0.010006 0.088319 0.000105 -0.093888 -0.000137
# 4 0.000046 -0.000008 0.000105 0.036101 -0.000147 -0.007147
# 5 -0.046146 0.008333 -0.093888 -0.000147 0.151213 0.000192
# 6 -0.000056 0.000008 -0.000137 -0.007147 0.000192 0.031210
#
#
# Mechanical properties :
#
#
# Convention : Reuss Voigt Hill
#
# Bulk Modulus (GPa) = 6.40304 38.58652 22.49478
# Shear Modulus (GPa) = 13.64056 30.94853 22.29454
#
# Velocity S-wave (km/s) = 2.53172 3.81346 3.23667
# Velocity P-wave (km/s) = 3.39924 6.12547 4.95360
#
# Compressibility (1/GPa) = 0.15617575
#
# Stress axis : x y z
#
# Youngs Moduli (GPa) = 36.61389 95.76831 11.32253
#
# Poissons Ratio (x) = 0.66245 -0.36203
# Poissons Ratio (y) = 0.25327 0.11329
# Poissons Ratio (z) = -1.17070 0.95824
#
# Static dielectric constant tensor:
#      x y z
#    x 3.778320 -0.000030 0.086870 
#    y -0.000030 3.987090 0.000040 
#    z 0.086870 0.000040 3.663810 
# 
# 
# High freq. dielectric constant tensor:
#      x y z
#    x 1.838090 0.000000 -0.002810 
#    y 0.000000 1.832870 0.000000 
#    z -0.002810 0.000000 1.832440 
# 
# From -- ./inp_files/353351.got.cif
#   From: 2010.06.25/outbox.cif.g09.slc.cpg/sg12_177_cif.got.tgz:353351.got - 2010.06.28 00:19:55.
