data_PCOD8101507
_publ_section_title
;
Structure prediction by ZEFSAII (Michael W. Deem and Ramdas Pophale) SiO2 
 PCOD8101507
Probable space group: C 2/M
;
_chemical_formula_sum "Si O2"
_cell_formula_units_Z 56
_cell_length_a 9.896467
_cell_length_b 15.835592
_cell_length_c 19.421963
_cell_angle_alpha 90.000000
_cell_angle_beta 67.877085
_cell_angle_gamma 90.000000
_cell_volume 2819.654403
_symmetry_space_group_name_H-M "C 2/M"
_symmetry_group_IT_number 12
_symmetry_cell_setting 'monoclinic'
loop_
_space_group_symop_operation_xyz
x,y,z
-x,y,-z
-x,-y,-z
x,-y,z
1/2+x,1/2+y,z
1/2-x,1/2+y,-z
1/2-x,1/2-y,-z
1/2+x,1/2-y,z
loop_
_atom_site_type_symbol
_atom_site_label
_atom_site_fract_x
_atom_site_fract_y
_atom_site_fract_z
Si Si1 0.869596 0.836600 0.810387
Si Si2 0.068915 0.334437 0.271236
Si Si3 0.643432 0.402494 0.440975
Si Si4 0.282031 0.905894 0.280315
Si Si5 0.358347 0.401203 0.152915
Si Si6 0.953502 0.597896 0.434477
Si Si7 0.341163 0.744560 0.050902
O O1 0.909675 0.763867 0.748200
O O2 0.804687 0.910196 0.774856
O O3 0.733617 0.808159 0.882224
O O4 0.004145 0.868199 0.829538
O O5 0.213144 0.387689 0.225323
O O6 0.937731 0.359983 0.244970
O O7 0.031063 0.349773 0.358505
O O8 0.500000 0.356587 0.500000
O O9 0.603869 0.500000 0.436635
O O10 0.684352 0.362193 0.358973
O O11 0.779318 0.390818 0.466171
O O12 0.319476 0.000000 0.298138
O O13 0.378052 0.500000 0.131668
O O14 0.349551 0.349372 0.082799
O O15 0.999004 0.500000 0.417245
O O16 0.000000 0.633506 0.500000
O O17 0.500000 0.777960 0.000000
O O18 0.250000 0.750000 0.000000
#
# Coordination Sequence:
#
# PCOD8101507 Si02
#       7
#     8   8   8   8   8   8   8
#     4  11  23  39  62  86 118 153 191 233 292 352
#     4  10  20  37  58  84 118 156 195 238 295 353
#     4   8  15  29  49  74 105 144 187 232 285 334
#     4  10  20  36  58  84 114 150 196 244 286 342
#     4  11  23  39  63  93 119 150 195 243 284 337
#     4   9  17  30  51  80 113 151 196 246 293 340
#     4  11  23  44  65  88 119 158 189 227 289 356
#
# _framework density 19.860589000000001
#
# number of rings (size 3 to 8) (size 9 to 14) (size 15 to 20)
#    0.000    2.000    1.429    4.286    2.000    1.429 
#    0.000    3.571    0.000    6.429    0.000    0.000 
#    0.000    0.000    0.000    0.000    0.000    0.000 
#
# Total GULP energy -347063.942420 kJ/mol
# GULP energy per Si atom -12395.140801 kJ/mol
# Density = 1.981539 g / cm^3
# Si number density = 19.860589 Si / 1000 Ang^3
#
#
#
# Elastic Constant Matrix: (Units=GPa)
#
#
# Indices 1 2 3 4 5 6 
#
# 1 149.0348 34.2082 82.2185 0.0000 -1.0040 0.0000
# 2 34.2082 58.8366 37.8453 0.0000 -0.6266 0.0000
# 3 82.2185 37.8453 122.5592 0.0000 1.9760 0.0000
# 4 0.0000 0.0000 0.0000 18.7277 0.0000 7.3487
# 5 -1.0040 -0.6266 1.9760 0.0000 51.1755 0.0000
# 6 0.0000 0.0000 0.0000 7.3487 0.0000 22.3209
#
#
#
# Elastic Compliance Matrix: (Units=1/GPa)
#
#
# Indices 1 2 3 4 5 6 
#
# 1 0.010853 -0.002018 -0.006664 0.000000 0.000446 0.000000
# 2 -0.002018 0.021598 -0.005322 0.000000 0.000430 0.000000
# 3 -0.006664 -0.005322 0.014286 0.000000 -0.000748 0.000000
# 4 0.000000 0.000000 0.000000 0.061318 0.000000 -0.020188
# 5 0.000446 0.000430 -0.000748 0.000000 0.019583 0.000000
# 6 0.000000 0.000000 0.000000 -0.020188 0.000000 0.051447
#
#
# Mechanical properties :
#
#
# Convention : Reuss Voigt Hill
#
# Bulk Modulus (GPa) = 53.40129 70.99719 62.19924
# Shear Modulus (GPa) = 23.43710 30.18873 26.81292
#
# Velocity S-wave (km/s) = 3.43896 3.90299 3.67830
# Velocity P-wave (km/s) = 6.53567 7.49243 7.03034
#
# Compressibility (1/GPa) = 0.01872614
#
# Stress axis : x y z
#
# Youngs Moduli (GPa) = 92.14277 46.30135 70.00048
#
# Poissons Ratio (x) = 0.09345 0.46651
# Poissons Ratio (y) = 0.18598 0.37255
# Poissons Ratio (z) = 0.61408 0.24642
#
# Static dielectric constant tensor:
#      x y z
#    x 3.740130 0.000000 -0.077440 
#    y 0.000000 3.396320 0.000000 
#    z -0.077440 0.000000 3.794510 
# 
# 
# High freq. dielectric constant tensor:
#      x y z
#    x 1.787970 0.000000 -0.003010 
#    y 0.000000 1.750780 0.000000 
#    z -0.003010 0.000000 1.780690 
# 
# From -- ./inp_files/257000.got.cif
#   From: 2010.06.25/outbox.cif.g09.slc.cpg/sg12_129_cif.got.tgz:257000.got - 2010.06.28 00:19:55.
