data_PCOD8101309
_publ_section_title
;
Structure prediction by ZEFSAII (Michael W. Deem and Ramdas Pophale) SiO2 
 PCOD8101309
Probable space group: C 2/M
;
_chemical_formula_sum "Si O2"
_cell_formula_units_Z 44
_cell_length_a 12.544988
_cell_length_b 12.615549
_cell_length_c 24.378321
_cell_angle_alpha 90.000000
_cell_angle_beta 38.765475
_cell_angle_gamma 90.000000
_cell_volume 2415.725283
_symmetry_space_group_name_H-M "C 2/M"
_symmetry_group_IT_number 12
_symmetry_cell_setting 'monoclinic'
loop_
_space_group_symop_operation_xyz
x,y,z
-x,y,-z
-x,-y,-z
x,-y,z
1/2+x,1/2+y,z
1/2-x,1/2+y,-z
1/2-x,1/2-y,-z
1/2+x,1/2-y,z
loop_
_atom_site_type_symbol
_atom_site_label
_atom_site_fract_x
_atom_site_fract_y
_atom_site_fract_z
Si Si1 0.402148 0.241270 0.723829
Si Si2 0.000000 0.266173 0.000000
Si Si3 0.740151 0.878814 0.576602
Si Si4 0.421123 0.379215 0.616293
Si Si5 0.143599 0.875842 0.153560
Si Si6 0.938799 0.876532 0.125808
O O1 0.573406 0.188823 0.633060
O O2 0.341667 0.317647 0.699365
O O3 0.437723 0.309341 0.764093
O O4 0.260258 0.151772 0.789972
O O5 0.161150 0.342951 0.932119
O O6 0.977174 0.191967 0.956140
O O7 0.786848 0.869073 0.621516
O O8 0.894549 0.835249 0.477165
O O9 0.701953 0.000000 0.576534
O O10 0.443333 0.500000 0.625513
O O11 0.036702 0.848398 0.142303
O O12 0.133441 0.000000 0.171474
O O13 0.956320 0.000000 0.104165
#
# Coordination Sequence:
#
# PCOD8101309 Si02
#       6
#     8   4   8   8   8   8
#     4  11  19  31  51  74  98 130 161 193 241 293
#     4  10  20  36  58  72  90 128 166 192 232 290
#     4   9  18  32  49  70  97 129 166 204 236 273
#     4   9  18  32  49  70  97 129 166 204 236 273
#     4  10  21  35  51  74 101 125 155 198 242 285
#     4  10  21  35  51  74 101 125 155 198 242 285
#
# _framework density 18.213992000000001
#
# number of rings (size 3 to 8) (size 9 to 14) (size 15 to 20)
#    0.000    2.182    0.000    4.909    0.000    0.000 
#    0.000    0.000    0.000   17.455    0.000   15.273 
#    0.000    0.000    0.000    0.000    0.000    0.000 
#
# Total GULP energy -272822.339549 kJ/mol
# GULP energy per Si atom -12401.015434 kJ/mol
# Density = 1.817254 g / cm^3
# Si number density = 18.213992 Si / 1000 Ang^3
#
#
#
# Elastic Constant Matrix: (Units=GPa)
#
#
# Indices 1 2 3 4 5 6 
#
# 1 69.5899 32.3666 7.1210 0.0000 9.2248 0.0000
# 2 32.3666 62.3931 13.4317 -0.0001 5.0068 0.0000
# 3 7.1210 13.4317 42.3799 -0.0002 5.0117 0.0001
# 4 0.0000 -0.0001 -0.0002 11.9485 0.0001 0.8183
# 5 9.2248 5.0068 5.0117 0.0001 29.8660 0.0000
# 6 0.0000 0.0000 0.0001 0.8183 0.0000 22.4077
#
#
#
# Elastic Compliance Matrix: (Units=1/GPa)
#
#
# Indices 1 2 3 4 5 6 
#
# 1 0.019495 -0.009836 0.000366 0.000000 -0.004434 0.000000
# 2 -0.009836 0.022283 -0.005435 0.000000 0.000215 0.000000
# 3 0.000366 -0.005435 0.025672 0.000000 -0.003510 0.000000
# 4 0.000000 0.000000 0.000000 0.083902 0.000000 -0.003064
# 5 -0.004434 0.000215 -0.003510 0.000000 0.035405 0.000000
# 6 0.000000 0.000000 0.000000 -0.003064 0.000000 0.044739
#
#
# Mechanical properties :
#
#
# Convention : Reuss Voigt Hill
#
# Bulk Modulus (GPa) = 26.56742 31.13352 28.85047
# Shear Modulus (GPa) = 18.25794 20.94067 19.59930
#
# Velocity S-wave (km/s) = 3.16952 3.39440 3.28389
# Velocity P-wave (km/s) = 5.29268 5.70026 5.50024
#
# Compressibility (1/GPa) = 0.03764009
#
# Stress axis : x y z
#
# Youngs Moduli (GPa) = 51.29517 44.87796 38.95276
#
# Poissons Ratio (x) = 0.44142 -0.01426
# Poissons Ratio (y) = 0.50454 0.21170
# Poissons Ratio (z) = -0.01878 0.24390
#
# Static dielectric constant tensor:
#      x y z
#    x 3.262840 0.000000 0.068240 
#    y 0.000000 3.283270 0.000000 
#    z 0.068240 0.000000 3.291580 
# 
# 
# High freq. dielectric constant tensor:
#      x y z
#    x 1.706900 0.000000 0.004440 
#    y 0.000000 1.707620 0.000000 
#    z 0.004440 0.000000 1.709000 
# 
# From -- ./inp_files/203396.got.cif
#   From: 2010.06.25/outbox.cif.g09.slc.cpg/sg12_102_cif.got.tgz:203396.got - 2010.06.28 00:19:55.
