data_PCOD8101670
_publ_section_title
;
Structure prediction by ZEFSAII (Michael W. Deem and Ramdas Pophale) SiO2 
 PCOD8101670
Probable space group: C 2/M
;
_chemical_formula_sum "Si O2"
_cell_formula_units_Z 48
_cell_length_a 14.980875
_cell_length_b 8.844197
_cell_length_c 28.989809
_cell_angle_alpha 90.000000
_cell_angle_beta 40.495969
_cell_angle_gamma 90.000000
_cell_volume 2494.305135
_symmetry_space_group_name_H-M "C 2/M"
_symmetry_group_IT_number 12
_symmetry_cell_setting 'monoclinic'
loop_
_space_group_symop_operation_xyz
x,y,z
-x,y,-z
-x,-y,-z
x,-y,z
1/2+x,1/2+y,z
1/2-x,1/2+y,-z
1/2-x,1/2-y,-z
1/2+x,1/2-y,z
loop_
_atom_site_type_symbol
_atom_site_label
_atom_site_fract_x
_atom_site_fract_y
_atom_site_fract_z
Si Si1 0.248134 0.676855 0.675971
Si Si2 0.279422 0.321064 0.089726
Si Si3 0.004301 0.179037 0.173923
Si Si4 0.243150 0.174405 0.433645
Si Si5 0.531544 0.174851 0.580530
Si Si6 0.509570 0.320838 0.068422
O O1 0.226830 0.500000 0.692371
O O2 0.135047 0.767435 0.748329
O O3 0.232711 0.720499 0.628481
O O4 0.395762 0.725036 0.637247
O O5 0.256808 0.500000 0.098629
O O6 0.370210 0.268025 0.097700
O O7 0.133304 0.240398 0.151926
O O8 0.356716 0.266057 0.012658
O O9 0.012419 0.246129 0.118761
O O10 0.007314 0.000000 0.172316
O O11 0.383444 0.205535 0.406171
O O12 0.120508 0.276606 0.501321
O O13 0.197741 0.000000 0.456344
O O14 0.491469 0.000000 0.590996
O O15 0.510483 0.500000 0.068799
#
# Coordination Sequence:
#
# PCOD8101670 Si02
#       6
#     8   8   8   8   8   8
#     4  11  23  38  54  75 107 147 181 209 253 316
#     4   9  17  35  59  79 100 136 180 214 255 317
#     4  11  22  35  51  78 111 139 171 218 268 306
#     4   9  20  38  58  79 106 140 175 211 258 316
#     4  10  20  36  59  84 106 132 172 222 266 303
#     4   8  17  34  57  79 103 137 175 214 260 316
#
# _framework density 19.243836999999999
#
# number of rings (size 3 to 8) (size 9 to 14) (size 15 to 20)
#    0.000    2.333    0.000    3.500    0.000    5.333 
#    0.000   10.833    0.000    0.000    0.000    0.000 
#    0.000    0.000    0.000    0.000    0.000    0.000 
#
# Total GULP energy -297656.711481 kJ/mol
# GULP energy per Si atom -12402.362978 kJ/mol
# Density = 1.920004 g / cm^3
# Si number density = 19.243837 Si / 1000 Ang^3
#
#
#
# Elastic Constant Matrix: (Units=GPa)
#
#
# Indices 1 2 3 4 5 6 
#
# 1 86.8702 26.6236 41.4294 0.0001 -14.9144 0.0003
# 2 26.6236 48.5781 20.4965 0.0008 -2.6999 0.0012
# 3 41.4294 20.4965 76.7471 -0.0002 -10.3229 0.0001
# 4 0.0001 0.0008 -0.0002 32.0252 0.0000 -4.8312
# 5 -14.9144 -2.6999 -10.3229 0.0000 20.4827 0.0001
# 6 0.0003 0.0012 0.0001 -4.8312 0.0001 30.1027
#
#
#
# Elastic Compliance Matrix: (Units=1/GPa)
#
#
# Indices 1 2 3 4 5 6 
#
# 1 0.018417 -0.006660 -0.006948 0.000000 0.009030 0.000000
# 2 -0.006660 0.025608 -0.003692 -0.000001 -0.003335 -0.000001
# 3 -0.006948 -0.003692 0.018259 0.000000 0.003656 0.000000
# 4 0.000000 -0.000001 0.000000 0.032000 0.000000 0.005136
# 5 0.009030 -0.003335 0.003656 0.000000 0.056800 0.000000
# 6 0.000000 -0.000001 0.000000 0.005136 0.000000 0.034044
#
#
# Mechanical properties :
#
#
# Convention : Reuss Voigt Hill
#
# Bulk Modulus (GPa) = 36.12475 43.25491 39.68983
# Shear Modulus (GPa) = 21.83830 24.76519 23.30174
#
# Velocity S-wave (km/s) = 3.37236 3.59125 3.48353
# Velocity P-wave (km/s) = 5.82895 6.30255 6.07037
#
# Compressibility (1/GPa) = 0.02768186
#
# Stress axis : x y z
#
# Youngs Moduli (GPa) = 54.29887 39.05033 54.76897
#
# Poissons Ratio (x) = 0.26007 0.38056
# Poissons Ratio (y) = 0.36162 0.20223
# Poissons Ratio (z) = 0.37729 0.14419
#
# Static dielectric constant tensor:
#      x y z
#    x 3.754840 0.000000 0.110430 
#    y 0.000000 3.334350 0.000000 
#    z 0.110430 0.000000 3.511250 
# 
# 
# High freq. dielectric constant tensor:
#      x y z
#    x 1.761210 0.000000 -0.003200 
#    y 0.000000 1.735320 0.000000 
#    z -0.003200 0.000000 1.744580 
# 
# From -- ./inp_files/308289.got.cif
#   From: 2010.06.25/outbox.cif.g09.slc.cpg/sg12_155_cif.got.tgz:308289.got - 2010.06.28 00:19:55.
