data_PCOD8101062
_publ_section_title
;
Structure prediction by ZEFSAII (Michael W. Deem and Ramdas Pophale) SiO2 
 PCOD8101062
Probable space group: C 2/M
;
_chemical_formula_sum "Si O2"
_cell_formula_units_Z 64
_cell_length_a 30.791014
_cell_length_b 8.875648
_cell_length_c 24.429628
_cell_angle_alpha 90.000000
_cell_angle_beta 28.574140
_cell_angle_gamma 90.000000
_cell_volume 3193.281795
_symmetry_space_group_name_H-M "C 2/M"
_symmetry_group_IT_number 12
_symmetry_cell_setting 'monoclinic'
loop_
_space_group_symop_operation_xyz
x,y,z
-x,y,-z
-x,-y,-z
x,-y,z
1/2+x,1/2+y,z
1/2-x,1/2+y,-z
1/2-x,1/2-y,-z
1/2+x,1/2-y,z
loop_
_atom_site_type_symbol
_atom_site_label
_atom_site_fract_x
_atom_site_fract_y
_atom_site_fract_z
Si Si1 0.274826 0.179544 0.220202
Si Si2 0.556262 0.677596 0.770089
Si Si3 0.703341 0.178726 0.679013
Si Si4 0.462255 0.666585 0.681303
Si Si5 0.881256 0.820280 0.417853
Si Si6 0.406047 0.668273 0.633419
Si Si7 0.854220 0.821876 0.029152
Si Si8 0.735642 0.665664 0.070921
O O1 0.287265 0.236517 0.268793
O O2 0.174601 0.239931 0.313108
O O3 0.347918 0.252805 0.097618
O O4 0.284464 0.000000 0.207370
O O5 0.569980 0.500000 0.759337
O O6 0.609928 0.755546 0.759898
O O7 0.597775 0.739597 0.666656
O O8 0.450435 0.720707 0.894665
O O9 0.785413 0.236041 0.548645
O O10 0.700569 0.000000 0.680877
O O11 0.500705 0.500000 0.622015
O O12 0.540567 0.749146 0.629279
O O13 0.430850 0.758478 0.661639
O O14 0.371928 0.649037 0.815611
O O15 0.888030 0.000000 0.409442
O O16 0.500000 0.659383 0.500000
O O17 0.371091 0.500000 0.688384
O O18 0.772797 0.754442 0.082695
O O19 0.842176 0.000000 0.046403
O O20 0.781128 0.500000 0.021118
O O21 0.750000 0.750000 0.000000
#
# Coordination Sequence:
#
# PCOD8101062 Si02
#       8
#     8   8   8   8   8   8   8   8
#     4  10  20  36  56  85 118 147 186 238 290 343
#     4  10  22  39  58  79 110 151 196 242 292 348
#     4  10  21  36  59  87 112 141 186 243 299 347
#     4   9  16  28  50  80 111 142 176 216 268 329
#     4   9  17  33  56  85 115 142 181 238 291 343
#     4   9  15  26  49  81 111 139 176 222 273 334
#     4  11  23  39  58  82 114 156 199 240 283 338
#     4  11  21  35  56  84 117 153 190 232 279 334
#
# _framework density 20.042076999999999
#
# number of rings (size 3 to 8) (size 9 to 14) (size 15 to 20)
#    0.000    2.125    1.250    2.625    0.000    7.000 
#    0.000    2.500    0.000    1.875    0.000    0.000 
#    0.000    0.000    0.000    0.000    0.000    0.000 
#
# Total GULP energy -396474.951805 kJ/mol
# GULP energy per Si atom -12389.842244 kJ/mol
# Density = 1.999646 g / cm^3
# Si number density = 20.042077 Si / 1000 Ang^3
#
#
#
# Elastic Constant Matrix: (Units=GPa)
#
#
# Indices 1 2 3 4 5 6 
#
# 1 135.4495 22.7410 32.9084 0.0284 4.4298 -0.0389
# 2 22.7410 38.0023 23.1481 -0.0526 2.0760 0.0680
# 3 32.9084 23.1481 89.8756 -0.0046 7.8863 -0.0120
# 4 0.0284 -0.0526 -0.0046 61.2395 0.0056 -53.1222
# 5 4.4298 2.0760 7.8863 0.0056 40.5155 -0.0184
# 6 -0.0389 0.0680 -0.0120 -53.1222 -0.0184 106.6779
#
#
#
# Elastic Compliance Matrix: (Units=1/GPa)
#
#
# Indices 1 2 3 4 5 6 
#
# 1 0.008548 -0.003805 -0.002121 -0.000005 -0.000327 0.000003
# 2 -0.003805 0.032905 -0.007091 0.000017 0.000110 -0.000015
# 3 -0.002121 -0.007091 0.013915 0.000001 -0.002113 0.000005
# 4 -0.000005 0.000017 0.000001 0.028747 0.000002 0.014315
# 5 -0.000327 0.000110 -0.002113 0.000002 0.025123 0.000005
# 6 0.000003 -0.000015 0.000005 0.014315 0.000005 0.016502
#
#
# Mechanical properties :
#
#
# Convention : Reuss Voigt Hill
#
# Bulk Modulus (GPa) = 34.09201 46.76917 40.43059
# Shear Modulus (GPa) = 30.94967 53.98857 42.46912
#
# Velocity S-wave (km/s) = 3.93394 5.19578 4.60825
# Velocity P-wave (km/s) = 6.13854 7.70590 6.96644
#
# Compressibility (1/GPa) = 0.02933239
#
# Stress axis : x y z
#
# Youngs Moduli (GPa) = 116.99042 30.39077 71.86518
#
# Poissons Ratio (x) = 0.11564 0.15243
# Poissons Ratio (y) = 0.44518 0.50961
# Poissons Ratio (z) = 0.24814 0.21551
#
# Static dielectric constant tensor:
#      x y z
#    x 3.917260 -0.000010 0.101380 
#    y -0.000010 3.350870 0.000060 
#    z 0.101380 0.000060 3.615250 
# 
# 
# High freq. dielectric constant tensor:
#      x y z
#    x 1.798430 0.000000 0.005470 
#    y 0.000000 1.729030 0.000010 
#    z 0.005470 0.000010 1.791150 
# 
# From -- ./inp_files/353321.got.cif
#   From: 2010.06.25/outbox.cif.g09.slc.cpg/sg12_177_cif.got.tgz:353321.got - 2010.06.28 00:19:55.
