data_PCOD8101028
_publ_section_title
;
Structure prediction by ZEFSAII (Michael W. Deem and Ramdas Pophale) SiO2 
 PCOD8101028
Probable space group: C 2/M
;
_chemical_formula_sum "Si O2"
_cell_formula_units_Z 64
_cell_length_a 26.010932
_cell_length_b 15.298527
_cell_length_c 12.239019
_cell_angle_alpha 90.000000
_cell_angle_beta 136.085951
_cell_angle_gamma 90.000000
_cell_volume 3377.907512
_symmetry_space_group_name_H-M "C 2/M"
_symmetry_group_IT_number 12
_symmetry_cell_setting 'monoclinic'
loop_
_space_group_symop_operation_xyz
x,y,z
-x,y,-z
-x,-y,-z
x,-y,z
1/2+x,1/2+y,z
1/2-x,1/2+y,-z
1/2-x,1/2-y,-z
1/2+x,1/2-y,z
loop_
_atom_site_type_symbol
_atom_site_label
_atom_site_fract_x
_atom_site_fract_y
_atom_site_fract_z
Si Si1 0.290844 0.401120 0.123695
Si Si2 0.830694 0.395799 0.893615
Si Si3 0.063561 0.261260 0.853193
Si Si4 0.773653 0.404209 0.402350
Si Si5 0.081162 0.774808 0.639816
Si Si6 0.667494 0.602216 0.051278
Si Si7 0.730476 0.334538 0.543091
Si Si8 0.605081 0.768926 0.441650
O O1 0.304711 0.500000 0.177998
O O2 0.217934 0.368636 0.074919
O O3 0.362820 0.353941 0.277673
O O4 0.282420 0.387443 0.980922
O O5 0.846557 0.500000 0.910950
O O6 0.792324 0.360532 0.725819
O O7 0.906078 0.340956 0.026513
O O8 0.084042 0.279663 0.757213
O O9 0.975209 0.260217 0.736987
O O10 0.096054 0.165896 0.937199
O O11 0.795850 0.500000 0.396425
O O12 0.719306 0.362413 0.228263
O O13 0.728938 0.410419 0.449138
O O14 0.849958 0.351647 0.535109
O O15 0.098729 0.714449 0.562131
O O16 0.000000 0.816988 0.500000
O O17 0.642706 0.500000 0.028748
O O18 0.750000 0.250000 0.500000
O O19 0.651886 0.319059 0.483333
#
# Coordination Sequence:
#
# PCOD8101028 Si02
#       8
#     8   8   8   8   8   8   8   8
#     4   9  18  31  52  82 111 146 187 231 286 341
#     4  11  22  36  56  85 119 151 191 236 283 340
#     4  10  21  35  56  83 119 153 181 229 291 349
#     4  10  21  37  59  80 107 145 192 239 275 330
#     4   9  18  32  52  81 114 148 185 226 285 345
#     4   9  19  36  57  82 111 146 193 238 283 337
#     4  10  20  38  60  79 105 143 195 238 277 327
#     4  10  20  36  56  82 111 149 189 230 287 342
#
# _framework density 18.946641
#
# number of rings (size 3 to 8) (size 9 to 14) (size 15 to 20)
#    0.000    2.250    1.250    1.875    1.750    1.750 
#    0.000    8.750    0.000    7.500    0.000    0.000 
#    0.000    0.000    0.000    0.000    0.000    0.000 
#
# Total GULP energy -396525.130816 kJ/mol
# GULP energy per Si atom -12391.410338 kJ/mol
# Density = 1.890352 g / cm^3
# Si number density = 18.946641 Si / 1000 Ang^3
#
#
#
# Elastic Constant Matrix: (Units=GPa)
#
#
# Indices 1 2 3 4 5 6 
#
# 1 79.0662 35.0886 57.8787 0.0000 3.7809 0.0000
# 2 35.0886 73.0339 51.0938 0.0000 3.4627 0.0000
# 3 57.8787 51.0938 140.1530 0.0000 1.3036 0.0000
# 4 0.0000 0.0000 0.0000 20.7174 0.0000 -2.7781
# 5 3.7809 3.4627 1.3036 0.0000 28.2427 0.0000
# 6 0.0000 0.0000 0.0000 -2.7781 0.0000 19.4592
#
#
#
# Elastic Compliance Matrix: (Units=1/GPa)
#
#
# Indices 1 2 3 4 5 6 
#
# 1 0.019474 -0.004913 -0.006235 0.000000 -0.001717 0.000000
# 2 -0.004913 0.019727 -0.005149 0.000000 -0.001523 0.000000
# 3 -0.006235 -0.005149 0.011578 0.000000 0.000932 0.000000
# 4 0.000000 0.000000 0.000000 0.049211 0.000000 0.007026
# 5 -0.001717 -0.001523 0.000932 0.000000 0.035781 0.000000
# 6 0.000000 0.000000 0.000000 0.007026 0.000000 0.052393
#
#
# Mechanical properties :
#
#
# Convention : Reuss Voigt Hill
#
# Bulk Modulus (GPa) = 54.98694 64.48614 59.73654
# Shear Modulus (GPa) = 22.04399 23.56331 22.80365
#
# Velocity S-wave (km/s) = 3.41468 3.53039 3.47302
# Velocity P-wave (km/s) = 6.68070 7.12234 6.90505
#
# Compressibility (1/GPa) = 0.01818614
#
# Stress axis : x y z
#
# Youngs Moduli (GPa) = 51.34943 50.69289 86.36833
#
# Poissons Ratio (x) = 0.24904 0.53854
# Poissons Ratio (y) = 0.25227 0.44467
# Poissons Ratio (z) = 0.32018 0.26099
#
# Static dielectric constant tensor:
#      x y z
#    x 3.792450 0.000000 -0.265510 
#    y 0.000000 3.477760 0.000000 
#    z -0.265510 0.000000 3.562190 
# 
# 
# High freq. dielectric constant tensor:
#      x y z
#    x 1.730700 0.000000 -0.015040 
#    y 0.000000 1.724310 0.000000 
#    z -0.015040 0.000000 1.740240 
# 
# From -- ./inp_files/183808.got.cif
#   From: 2010.06.25/outbox.cif.g09.slc.cpg/sg12_92_cif.got.tgz:183808.got - 2010.06.28 00:19:55.
