data_PCOD8101760
_publ_section_title
;
Structure prediction by ZEFSAII (Michael W. Deem and Ramdas Pophale) SiO2 
 PCOD8101760
Probable space group: C 2/M
;
_chemical_formula_sum "Si O2"
_cell_formula_units_Z 64
_cell_length_a 9.516002
_cell_length_b 19.147371
_cell_length_c 23.245175
_cell_angle_alpha 90.000000
_cell_angle_beta 47.496098
_cell_angle_gamma 90.000000
_cell_volume 3122.484401
_symmetry_space_group_name_H-M "C 2/M"
_symmetry_group_IT_number 12
_symmetry_cell_setting 'monoclinic'
loop_
_space_group_symop_operation_xyz
x,y,z
-x,y,-z
-x,-y,-z
x,-y,z
1/2+x,1/2+y,z
1/2-x,1/2+y,-z
1/2-x,1/2-y,-z
1/2+x,1/2-y,z
loop_
_atom_site_type_symbol
_atom_site_label
_atom_site_fract_x
_atom_site_fract_y
_atom_site_fract_z
Si Si1 0.222872 0.684687 0.942851
Si Si2 0.584098 0.306252 0.539867
Si Si3 0.519154 0.082612 0.212596
Si Si4 0.510692 0.318971 0.769728
Si Si5 0.718650 0.304790 0.281668
Si Si6 0.218319 0.844640 0.951839
Si Si7 0.373514 0.080927 0.481432
Si Si8 0.344995 0.919229 0.698659
O O1 0.335925 0.653581 0.857401
O O2 0.292576 0.765130 0.926979
O O3 0.267469 0.635670 0.984988
O O4 0.000000 0.682347 0.000000
O O5 0.500000 0.310834 0.500000
O O6 0.750000 0.250000 0.500000
O O7 0.406291 0.285981 0.628501
O O8 0.671056 0.380257 0.535788
O O9 0.314345 0.118869 0.259957
O O10 0.661915 0.104958 0.122422
O O11 0.604013 0.106426 0.250982
O O12 0.486170 0.000000 0.219710
O O13 0.423414 0.299665 0.732612
O O14 0.612665 0.251728 0.769694
O O15 0.662546 0.380713 0.723107
O O16 0.000000 0.854494 0.000000
O O17 0.500000 0.108665 0.500000
O O18 0.477900 0.096130 0.392196
O O19 0.327245 0.000000 0.503155
O O20 0.292060 0.000000 0.713483
#
# Coordination Sequence:
#
# PCOD8101760 Si02
#       8
#     8   8   8   8   8   8   8   8
#     4  10  21  35  59  86 116 151 195 248 299 359
#     4  12  24  40  61  89 126 161 204 259 312 365
#     4  11  23  41  62  90 129 162 204 256 306 368
#     4  12  23  39  64  88 124 157 203 258 301 371
#     4  12  25  39  62  93 121 163 208 251 316 365
#     4  10  20  36  59  85 117 153 198 243 298 361
#     4  10  21  40  64  88 121 165 211 253 302 366
#     4  10  22  40  63  91 123 165 207 252 308 363
#
# _framework density 20.496499
#
# number of rings (size 3 to 8) (size 9 to 14) (size 15 to 20)
#    0.000    1.125    1.250    5.625    3.500    1.500 
#    0.000    0.625    0.000    1.500    0.000    0.000 
#    0.000    0.000    0.000    0.000    0.000    0.000 
#
# Total GULP energy -396852.540841 kJ/mol
# GULP energy per Si atom -12401.641901 kJ/mol
# Density = 2.044985 g / cm^3
# Si number density = 20.496499 Si / 1000 Ang^3
#
#
#
# Elastic Constant Matrix: (Units=GPa)
#
#
# Indices 1 2 3 4 5 6 
#
# 1 131.1163 42.4608 33.9288 0.0018 11.6983 -0.0025
# 2 42.4608 71.4315 18.3481 -0.0012 -6.7831 -0.0003
# 3 33.9288 18.3481 113.7498 -0.0031 5.0186 0.0026
# 4 0.0018 -0.0012 -0.0031 32.1847 -0.0008 -5.0234
# 5 11.6983 -6.7831 5.0186 -0.0008 38.4157 0.0016
# 6 -0.0025 -0.0003 0.0026 -5.0234 0.0016 35.5317
#
#
#
# Elastic Compliance Matrix: (Units=1/GPa)
#
#
# Indices 1 2 3 4 5 6 
#
# 1 0.010467 -0.006099 -0.001961 -0.000001 -0.004008 0.000001
# 2 -0.006099 0.018487 -0.001397 0.000001 0.005304 0.000000
# 3 -0.001961 -0.001397 0.009642 0.000001 -0.000909 -0.000001
# 4 -0.000001 0.000001 0.000001 0.031772 0.000001 0.004492
# 5 -0.004008 0.005304 -0.000909 0.000001 0.028307 -0.000001
# 6 0.000001 0.000000 -0.000001 0.004492 -0.000001 0.028779
#
#
# Mechanical properties :
#
#
# Convention : Reuss Voigt Hill
#
# Bulk Modulus (GPa) = 50.80868 56.19700 53.50284
# Shear Modulus (GPa) = 32.69513 35.99708 34.34611
#
# Velocity S-wave (km/s) = 3.99827 4.19532 4.09798
# Velocity P-wave (km/s) = 6.79395 7.13757 6.96788
#
# Compressibility (1/GPa) = 0.01968168
#
# Stress axis : x y z
#
# Youngs Moduli (GPa) = 95.53864 54.09176 103.71593
#
# Poissons Ratio (x) = 0.32989 0.20344
# Poissons Ratio (y) = 0.58265 0.14489
# Poissons Ratio (z) = 0.18740 0.07556
#
# Static dielectric constant tensor:
#      x y z
#    x 3.813980 0.000000 0.068960 
#    y 0.000000 3.636160 0.000000 
#    z 0.068960 0.000000 3.865940 
# 
# 
# High freq. dielectric constant tensor:
#      x y z
#    x 1.812850 0.000000 0.004400 
#    y 0.000000 1.783710 0.000000 
#    z 0.004400 0.000000 1.818820 
# 
# From -- ./inp_files/333742.got.cif
#   From: 2010.06.25/outbox.cif.g09.slc.cpg/sg12_167_cif.got.tgz:333742.got - 2010.06.28 00:19:55.
