data_PCOD8101889
_publ_section_title
;
Structure prediction by ZEFSAII (Michael W. Deem and Ramdas Pophale) SiO2 
 PCOD8101889
Probable space group: C 2/M
;
_chemical_formula_sum "Si O2"
_cell_formula_units_Z 40
_cell_length_a 24.249309
_cell_length_b 10.715280
_cell_length_c 7.696217
_cell_angle_alpha 90.000000
_cell_angle_beta 84.101220
_cell_angle_gamma 90.000000
_cell_volume 1989.181903
_symmetry_space_group_name_H-M "C 2/M"
_symmetry_group_IT_number 12
_symmetry_cell_setting 'monoclinic'
loop_
_space_group_symop_operation_xyz
x,y,z
-x,y,-z
-x,-y,-z
x,-y,z
1/2+x,1/2+y,z
1/2-x,1/2+y,-z
1/2-x,1/2-y,-z
1/2+x,1/2-y,z
loop_
_atom_site_type_symbol
_atom_site_label
_atom_site_fract_x
_atom_site_fract_y
_atom_site_fract_z
Si Si1 0.714942 0.637222 0.195124
Si Si2 0.664013 0.359342 0.549722
Si Si3 0.333386 0.213306 0.095060
Si Si4 0.054923 0.640287 0.092504
Si Si5 0.446299 0.358830 0.626642
O O1 0.689516 0.500000 0.223789
O O2 0.705576 0.699613 0.388860
O O3 0.778912 0.626312 0.117703
O O4 0.675330 0.696944 0.065215
O O5 0.681579 0.500000 0.592663
O O6 0.666055 0.283292 0.724257
O O7 0.602661 0.352029 0.494828
O O8 0.390771 0.139899 0.050035
O O9 0.051521 0.500000 0.176708
O O10 0.061038 0.751139 0.227978
O O11 0.000000 0.667213 0.000000
O O12 0.500000 0.325426 0.500000
O O13 0.450319 0.500000 0.706768
#
# Coordination Sequence:
#
# PCOD8101889 Si02
#       5
#     8   8   8   8   8
#     4  10  21  37  58  87 122 157 205 261 301 356
#     4  10  20  36  59  89 121 155 202 256 308 360
#     4  11  21  37  62  85 121 164 205 244 310 364
#     4  11  24  41  61  89 127 164 204 251 305 369
#     4  10  21  39  62  90 123 159 207 258 302 361
#
# _framework density 20.10877
#
# number of rings (size 3 to 8) (size 9 to 14) (size 15 to 20)
#    0.000    1.600    2.000    3.000    0.000    1.600 
#    0.000    2.000    0.000    0.000    0.000    0.000 
#    0.000    0.000    0.000    0.000    0.000    0.000 
#
# Total GULP energy -247825.191724 kJ/mol
# GULP energy per Si atom -12391.259586 kJ/mol
# Density = 2.006300 g / cm^3
# Si number density = 20.108770 Si / 1000 Ang^3
#
#
#
# Elastic Constant Matrix: (Units=GPa)
#
#
# Indices 1 2 3 4 5 6 
#
# 1 112.2894 9.4810 21.7258 0.0000 -14.9324 0.0000
# 2 9.4810 97.2092 57.9410 0.0000 7.3277 0.0000
# 3 21.7258 57.9410 120.2691 0.0000 2.0243 0.0000
# 4 0.0000 0.0000 0.0000 12.8676 0.0000 -10.5471
# 5 -14.9324 7.3277 2.0243 0.0000 36.1953 0.0000
# 6 0.0000 0.0000 0.0000 -10.5471 0.0000 16.2037
#
#
#
# Elastic Compliance Matrix: (Units=1/GPa)
#
#
# Indices 1 2 3 4 5 6 
#
# 1 0.009818 -0.000245 -0.001726 0.000000 0.004197 0.000000
# 2 -0.000245 0.014673 -0.006980 0.000000 -0.002681 0.000000
# 3 -0.001726 -0.006980 0.011989 0.000000 0.000030 0.000000
# 4 0.000000 0.000000 0.000000 0.166597 0.000000 0.108439
# 5 0.004197 -0.002681 0.000030 0.000000 0.029900 0.000000
# 6 0.000000 0.000000 0.000000 0.108439 0.000000 0.132298
#
#
# Mechanical properties :
#
#
# Convention : Reuss Voigt Hill
#
# Bulk Modulus (GPa) = 53.82604 56.45148 55.13876
# Shear Modulus (GPa) = 12.84126 29.09466 20.96796
#
# Velocity S-wave (km/s) = 2.52977 3.80789 3.23263
# Velocity P-wave (km/s) = 5.94631 6.88966 6.43529
#
# Compressibility (1/GPa) = 0.01857837
#
# Stress axis : x y z
#
# Youngs Moduli (GPa) = 101.85050 68.15107 83.41318
#
# Poissons Ratio (x) = 0.01670 0.14399
# Poissons Ratio (y) = 0.02496 0.58219
# Poissons Ratio (z) = 0.17581 0.47567
#
# Static dielectric constant tensor:
#      x y z
#    x 3.911650 0.000000 -0.201860 
#    y 0.000000 3.623510 0.000000 
#    z -0.201860 0.000000 3.602650 
# 
# 
# High freq. dielectric constant tensor:
#      x y z
#    x 1.806570 0.000000 -0.013540 
#    y 0.000000 1.776960 0.000000 
#    z -0.013540 0.000000 1.783760 
# 
# From -- ./inp_files/27390.got.cif
#   From: 2010.06.25/outbox.cif.g09.slc.cpg/sg12_14_cif.got.tgz:27390.got - 2010.06.28 00:19:55.
