data_PCOD8101295
_publ_section_title
;
Structure prediction by ZEFSAII (Michael W. Deem and Ramdas Pophale) SiO2 
 PCOD8101295
Probable space group: C 2/M
;
_chemical_formula_sum "Si O2"
_cell_formula_units_Z 52
_cell_length_a 25.411736
_cell_length_b 11.712181
_cell_length_c 9.442769
_cell_angle_alpha 90.000000
_cell_angle_beta 70.200954
_cell_angle_gamma 90.000000
_cell_volume 2644.287494
_symmetry_space_group_name_H-M "C 2/M"
_symmetry_group_IT_number 12
_symmetry_cell_setting 'monoclinic'
loop_
_space_group_symop_operation_xyz
x,y,z
-x,y,-z
-x,-y,-z
x,-y,z
1/2+x,1/2+y,z
1/2-x,1/2+y,-z
1/2-x,1/2-y,-z
1/2+x,1/2-y,z
loop_
_atom_site_type_symbol
_atom_site_label
_atom_site_fract_x
_atom_site_fract_y
_atom_site_fract_z
Si Si1 0.950301 0.000000 0.226755
Si Si2 0.093462 0.769351 0.826776
Si Si3 0.928956 0.000000 0.760013
Si Si4 0.813289 0.222921 0.476368
Si Si5 0.475847 0.131526 0.321112
Si Si6 0.640240 0.500000 0.459412
Si Si7 0.379957 0.869556 0.619326
Si Si8 0.411663 0.746148 0.850681
O O1 0.946444 0.883715 0.135746
O O2 0.895011 0.000000 0.367424
O O3 0.003840 0.000000 0.282121
O O4 0.153615 0.795013 0.701494
O O5 0.065533 0.665884 0.767260
O O6 0.101188 0.717989 0.977033
O O7 0.906603 0.000000 0.620105
O O8 0.904024 0.110410 0.858381
O O9 0.750000 0.250000 0.500000
O O10 0.820643 0.112333 0.572292
O O11 0.836224 0.330762 0.541406
O O12 0.443444 0.148453 0.500725
O O13 0.527909 0.215684 0.261240
O O14 0.494802 0.000000 0.285530
O O15 0.369429 0.802170 0.775938
O O16 0.368341 0.000000 0.663606
#
# Coordination Sequence:
#
# PCOD8101295 Si02
#       8
#     4   8   4   8   8   4   8   8
#     4  10  20  36  57  87 124 157 189 222 282 351
#     4  10  22  37  56  87 115 151 193 235 282 342
#     4  12  22  32  59  89 127 155 180 233 286 345
#     4  10  22  42  66  82 106 146 197 247 289 339
#     4  10  21  36  55  81 116 160 196 224 269 339
#     4  10  21  38  62  92 112 145 198 240 284 343
#     4  10  22  39  58  83 115 150 196 236 282 341
#     4  12  22  34  56  84 125 151 184 231 287 340
#
# _framework density 19.665032
#
# number of rings (size 3 to 8) (size 9 to 14) (size 15 to 20)
#    0.000    1.538    3.077    2.077    1.077    4.923 
#    0.000    0.769    0.000    0.000    0.000    0.000 
#    0.000    0.000    0.000    0.000    0.000    0.000 
#
# Total GULP energy -322269.448739 kJ/mol
# GULP energy per Si atom -12394.978798 kJ/mol
# Density = 1.962027 g / cm^3
# Si number density = 19.665032 Si / 1000 Ang^3
#
#
#
# Elastic Constant Matrix: (Units=GPa)
#
#
# Indices 1 2 3 4 5 6 
#
# 1 100.9875 26.9512 28.5201 0.0000 7.6767 0.0000
# 2 26.9512 112.1381 39.0660 0.0000 7.1427 0.0000
# 3 28.5201 39.0660 110.5426 0.0000 22.7229 0.0000
# 4 0.0000 0.0000 0.0000 20.4008 0.0000 7.3091
# 5 7.6767 7.1427 22.7229 0.0000 18.4579 0.0000
# 6 0.0000 0.0000 0.0000 7.3091 0.0000 22.2104
#
#
#
# Elastic Compliance Matrix: (Units=1/GPa)
#
#
# Indices 1 2 3 4 5 6 
#
# 1 0.011055 -0.001911 -0.001853 0.000000 -0.001578 0.000000
# 2 -0.001911 0.010506 -0.003410 0.000000 0.000928 0.000000
# 3 -0.001853 -0.003410 0.013789 0.000000 -0.014885 0.000000
# 4 0.000000 0.000000 0.000000 0.055569 0.000000 -0.018287
# 5 -0.001578 0.000928 -0.014885 0.000000 0.072799 0.000000
# 6 0.000000 0.000000 0.000000 -0.018287 0.000000 0.051042
#
#
# Mechanical properties :
#
#
# Convention : Reuss Voigt Hill
#
# Bulk Modulus (GPa) = 47.61400 56.97142 52.29271
# Shear Modulus (GPa) = 21.17651 27.48920 24.33285
#
# Velocity S-wave (km/s) = 3.28512 3.74287 3.52144
# Velocity P-wave (km/s) = 6.21727 6.90743 6.57141
#
# Compressibility (1/GPa) = 0.02100222
#
# Stress axis : x y z
#
# Youngs Moduli (GPa) = 90.45364 95.18445 72.51997
#
# Poissons Ratio (x) = 0.18191 0.13435
# Poissons Ratio (y) = 0.17287 0.24733
# Poissons Ratio (z) = 0.16757 0.32462
#
# Static dielectric constant tensor:
#      x y z
#    x 3.269910 0.000000 0.218080 
#    y 0.000000 3.970090 0.000000 
#    z 0.218080 0.000000 3.485960 
# 
# 
# High freq. dielectric constant tensor:
#      x y z
#    x 1.732540 0.000000 0.027790 
#    y 0.000000 1.780460 0.000000 
#    z 0.027790 0.000000 1.757840 
# 
# From -- ./inp_files/102605.got.cif
#   From: 2010.06.25/outbox.cif.g09.slc.cpg/sg12_52_cif.got.tgz:102605.got - 2010.06.28 00:19:55.
