data_PCOD8101698
_publ_section_title
;
Structure prediction by ZEFSAII (Michael W. Deem and Ramdas Pophale) SiO2 
 PCOD8101698
Probable space group: C 2/M
;
_chemical_formula_sum "Si O2"
_cell_formula_units_Z 56
_cell_length_a 15.817275
_cell_length_b 8.798667
_cell_length_c 23.274114
_cell_angle_alpha 90.000000
_cell_angle_beta 122.171769
_cell_angle_gamma 90.000000
_cell_volume 2741.737670
_symmetry_space_group_name_H-M "C 2/M"
_symmetry_group_IT_number 12
_symmetry_cell_setting 'monoclinic'
loop_
_space_group_symop_operation_xyz
x,y,z
-x,y,-z
-x,-y,-z
x,-y,z
1/2+x,1/2+y,z
1/2-x,1/2+y,-z
1/2-x,1/2-y,-z
1/2+x,1/2-y,z
loop_
_atom_site_type_symbol
_atom_site_label
_atom_site_fract_x
_atom_site_fract_y
_atom_site_fract_z
Si Si1 0.901008 0.829081 0.427435
Si Si2 0.172236 0.322082 0.702867
Si Si3 0.215999 0.180685 0.837539
Si Si4 0.235865 0.173665 0.434631
Si Si5 0.951649 0.679013 0.154915
Si Si6 0.055838 0.319417 0.076340
Si Si7 0.620779 0.322996 0.286030
O O1 0.911008 0.767623 0.365624
O O2 0.832650 0.704549 0.432373
O O3 0.000000 0.831020 0.500000
O O4 0.855525 0.000000 0.410282
O O5 0.147352 0.500000 0.694548
O O6 0.164547 0.255535 0.763695
O O7 0.282212 0.287852 0.717532
O O8 0.153585 0.237391 0.870508
O O9 0.330085 0.239381 0.883416
O O10 0.211120 0.000000 0.831285
O O11 0.250000 0.250000 0.500000
O O12 0.141814 0.222074 0.360568
O O13 0.225817 0.000000 0.445833
O O14 0.932714 0.500000 0.146283
O O15 0.996598 0.740321 0.110932
O O16 0.030292 0.718336 0.233245
O O17 0.055616 0.500000 0.076353
O O18 0.000000 0.254736 0.000000
O O19 0.591486 0.500000 0.270002
#
# Coordination Sequence:
#
# PCOD8101698 Si02
#       7
#     8   8   8   8   8   8   8
#     4  10  21  36  55  80 113 153 195 243 298 359
#     4  10  20  36  59  84 114 152 197 251 302 357
#     4  11  22  38  62  91 122 161 203 247 301 360
#     4  10  21  36  55  80 111 152 196 248 302 355
#     4  11  22  37  61  92 121 157 204 249 297 358
#     4   9  20  40  64  90 124 163 201 247 303 362
#     4   9  19  36  57  81 113 151 194 247 304 357
#
# _framework density 20.425001999999999
#
# number of rings (size 3 to 8) (size 9 to 14) (size 15 to 20)
#    0.000    2.000    1.429    3.000    0.000    5.714 
#    0.000    1.429    0.000    6.000    0.000    0.000 
#    0.000    0.000    0.000    0.000    0.000    0.000 
#
# Total GULP energy -347095.706092 kJ/mol
# GULP energy per Si atom -12396.275218 kJ/mol
# Density = 2.037851 g / cm^3
# Si number density = 20.425002 Si / 1000 Ang^3
#
#
#
# Elastic Constant Matrix: (Units=GPa)
#
#
# Indices 1 2 3 4 5 6 
#
# 1 111.5720 29.1550 59.8564 0.0000 -8.6862 0.0000
# 2 29.1550 56.4499 43.4957 0.0000 0.3360 0.0000
# 3 59.8564 43.4957 150.7538 0.0000 -12.3694 0.0000
# 4 0.0000 0.0000 0.0000 21.6980 0.0000 -1.9184
# 5 -8.6862 0.3360 -12.3694 0.0000 23.7743 0.0000
# 6 0.0000 0.0000 0.0000 -1.9184 0.0000 32.0783
#
#
#
# Elastic Compliance Matrix: (Units=1/GPa)
#
#
# Indices 1 2 3 4 5 6 
#
# 1 0.011969 -0.003470 -0.003539 0.000000 0.002581 0.000000
# 2 -0.003470 0.024138 -0.005974 0.000000 -0.004717 0.000000
# 3 -0.003539 -0.005974 0.010094 0.000000 0.004043 0.000000
# 4 0.000000 0.000000 0.000000 0.046332 0.000000 0.002771
# 5 0.002581 -0.004717 0.004043 0.000000 0.045175 0.000000
# 6 0.000000 0.000000 0.000000 0.002771 0.000000 0.031339
#
#
# Mechanical properties :
#
#
# Convention : Reuss Voigt Hill
#
# Bulk Modulus (GPa) = 49.41934 64.86554 57.14244
# Shear Modulus (GPa) = 24.78204 27.92800 26.35502
#
# Velocity S-wave (km/s) = 3.48705 3.70177 3.59602
# Velocity P-wave (km/s) = 6.36088 7.07797 6.72898
#
# Compressibility (1/GPa) = 0.02023499
#
# Stress axis : x y z
#
# Youngs Moduli (GPa) = 83.54668 41.42880 99.06976
#
# Poissons Ratio (x) = 0.14376 0.35066
# Poissons Ratio (y) = 0.28991 0.59180
# Poissons Ratio (z) = 0.29571 0.24748
#
# Static dielectric constant tensor:
#      x y z
#    x 3.725400 0.000000 -0.142670 
#    y 0.000000 3.650350 0.000000 
#    z -0.142670 0.000000 3.966540 
# 
# 
# High freq. dielectric constant tensor:
#      x y z
#    x 1.787320 0.000000 -0.007070 
#    y 0.000000 1.790340 0.000000 
#    z -0.007070 0.000000 1.806320 
# 
# From -- ./inp_files/339057.got.cif
#   From: 2010.06.25/outbox.cif.g09.slc.cpg/sg12_170_cif.got.tgz:339057.got - 2010.06.28 00:19:55.
