data_PCOD8101488
_publ_section_title
;
Structure prediction by ZEFSAII (Michael W. Deem and Ramdas Pophale) SiO2 
 PCOD8101488
Probable space group: C 2/M
;
_chemical_formula_sum "Si O2"
_cell_formula_units_Z 44
_cell_length_a 23.220249
_cell_length_b 19.057612
_cell_length_c 5.281709
_cell_angle_alpha 90.000000
_cell_angle_beta 99.694168
_cell_angle_gamma 90.000000
_cell_volume 2303.900197
_symmetry_space_group_name_H-M "C 2/M"
_symmetry_group_IT_number 12
_symmetry_cell_setting 'monoclinic'
loop_
_space_group_symop_operation_xyz
x,y,z
-x,y,-z
-x,-y,-z
x,-y,z
1/2+x,1/2+y,z
1/2-x,1/2+y,-z
1/2-x,1/2-y,-z
1/2+x,1/2-y,z
loop_
_atom_site_type_symbol
_atom_site_label
_atom_site_fract_x
_atom_site_fract_y
_atom_site_fract_z
Si Si1 0.961334 0.000000 0.216775
Si Si2 0.336405 0.709466 0.131347
Si Si3 0.858622 0.079060 0.807125
Si Si4 0.213945 0.662788 0.127892
Si Si5 0.066705 0.136404 0.568230
Si Si6 0.770396 0.421654 0.379372
O O1 0.925965 0.924979 0.207898
O O2 0.000000 0.000000 0.500000
O O3 0.000000 0.000000 0.000000
O O4 0.274204 0.705772 0.231019
O O5 0.393632 0.706161 0.354146
O O6 0.341722 0.635961 0.997801
O O7 0.336818 0.778654 0.955251
O O8 0.913286 0.102087 0.678999
O O9 0.798468 0.072793 0.601233
O O10 0.874386 0.000000 0.927954
O O11 0.197555 0.619128 0.366475
O O12 0.217439 0.614983 0.880520
O O13 0.000000 0.162003 0.500000
O O14 0.796906 0.500000 0.383550
#
# Coordination Sequence:
#
# PCOD8101488 Si02
#       6
#     4   8   8   8   8   8
#     4  10  24  38  50  70 102 148 194 234 261 289
#     4  10  23  33  54  73 109 147 188 224 274 320
#     4  10  21  34  51  77 107 150 191 229 264 303
#     4  10  21  37  56  80 109 144 178 223 276 334
#     4  11  23  34  50  73 106 146 194 234 262 307
#     4  10  20  36  58  84 111 137 180 224 275 331
#
# _framework density 19.098049
#
# number of rings (size 3 to 8) (size 9 to 14) (size 15 to 20)
#    0.000    1.818    2.727    0.545    8.909    2.909 
#    0.000    0.000    0.000    0.000    0.000    0.000 
#    0.000    4.364    0.000    0.000    0.000    0.000 
#
# Total GULP energy -272629.348872 kJ/mol
# GULP energy per Si atom -12392.243131 kJ/mol
# Density = 1.905458 g / cm^3
# Si number density = 19.098049 Si / 1000 Ang^3
#
#
#
# Elastic Constant Matrix: (Units=GPa)
#
#
# Indices 1 2 3 4 5 6 
#
# 1 63.6523 33.9824 17.9689 0.0000 14.7434 0.0000
# 2 33.9824 89.0418 25.9886 0.0000 31.2380 0.0000
# 3 17.9689 25.9886 75.0378 0.0000 6.1346 0.0000
# 4 0.0000 0.0000 0.0000 28.4895 0.0000 11.0725
# 5 14.7434 31.2380 6.1346 0.0000 23.5872 0.0000
# 6 0.0000 0.0000 0.0000 11.0725 0.0000 31.0013
#
#
#
# Elastic Compliance Matrix: (Units=1/GPa)
#
#
# Indices 1 2 3 4 5 6 
#
# 1 0.020444 -0.005199 -0.002670 0.000000 -0.005199 0.000000
# 2 -0.005199 0.024403 -0.004935 0.000000 -0.027785 0.000000
# 3 -0.002670 -0.004935 0.015330 0.000000 0.004218 0.000000
# 4 0.000000 0.000000 0.000000 0.040758 0.000000 -0.014557
# 5 -0.005199 -0.027785 0.004218 0.000000 0.081346 0.000000
# 6 0.000000 0.000000 0.000000 -0.014557 0.000000 0.037456
#
#
# Mechanical properties :
#
#
# Convention : Reuss Voigt Hill
#
# Bulk Modulus (GPa) = 28.92794 42.62353 35.77574
# Shear Modulus (GPa) = 19.46516 26.60174 23.03345
#
# Velocity S-wave (km/s) = 3.19599 3.73621 3.47661
# Velocity P-wave (km/s) = 5.36648 6.40149 5.90670
#
# Compressibility (1/GPa) = 0.03456865
#
# Stress axis : x y z
#
# Youngs Moduli (GPa) = 48.91423 40.97847 65.22985
#
# Poissons Ratio (x) = 0.21306 0.17416
# Poissons Ratio (y) = 0.25432 0.32192
# Poissons Ratio (z) = 0.13060 0.20224
#
# Static dielectric constant tensor:
#      x y z
#    x 3.670780 0.000000 0.381480 
#    y 0.000000 3.857580 0.000000 
#    z 0.381480 0.000000 3.648830 
# 
# 
# High freq. dielectric constant tensor:
#      x y z
#    x 1.704190 0.000000 0.009050 
#    y 0.000000 1.733390 0.000000 
#    z 0.009050 0.000000 1.758560 
# 
# From -- ./inp_files/20404.got.cif
#   From: 2010.06.25/outbox.cif.g09.slc.cpg/sg12_11_cif.got.tgz:20404.got - 2010.06.28 00:19:55.
