data_PCOD8101580
_publ_section_title
;
Structure prediction by ZEFSAII (Michael W. Deem and Ramdas Pophale) SiO2 
 PCOD8101580
Probable space group: C 2/M
;
_chemical_formula_sum "Si O2"
_cell_formula_units_Z 48
_cell_length_a 24.454993
_cell_length_b 9.069328
_cell_length_c 24.024422
_cell_angle_alpha 90.000000
_cell_angle_beta 26.374740
_cell_angle_gamma 90.000000
_cell_volume 2367.083063
_symmetry_space_group_name_H-M "C 2/M"
_symmetry_group_IT_number 12
_symmetry_cell_setting 'monoclinic'
loop_
_space_group_symop_operation_xyz
x,y,z
-x,y,-z
-x,-y,-z
x,-y,z
1/2+x,1/2+y,z
1/2-x,1/2+y,-z
1/2-x,1/2-y,-z
1/2+x,1/2-y,z
loop_
_atom_site_type_symbol
_atom_site_label
_atom_site_fract_x
_atom_site_fract_y
_atom_site_fract_z
Si Si1 0.534520 0.334622 0.832654
Si Si2 0.908962 0.171045 0.501600
Si Si3 0.236076 0.666977 0.455974
Si Si4 0.294223 0.172302 0.015835
Si Si5 0.691389 0.668352 0.225884
Si Si6 0.273296 0.673597 0.252233
O O1 0.479797 0.500000 0.887483
O O2 0.635041 0.329261 0.692884
O O3 0.599991 0.287638 0.831029
O O4 0.429030 0.221437 0.912403
O O5 0.869004 0.248820 0.481525
O O6 0.843414 0.245834 0.613790
O O7 0.054445 0.192243 0.373248
O O8 0.871840 0.000000 0.533928
O O9 0.192303 0.500000 0.505950
O O10 0.250000 0.750000 0.500000
O O11 0.202026 0.211043 0.150923
O O12 0.296782 0.000000 0.000623
O O13 0.250000 0.250000 0.000000
O O14 0.733944 0.500000 0.194937
O O15 0.781984 0.770575 0.180541
O O16 0.249020 0.500000 0.277232
#
# Coordination Sequence:
#
# PCOD8101580 Si02
#       6
#     8   8   8   8   8   8
#     4   9  21  41  60  83 119 155 192 245 298 348
#     4  10  20  36  58  86 122 159 193 238 300 357
#     4  10  21  36  57  86 118 154 198 246 297 353
#     4  11  25  43  62  86 117 157 203 248 296 351
#     4  10  23  40  59  86 121 160 197 241 298 355
#     4  10  21  38  62  92 122 153 194 247 298 350
#
# _framework density 20.278120999999999
#
# number of rings (size 3 to 8) (size 9 to 14) (size 15 to 20)
#    0.000    2.000    0.000    3.500    2.333    9.333 
#    0.000    3.333    0.000    0.000    0.000    0.000 
#    0.000    0.000    0.000    0.000    0.000    0.000 
#
# Total GULP energy -297618.139082 kJ/mol
# GULP energy per Si atom -12400.755795 kJ/mol
# Density = 2.023197 g / cm^3
# Si number density = 20.278121 Si / 1000 Ang^3
#
#
#
# Elastic Constant Matrix: (Units=GPa)
#
#
# Indices 1 2 3 4 5 6 
#
# 1 162.3937 87.0978 43.5510 0.0009 11.6668 0.0003
# 2 87.0978 134.0354 43.9913 0.0024 0.5829 -0.0039
# 3 43.5510 43.9913 44.5382 0.0016 -7.7067 -0.0024
# 4 0.0009 0.0024 0.0016 30.2307 0.0008 1.2477
# 5 11.6668 0.5829 -7.7067 0.0008 25.0778 0.0003
# 6 0.0003 -0.0039 -0.0024 1.2477 0.0003 44.3306
#
#
#
# Elastic Compliance Matrix: (Units=1/GPa)
#
#
# Indices 1 2 3 4 5 6 
#
# 1 0.011326 -0.004834 -0.007597 0.000001 -0.007491 -0.000001
# 2 -0.004834 0.013458 -0.008694 0.000000 -0.000736 0.000001
# 3 -0.007597 -0.008694 0.041311 -0.000002 0.016432 0.000001
# 4 0.000001 0.000000 -0.000002 0.033117 -0.000002 -0.000932
# 5 -0.007491 -0.000736 0.016432 -0.000002 0.048428 0.000001
# 6 -0.000001 0.000001 0.000001 -0.000932 0.000001 0.022584
#
#
# Mechanical properties :
#
#
# Convention : Reuss Voigt Hill
#
# Bulk Modulus (GPa) = 41.93402 76.69418 59.31410
# Shear Modulus (GPa) = 22.68381 31.01630 26.85005
#
# Velocity S-wave (km/s) = 3.34823 3.91518 3.64275
# Velocity P-wave (km/s) = 5.97259 7.63816 6.85614
#
# Compressibility (1/GPa) = 0.02384699
#
# Stress axis : x y z
#
# Youngs Moduli (GPa) = 88.29293 74.30337 24.20667
#
# Poissons Ratio (x) = 0.35918 0.18389
# Poissons Ratio (y) = 0.42680 0.21044
# Poissons Ratio (z) = 0.67073 0.64596
#
# Static dielectric constant tensor:
#      x y z
#    x 3.775800 0.000010 0.082280 
#    y 0.000010 3.795110 0.000000 
#    z 0.082280 0.000000 3.578390 
# 
# 
# High freq. dielectric constant tensor:
#      x y z
#    x 1.807140 0.000000 0.006160 
#    y 0.000000 1.801060 0.000000 
#    z 0.006160 0.000000 1.779920 
# 
# From -- ./inp_files/348768.got.cif
#   From: 2010.06.25/outbox.cif.g09.slc.cpg/sg12_175_cif.got.tgz:348768.got - 2010.06.28 00:19:55.
