data_PCOD8101201
_publ_section_title
;
Structure prediction by ZEFSAII (Michael W. Deem and Ramdas Pophale) SiO2 
 PCOD8101201
Probable space group: C 2/M
;
_chemical_formula_sum "Si O2"
_cell_formula_units_Z 56
_cell_length_a 6.928740
_cell_length_b 26.716446
_cell_length_c 16.615485
_cell_angle_alpha 90.000000
_cell_angle_beta 54.492100
_cell_angle_gamma 90.000000
_cell_volume 2503.740340
_symmetry_space_group_name_H-M "C 2/M"
_symmetry_group_IT_number 12
_symmetry_cell_setting 'monoclinic'
loop_
_space_group_symop_operation_xyz
x,y,z
-x,y,-z
-x,-y,-z
x,-y,z
1/2+x,1/2+y,z
1/2-x,1/2+y,-z
1/2-x,1/2-y,-z
1/2+x,1/2-y,z
loop_
_atom_site_type_symbol
_atom_site_label
_atom_site_fract_x
_atom_site_fract_y
_atom_site_fract_z
Si Si1 0.421504 0.189563 0.324559
Si Si2 0.260435 0.646922 0.477872
Si Si3 0.032478 0.897784 0.185485
Si Si4 0.036290 0.405413 0.219762
Si Si5 0.551679 0.443287 0.355848
Si Si6 0.101422 0.197416 0.705637
Si Si7 0.747437 0.556931 0.985395
O O1 0.218823 0.171887 0.437505
O O2 0.445170 0.152019 0.244036
O O3 0.637197 0.183364 0.332640
O O4 0.424280 0.243186 0.280371
O O5 0.376998 0.591612 0.450946
O O6 0.430177 0.682348 0.380641
O O7 0.000000 0.643184 0.500000
O O8 0.779801 0.912601 0.208022
O O9 0.063265 0.837919 0.197447
O O10 0.040738 0.929353 0.264480
O O11 0.237705 0.913564 0.072670
O O12 0.830043 0.438025 0.312892
O O13 0.055760 0.418912 0.120699
O O14 0.468166 0.500000 0.390645
O O15 0.817607 0.500000 0.986837
O O16 0.500000 0.560558 0.000000
#
# Coordination Sequence:
#
# PCOD8101201 Si02
#       7
#     8   8   8   8   8   8   8
#     4  10  20  36  57  82 113 152 184 245 292 333
#     4   9  20  39  56  84 117 147 197 242 285 350
#     4   9  20  39  60  86 119 148 190 244 287 343
#     4  10  22  38  56  87 123 147 196 241 282 345
#     4  11  23  38  60  85 116 158 193 238 292 339
#     4   9  19  34  59  85 111 146 191 236 297 344
#     4   9  17  34  61  85 111 154 193 230 284 340
#
# _framework density 22.366537999999998
#
# number of rings (size 3 to 8) (size 9 to 14) (size 15 to 20)
#    0.000    2.429    0.000    2.143    4.000    3.143 
#    0.000    4.286    0.000    0.000    0.000    0.000 
#    0.000    0.000    0.000    0.000    0.000    0.000 
#
# Total GULP energy -346917.042382 kJ/mol
# GULP energy per Si atom -12389.894371 kJ/mol
# Density = 2.231563 g / cm^3
# Si number density = 22.366538 Si / 1000 Ang^3
#
#
#
# Elastic Constant Matrix: (Units=GPa)
#
#
# Indices 1 2 3 4 5 6 
#
# 1 29.2560 -2.8199 12.9930 0.0000 12.1118 0.0000
# 2 -2.8199 197.6538 79.4715 0.0000 4.8929 0.0000
# 3 12.9930 79.4715 127.0323 0.0000 8.4462 0.0000
# 4 0.0000 0.0000 0.0000 48.1552 0.0000 14.0677
# 5 12.1118 4.8929 8.4462 0.0000 20.5952 0.0000
# 6 0.0000 0.0000 0.0000 14.0677 0.0000 31.0328
#
#
#
# Elastic Compliance Matrix: (Units=1/GPa)
#
#
# Indices 1 2 3 4 5 6 
#
# 1 0.047999 0.003481 -0.005300 0.000000 -0.026881 0.000000
# 2 0.003481 0.007012 -0.004622 0.000000 -0.001818 0.000000
# 3 -0.005300 -0.004622 0.011335 0.000000 -0.000433 0.000000
# 4 0.000000 0.000000 0.000000 0.023936 0.000000 -0.010851
# 5 -0.026881 -0.001818 -0.000433 0.000000 0.064973 0.000000
# 6 0.000000 0.000000 0.000000 -0.010851 0.000000 0.037143
#
#
# Mechanical properties :
#
#
# Convention : Reuss Voigt Hill
#
# Bulk Modulus (GPa) = 18.70412 59.24792 38.97602
# Shear Modulus (GPa) = 22.41135 37.57647 29.99391
#
# Velocity S-wave (km/s) = 3.16888 4.10326 3.66596
# Velocity P-wave (km/s) = 4.66581 6.99972 5.94835
#
# Compressibility (1/GPa) = 0.05346416
#
# Stress axis : x y z
#
# Youngs Moduli (GPa) = 20.83375 142.60259 88.22556
#
# Poissons Ratio (x) = -0.49643 0.46759
# Poissons Ratio (y) = -0.07253 0.40780
# Poissons Ratio (z) = 0.11042 0.65914
#
# Static dielectric constant tensor:
#      x y z
#    x 4.213170 0.000000 0.008660 
#    y 0.000000 4.728850 0.000000 
#    z 0.008660 0.000000 4.160000 
# 
# 
# High freq. dielectric constant tensor:
#      x y z
#    x 1.905720 0.000000 0.002560 
#    y 0.000000 1.869470 0.000000 
#    z 0.002560 0.000000 1.865960 
# 
# From -- ./inp_files/259160.got.cif
#   From: 2010.06.25/outbox.cif.g09.slc.cpg/sg12_130_cif.got.tgz:259160.got - 2010.06.28 00:19:55.
