data_PCOD8101917
_publ_section_title
;
Structure prediction by ZEFSAII (Michael W. Deem and Ramdas Pophale) SiO2 
 PCOD8101917
Probable space group: C 2/M
;
_chemical_formula_sum "Si O2"
_cell_formula_units_Z 52
_cell_length_a 22.599405
_cell_length_b 10.649874
_cell_length_c 21.527617
_cell_angle_alpha 90.000000
_cell_angle_beta 150.790937
_cell_angle_gamma 90.000000
_cell_volume 2528.455041
_symmetry_space_group_name_H-M "C 2/M"
_symmetry_group_IT_number 12
_symmetry_cell_setting 'monoclinic'
loop_
_space_group_symop_operation_xyz
x,y,z
-x,y,-z
-x,-y,-z
x,-y,z
1/2+x,1/2+y,z
1/2-x,1/2+y,-z
1/2-x,1/2-y,-z
1/2+x,1/2-y,z
loop_
_atom_site_type_symbol
_atom_site_label
_atom_site_fract_x
_atom_site_fract_y
_atom_site_fract_z
Si Si1 0.296143 0.143208 0.090094
Si Si2 0.622985 0.739976 0.188066
Si Si3 0.036312 0.000000 0.388703
Si Si4 0.216261 0.860598 0.391228
Si Si5 0.763543 0.500000 0.687210
Si Si6 0.161492 0.244154 0.082771
Si Si7 0.783162 0.000000 0.214726
Si Si8 0.442734 0.757776 0.656383
O O1 0.235849 0.157261 0.103136
O O2 0.440571 0.155930 0.227032
O O3 0.267354 0.000000 0.040741
O O4 0.250000 0.250000 0.000000
O O5 0.683949 0.638201 0.288928
O O6 0.677396 0.708040 0.169958
O O7 0.653960 0.877367 0.242818
O O8 0.479181 0.730749 0.061016
O O9 0.162438 0.000000 0.541174
O O10 0.019568 0.120858 0.330974
O O11 0.924397 0.000000 0.331844
O O12 0.357249 0.824972 0.527581
O O13 0.131666 0.758021 0.347768
O O14 0.194793 0.000000 0.399069
O O15 0.706575 0.500000 0.702468
O O16 0.210272 0.384402 0.118560
#
# Coordination Sequence:
#
# PCOD8101917 Si02
#       8
#     8   8   4   8   4   8   4   8
#     4  12  28  47  68  96 130 168 213 262 323 390
#     4  10  21  39  62  93 127 169 214 266 316 375
#     4  12  19  38  68  94 128 164 218 267 317 382
#     4  11  23  41  64  92 126 169 216 263 321 387
#     4  10  20  36  59  99 128 168 216 263 317 372
#     4  10  22  40  64  92 130 170 212 264 319 378
#     4  10  20  36  65  91 134 171 212 262 318 380
#     4  11  24  42  64  94 129 167 209 268 328 378
#
# _framework density 20.565916999999999
#
# number of rings (size 3 to 8) (size 9 to 14) (size 15 to 20)
#    0.000    1.231    3.846    2.077    2.154    4.308 
#    4.154    2.308    0.000    1.846    0.000    0.000 
#    0.000    0.000    0.000    0.000    0.000    0.000 
#
# Total GULP energy -322352.479040 kJ/mol
# GULP energy per Si atom -12398.172271 kJ/mol
# Density = 2.051911 g / cm^3
# Si number density = 20.565917 Si / 1000 Ang^3
#
#
#
# Elastic Constant Matrix: (Units=GPa)
#
#
# Indices 1 2 3 4 5 6 
#
# 1 88.0245 30.7258 47.2185 0.0000 7.9701 0.0000
# 2 30.7258 104.1989 28.9370 0.0001 -2.9209 0.0001
# 3 47.2185 28.9370 118.2921 0.0002 1.9239 0.0001
# 4 0.0000 0.0001 0.0002 27.9605 0.0001 -4.3694
# 5 7.9701 -2.9209 1.9239 0.0001 34.1693 0.0000
# 6 0.0000 0.0001 0.0001 -4.3694 0.0000 29.7892
#
#
#
# Elastic Compliance Matrix: (Units=1/GPa)
#
#
# Indices 1 2 3 4 5 6 
#
# 1 0.015731 -0.003233 -0.005429 0.000000 -0.003640 0.000000
# 2 -0.003233 0.010997 -0.001428 0.000000 0.001775 0.000000
# 3 -0.005429 -0.001428 0.010962 0.000000 0.000527 0.000000
# 4 0.000000 0.000000 0.000000 0.036604 0.000000 0.005369
# 5 -0.003640 0.001775 0.000527 0.000000 0.030237 0.000000
# 6 0.000000 0.000000 0.000000 0.005369 0.000000 0.034357
#
#
# Mechanical properties :
#
#
# Convention : Reuss Voigt Hill
#
# Bulk Modulus (GPa) = 57.11632 58.25312 57.68472
# Shear Modulus (GPa) = 30.32063 31.95942 31.14002
#
# Velocity S-wave (km/s) = 3.84385 3.94636 3.89544
# Velocity P-wave (km/s) = 6.89440 7.01082 6.95285
#
# Compressibility (1/GPa) = 0.01750813
#
# Stress axis : x y z
#
# Youngs Moduli (GPa) = 63.56906 90.93567 91.22682
#
# Poissons Ratio (x) = 0.29399 0.49529
# Poissons Ratio (y) = 0.20552 0.13031
# Poissons Ratio (z) = 0.34513 0.12990
#
# Static dielectric constant tensor:
#      x y z
#    x 3.787720 0.000000 -0.002990 
#    y 0.000000 3.697800 0.000000 
#    z -0.002990 0.000000 3.707960 
# 
# 
# High freq. dielectric constant tensor:
#      x y z
#    x 1.808420 0.000000 -0.000160 
#    y 0.000000 1.801630 0.000000 
#    z -0.000160 0.000000 1.810950 
# 
# From -- ./inp_files/321610.got.cif
#   From: 2010.06.25/outbox.cif.g09.slc.cpg/sg12_161_cif.got.tgz:321610.got - 2010.06.28 00:19:55.
