data_PCOD8101053
_publ_section_title
;
Structure prediction by ZEFSAII (Michael W. Deem and Ramdas Pophale) SiO2 
 PCOD8101053
Probable space group: C 2/M
;
_chemical_formula_sum "Si O2"
_cell_formula_units_Z 44
_cell_length_a 24.867137
_cell_length_b 11.022067
_cell_length_c 16.080762
_cell_angle_alpha 90.000000
_cell_angle_beta 34.135921
_cell_angle_gamma 90.000000
_cell_volume 2473.321875
_symmetry_space_group_name_H-M "C 2/M"
_symmetry_group_IT_number 12
_symmetry_cell_setting 'monoclinic'
loop_
_space_group_symop_operation_xyz
x,y,z
-x,y,-z
-x,-y,-z
x,-y,z
1/2+x,1/2+y,z
1/2-x,1/2+y,-z
1/2-x,1/2-y,-z
1/2+x,1/2-y,z
loop_
_atom_site_type_symbol
_atom_site_label
_atom_site_fract_x
_atom_site_fract_y
_atom_site_fract_z
Si Si1 0.638051 0.000000 0.279459
Si Si2 0.976432 0.141415 0.857547
Si Si3 0.138233 0.706144 0.569137
Si Si4 0.784722 0.862013 0.010633
Si Si5 0.000000 0.735723 0.000000
Si Si6 0.949165 0.500000 0.429106
Si Si7 0.309718 0.866605 0.319599
O O1 0.562346 0.000000 0.300016
O O2 0.597155 0.000000 0.422111
O O3 0.703348 0.879089 0.185602
O O4 0.882705 0.181416 0.927115
O O5 0.068613 0.190238 0.691838
O O6 0.968037 0.184262 0.962988
O O7 0.988243 0.000000 0.845072
O O8 0.081249 0.620230 0.579892
O O9 0.227647 0.766906 0.405167
O O10 0.174713 0.629650 0.600954
O O11 0.795331 0.000000 0.954469
O O12 0.750000 0.750000 0.000000
O O13 0.908290 0.656496 0.143961
O O14 0.273791 0.000000 0.338633
#
# Coordination Sequence:
#
# PCOD8101053 Si02
#       7
#     4   8   8   8   4   4   8
#     4   9  22  34  60  84 108 144 191 235 285 330
#     4  10  20  36  56  84 113 146 190 230 284 337
#     4  10  21  33  59  77 110 153 184 225 280 331
#     4   9  19  36  58  83 113 144 189 235 282 338
#     4  10  22  34  56  84 112 150 178 240 280 340
#     4  11  20  38  56  83 112 145 190 237 272 340
#     4  10  20  37  51  82 112 147 188 221 278 340
#
# _framework density 17.789839000000001
#
# number of rings (size 3 to 8) (size 9 to 14) (size 15 to 20)
#    0.545    1.636    0.909    2.182    2.545    0.000 
#    1.636    0.000    0.000    0.000    0.000    6.364 
#    0.000    0.000    0.000    0.000    0.000    0.000 
#
# Total GULP energy -272586.858457 kJ/mol
# GULP energy per Si atom -12390.311748 kJ/mol
# Density = 1.774935 g / cm^3
# Si number density = 17.789839 Si / 1000 Ang^3
#
#
#
# Elastic Constant Matrix: (Units=GPa)
#
#
# Indices 1 2 3 4 5 6 
#
# 1 68.9536 35.7299 18.8893 0.0000 1.7800 0.0000
# 2 35.7299 91.0773 27.3786 0.0001 5.7922 0.0000
# 3 18.8893 27.3786 100.9093 0.0000 -6.7361 0.0000
# 4 0.0000 0.0001 0.0000 5.1644 0.0000 0.7980
# 5 1.7800 5.7922 -6.7361 0.0000 21.9784 0.0000
# 6 0.0000 0.0000 0.0000 0.7980 0.0000 23.0633
#
#
#
# Elastic Compliance Matrix: (Units=1/GPa)
#
#
# Indices 1 2 3 4 5 6 
#
# 1 0.018444 -0.006728 -0.001642 0.000000 -0.000224 0.000000
# 2 -0.006728 0.014807 -0.003044 0.000000 -0.004290 0.000000
# 3 -0.001642 -0.003044 0.011338 0.000000 0.004410 0.000000
# 4 0.000000 0.000000 0.000000 0.194675 0.000000 -0.006736
# 5 -0.000224 -0.004290 0.004410 0.000000 0.048000 0.000000
# 6 0.000000 0.000000 0.000000 -0.006736 0.000000 0.043592
#
#
# Mechanical properties :
#
#
# Convention : Reuss Voigt Hill
#
# Bulk Modulus (GPa) = 45.95554 47.21507 46.58531
# Shear Modulus (GPa) = 13.85279 21.97070 17.91175
#
# Velocity S-wave (km/s) = 2.79353 3.51809 3.17654
# Velocity P-wave (km/s) = 6.02442 6.56511 6.30057
#
# Compressibility (1/GPa) = 0.02176016
#
# Stress axis : x y z
#
# Youngs Moduli (GPa) = 54.21710 67.53515 88.20127
#
# Poissons Ratio (x) = 0.45437 0.14484
# Poissons Ratio (y) = 0.36477 0.26852
# Poissons Ratio (z) = 0.08903 0.20561
#
# Static dielectric constant tensor:
#      x y z
#    x 2.418350 0.000000 -0.978940 
#    y 0.000000 3.248250 0.000000 
#    z -0.978940 0.000000 2.905830 
# 
# 
# High freq. dielectric constant tensor:
#      x y z
#    x 1.677440 0.000000 -0.018280 
#    y 0.000000 1.690300 0.000000 
#    z -0.018280 0.000000 1.695800 
# 
# From -- ./inp_files/232290.got.cif
#   From: 2010.06.25/outbox.cif.g09.slc.cpg/sg12_117_cif.got.tgz:232290.got - 2010.06.28 00:19:55.
