data_PCOD8101209
_publ_section_title
;
Structure prediction by ZEFSAII (Michael W. Deem and Ramdas Pophale) SiO2 
 PCOD8101209
Probable space group: C 2/M
;
_chemical_formula_sum "Si O2"
_cell_formula_units_Z 64
_cell_length_a 26.544700
_cell_length_b 11.696758
_cell_length_c 15.917534
_cell_angle_alpha 90.000000
_cell_angle_beta 140.701009
_cell_angle_gamma 90.000000
_cell_volume 3130.218919
_symmetry_space_group_name_H-M "C 2/M"
_symmetry_group_IT_number 12
_symmetry_cell_setting 'monoclinic'
loop_
_space_group_symop_operation_xyz
x,y,z
-x,y,-z
-x,-y,-z
x,-y,z
1/2+x,1/2+y,z
1/2-x,1/2+y,-z
1/2-x,1/2-y,-z
1/2+x,1/2-y,z
loop_
_atom_site_type_symbol
_atom_site_label
_atom_site_fract_x
_atom_site_fract_y
_atom_site_fract_z
Si Si1 0.277409 0.776675 0.238083
Si Si2 0.712573 0.126622 0.923539
Si Si3 0.492598 0.372543 0.256677
Si Si4 0.977648 0.371674 0.883611
Si Si5 0.067996 0.866153 0.521773
Si Si6 0.134390 0.211537 0.346255
Si Si7 0.273230 0.129720 0.415290
Si Si8 0.880145 0.308408 0.049439
O O1 0.305441 0.861381 0.198935
O O2 0.348829 0.689410 0.345941
O O3 0.257804 0.847773 0.296817
O O4 0.198111 0.707333 0.109091
O O5 0.636965 0.117351 0.888548
O O6 0.756118 0.000000 0.990784
O O7 0.750000 0.250000 0.000000
O O8 0.466457 0.500000 0.244438
O O9 0.532403 0.314271 0.389728
O O10 0.559885 0.369203 0.271733
O O11 0.411446 0.314470 0.121430
O O12 0.952888 0.500000 0.870781
O O13 0.896517 0.316863 0.747829
O O14 0.050194 0.369374 0.911794
O O15 0.000000 0.309916 0.000000
O O16 0.000000 0.838357 0.500000
O O17 0.085633 0.000000 0.535196
O O18 0.193243 0.135075 0.367315
O O19 0.171019 0.269125 0.477397
O O20 0.307454 0.000000 0.469014
#
# Coordination Sequence:
#
# PCOD8101209 Si02
#       8
#     8   8   8   8   8   8   8   8
#     4  11  22  39  61  93 127 158 210 260 319 376
#     4  10  22  39  60  87 125 165 208 259 316 377
#     4  10  20  38  61  88 121 163 207 252 308 372
#     4  10  20  36  57  82 116 155 200 250 308 372
#     4  10  21  38  62  90 123 162 209 261 313 370
#     4  10  21  38  57  84 118 157 203 252 306 372
#     4  11  22  37  59  85 119 159 201 253 314 379
#     4  10  22  37  61  89 124 161 206 256 313 378
#
# _framework density 20.445855000000002
#
# number of rings (size 3 to 8) (size 9 to 14) (size 15 to 20)
#    0.000    1.750    1.250    3.000    0.000    5.000 
#    0.000    1.875    0.000    5.625    0.000    0.000 
#    0.000    0.000    0.000    0.000    0.000    0.000 
#
# Total GULP energy -396424.352702 kJ/mol
# GULP energy per Si atom -12388.261022 kJ/mol
# Density = 2.039932 g / cm^3
# Si number density = 20.445855 Si / 1000 Ang^3
#
#
#
# Elastic Constant Matrix: (Units=GPa)
#
#
# Indices 1 2 3 4 5 6 
#
# 1 68.4827 22.0641 19.2762 0.0000 -21.7734 0.0000
# 2 22.0641 93.3239 29.5775 0.0000 -2.8283 0.0000
# 3 19.2762 29.5775 107.2170 0.0000 -5.0901 0.0000
# 4 0.0000 0.0000 0.0000 21.7131 0.0000 2.4931
# 5 -21.7734 -2.8283 -5.0901 0.0000 41.7765 0.0000
# 6 0.0000 0.0000 0.0000 2.4931 0.0000 11.4458
#
#
#
# Elastic Compliance Matrix: (Units=1/GPa)
#
#
# Indices 1 2 3 4 5 6 
#
# 1 0.019409 -0.003656 -0.002024 0.000000 0.009622 0.000000
# 2 -0.003656 0.012437 -0.002841 0.000000 -0.001409 0.000000
# 3 -0.002024 -0.002841 0.010476 0.000000 0.000029 0.000000
# 4 0.000000 0.000000 0.000000 0.047236 0.000000 -0.010289
# 5 0.009622 -0.001409 0.000029 0.000000 0.028860 0.000000
# 6 0.000000 0.000000 0.000000 -0.010289 0.000000 0.089609
#
#
# Mechanical properties :
#
#
# Convention : Reuss Voigt Hill
#
# Bulk Modulus (GPa) = 39.55551 45.65101 42.60326
# Shear Modulus (GPa) = 21.41370 28.19413 24.80391
#
# Velocity S-wave (km/s) = 3.23977 3.71747 3.48681
# Velocity P-wave (km/s) = 5.77783 6.38767 6.09039
#
# Compressibility (1/GPa) = 0.02528093
#
# Stress axis : x y z
#
# Youngs Moduli (GPa) = 51.52285 80.40367 95.45783
#
# Poissons Ratio (x) = 0.29392 0.19323
# Poissons Ratio (y) = 0.18835 0.27117
# Poissons Ratio (z) = 0.10429 0.22840
#
# Static dielectric constant tensor:
#      x y z
#    x 3.967840 0.000000 -0.249380 
#    y 0.000000 3.585500 0.000000 
#    z -0.249380 0.000000 3.719740 
# 
# 
# High freq. dielectric constant tensor:
#      x y z
#    x 1.817440 0.000000 -0.013040 
#    y 0.000000 1.791660 0.000000 
#    z -0.013040 0.000000 1.790810 
# 
# From -- ./inp_files/245958.got.cif
#   From: 2010.06.25/outbox.cif.g09.slc.cpg/sg12_123_cif.got.tgz:245958.got - 2010.06.28 00:19:55.
