data_PCOD8101618
_publ_section_title
;
Structure prediction by ZEFSAII (Michael W. Deem and Ramdas Pophale) SiO2 
 PCOD8101618
Probable space group: C 2/M
;
_chemical_formula_sum "Si O2"
_cell_formula_units_Z 56
_cell_length_a 11.049277
_cell_length_b 18.544190
_cell_length_c 15.930355
_cell_angle_alpha 90.000000
_cell_angle_beta 54.237641
_cell_angle_gamma 90.000000
_cell_volume 2648.669949
_symmetry_space_group_name_H-M "C 2/M"
_symmetry_group_IT_number 12
_symmetry_cell_setting 'monoclinic'
loop_
_space_group_symop_operation_xyz
x,y,z
-x,y,-z
-x,-y,-z
x,-y,z
1/2+x,1/2+y,z
1/2-x,1/2+y,-z
1/2-x,1/2-y,-z
1/2+x,1/2-y,z
loop_
_atom_site_type_symbol
_atom_site_label
_atom_site_fract_x
_atom_site_fract_y
_atom_site_fract_z
Si Si1 0.923534 0.337783 0.448840
Si Si2 0.820533 0.662090 0.776709
Si Si3 0.966538 0.083348 0.107346
Si Si4 0.370410 0.813163 0.936643
Si Si5 0.751272 0.083891 0.889257
Si Si6 0.791792 0.692178 0.229854
Si Si7 0.348443 0.321592 0.534756
O O1 0.754806 0.363970 0.492145
O O2 0.910453 0.251741 0.467420
O O3 0.000000 0.373706 0.500000
O O4 0.029867 0.361984 0.330307
O O5 0.677315 0.622796 0.795165
O O6 0.830107 0.640890 0.870278
O O7 0.809487 0.748204 0.773520
O O8 0.097266 0.097359 0.120610
O O9 0.927292 0.000000 0.115026
O O10 0.000000 0.114437 0.000000
O O11 0.537605 0.783302 0.856804
O O12 0.250000 0.750000 0.000000
O O13 0.374185 0.870333 0.010974
O O14 0.755486 0.115637 0.792833
O O15 0.708549 0.000000 0.902105
O O16 0.759007 0.692303 0.342222
O O17 0.500000 0.365224 0.500000
#
# Coordination Sequence:
#
# PCOD8101618 Si02
#       7
#     8   8   8   8   8   8   8
#     4  10  20  36  58  89 125 161 204 260 328 380
#     4  12  22  35  62  94 123 161 210 265 315 377
#     4  10  22  40  61  87 125 173 216 254 310 379
#     4  12  24  37  56  92 133 164 210 261 312 372
#     4  11  25  43  62  88 131 179 214 253 312 388
#     4  12  24  37  61  94 128 166 213 260 319 380
#     4  10  20  37  57  88 128 164 201 264 320 383
#
# _framework density 21.142688
#
# number of rings (size 3 to 8) (size 9 to 14) (size 15 to 20)
#    0.000    1.000    7.143    1.286    0.000    2.286 
#    0.000    0.000    0.000    0.857    0.000    0.000 
#    0.000    0.000    0.000    0.000    0.000    0.000 
#
# Total GULP energy -346995.014696 kJ/mol
# GULP energy per Si atom -12392.679096 kJ/mol
# Density = 2.109457 g / cm^3
# Si number density = 21.142688 Si / 1000 Ang^3
#
#
#
# Elastic Constant Matrix: (Units=GPa)
#
#
# Indices 1 2 3 4 5 6 
#
# 1 144.5286 9.7297 38.7941 0.0000 -16.9122 0.0000
# 2 9.7297 49.4405 15.8335 0.0000 -3.4571 0.0000
# 3 38.7941 15.8335 107.1080 0.0000 -11.7387 0.0000
# 4 0.0000 0.0000 0.0000 15.3973 0.0000 1.0074
# 5 -16.9122 -3.4571 -11.7387 0.0000 38.3992 0.0000
# 6 0.0000 0.0000 0.0000 1.0074 0.0000 23.6851
#
#
#
# Elastic Compliance Matrix: (Units=1/GPa)
#
#
# Indices 1 2 3 4 5 6 
#
# 1 0.007942 -0.000576 -0.002497 0.000000 0.002683 0.000000
# 2 -0.000576 0.021309 -0.002855 0.000000 0.000792 0.000000
# 3 -0.002497 -0.002855 0.010879 0.000000 0.001969 0.000000
# 4 0.000000 0.000000 0.000000 0.065128 0.000000 -0.002770
# 5 0.002683 0.000792 0.001969 0.000000 0.027897 0.000000
# 6 0.000000 0.000000 0.000000 -0.002770 0.000000 0.042338
#
#
# Mechanical properties :
#
#
# Convention : Reuss Voigt Hill
#
# Bulk Modulus (GPa) = 35.36770 47.75462 41.56116
# Shear Modulus (GPa) = 25.40990 31.27764 28.34377
#
# Velocity S-wave (km/s) = 3.47050 3.85042 3.66538
# Velocity P-wave (km/s) = 5.72919 6.51179 6.13299
#
# Compressibility (1/GPa) = 0.02827438
#
# Stress axis : x y z
#
# Youngs Moduli (GPa) = 125.91166 46.92792 91.92254
#
# Poissons Ratio (x) = 0.02701 0.22958
# Poissons Ratio (y) = 0.07247 0.26242
# Poissons Ratio (z) = 0.31446 0.13397
#
# Static dielectric constant tensor:
#      x y z
#    x 4.393710 0.000000 -0.036110 
#    y 0.000000 3.326020 0.000000 
#    z -0.036110 0.000000 3.866400 
# 
# 
# High freq. dielectric constant tensor:
#      x y z
#    x 1.860360 0.000000 -0.003400 
#    y 0.000000 1.765100 0.000000 
#    z -0.003400 0.000000 1.827970 
# 
# From -- ./inp_files/264204.got.cif
#   From: 2010.06.25/outbox.cif.g09.slc.cpg/sg12_133_cif.got.tgz:264204.got - 2010.06.28 00:19:55.
