data_PCOD8101758
_publ_section_title
;
Structure prediction by ZEFSAII (Michael W. Deem and Ramdas Pophale) SiO2 
 PCOD8101758
Probable space group: C 2/M
;
_chemical_formula_sum "Si O2"
_cell_formula_units_Z 48
_cell_length_a 15.772754
_cell_length_b 9.066410
_cell_length_c 28.982041
_cell_angle_alpha 90.000000
_cell_angle_beta 35.280008
_cell_angle_gamma 90.000000
_cell_volume 2393.748928
_symmetry_space_group_name_H-M "C 2/M"
_symmetry_group_IT_number 12
_symmetry_cell_setting 'monoclinic'
loop_
_space_group_symop_operation_xyz
x,y,z
-x,y,-z
-x,-y,-z
x,-y,z
1/2+x,1/2+y,z
1/2-x,1/2+y,-z
1/2-x,1/2-y,-z
1/2+x,1/2-y,z
loop_
_atom_site_type_symbol
_atom_site_label
_atom_site_fract_x
_atom_site_fract_y
_atom_site_fract_z
Si Si1 0.622826 0.826045 0.584782
Si Si2 0.647869 0.670042 0.170131
Si Si3 0.158262 0.670042 0.829869
Si Si4 0.838755 0.327757 0.000000
Si Si5 0.810435 0.674243 0.682648
Si Si6 0.358377 0.825757 0.317352
O O1 0.750000 0.750000 0.500000
O O2 0.468297 0.774812 0.631707
O O3 0.636582 0.774812 0.631707
O O4 0.640675 0.000000 0.572884
O O5 0.602513 0.500000 0.182687
O O6 0.709324 0.696031 0.193784
O O7 0.505850 0.771517 0.226352
O O8 0.773287 0.719331 0.078439
O O9 0.150574 0.500000 0.817313
O O10 0.184904 0.771517 0.773649
O O11 0.008605 0.719331 0.921561
O O12 0.822022 0.500000 0.000000
O O13 0.750000 0.250000 0.000000
O O14 0.800309 0.500000 0.681527
O O15 0.780854 0.750000 0.646098
O O16 0.344888 0.000000 0.318474
#
# Coordination Sequence:
#
# PCOD8101758 Si02
#       6
#     8   8   8   8   8   8
#     4  10  24  44  66  91 124 157 195 246 301 360
#     4  10  20  36  59  85 116 159 205 251 301 354
#     4  10  20  36  59  85 116 159 205 251 301 354
#     4  10  21  35  51  79 117 156 203 253 297 349
#     4  11  23  41  63  92 125 160 201 249 299 358
#     4  11  23  41  63  92 125 160 201 249 299 358
#
# _framework density 20.052227999999999
#
# number of rings (size 3 to 8) (size 9 to 14) (size 15 to 20)
#    0.000    1.667    1.667    2.500    0.000    9.333 
#    0.000    3.333    0.000    3.000    0.000    0.000 
#    0.000    0.000    0.000    0.000    0.000    0.000 
#
# Total GULP energy -297682.090625 kJ/mol
# GULP energy per Si atom -12403.420443 kJ/mol
# Density = 2.000659 g / cm^3
# Si number density = 20.052228 Si / 1000 Ang^3
#
#
#
# Elastic Constant Matrix: (Units=GPa)
#
#
# Indices 1 2 3 4 5 6 
#
# 1 149.7723 54.8488 59.1715 0.0000 2.5612 -0.0001
# 2 54.8488 60.2364 45.8291 0.0000 0.4941 -0.0001
# 3 59.1715 45.8291 125.2059 0.0000 -1.2145 0.0000
# 4 0.0000 0.0000 0.0000 35.4266 0.0000 0.0776
# 5 2.5612 0.4941 -1.2145 0.0000 22.1290 0.0000
# 6 -0.0001 -0.0001 0.0000 0.0776 0.0000 36.8411
#
#
#
# Elastic Compliance Matrix: (Units=1/GPa)
#
#
# Indices 1 2 3 4 5 6 
#
# 1 0.010395 -0.007914 -0.002027 0.000000 -0.001138 0.000000
# 2 -0.007914 0.029055 -0.006896 0.000000 -0.000111 0.000000
# 3 -0.002027 -0.006896 0.011479 0.000000 0.001019 0.000000
# 4 0.000000 0.000000 0.000000 0.028228 0.000000 -0.000059
# 5 -0.001138 -0.000111 0.001019 0.000000 0.045380 0.000000
# 6 0.000000 0.000000 0.000000 -0.000059 0.000000 0.027144
#
#
# Mechanical properties :
#
#
# Convention : Reuss Voigt Hill
#
# Bulk Modulus (GPa) = 57.95393 72.76815 65.36104
# Shear Modulus (GPa) = 26.16353 30.57035 28.36694
#
# Velocity S-wave (km/s) = 3.61608 3.90877 3.76527
# Velocity P-wave (km/s) = 6.81168 7.53255 7.18117
#
# Compressibility (1/GPa) = 0.01725508
#
# Stress axis : x y z
#
# Youngs Moduli (GPa) = 96.19710 34.41753 87.11710
#
# Poissons Ratio (x) = 0.27238 0.17659
# Poissons Ratio (y) = 0.76131 0.60076
# Poissons Ratio (z) = 0.19499 0.23734
#
# Static dielectric constant tensor:
#      x y z
#    x 3.765460 0.000000 0.001110 
#    y 0.000000 3.547730 0.000000 
#    z 0.001110 0.000000 3.745440 
# 
# 
# High freq. dielectric constant tensor:
#      x y z
#    x 1.798130 0.000000 0.000950 
#    y 0.000000 1.773840 0.000000 
#    z 0.000950 0.000000 1.780860 
# 
# From -- ./inp_files/274623.got.cif
#   From: 2010.06.25/outbox.cif.g09.slc.cpg/sg12_138_cif.got.tgz:274623.got - 2010.06.28 00:19:55.
