data_PCOD8101336
_publ_section_title
;
Structure prediction by ZEFSAII (Michael W. Deem and Ramdas Pophale) SiO2 
 PCOD8101336
Probable space group: C 2/M
;
_chemical_formula_sum "Si O2"
_cell_formula_units_Z 64
_cell_length_a 20.693963
_cell_length_b 8.656636
_cell_length_c 18.475548
_cell_angle_alpha 90.000000
_cell_angle_beta 85.904640
_cell_angle_gamma 90.000000
_cell_volume 3301.260493
_symmetry_space_group_name_H-M "C 2/M"
_symmetry_group_IT_number 12
_symmetry_cell_setting 'monoclinic'
loop_
_space_group_symop_operation_xyz
x,y,z
-x,y,-z
-x,-y,-z
x,-y,z
1/2+x,1/2+y,z
1/2-x,1/2+y,-z
1/2-x,1/2-y,-z
1/2+x,1/2-y,z
loop_
_atom_site_type_symbol
_atom_site_label
_atom_site_fract_x
_atom_site_fract_y
_atom_site_fract_z
Si Si1 0.733882 0.818688 0.665380
Si Si2 0.987394 0.668081 0.085374
Si Si3 0.851328 0.314906 0.065945
Si Si4 0.625048 0.815733 0.096456
Si Si5 0.736424 0.682432 0.174761
Si Si6 0.994041 0.670766 0.586124
Si Si7 0.376424 0.320442 0.416317
Si Si8 0.352880 0.818020 0.572486
O O1 0.747310 0.763952 0.745848
O O2 0.670823 0.725711 0.644963
O O3 0.795767 0.779455 0.612009
O O4 0.719658 0.000000 0.661707
O O5 0.981695 0.500000 0.123248
O O6 0.051410 0.751830 0.113258
O O7 0.917540 0.753257 0.098349
O O8 0.000000 0.644675 0.000000
O O9 0.855007 0.500000 0.068262
O O10 0.790734 0.250579 0.115865
O O11 0.845816 0.258526 0.983100
O O12 0.667567 0.753039 0.158623
O O13 0.622665 0.000000 0.098162
O O14 0.732072 0.500000 0.169181
O O15 0.005026 0.500000 0.618414
O O16 0.049165 0.784014 0.613438
O O17 0.000000 0.662341 0.500000
O O18 0.920400 0.727626 0.607790
O O19 0.369999 0.500000 0.434913
O O20 0.355944 0.221873 0.487601
O O21 0.339111 0.000000 0.580945
#
# Coordination Sequence:
#
# PCOD8101336 Si02
#       8
#     8   8   8   8   8   8   8   8
#     4  11  23  37  50  68 101 142 180 216 255 300
#     4   7  11  22  44  73  97 118 154 203 245 284
#     4   8  14  28  50  74  97 125 164 204 245 294
#     4   9  16  28  51  77  98 123 160 208 251 293
#     4  10  21  34  48  68  99 136 167 202 248 298
#     4   8  16  32  54  80 107 131 160 204 253 301
#     4  11  21  34  56  82 106 133 167 208 253 304
#     4  10  20  36  58  81 104 131 167 211 256 304
#
# _framework density 19.386534999999999
#
# number of rings (size 3 to 8) (size 9 to 14) (size 15 to 20)
#    0.000    2.750    0.000    4.875    0.000    3.750 
#    0.000    1.250    0.000    7.125    0.000    0.000 
#    0.000    0.000    0.000    0.000    0.000    0.000 
#
# Total GULP energy -396536.244818 kJ/mol
# GULP energy per Si atom -12391.757651 kJ/mol
# Density = 1.934241 g / cm^3
# Si number density = 19.386535 Si / 1000 Ang^3
#
#
#
# Elastic Constant Matrix: (Units=GPa)
#
#
# Indices 1 2 3 4 5 6 
#
# 1 132.9953 22.9819 35.1642 0.0000 34.9229 0.0000
# 2 22.9819 35.2213 12.4440 0.0000 8.0378 0.0000
# 3 35.1642 12.4440 60.6759 0.0000 23.4036 0.0000
# 4 0.0000 0.0000 0.0000 14.9313 0.0000 5.5647
# 5 34.9229 8.0378 23.4036 0.0000 18.5832 0.0000
# 6 0.0000 0.0000 0.0000 5.5647 0.0000 26.0168
#
#
#
# Elastic Compliance Matrix: (Units=1/GPa)
#
#
# Indices 1 2 3 4 5 6 
#
# 1 0.015983 -0.004319 0.004838 0.000000 -0.034261 0.000000
# 2 -0.004319 0.032841 -0.003664 0.000000 -0.001473 0.000000
# 3 0.004838 -0.003664 0.033690 0.000000 -0.049936 0.000000
# 4 0.000000 0.000000 0.000000 0.072775 0.000000 -0.015566
# 5 -0.034261 -0.001473 -0.049936 0.000000 0.181725 0.000000
# 6 0.000000 0.000000 0.000000 -0.015566 0.000000 0.041766
#
#
# Mechanical properties :
#
#
# Convention : Reuss Voigt Hill
#
# Bulk Modulus (GPa) = 13.11936 41.11920 27.11928
# Shear Modulus (GPa) = 12.18093 22.45974 17.32034
#
# Velocity S-wave (km/s) = 2.50935 3.40740 2.99226
# Velocity P-wave (km/s) = 3.89586 6.06108 5.09482
#
# Compressibility (1/GPa) = 0.07622321
#
# Stress axis : x y z
#
# Youngs Moduli (GPa) = 62.56737 30.44968 29.68262
#
# Poissons Ratio (x) = 0.13153 -0.14361
# Poissons Ratio (y) = 0.27026 0.10875
# Poissons Ratio (z) = -0.30271 0.11156
#
# Static dielectric constant tensor:
#      x y z
#    x 4.189400 0.000000 0.066600 
#    y 0.000000 3.161790 0.000000 
#    z 0.066600 0.000000 3.252910 
# 
# 
# High freq. dielectric constant tensor:
#      x y z
#    x 1.781350 0.000000 0.010370 
#    y 0.000000 1.720220 0.000000 
#    z 0.010370 0.000000 1.714650 
# 
# From -- ./inp_files/281219.got.cif
#   From: 2010.06.25/outbox.cif.g09.slc.cpg/sg12_141_cif.got.tgz:281219.got - 2010.06.28 00:19:55.
