data_PCOD8101887
_publ_section_title
;
Structure prediction by ZEFSAII (Michael W. Deem and Ramdas Pophale) SiO2 
 PCOD8101887
Probable space group: C 2/M
;
_chemical_formula_sum "Si O2"
_cell_formula_units_Z 64
_cell_length_a 9.231105
_cell_length_b 19.146329
_cell_length_c 18.505890
_cell_angle_alpha 90.000000
_cell_angle_beta 91.043950
_cell_angle_gamma 90.000000
_cell_volume 3270.220914
_symmetry_space_group_name_H-M "C 2/M"
_symmetry_group_IT_number 12
_symmetry_cell_setting 'monoclinic'
loop_
_space_group_symop_operation_xyz
x,y,z
-x,y,-z
-x,-y,-z
x,-y,z
1/2+x,1/2+y,z
1/2-x,1/2+y,-z
1/2-x,1/2-y,-z
1/2+x,1/2-y,z
loop_
_atom_site_type_symbol
_atom_site_label
_atom_site_fract_x
_atom_site_fract_y
_atom_site_fract_z
Si Si1 0.232693 0.695564 0.248858
Si Si2 0.886933 0.707508 0.911003
Si Si3 0.700490 0.167486 0.944530
Si Si4 0.078602 0.919218 0.427514
Si Si5 0.910843 0.419642 0.434851
Si Si6 0.975985 0.581367 0.714180
Si Si7 0.060333 0.827981 0.285474
Si Si8 0.745835 0.919804 0.813879
O O1 0.191783 0.696684 0.164823
O O2 0.173997 0.622154 0.278302
O O3 0.162757 0.759944 0.292753
O O4 0.404632 0.698593 0.257845
O O5 0.840630 0.782868 0.941365
O O6 0.060580 0.704867 0.906053
O O7 0.833559 0.650554 0.971340
O O8 0.738057 0.098311 0.898847
O O9 0.244241 0.909861 0.449590
O O10 0.039998 0.868364 0.361008
O O11 0.000000 0.895513 0.500000
O O12 0.042458 0.000000 0.406535
O O13 0.957357 0.500000 0.432194
O O14 0.000000 0.381903 0.500000
O O15 0.949104 0.388128 0.357383
O O16 0.936921 0.500000 0.709865
O O17 0.088301 0.597345 0.779324
O O18 0.128179 0.877862 0.225382
O O19 0.785919 0.000000 0.803857
#
# Coordination Sequence:
#
# PCOD8101887 Si02
#       8
#     8   8   8   8   8   8   8   8
#     4  12  24  40  62  90 124 158 202 257 300 363
#     4  10  20  36  59  89 118 154 202 248 299 362
#     4  10  20  36  60  89 116 156 202 249 304 362
#     4  10  22  41  63  90 125 162 203 249 304 367
#     4   9  18  34  60  89 117 153 196 242 293 360
#     4  10  21  38  62  90 123 157 199 251 305 366
#     4  12  25  40  63  90 120 165 208 252 306 363
#     4  11  21  39  62  88 122 162 205 254 308 362
#
# _framework density 19.570544000000002
#
# number of rings (size 3 to 8) (size 9 to 14) (size 15 to 20)
#    0.000    1.500    3.750    1.875    1.750    1.000 
#    0.000    3.125    0.000    0.750    0.000    0.000 
#    0.000    0.000    0.000    0.000    0.000    0.000 
#
# Total GULP energy -396698.498212 kJ/mol
# GULP energy per Si atom -12396.828069 kJ/mol
# Density = 1.952600 g / cm^3
# Si number density = 19.570544 Si / 1000 Ang^3
#
#
#
# Elastic Constant Matrix: (Units=GPa)
#
#
# Indices 1 2 3 4 5 6 
#
# 1 85.7980 37.4143 4.9783 0.0000 -1.8011 0.0000
# 2 37.4143 81.1764 31.5481 0.0000 -5.8722 0.0000
# 3 4.9783 31.5481 109.1449 0.0000 -0.7470 0.0000
# 4 0.0000 0.0000 0.0000 33.6652 0.0000 -5.0135
# 5 -1.8011 -5.8722 -0.7470 0.0000 29.8091 0.0000
# 6 0.0000 0.0000 0.0000 -5.0135 0.0000 28.7347
#
#
#
# Elastic Compliance Matrix: (Units=1/GPa)
#
#
# Indices 1 2 3 4 5 6 
#
# 1 0.014799 -0.007430 0.001469 0.000000 -0.000533 0.000000
# 2 -0.007430 0.017818 -0.004791 0.000000 0.002941 0.000000
# 3 0.001469 -0.004791 0.010476 0.000000 -0.000593 0.000000
# 4 0.000000 0.000000 0.000000 0.030497 0.000000 0.005321
# 5 -0.000533 0.002941 -0.000593 0.000000 0.034079 0.000000
# 6 0.000000 0.000000 0.000000 0.005321 0.000000 0.035730
#
#
# Mechanical properties :
#
#
# Convention : Reuss Voigt Hill
#
# Bulk Modulus (GPa) = 46.32170 47.11121 46.71646
# Shear Modulus (GPa) = 29.05285 31.92036 30.48661
#
# Velocity S-wave (km/s) = 3.85713 4.04300 3.95115
# Velocity P-wave (km/s) = 6.59978 6.77637 6.68866
#
# Compressibility (1/GPa) = 0.02158816
#
# Stress axis : x y z
#
# Youngs Moduli (GPa) = 67.57185 56.12191 95.45639
#
# Poissons Ratio (x) = 0.41701 -0.14023
# Poissons Ratio (y) = 0.50208 0.45736
# Poissons Ratio (z) = -0.09927 0.26890
#
# Static dielectric constant tensor:
#      x y z
#    x 3.596640 0.000000 -0.140110 
#    y 0.000000 3.410520 0.000000 
#    z -0.140110 0.000000 3.971610 
# 
# 
# High freq. dielectric constant tensor:
#      x y z
#    x 1.767240 0.000000 -0.009630 
#    y 0.000000 1.733450 0.000000 
#    z -0.009630 0.000000 1.774490 
# 
# From -- ./inp_files/258118.got.cif
#   From: 2010.06.25/outbox.cif.g09.slc.cpg/sg12_130_cif.got.tgz:258118.got - 2010.06.28 00:19:55.
