data_PCOD8101392
_publ_section_title
;
Structure prediction by ZEFSAII (Michael W. Deem and Ramdas Pophale) SiO2 
 PCOD8101392
Probable space group: C 2/M
;
_chemical_formula_sum "Si O2"
_cell_formula_units_Z 64
_cell_length_a 20.461906
_cell_length_b 8.972284
_cell_length_c 31.109938
_cell_angle_alpha 90.000000
_cell_angle_beta 34.742050
_cell_angle_gamma 90.000000
_cell_volume 3254.870802
_symmetry_space_group_name_H-M "C 2/M"
_symmetry_group_IT_number 12
_symmetry_cell_setting 'monoclinic'
loop_
_space_group_symop_operation_xyz
x,y,z
-x,y,-z
-x,-y,-z
x,-y,z
1/2+x,1/2+y,z
1/2-x,1/2+y,-z
1/2-x,1/2-y,-z
1/2+x,1/2-y,z
loop_
_atom_site_type_symbol
_atom_site_label
_atom_site_fract_x
_atom_site_fract_y
_atom_site_fract_z
Si Si1 0.725834 0.173956 0.327287
Si Si2 0.341773 0.824327 0.919662
Si Si3 0.915652 0.670886 0.173325
Si Si4 0.894932 0.671166 0.085155
Si Si5 0.826239 0.676915 0.830535
Si Si6 0.731580 0.323421 0.414052
Si Si7 0.958075 0.676906 0.339380
Si Si8 0.976664 0.325186 0.426319
O O1 0.813996 0.221308 0.242807
O O2 0.754771 0.267407 0.353744
O O3 0.599820 0.213443 0.378868
O O4 0.738086 0.000000 0.330713
O O5 0.468463 0.777878 0.865952
O O6 0.324507 0.765093 0.880472
O O7 0.324591 0.000000 0.932059
O O8 0.250000 0.750000 0.000000
O O9 0.885413 0.500000 0.201320
O O10 0.932967 0.691629 0.113472
O O11 0.867533 0.500000 0.088619
O O12 0.783623 0.767594 0.135724
O O13 0.000000 0.731624 0.000000
O O14 0.827486 0.500000 0.828976
O O15 0.939071 0.740778 0.745578
O O16 0.723172 0.500000 0.418237
O O17 0.836914 0.267083 0.386401
O O18 0.614538 0.257323 0.495005
O O19 0.964399 0.500000 0.335851
O O20 0.970459 0.737408 0.381169
O O21 0.950243 0.500000 0.442163
#
# Coordination Sequence:
#
# PCOD8101392 Si02
#       8
#     8   8   8   8   8   8   8   8
#     4  11  23  38  58  83 112 147 185 228 277 327
#     4  10  21  37  58  83 112 148 188 231 278 327
#     4  10  21  38  59  82 111 147 187 230 275 326
#     4  10  21  37  57  82 113 147 181 223 276 328
#     4  10  20  36  58  82 109 144 186 228 272 326
#     4  11  22  37  59  84 112 146 183 225 274 329
#     4   9  19  37  59  81 108 144 183 226 276 325
#     4  10  21  38  58  81 111 145 183 227 274 326
#
# _framework density 19.662839999999999
#
# number of rings (size 3 to 8) (size 9 to 14) (size 15 to 20)
#    0.000    1.875    0.000    3.750    0.000    8.250 
#    0.000    3.750    0.000    0.000    0.000    0.000 
#    0.000    0.000    0.000    0.000    0.000    0.000 
#
# Total GULP energy -396962.167481 kJ/mol
# GULP energy per Si atom -12405.067734 kJ/mol
# Density = 1.961809 g / cm^3
# Si number density = 19.662840 Si / 1000 Ang^3
#
#
#
# Elastic Constant Matrix: (Units=GPa)
#
#
# Indices 1 2 3 4 5 6 
#
# 1 98.9699 23.6050 15.5777 0.0030 -2.5369 0.0451
# 2 23.6050 31.9460 26.6013 -0.0134 -6.6753 0.0033
# 3 15.5777 26.6013 111.4206 0.0100 -3.2580 0.0056
# 4 0.0030 -0.0134 0.0100 32.1739 0.0007 1.7137
# 5 -2.5369 -6.6753 -3.2580 0.0007 39.2140 0.0008
# 6 0.0451 0.0033 0.0056 1.7137 0.0008 28.7024
#
#
#
# Elastic Compliance Matrix: (Units=1/GPa)
#
#
# Indices 1 2 3 4 5 6 
#
# 1 0.012319 -0.009759 0.000584 -0.000004 -0.000816 -0.000018
# 2 -0.009759 0.048207 -0.009948 0.000023 0.006748 0.000010
# 3 0.000584 -0.009948 0.011247 -0.000008 -0.000721 -0.000002
# 4 -0.000004 0.000023 -0.000008 0.031180 0.000003 -0.001862
# 5 -0.000816 0.006748 -0.000721 0.000003 0.026537 0.000000
# 6 -0.000018 0.000010 -0.000002 -0.001862 0.000000 0.034951
#
#
# Mechanical properties :
#
#
# Convention : Reuss Voigt Hill
#
# Bulk Modulus (GPa) = 29.82610 41.54494 35.68552
# Shear Modulus (GPa) = 23.37936 31.78823 27.58379
#
# Velocity S-wave (km/s) = 3.45195 4.02514 3.74951
# Velocity P-wave (km/s) = 5.57581 6.54040 6.07727
#
# Compressibility (1/GPa) = 0.03352768
#
# Stress axis : x y z
#
# Youngs Moduli (GPa) = 81.17613 20.74378 88.91061
#
# Poissons Ratio (x) = 0.20244 -0.05190
# Poissons Ratio (y) = 0.79220 0.88445
# Poissons Ratio (z) = -0.04739 0.20635
#
# Static dielectric constant tensor:
#      x y z
#    x 3.813110 -0.000080 0.056660 
#    y -0.000080 3.372710 -0.000010 
#    z 0.056660 -0.000010 3.700770 
# 
# 
# High freq. dielectric constant tensor:
#      x y z
#    x 1.784280 0.000000 0.002600 
#    y 0.000000 1.745230 0.000000 
#    z 0.002600 0.000000 1.782480 
# 
# From -- ./inp_files/378136.got.cif
#   From: 2010.06.25/outbox.cif.g09.slc.cpg/sg12_190_cif.got.tgz:378136.got - 2010.06.28 00:19:55.
