data_PCOD8101624
_publ_section_title
;
Structure prediction by ZEFSAII (Michael W. Deem and Ramdas Pophale) SiO2 
 PCOD8101624
Probable space group: C 2/M
;
_chemical_formula_sum "Si O2"
_cell_formula_units_Z 64
_cell_length_a 15.285336
_cell_length_b 29.081528
_cell_length_c 8.980000
_cell_angle_alpha 90.000000
_cell_angle_beta 132.613405
_cell_angle_gamma 90.000000
_cell_volume 2937.718591
_symmetry_space_group_name_H-M "C 2/M"
_symmetry_group_IT_number 12
_symmetry_cell_setting 'monoclinic'
loop_
_space_group_symop_operation_xyz
x,y,z
-x,y,-z
-x,-y,-z
x,-y,z
1/2+x,1/2+y,z
1/2-x,1/2+y,-z
1/2-x,1/2-y,-z
1/2+x,1/2-y,z
loop_
_atom_site_type_symbol
_atom_site_label
_atom_site_fract_x
_atom_site_fract_y
_atom_site_fract_z
Si Si1 0.926812 0.551007 0.738072
Si Si2 0.382394 0.623924 0.768975
Si Si3 0.863300 0.229333 0.709172
Si Si4 0.063729 0.260665 0.718719
Si Si5 0.711163 0.206993 0.131211
Si Si6 0.769313 0.887643 0.345545
Si Si7 0.298474 0.947994 0.306576
Si Si8 0.806110 0.448105 0.980214
O O1 0.882952 0.500000 0.740314
O O2 0.843896 0.590798 0.703564
O O3 0.917178 0.552665 0.545614
O O4 0.063716 0.557804 0.946794
O O5 0.342837 0.676796 0.735387
O O6 0.383018 0.612827 0.589457
O O7 0.292098 0.588765 0.735215
O O8 0.500000 0.615783 0.000000
O O9 0.750000 0.250000 0.500000
O O10 0.871846 0.256886 0.874063
O O11 0.973142 0.233714 0.722555
O O12 0.159024 0.224227 0.766837
O O13 0.000000 0.282727 0.500000
O O14 0.132464 0.300923 0.890045
O O15 0.730476 0.163073 0.254904
O O16 0.791369 0.917350 0.220598
O O17 0.244364 0.000000 0.245244
O O18 0.323818 0.931631 0.168656
O O19 0.760198 0.500000 0.919535
#
# Coordination Sequence:
#
# PCOD8101624 Si02
#       8
#     8   8   8   8   8   8   8   8
#     4   9  18  35  61  90 126 170 209 250 319 397
#     4  11  24  43  67  88 118 168 215 262 323 383
#     4  12  23  45  69  94 127 167 215 273 328 392
#     4  11  23  42  66  90 126 172 210 260 326 390
#     4  11  25  43  64  94 129 167 214 268 324 387
#     4  11  22  38  58  91 123 157 209 262 309 378
#     4   9  20  39  63  93 127 165 216 267 310 378
#     4  10  20  36  58  89 131 171 204 255 329 391
#
# _framework density 21.785613999999999
#
# number of rings (size 3 to 8) (size 9 to 14) (size 15 to 20)
#    0.000    1.500    2.500    2.250    0.000    8.250 
#    0.000    1.875    0.000    1.500    0.000    0.000 
#    0.000    0.000    0.000    0.000    0.000    0.000 
#
# Total GULP energy -396425.614699 kJ/mol
# GULP energy per Si atom -12388.300459 kJ/mol
# Density = 2.173603 g / cm^3
# Si number density = 21.785614 Si / 1000 Ang^3
#
#
#
# Elastic Constant Matrix: (Units=GPa)
#
#
# Indices 1 2 3 4 5 6 
#
# 1 87.5919 35.4958 22.9531 0.0000 -10.1520 0.0000
# 2 35.4958 85.0396 45.2143 0.0000 -8.1502 0.0000
# 3 22.9531 45.2143 195.0767 0.0000 -12.5942 0.0000
# 4 0.0000 0.0000 0.0000 32.5983 0.0000 -4.5411
# 5 -10.1520 -8.1502 -12.5942 0.0000 26.5899 0.0000
# 6 0.0000 0.0000 0.0000 -4.5411 0.0000 4.9462
#
#
#
# Elastic Compliance Matrix: (Units=1/GPa)
#
#
# Indices 1 2 3 4 5 6 
#
# 1 0.014087 -0.005446 -0.000161 0.000000 0.003633 0.000000
# 2 -0.005446 0.015711 -0.002913 0.000000 0.001357 0.000000
# 3 -0.000161 -0.002913 0.005940 0.000000 0.001859 0.000000
# 4 0.000000 0.000000 0.000000 0.035175 0.000000 0.032294
# 5 0.003633 0.001357 0.001859 0.000000 0.040292 0.000000
# 6 0.000000 0.000000 0.000000 0.032294 0.000000 0.231823
#
#
# Mechanical properties :
#
#
# Convention : Reuss Voigt Hill
#
# Bulk Modulus (GPa) = 53.48047 63.89274 58.68660
# Shear Modulus (GPa) = 13.64994 30.42988 22.03991
#
# Velocity S-wave (km/s) = 2.50583 3.74142 3.18413
# Velocity P-wave (km/s) = 5.74230 6.93224 6.36514
#
# Compressibility (1/GPa) = 0.01869842
#
# Stress axis : x y z
#
# Youngs Moduli (GPa) = 70.98854 63.64793 168.34093
#
# Poissons Ratio (x) = 0.34665 0.02704
# Poissons Ratio (y) = 0.38663 0.49040
# Poissons Ratio (z) = 0.01140 0.18542
#
# Static dielectric constant tensor:
#      x y z
#    x 3.913410 0.000000 -0.504180 
#    y 0.000000 2.490460 0.000000 
#    z -0.504180 0.000000 4.848420 
# 
# 
# High freq. dielectric constant tensor:
#      x y z
#    x 1.832350 0.000000 -0.032740 
#    y 0.000000 1.844080 0.000000 
#    z -0.032740 0.000000 1.892190 
# 
# From -- ./inp_files/68624.got.cif
#   From: 2010.06.25/outbox.cif.g09.slc.cpg/sg12_35_cif.got.tgz:68624.got - 2010.06.28 00:19:55.
