data_PCOD8101446
_publ_section_title
;
Structure prediction by ZEFSAII (Michael W. Deem and Ramdas Pophale) SiO2 
 PCOD8101446
Probable space group: C 2/M
;
_chemical_formula_sum "Si O2"
_cell_formula_units_Z 64
_cell_length_a 30.196117
_cell_length_b 8.837751
_cell_length_c 14.710930
_cell_angle_alpha 90.000000
_cell_angle_beta 59.237260
_cell_angle_gamma 90.000000
_cell_volume 3373.448721
_symmetry_space_group_name_H-M "C 2/M"
_symmetry_group_IT_number 12
_symmetry_cell_setting 'monoclinic'
loop_
_space_group_symop_operation_xyz
x,y,z
-x,y,-z
-x,-y,-z
x,-y,z
1/2+x,1/2+y,z
1/2-x,1/2+y,-z
1/2-x,1/2-y,-z
1/2+x,1/2-y,z
loop_
_atom_site_type_symbol
_atom_site_label
_atom_site_fract_x
_atom_site_fract_y
_atom_site_fract_z
Si Si1 0.898806 0.679712 0.933687
Si Si2 0.368550 0.677777 0.486488
Si Si3 0.287349 0.678777 0.721523
Si Si4 0.607759 0.820542 0.723718
Si Si5 0.139359 0.674081 0.221132
Si Si6 0.002216 0.179356 0.893011
Si Si7 0.442613 0.825396 0.540183
Si Si8 0.172261 0.320669 0.827607
O O1 0.907649 0.500000 0.926530
O O2 0.874218 0.734234 0.864695
O O3 0.953252 0.759876 0.890073
O O4 0.859780 0.736215 0.052176
O O5 0.367691 0.500000 0.468331
O O6 0.320858 0.731450 0.599492
O O7 0.364174 0.767312 0.397186
O O8 0.421471 0.722508 0.480899
O O9 0.286326 0.500000 0.728414
O O10 0.311825 0.737462 0.789698
O O11 0.230004 0.746753 0.770952
O O12 0.551949 0.746377 0.791333
O O13 0.643876 0.761800 0.767356
O O14 0.601431 0.000000 0.731279
O O15 0.155387 0.500000 0.200685
O O16 0.089306 0.701227 0.334929
O O17 0.004176 0.000000 0.884729
O O18 0.000000 0.234735 0.000000
O O19 0.500000 0.770480 0.500000
O O20 0.440959 0.000000 0.510480
O O21 0.175214 0.500000 0.823898
#
# Coordination Sequence:
#
# PCOD8101446 Si02
#       8
#     8   8   8   8   8   8   8   8
#     4  10  20  36  58  83 112 149 191 229 270 330
#     4  10  21  36  54  80 112 145 182 231 287 336
#     4   9  19  38  59  78 110 150 185 229 284 335
#     4  11  22  37  59  83 110 148 192 230 273 331
#     4   9  19  34  53  81 112 141 183 232 276 324
#     4  11  23  38  56  82 118 149 180 229 283 331
#     4   9  18  33  52  76 106 143 186 230 274 330
#     4   9  19  36  58  82 107 145 194 232 271 332
#
# _framework density 18.971682999999999
#
# number of rings (size 3 to 8) (size 9 to 14) (size 15 to 20)
#    0.000    2.250    1.250    1.125    1.750    2.750 
#    0.000    1.875    0.000    0.000    0.000    0.000 
#    0.000    0.000    0.000    0.000    0.000    0.000 
#
# Total GULP energy -396897.680130 kJ/mol
# GULP energy per Si atom -12403.052504 kJ/mol
# Density = 1.892850 g / cm^3
# Si number density = 18.971683 Si / 1000 Ang^3
#
#
#
# Elastic Constant Matrix: (Units=GPa)
#
#
# Indices 1 2 3 4 5 6 
#
# 1 166.8236 35.8595 91.5530 0.0000 -5.9024 0.0000
# 2 35.8595 42.0742 29.8122 0.0000 2.2457 0.0000
# 3 91.5530 29.8122 109.8381 0.0000 17.3511 0.0000
# 4 0.0000 0.0000 0.0000 19.6275 0.0000 4.1648
# 5 -5.9024 2.2457 17.3511 0.0000 38.0705 0.0000
# 6 0.0000 0.0000 0.0000 4.1648 0.0000 24.7599
#
#
#
# Elastic Compliance Matrix: (Units=1/GPa)
#
#
# Indices 1 2 3 4 5 6 
#
# 1 0.013149 -0.003730 -0.011104 0.000000 0.007319 0.000000
# 2 -0.003730 0.030634 -0.005204 0.000000 -0.000014 0.000000
# 3 -0.011104 -0.005204 0.021547 0.000000 -0.011235 0.000000
# 4 0.000000 0.000000 0.000000 0.052835 0.000000 -0.008887
# 5 0.007319 -0.000014 -0.011235 0.000000 0.032523 0.000000
# 6 0.000000 0.000000 0.000000 -0.008887 0.000000 0.041883
#
#
# Mechanical properties :
#
#
# Convention : Reuss Voigt Hill
#
# Bulk Modulus (GPa) = 39.59563 70.35391 54.97477
# Shear Modulus (GPa) = 20.74143 27.25899 24.00021
#
# Velocity S-wave (km/s) = 3.31007 3.79466 3.56062
# Velocity P-wave (km/s) = 5.96028 7.50756 6.77821
#
# Compressibility (1/GPa) = 0.02525532
#
# Stress axis : x y z
#
# Youngs Moduli (GPa) = 76.05261 32.64322 46.41046
#
# Poissons Ratio (x) = 0.12174 0.51533
# Poissons Ratio (y) = 0.28364 0.24152
# Poissons Ratio (z) = 0.84448 0.16987
#
# Static dielectric constant tensor:
#      x y z
#    x 3.648650 0.000000 0.004360 
#    y 0.000000 3.276140 0.000000 
#    z 0.004360 0.000000 3.608390 
# 
# 
# High freq. dielectric constant tensor:
#      x y z
#    x 1.744750 0.000000 0.002380 
#    y 0.000000 1.720800 0.000000 
#    z 0.002380 0.000000 1.742650 
# 
# From -- ./inp_files/248972.got.cif
#   From: 2010.06.25/outbox.cif.g09.slc.cpg/sg12_125_cif.got.tgz:248972.got - 2010.06.28 00:19:55.
