data_PCOD8101986
_publ_section_title
;
Structure prediction by ZEFSAII (Michael W. Deem and Ramdas Pophale) SiO2 
 PCOD8101986
Probable space group: C 2/M
;
_chemical_formula_sum "Si O2"
_cell_formula_units_Z 56
_cell_length_a 14.059639
_cell_length_b 14.322025
_cell_length_c 14.002285
_cell_angle_alpha 90.000000
_cell_angle_beta 89.330386
_cell_angle_gamma 90.000000
_cell_volume 2819.342580
_symmetry_space_group_name_H-M "C 2/M"
_symmetry_group_IT_number 12
_symmetry_cell_setting 'monoclinic'
loop_
_space_group_symop_operation_xyz
x,y,z
-x,y,-z
-x,-y,-z
x,-y,z
1/2+x,1/2+y,z
1/2-x,1/2+y,-z
1/2-x,1/2-y,-z
1/2+x,1/2-y,z
loop_
_atom_site_type_symbol
_atom_site_label
_atom_site_fract_x
_atom_site_fract_y
_atom_site_fract_z
Si Si1 0.341191 0.398331 0.546313
Si Si2 0.723736 0.106267 0.367777
Si Si3 0.451092 0.772041 0.588817
Si Si4 0.101707 0.769225 0.949791
Si Si5 0.251351 0.108433 0.050805
Si Si6 0.389067 0.276413 0.271680
Si Si7 0.731438 0.102372 0.735244
O O1 0.389515 0.500000 0.527688
O O2 0.249064 0.389692 0.479550
O O3 0.408910 0.312279 0.524300
O O4 0.314220 0.388347 0.657352
O O5 0.627126 0.165499 0.355215
O O6 0.810371 0.148061 0.304779
O O7 0.706259 0.000000 0.333532
O O8 0.500000 0.830135 0.500000
O O9 0.515753 0.721344 0.667171
O O10 0.154252 0.670401 0.969263
O O11 0.086473 0.792376 0.838945
O O12 0.163269 0.854630 0.990438
O O13 0.000000 0.764313 0.000000
O O14 0.222198 0.121123 0.161908
O O15 0.272181 0.000000 0.024587
O O16 0.351939 0.172430 0.288750
O O17 0.684173 0.000000 0.732564
#
# Coordination Sequence:
#
# PCOD8101986 Si02
#       7
#     8   8   8   8   8   8   8
#     4  10  20  36  60  86 119 157 198 242 288 344
#     4  11  24  42  60  86 124 162 199 245 297 350
#     4  12  23  36  63  90 121 160 205 243 293 349
#     4  10  23  39  61  91 121 153 196 251 302 353
#     4   9  20  40  63  87 119 158 198 240 298 359
#     4  11  23  39  60  86 124 157 197 247 301 354
#     4   9  18  36  62  85 113 155 198 240 289 347
#
# _framework density 19.862786
#
# number of rings (size 3 to 8) (size 9 to 14) (size 15 to 20)
#    0.000    1.714    2.857    1.286    2.000    4.000 
#    0.000    0.000    0.000    0.000    0.000    0.000 
#    0.000    0.000    0.000    0.000    0.000    0.000 
#
# Total GULP energy -347079.473461 kJ/mol
# GULP energy per Si atom -12395.695481 kJ/mol
# Density = 1.981758 g / cm^3
# Si number density = 19.862786 Si / 1000 Ang^3
#
#
#
# Elastic Constant Matrix: (Units=GPa)
#
#
# Indices 1 2 3 4 5 6 
#
# 1 114.3394 46.8197 47.6715 0.0000 -10.9868 0.0000
# 2 46.8197 123.3413 35.0106 0.0000 -7.4895 0.0000
# 3 47.6715 35.0106 99.5337 0.0000 -7.2083 0.0000
# 4 0.0000 0.0000 0.0000 27.5148 0.0000 2.3968
# 5 -10.9868 -7.4895 -7.2083 0.0000 25.1382 0.0000
# 6 0.0000 0.0000 0.0000 2.3968 0.0000 9.4445
#
#
#
# Elastic Compliance Matrix: (Units=1/GPa)
#
#
# Indices 1 2 3 4 5 6 
#
# 1 0.012225 -0.003170 -0.004515 0.000000 0.003104 0.000000
# 2 -0.003170 0.009911 -0.001893 0.000000 0.001024 0.000000
# 3 -0.004515 -0.001893 0.012961 0.000000 0.001179 0.000000
# 4 0.000000 0.000000 0.000000 0.037166 0.000000 -0.009432
# 5 0.003104 0.001024 0.001179 0.000000 0.041780 0.000000
# 6 0.000000 0.000000 0.000000 -0.009432 0.000000 0.108275
#
#
# Mechanical properties :
#
#
# Convention : Reuss Voigt Hill
#
# Bulk Modulus (GPa) = 62.74159 66.24645 64.49402
# Shear Modulus (GPa) = 20.26033 26.26701 23.26367
#
# Velocity S-wave (km/s) = 3.19723 3.64046 3.42602
# Velocity P-wave (km/s) = 6.72947 7.14808 6.94193
#
# Compressibility (1/GPa) = 0.01593839
#
# Stress axis : x y z
#
# Youngs Moduli (GPa) = 81.80078 100.90122 77.15611
#
# Poissons Ratio (x) = 0.31990 0.34837
# Poissons Ratio (y) = 0.25934 0.14609
# Poissons Ratio (z) = 0.36934 0.19105
#
# Static dielectric constant tensor:
#      x y z
#    x 3.414150 0.000000 0.029990 
#    y 0.000000 3.827680 0.000000 
#    z 0.029990 0.000000 3.679300 
# 
# 
# High freq. dielectric constant tensor:
#      x y z
#    x 1.757800 0.000000 0.000650 
#    y 0.000000 1.781410 0.000000 
#    z 0.000650 0.000000 1.781400 
# 
# From -- ./inp_files/205020.got.cif
#   From: 2010.06.25/outbox.cif.g09.slc.cpg/sg12_103_cif.got.tgz:205020.got - 2010.06.28 00:19:55.
