data_PCOD8101399
_publ_section_title
;
Structure prediction by ZEFSAII (Michael W. Deem and Ramdas Pophale) SiO2 
 PCOD8101399
Probable space group: C 2/M
;
_chemical_formula_sum "Si O2"
_cell_formula_units_Z 56
_cell_length_a 30.940440
_cell_length_b 9.715666
_cell_length_c 11.642793
_cell_angle_alpha 90.000000
_cell_angle_beta 58.928901
_cell_angle_gamma 90.000000
_cell_volume 2997.764839
_symmetry_space_group_name_H-M "C 2/M"
_symmetry_group_IT_number 12
_symmetry_cell_setting 'monoclinic'
loop_
_space_group_symop_operation_xyz
x,y,z
-x,y,-z
-x,-y,-z
x,-y,z
1/2+x,1/2+y,z
1/2-x,1/2+y,-z
1/2-x,1/2-y,-z
1/2+x,1/2-y,z
loop_
_atom_site_type_symbol
_atom_site_label
_atom_site_fract_x
_atom_site_fract_y
_atom_site_fract_z
Si Si1 0.070201 0.158329 0.146852
Si Si2 0.101876 0.340886 0.644976
Si Si3 0.782646 0.342975 0.537716
Si Si4 0.324611 0.341003 0.892338
Si Si5 0.490725 0.840276 0.382120
Si Si6 0.735229 0.155864 0.179785
Si Si7 0.557835 0.342081 0.906383
O O1 0.119089 0.200374 0.151653
O O2 0.024731 0.254413 0.248053
O O3 0.054355 0.000000 0.189965
O O4 0.083808 0.179953 0.994435
O O5 0.098551 0.500000 0.686019
O O6 0.158878 0.297452 0.536152
O O7 0.066987 0.315140 0.579979
O O8 0.084661 0.252550 0.776921
O O9 0.778464 0.500000 0.501130
O O10 0.750000 0.250000 0.500000
O O11 0.757424 0.323455 0.695854
O O12 0.320433 0.500000 0.864642
O O13 0.309753 0.252735 0.802087
O O14 0.287995 0.303954 0.048553
O O15 0.500000 0.788660 0.500000
O O16 0.505889 0.000000 0.351320
O O17 0.719388 0.000000 0.172147
O O18 0.562267 0.500000 0.858756
O O19 0.500000 0.298196 0.000000
#
# Coordination Sequence:
#
# PCOD8101399 Si02
#       7
#     8   8   8   8   8   8   8
#     4  10  21  36  56  84 114 143 184 231 276 331
#     4  10  22  39  57  83 115 147 188 236 280 329
#     4  10  23  40  59  83 113 150 191 234 280 334
#     4   9  19  35  56  83 111 141 180 231 281 327
#     4  10  22  38  58  83 114 151 189 226 275 338
#     4   9  19  37  59  80 108 145 185 229 279 330
#     4  10  20  36  58  82 110 145 185 225 274 334
#
# _framework density 18.680584
#
# number of rings (size 3 to 8) (size 9 to 14) (size 15 to 20)
#    0.000    2.286    1.429    0.000    4.000    2.857 
#    0.000    0.000    0.000    0.000    0.000    0.000 
#    0.000    0.000    0.000    0.000    0.000    0.000 
#
# Total GULP energy -347237.056031 kJ/mol
# GULP energy per Si atom -12401.323430 kJ/mol
# Density = 1.863807 g / cm^3
# Si number density = 18.680584 Si / 1000 Ang^3
#
#
#
# Elastic Constant Matrix: (Units=GPa)
#
#
# Indices 1 2 3 4 5 6 
#
# 1 125.1621 53.0102 33.0287 0.0000 1.4154 0.0000
# 2 53.0102 61.1789 36.3934 0.0000 -0.3582 0.0000
# 3 33.0287 36.3934 70.5423 0.0000 2.6244 0.0000
# 4 0.0000 0.0000 0.0000 29.7369 0.0000 3.4311
# 5 1.4154 -0.3582 2.6244 0.0000 25.2975 0.0000
# 6 0.0000 0.0000 0.0000 3.4311 0.0000 33.2174
#
#
#
# Elastic Compliance Matrix: (Units=1/GPa)
#
#
# Indices 1 2 3 4 5 6 
#
# 1 0.012646 -0.010761 -0.000339 0.000000 -0.000825 0.000000
# 2 -0.010761 0.032805 -0.011972 0.000000 0.002309 0.000000
# 3 -0.000339 -0.011972 0.020596 0.000000 -0.002287 0.000000
# 4 0.000000 0.000000 0.000000 0.034034 0.000000 -0.003515
# 5 -0.000825 0.002309 -0.002287 0.000000 0.039846 0.000000
# 6 0.000000 0.000000 0.000000 -0.003515 0.000000 0.030468
#
#
# Mechanical properties :
#
#
# Convention : Reuss Voigt Hill
#
# Bulk Modulus (GPa) = 50.24123 55.74976 52.99550
# Shear Modulus (GPa) = 22.40437 26.61376 24.50906
#
# Velocity S-wave (km/s) = 3.46691 3.77858 3.62609
# Velocity P-wave (km/s) = 6.55585 6.99610 6.77955
#
# Compressibility (1/GPa) = 0.01990397
#
# Stress axis : x y z
#
# Youngs Moduli (GPa) = 79.07732 30.48358 48.55330
#
# Poissons Ratio (x) = 0.32802 0.01644
# Poissons Ratio (y) = 0.85093 0.58127
# Poissons Ratio (z) = 0.02678 0.36494
#
# Static dielectric constant tensor:
#      x y z
#    x 3.578580 0.000000 0.024210 
#    y 0.000000 3.425840 0.000000 
#    z 0.024210 0.000000 3.392090 
# 
# 
# High freq. dielectric constant tensor:
#      x y z
#    x 1.734190 0.000000 0.002710 
#    y 0.000000 1.722430 0.000000 
#    z 0.002710 0.000000 1.719620 
# 
# From -- ./inp_files/187259.got.cif
#   From: 2010.06.25/outbox.cif.g09.slc.cpg/sg12_94_cif.got.tgz:187259.got - 2010.06.28 00:19:55.
