data_PCOD8101908
_publ_section_title
;
Structure prediction by ZEFSAII (Michael W. Deem and Ramdas Pophale) SiO2 
 PCOD8101908
Probable space group: C 2/M
;
_chemical_formula_sum "Si O2"
_cell_formula_units_Z 60
_cell_length_a 12.249908
_cell_length_b 16.702770
_cell_length_c 16.212662
_cell_angle_alpha 90.000000
_cell_angle_beta 118.462327
_cell_angle_gamma 90.000000
_cell_volume 2916.279094
_symmetry_space_group_name_H-M "C 2/M"
_symmetry_group_IT_number 12
_symmetry_cell_setting 'monoclinic'
loop_
_space_group_symop_operation_xyz
x,y,z
-x,y,-z
-x,-y,-z
x,-y,z
1/2+x,1/2+y,z
1/2-x,1/2+y,-z
1/2-x,1/2-y,-z
1/2+x,1/2-y,z
loop_
_atom_site_type_symbol
_atom_site_label
_atom_site_fract_x
_atom_site_fract_y
_atom_site_fract_z
Si Si1 0.426068 0.906776 0.189010
Si Si2 0.811660 0.315791 0.298994
Si Si3 0.221852 0.591123 0.474997
Si Si4 0.129142 0.406979 0.013719
Si Si5 0.846875 0.089740 0.200869
Si Si6 0.115111 0.905862 0.319910
Si Si7 0.000000 0.353638 0.500000
Si Si8 0.797283 0.647762 0.710064
O O1 0.371649 0.844749 0.235387
O O2 0.565513 0.881063 0.219128
O O3 0.422004 0.000000 0.217575
O O4 0.350984 0.896100 0.076818
O O5 0.715273 0.385692 0.286608
O O6 0.732252 0.235018 0.262681
O O7 0.917106 0.301221 0.406992
O O8 0.244281 0.500000 0.454998
O O9 0.332608 0.624600 0.572870
O O10 0.222857 0.647296 0.395346
O O11 0.090739 0.592497 0.476351
O O12 0.126190 0.500000 0.038049
O O13 0.248063 0.367314 0.103487
O O14 0.000000 0.367837 0.000000
O O15 0.795025 0.087962 0.275597
O O16 0.981362 0.134484 0.250959
O O17 0.870052 0.000000 0.177836
O O18 0.100328 0.000000 0.320122
#
# Coordination Sequence:
#
# PCOD8101908 Si02
#       8
#     8   8   8   8   8   8   4   8
#     4  11  22  42  69  93 119 160 216 261 299 361
#     4  11  25  39  59  89 127 164 209 250 309 366
#     4  10  20  36  59  91 119 158 211 256 300 360
#     4   9  17  34  64  95 116 147 209 266 302 352
#     4  10  20  37  61  90 121 159 200 254 313 367
#     4   9  21  39  60  84 124 164 201 249 309 369
#     4  10  21  38  60  84 117 166 208 258 299 354
#     4  12  24  35  61  91 126 159 199 262 307 365
#
# _framework density 20.574162000000001
#
# number of rings (size 3 to 8) (size 9 to 14) (size 15 to 20)
#    0.000    1.733    2.667    1.800    1.867    4.800 
#    0.000    3.333    2.933    3.200    0.000    0.000 
#    0.000    0.000    0.000    0.000    0.000    0.000 
#
# Total GULP energy -371826.359966 kJ/mol
# GULP energy per Si atom -12394.211999 kJ/mol
# Density = 2.052733 g / cm^3
# Si number density = 20.574162 Si / 1000 Ang^3
#
#
#
# Elastic Constant Matrix: (Units=GPa)
#
#
# Indices 1 2 3 4 5 6 
#
# 1 123.2406 14.8455 62.2872 0.0000 14.4382 0.0000
# 2 14.8455 53.4853 21.3022 0.0000 -3.5835 0.0000
# 3 62.2872 21.3022 119.4551 0.0000 14.0378 0.0000
# 4 0.0000 0.0000 0.0000 11.7954 0.0000 -1.6605
# 5 14.4382 -3.5835 14.0378 0.0000 39.7179 0.0000
# 6 0.0000 0.0000 0.0000 -1.6605 0.0000 29.4207
#
#
#
# Elastic Compliance Matrix: (Units=1/GPa)
#
#
# Indices 1 2 3 4 5 6 
#
# 1 0.011243 -0.001125 -0.005394 0.000000 -0.002282 0.000000
# 2 -0.001125 0.020641 -0.003507 0.000000 0.003511 0.000000
# 3 -0.005394 -0.003507 0.012119 0.000000 -0.002639 0.000000
# 4 0.000000 0.000000 0.000000 0.085458 0.000000 0.004823
# 5 -0.002282 0.003511 -0.002639 0.000000 0.027257 0.000000
# 6 0.000000 0.000000 0.000000 0.004823 0.000000 0.034262
#
#
# Mechanical properties :
#
#
# Convention : Reuss Voigt Hill
#
# Bulk Modulus (GPa) = 41.75011 54.78340 48.26676
# Shear Modulus (GPa) = 22.82947 29.36987 26.09967
#
# Velocity S-wave (km/s) = 3.33471 3.78234 3.56556
# Velocity P-wave (km/s) = 5.92989 6.76461 6.36095
#
# Compressibility (1/GPa) = 0.02395203
#
# Stress axis : x y z
#
# Youngs Moduli (GPa) = 88.94313 48.44746 82.51392
#
# Poissons Ratio (x) = 0.05452 0.44505
# Poissons Ratio (y) = 0.10010 0.28934
# Poissons Ratio (z) = 0.47972 0.16989
#
# Static dielectric constant tensor:
#      x y z
#    x 3.930180 0.000000 0.267990 
#    y 0.000000 3.305230 0.000000 
#    z 0.267990 0.000000 3.948410 
# 
# 
# High freq. dielectric constant tensor:
#      x y z
#    x 1.809650 0.000000 0.006810 
#    y 0.000000 1.769410 0.000000 
#    z 0.006810 0.000000 1.808450 
# 
# From -- ./inp_files/206727.got.cif
#   From: 2010.06.25/outbox.cif.g09.slc.cpg/sg12_104_cif.got.tgz:206727.got - 2010.06.28 00:19:55.
