data_PCOD8101745
_publ_section_title
;
Structure prediction by ZEFSAII (Michael W. Deem and Ramdas Pophale) SiO2 
 PCOD8101745
Probable space group: C 2/M
;
_chemical_formula_sum "Si O2"
_cell_formula_units_Z 48
_cell_length_a 27.174792
_cell_length_b 8.684233
_cell_length_c 15.407562
_cell_angle_alpha 90.000000
_cell_angle_beta 139.272832
_cell_angle_gamma 90.000000
_cell_volume 2372.378927
_symmetry_space_group_name_H-M "C 2/M"
_symmetry_group_IT_number 12
_symmetry_cell_setting 'monoclinic'
loop_
_space_group_symop_operation_xyz
x,y,z
-x,y,-z
-x,-y,-z
x,-y,z
1/2+x,1/2+y,z
1/2-x,1/2+y,-z
1/2-x,1/2-y,-z
1/2+x,1/2-y,z
loop_
_atom_site_type_symbol
_atom_site_label
_atom_site_fract_x
_atom_site_fract_y
_atom_site_fract_z
Si Si1 0.328365 0.681401 0.271404
Si Si2 0.412999 0.679239 0.883144
Si Si3 0.582942 0.678936 0.777089
Si Si4 0.655398 0.819842 0.039722
Si Si5 0.906936 0.178213 0.548123
Si Si6 0.167722 0.320149 0.386571
O O1 0.339356 0.500000 0.289506
O O2 0.375922 0.744319 0.253613
O O3 0.242031 0.730044 0.143728
O O4 0.360535 0.748737 0.404842
O O5 0.402417 0.500000 0.847651
O O6 0.378862 0.716934 0.930524
O O7 0.370931 0.778083 0.755175
O O8 0.500000 0.726755 0.000000
O O9 0.602849 0.500000 0.821439
O O10 0.494509 0.702245 0.645533
O O11 0.610484 0.783125 0.892739
O O12 0.647931 0.000000 0.052287
O O13 0.884637 0.266095 0.605020
O O14 0.887022 0.000000 0.536044
O O15 0.177388 0.500000 0.405144
O O16 0.250000 0.250000 0.500000
#
# Coordination Sequence:
#
# PCOD8101745 Si02
#       6
#     8   8   8   8   8   8
#     4   9  19  36  58  84 113 150 195 238 284 340
#     4  11  24  42  63  87 117 155 199 245 295 353
#     4  10  20  36  59  85 115 152 193 238 288 344
#     4  11  22  36  57  85 118 154 192 238 290 346
#     4  10  20  37  61  86 113 149 195 243 289 340
#     4  12  25  41  62  88 120 156 196 243 295 352
#
# _framework density 20.232856999999999
#
# number of rings (size 3 to 8) (size 9 to 14) (size 15 to 20)
#    0.000    1.500    0.000    5.500    0.000    9.333 
#    0.000    2.500    0.000    2.000    0.000    0.000 
#    0.000    0.000    0.000    0.000    0.000    0.000 
#
# Total GULP energy -297737.130937 kJ/mol
# GULP energy per Si atom -12405.713789 kJ/mol
# Density = 2.018681 g / cm^3
# Si number density = 20.232857 Si / 1000 Ang^3
#
#
#
# Elastic Constant Matrix: (Units=GPa)
#
#
# Indices 1 2 3 4 5 6 
#
# 1 120.9142 27.3523 26.3562 0.0000 -2.4169 0.0000
# 2 27.3523 68.8289 26.0087 0.0000 6.3781 0.0000
# 3 26.3562 26.0087 111.2307 0.0000 -0.4419 0.0000
# 4 0.0000 0.0000 0.0000 30.5875 0.0000 10.4101
# 5 -2.4169 6.3781 -0.4419 0.0000 45.8417 0.0000
# 6 0.0000 0.0000 0.0000 10.4101 0.0000 -129.6731
#
#
#
# Elastic Compliance Matrix: (Units=1/GPa)
#
#
# Indices 1 2 3 4 5 6 
#
# 1 0.009340 -0.003250 -0.001449 0.000000 0.000931 0.000000
# 2 -0.003250 0.017304 -0.003286 0.000000 -0.002611 0.000000
# 3 -0.001449 -0.003286 0.010104 0.000000 0.000478 0.000000
# 4 0.000000 0.000000 0.000000 0.031824 0.000000 0.002555
# 5 0.000931 -0.002611 0.000478 0.000000 0.022231 0.000000
# 6 0.000000 0.000000 0.000000 0.002555 0.000000 -0.007507
#
#
# Mechanical properties :
#
#
# Convention : Reuss Voigt Hill
#
# Bulk Modulus (GPa) = 48.13199 51.15648 49.64424
# Shear Modulus (GPa) = 47.08360 4.10166 25.59263
#
# Velocity S-wave (km/s) = 4.82922 1.42535 3.56041
# Velocity P-wave (km/s) = 7.41187 5.29600 6.44141
#
# Compressibility (1/GPa) = 0.02077620
#
# Stress axis : x y z
#
# Youngs Moduli (GPa) = 107.06500 57.78949 98.96952
#
# Poissons Ratio (x) = 0.18783 0.14345
# Poissons Ratio (y) = 0.34799 0.32525
# Poissons Ratio (z) = 0.15519 0.18992
#
# Static dielectric constant tensor:
#      x y z
#    x 3.874780 0.000000 -0.007700 
#    y 0.000000 3.518630 0.000000 
#    z -0.007700 0.000000 3.838210 
# 
# 
# High freq. dielectric constant tensor:
#      x y z
#    x 1.809690 0.000000 0.000280 
#    y 0.000000 1.771850 0.000000 
#    z 0.000280 0.000000 1.807970 
# 
# From -- ./inp_files/244683.got.cif
#   From: 2010.06.25/outbox.cif.g09.slc.cpg/sg12_123_cif.got.tgz:244683.got - 2010.06.28 00:19:55.
