data_PCOD8101739
_publ_section_title
;
Structure prediction by ZEFSAII (Michael W. Deem and Ramdas Pophale) SiO2 
 PCOD8101739
Probable space group: C 2/M
;
_chemical_formula_sum "Si O2"
_cell_formula_units_Z 64
_cell_length_a 30.176663
_cell_length_b 9.005578
_cell_length_c 18.816088
_cell_angle_alpha 90.000000
_cell_angle_beta 140.505656
_cell_angle_gamma 90.000000
_cell_volume 3252.150633
_symmetry_space_group_name_H-M "C 2/M"
_symmetry_group_IT_number 12
_symmetry_cell_setting 'monoclinic'
loop_
_space_group_symop_operation_xyz
x,y,z
-x,y,-z
-x,-y,-z
x,-y,z
1/2+x,1/2+y,z
1/2-x,1/2+y,-z
1/2-x,1/2-y,-z
1/2+x,1/2-y,z
loop_
_atom_site_type_symbol
_atom_site_label
_atom_site_fract_x
_atom_site_fract_y
_atom_site_fract_z
Si Si1 0.409330 0.326761 0.079556
Si Si2 0.386758 0.825658 0.461704
Si Si3 0.702280 0.326811 0.539662
Si Si4 0.518319 0.670825 0.684562
Si Si5 0.650131 0.827582 0.339685
Si Si6 0.005445 0.327065 0.089179
Si Si7 0.871671 0.168595 0.298790
Si Si8 0.770196 0.671730 0.952283
O O1 0.392944 0.500000 0.051975
O O2 0.458936 0.293605 0.207476
O O3 0.446989 0.268520 0.055918
O O4 0.337042 0.242521 0.998745
O O5 0.318749 0.751345 0.412793
O O6 0.454685 0.777758 0.589033
O O7 0.394147 0.776716 0.389543
O O8 0.378336 0.000000 0.455100
O O9 0.688008 0.500000 0.529331
O O10 0.653565 0.266792 0.415910
O O11 0.783147 0.290112 0.626477
O O12 0.494963 0.500000 0.646790
O O13 0.582972 0.708995 0.713865
O O14 0.581966 0.781900 0.211475
O O15 0.649907 0.000000 0.360930
O O16 0.990620 0.500000 0.084720
O O17 0.000000 0.287122 0.000000
O O18 0.791315 0.191856 0.180536
O O19 0.886311 0.000000 0.341296
O O20 0.783967 0.500000 0.986434
O O21 0.750000 0.750000 0.000000
#
# Coordination Sequence:
#
# PCOD8101739 Si02
#       8
#     8   8   8   8   8   8   8   8
#     4  11  23  40  63  93 122 157 205 249 300 360
#     4  12  25  37  54  87 123 155 197 246 294 349
#     4  10  20  36  59  85 114 153 192 237 297 359
#     4  10  21  40  62  84 116 157 199 244 297 360
#     4   9  19  37  61  86 112 145 194 248 294 348
#     4  10  22  40  60  86 120 157 198 247 303 359
#     4  10  22  41  61  83 115 158 198 239 298 359
#     4  11  22  40  65  91 120 156 200 249 299 353
#
# _framework density 19.679286000000001
#
# number of rings (size 3 to 8) (size 9 to 14) (size 15 to 20)
#    0.000    1.625    1.250    3.375    0.000    8.250 
#    0.000    2.500    0.000    0.000    0.000    0.000 
#    0.000    0.000    0.000    0.000    0.000    0.000 
#
# Total GULP energy -397001.874446 kJ/mol
# GULP energy per Si atom -12406.308576 kJ/mol
# Density = 1.963450 g / cm^3
# Si number density = 19.679286 Si / 1000 Ang^3
#
#
#
# Elastic Constant Matrix: (Units=GPa)
#
#
# Indices 1 2 3 4 5 6 
#
# 1 117.2989 55.1111 45.5238 0.0000 -0.1731 0.0000
# 2 55.1111 104.3332 35.4488 0.0000 1.3016 0.0000
# 3 45.5238 35.4488 64.6765 0.0000 6.8383 0.0000
# 4 0.0000 0.0000 0.0000 30.9817 0.0000 -1.1839
# 5 -0.1731 1.3016 6.8383 0.0000 32.2208 0.0000
# 6 0.0000 0.0000 0.0000 -1.1839 0.0000 38.2297
#
#
#
# Elastic Compliance Matrix: (Units=1/GPa)
#
#
# Indices 1 2 3 4 5 6 
#
# 1 0.013513 -0.004749 -0.007096 0.000000 0.001770 0.000000
# 2 -0.004749 0.013473 -0.004073 0.000000 0.000295 0.000000
# 3 -0.007096 -0.004073 0.023196 0.000000 -0.004796 0.000000
# 4 0.000000 0.000000 0.000000 0.032315 0.000000 0.001001
# 5 0.001770 0.000295 -0.004796 0.000000 0.032051 0.000000
# 6 0.000000 0.000000 0.000000 0.001001 0.000000 0.026189
#
#
# Mechanical properties :
#
#
# Convention : Reuss Voigt Hill
#
# Bulk Modulus (GPa) = 54.50687 62.05292 58.27989
# Shear Modulus (GPa) = 27.98164 30.30142 29.14153
#
# Velocity S-wave (km/s) = 3.77488 3.92824 3.85232
# Velocity P-wave (km/s) = 6.83793 7.22325 7.03323
#
# Compressibility (1/GPa) = 0.01834631
#
# Stress axis : x y z
#
# Youngs Moduli (GPa) = 74.00323 74.21983 43.11167
#
# Poissons Ratio (x) = 0.35248 0.30590
# Poissons Ratio (y) = 0.35145 0.17560
# Poissons Ratio (z) = 0.52510 0.30231
#
# Static dielectric constant tensor:
#      x y z
#    x 3.764430 0.000000 0.124200 
#    y 0.000000 3.590570 0.000000 
#    z 0.124200 0.000000 3.586700 
# 
# 
# High freq. dielectric constant tensor:
#      x y z
#    x 1.779720 0.000000 0.005420 
#    y 0.000000 1.767830 0.000000 
#    z 0.005420 0.000000 1.765970 
# 
# From -- ./inp_files/295822.got.cif
#   From: 2010.06.25/outbox.cif.g09.slc.cpg/sg12_148_cif.got.tgz:295822.got - 2010.06.28 00:19:55.
