data_PCOD8101659
_publ_section_title
;
Structure prediction by ZEFSAII (Michael W. Deem and Ramdas Pophale) SiO2 
 PCOD8101659
Probable space group: C 2/M
;
_chemical_formula_sum "Si O2"
_cell_formula_units_Z 48
_cell_length_a 21.958972
_cell_length_b 9.572268
_cell_length_c 12.336588
_cell_angle_alpha 90.000000
_cell_angle_beta 77.141960
_cell_angle_gamma 90.000000
_cell_volume 2528.091960
_symmetry_space_group_name_H-M "C 2/M"
_symmetry_group_IT_number 12
_symmetry_cell_setting 'monoclinic'
loop_
_space_group_symop_operation_xyz
x,y,z
-x,y,-z
-x,-y,-z
x,-y,z
1/2+x,1/2+y,z
1/2-x,1/2+y,-z
1/2-x,1/2-y,-z
1/2+x,1/2-y,z
loop_
_atom_site_type_symbol
_atom_site_label
_atom_site_fract_x
_atom_site_fract_y
_atom_site_fract_z
Si Si1 0.929720 0.660912 0.541918
Si Si2 0.808658 0.655871 0.990144
Si Si3 0.481040 0.664144 0.128953
Si Si4 0.865437 0.346159 0.200323
Si Si5 0.580419 0.838913 0.205853
Si Si6 0.311648 0.838870 0.451441
O O1 0.937077 0.500000 0.506186
O O2 0.904819 0.681515 0.673652
O O3 0.874645 0.722381 0.486055
O O4 0.000000 0.728781 0.500000
O O5 0.791934 0.500000 0.958823
O O6 0.862673 0.714401 0.890460
O O7 0.750000 0.750000 0.000000
O O8 0.825289 0.660747 0.108619
O O9 0.485233 0.500000 0.146695
O O10 0.412050 0.717131 0.179044
O O11 0.522633 0.741827 0.200416
O O12 0.500000 0.706550 0.000000
O O13 0.898697 0.500000 0.194020
O O14 0.820039 0.326791 0.319639
O O15 0.564128 0.000000 0.185491
O O16 0.250000 0.750000 0.500000
O O17 0.300716 0.000000 0.491937
#
# Coordination Sequence:
#
# PCOD8101659 Si02
#       6
#     8   8   8   8   8   8
#     4   9  18  35  59  85 111 146 192 236 278 333
#     4  10  22  36  54  81 111 147 191 232 280 334
#     4  11  22  35  55  87 118 145 180 231 291 338
#     4  10  21  39  60  82 111 151 192 230 277 341
#     4  10  20  36  59  83 110 148 189 230 278 339
#     4  10  22  39  61  87 115 151 194 239 288 340
#
# _framework density 18.986650999999998
#
# number of rings (size 3 to 8) (size 9 to 14) (size 15 to 20)
#    0.000    2.000    1.667    1.500    2.333    5.333 
#    0.000    0.833    0.000    2.000    0.000    0.000 
#    0.000    0.000    0.000    0.000    0.000    0.000 
#
# Total GULP energy -297531.029938 kJ/mol
# GULP energy per Si atom -12397.126247 kJ/mol
# Density = 1.894344 g / cm^3
# Si number density = 18.986651 Si / 1000 Ang^3
#
#
#
# Elastic Constant Matrix: (Units=GPa)
#
#
# Indices 1 2 3 4 5 6 
#
# 1 121.1798 43.6500 45.9642 0.0000 -6.7844 0.0000
# 2 43.6500 60.1231 28.3758 0.0000 -5.6905 0.0000
# 3 45.9642 28.3758 119.8180 0.0000 -0.4129 0.0000
# 4 0.0000 0.0000 0.0000 17.8259 0.0000 -6.9671
# 5 -6.7844 -5.6905 -0.4129 0.0000 22.2191 0.0000
# 6 0.0000 0.0000 0.0000 -6.9671 0.0000 38.2498
#
#
#
# Elastic Compliance Matrix: (Units=1/GPa)
#
#
# Indices 1 2 3 4 5 6 
#
# 1 0.012052 -0.007208 -0.002910 0.000000 0.001780 0.000000
# 2 -0.007208 0.023543 -0.002798 0.000000 0.003777 0.000000
# 3 -0.002910 -0.002798 0.010120 0.000000 -0.001417 0.000000
# 4 0.000000 0.000000 0.000000 0.060398 0.000000 0.011001
# 5 0.001780 0.003777 -0.001417 0.000000 0.046491 0.000000
# 6 0.000000 0.000000 0.000000 0.011001 0.000000 0.028148
#
#
# Mechanical properties :
#
#
# Convention : Reuss Voigt Hill
#
# Bulk Modulus (GPa) = 50.29152 59.67790 54.98471
# Shear Modulus (GPa) = 23.45091 27.86769 25.65930
#
# Velocity S-wave (km/s) = 3.51825 3.83528 3.68018
# Velocity P-wave (km/s) = 6.56121 7.14928 6.86155
#
# Compressibility (1/GPa) = 0.01988407
#
# Stress axis : x y z
#
# Youngs Moduli (GPa) = 82.97321 42.47476 98.81383
#
# Poissons Ratio (x) = 0.30616 0.28757
# Poissons Ratio (y) = 0.59807 0.27644
# Poissons Ratio (z) = 0.24147 0.11882
#
# Static dielectric constant tensor:
#      x y z
#    x 1.395240 0.000000 -3.124230 
#    y 0.000000 3.366280 0.000000 
#    z -3.124230 0.000000 -1.382730 
# 
# 
# High freq. dielectric constant tensor:
#      x y z
#    x 1.734970 0.000000 0.003000 
#    y 0.000000 1.713450 0.000000 
#    z 0.003000 0.000000 1.754100 
# 
# From -- ./inp_files/172895.got.cif
#   From: 2010.06.25/outbox.cif.g09.slc.cpg/sg12_87_cif.got.tgz:172895.got - 2010.06.28 00:19:55.
