data_PCOD8101765
_publ_section_title
;
Structure prediction by ZEFSAII (Michael W. Deem and Ramdas Pophale) SiO2 
 PCOD8101765
Probable space group: C 2/M
;
_chemical_formula_sum "Si O2"
_cell_formula_units_Z 56
_cell_length_a 23.950154
_cell_length_b 8.880485
_cell_length_c 13.602765
_cell_angle_alpha 90.000000
_cell_angle_beta 75.960265
_cell_angle_gamma 90.000000
_cell_volume 2806.733021
_symmetry_space_group_name_H-M "C 2/M"
_symmetry_group_IT_number 12
_symmetry_cell_setting 'monoclinic'
loop_
_space_group_symop_operation_xyz
x,y,z
-x,y,-z
-x,-y,-z
x,-y,z
1/2+x,1/2+y,z
1/2-x,1/2+y,-z
1/2-x,1/2-y,-z
1/2+x,1/2-y,z
loop_
_atom_site_type_symbol
_atom_site_label
_atom_site_fract_x
_atom_site_fract_y
_atom_site_fract_z
Si Si1 0.218692 0.821200 0.736408
Si Si2 0.561509 0.678833 0.509225
Si Si3 0.003174 0.176767 0.885234
Si Si4 0.301499 0.321650 0.036645
Si Si5 0.892363 0.675384 0.867824
Si Si6 0.152576 0.675924 0.329123
Si Si7 0.602896 0.322363 0.699455
O O1 0.203289 0.761084 0.850824
O O2 0.282233 0.767117 0.676635
O O3 0.168227 0.760044 0.685792
O O4 0.218643 0.000000 0.739236
O O5 0.500000 0.744276 0.500000
O O6 0.559238 0.500000 0.511900
O O7 0.610884 0.728478 0.414321
O O8 0.575542 0.745770 0.611503
O O9 0.957751 0.267571 0.838353
O O10 0.064998 0.217966 0.811762
O O11 0.989940 0.000000 0.882044
O O12 0.000000 0.229529 0.000000
O O13 0.297048 0.500000 0.032746
O O14 0.250000 0.250000 0.000000
O O15 0.361842 0.268148 0.967135
O O16 0.889525 0.500000 0.893758
O O17 0.861815 0.710225 0.777801
O O18 0.144850 0.500000 0.355943
O O19 0.605688 0.500000 0.686065
#
# Coordination Sequence:
#
# PCOD8101765 Si02
#       7
#     8   8   8   8   8   8   8
#     4   9  18  35  56  80 112 148 184 226 278 338
#     4  10  21  37  57  82 110 140 183 237 287 331
#     4  10  20  36  59  86 111 146 194 234 278 342
#     4  11  20  34  56  82 115 152 189 231 279 337
#     4  11  22  36  54  82 116 151 189 234 286 335
#     4  10  21  37  56  80 110 144 186 232 281 338
#     4   9  18  34  57  81 110 147 186 231 282 335
#
# _framework density 19.952021999999999
#
# number of rings (size 3 to 8) (size 9 to 14) (size 15 to 20)
#    0.000    2.000    1.429    2.571    0.000    5.714 
#    0.000    0.714    0.000    2.571    0.000    0.000 
#    0.000    0.000    0.000    0.000    0.000    0.000 
#
# Total GULP energy -347183.979703 kJ/mol
# GULP energy per Si atom -12399.427847 kJ/mol
# Density = 1.990661 g / cm^3
# Si number density = 19.952022 Si / 1000 Ang^3
#
#
#
# Elastic Constant Matrix: (Units=GPa)
#
#
# Indices 1 2 3 4 5 6 
#
# 1 180.2163 21.1235 63.9409 0.0000 5.2182 0.0000
# 2 21.1235 30.0886 20.5459 0.0000 3.8029 0.0000
# 3 63.9409 20.5459 106.1578 0.0000 -4.4278 0.0000
# 4 0.0000 0.0000 0.0000 23.9266 0.0000 -3.4768
# 5 5.2182 3.8029 -4.4278 0.0000 33.9943 0.0000
# 6 0.0000 0.0000 0.0000 -3.4768 0.0000 26.3370
#
#
#
# Elastic Compliance Matrix: (Units=1/GPa)
#
#
# Indices 1 2 3 4 5 6 
#
# 1 0.007270 -0.002187 -0.004014 0.000000 -0.001394 0.000000
# 2 -0.002187 0.039920 -0.006617 0.000000 -0.004992 0.000000
# 3 -0.004014 -0.006617 0.013247 0.000000 0.003082 0.000000
# 4 0.000000 0.000000 0.000000 0.042612 0.000000 0.005625
# 5 -0.001394 -0.004992 0.003082 0.000000 0.030591 0.000000
# 6 0.000000 0.000000 0.000000 0.005625 0.000000 0.038712
#
#
# Mechanical properties :
#
#
# Convention : Reuss Voigt Hill
#
# Bulk Modulus (GPa) = 28.73476 58.63148 43.68312
# Shear Modulus (GPa) = 23.85656 30.90839 27.38248
#
# Velocity S-wave (km/s) = 3.46164 3.94018 3.70863
# Velocity P-wave (km/s) = 5.51456 7.08167 6.34667
#
# Compressibility (1/GPa) = 0.03480106
#
# Stress axis : x y z
#
# Youngs Moduli (GPa) = 137.55975 25.05015 75.49096
#
# Poissons Ratio (x) = 0.05478 0.30298
# Poissons Ratio (y) = 0.30081 0.49954
# Poissons Ratio (z) = 0.55210 0.16576
#
# Static dielectric constant tensor:
#      x y z
#    x 4.062740 0.000000 0.027170 
#    y 0.000000 3.273700 0.000000 
#    z 0.027170 0.000000 3.836620 
# 
# 
# High freq. dielectric constant tensor:
#      x y z
#    x 1.799420 0.000000 -0.001250 
#    y 0.000000 1.740040 0.000000 
#    z -0.001250 0.000000 1.779110 
# 
# From -- ./inp_files/180668.got.cif
#   From: 2010.06.25/outbox.cif.g09.slc.cpg/sg12_91_cif.got.tgz:180668.got - 2010.06.28 00:19:55.
