data_PCOD8101530
_publ_section_title
;
Structure prediction by ZEFSAII (Michael W. Deem and Ramdas Pophale) SiO2 
 PCOD8101530
Probable space group: C 2/M
;
_chemical_formula_sum "Si O2"
_cell_formula_units_Z 48
_cell_length_a 27.357774
_cell_length_b 8.823769
_cell_length_c 17.002796
_cell_angle_alpha 90.000000
_cell_angle_beta 143.752381
_cell_angle_gamma 90.000000
_cell_volume 2426.864798
_symmetry_space_group_name_H-M "C 2/M"
_symmetry_group_IT_number 12
_symmetry_cell_setting 'monoclinic'
loop_
_space_group_symop_operation_xyz
x,y,z
-x,y,-z
-x,-y,-z
x,-y,z
1/2+x,1/2+y,z
1/2-x,1/2+y,-z
1/2-x,1/2-y,-z
1/2+x,1/2-y,z
loop_
_atom_site_type_symbol
_atom_site_label
_atom_site_fract_x
_atom_site_fract_y
_atom_site_fract_z
Si Si1 0.839255 0.679025 0.105359
Si Si2 0.092802 0.820312 0.261517
Si Si3 0.093980 0.820710 0.966004
Si Si4 0.022922 0.177447 0.617788
Si Si5 0.363348 0.678183 0.509989
Si Si6 0.803524 0.179146 0.749841
O O1 0.830835 0.500000 0.094753
O O2 0.879179 0.733658 0.076449
O O3 0.896155 0.730500 0.251918
O O4 0.750000 0.750000 0.000000
O O5 0.131764 0.762287 0.394003
O O6 0.145682 0.751601 0.258159
O O7 0.998133 0.767777 0.130634
O O8 0.095585 0.000000 0.262772
O O9 0.097647 0.000000 0.954135
O O10 0.153257 0.770186 0.113637
O O11 0.000000 0.225232 0.500000
O O12 0.947915 0.223453 0.577167
O O13 0.043086 0.000000 0.650136
O O14 0.348358 0.500000 0.486258
O O15 0.288904 0.758914 0.368658
O O16 0.801621 0.000000 0.740652
#
# Coordination Sequence:
#
# PCOD8101530 Si02
#       6
#     8   8   8   8   8   8
#     4  12  26  43  65  91 120 155 198 247 301 358
#     4   9  17  35  60  84 115 159 204 241 291 351
#     4  10  20  39  62  86 119 157 200 247 297 350
#     4  10  22  42  66  91 120 157 196 243 305 363
#     4  10  20  36  58  84 121 160 193 240 298 356
#     4  10  21  34  57  90 120 156 201 247 288 345
#
# _framework density 19.778604999999999
#
# number of rings (size 3 to 8) (size 9 to 14) (size 15 to 20)
#    0.000    1.833    1.667    2.500    2.333    3.667 
#    0.000    0.833    0.000    2.000    0.000    0.000 
#    0.000    0.000    0.000    0.000    0.000    0.000 
#
# Total GULP energy -297687.340703 kJ/mol
# GULP energy per Si atom -12403.639196 kJ/mol
# Density = 1.973359 g / cm^3
# Si number density = 19.778605 Si / 1000 Ang^3
#
#
#
# Elastic Constant Matrix: (Units=GPa)
#
#
# Indices 1 2 3 4 5 6 
#
# 1 85.2094 32.2596 42.9411 0.0000 -9.3027 0.0000
# 2 32.2596 52.9832 43.4917 0.0000 -2.4957 0.0000
# 3 42.9411 43.4917 162.4623 0.0000 -2.5549 0.0000
# 4 0.0000 0.0000 0.0000 33.9290 0.0000 3.1162
# 5 -9.3027 -2.4957 -2.5549 0.0000 35.5296 0.0000
# 6 0.0000 0.0000 0.0000 3.1162 0.0000 15.3537
#
#
#
# Elastic Compliance Matrix: (Units=1/GPa)
#
#
# Indices 1 2 3 4 5 6 
#
# 1 0.016195 -0.007980 -0.002089 0.000000 0.003530 0.000000
# 2 -0.007980 0.028175 -0.005441 0.000000 -0.000501 0.000000
# 3 -0.002089 -0.005441 0.008159 0.000000 -0.000342 0.000000
# 4 0.000000 0.000000 0.000000 0.030033 0.000000 -0.006096
# 5 0.003530 -0.000501 -0.000342 0.000000 0.029010 0.000000
# 6 0.000000 0.000000 0.000000 -0.006096 0.000000 0.066368
#
#
# Mechanical properties :
#
#
# Convention : Reuss Voigt Hill
#
# Bulk Modulus (GPa) = 46.49163 59.78219 53.13691
# Shear Modulus (GPa) = 23.13431 29.09330 26.11381
#
# Velocity S-wave (km/s) = 3.42374 3.83945 3.63754
# Velocity P-wave (km/s) = 6.25991 7.06729 6.67581
#
# Compressibility (1/GPa) = 0.02150925
#
# Stress axis : x y z
#
# Youngs Moduli (GPa) = 61.74827 35.49201 122.56869
#
# Poissons Ratio (x) = 0.28321 0.25603
# Poissons Ratio (y) = 0.49272 0.66695
# Poissons Ratio (z) = 0.12898 0.19313
#
# Static dielectric constant tensor:
#      x y z
#    x 3.747880 0.000000 -0.068880 
#    y 0.000000 3.294620 0.000000 
#    z -0.068880 0.000000 3.792930 
# 
# 
# High freq. dielectric constant tensor:
#      x y z
#    x 1.783100 0.000000 -0.001220 
#    y 0.000000 1.739430 0.000000 
#    z -0.001220 0.000000 1.790270 
# 
# From -- ./inp_files/244689.got.cif
#   From: 2010.06.25/outbox.cif.g09.slc.cpg/sg12_123_cif.got.tgz:244689.got - 2010.06.28 00:19:55.
