data_PCOD8101366
_publ_section_title
;
Structure prediction by ZEFSAII (Michael W. Deem and Ramdas Pophale) SiO2 
 PCOD8101366
Probable space group: C 2/M
;
_chemical_formula_sum "Si O2"
_cell_formula_units_Z 48
_cell_length_a 17.908684
_cell_length_b 8.948469
_cell_length_c 15.172082
_cell_angle_alpha 90.000000
_cell_angle_beta 86.106366
_cell_angle_gamma 90.000000
_cell_volume 2425.794507
_symmetry_space_group_name_H-M "C 2/M"
_symmetry_group_IT_number 12
_symmetry_cell_setting 'monoclinic'
loop_
_space_group_symop_operation_xyz
x,y,z
-x,y,-z
-x,-y,-z
x,-y,z
1/2+x,1/2+y,z
1/2-x,1/2+y,-z
1/2-x,1/2-y,-z
1/2+x,1/2-y,z
loop_
_atom_site_type_symbol
_atom_site_label
_atom_site_fract_x
_atom_site_fract_y
_atom_site_fract_z
Si Si1 0.584988 0.827290 0.474783
Si Si2 0.826872 0.173889 0.683320
Si Si3 0.157704 0.327804 0.653688
Si Si4 0.587500 0.835238 0.974653
Si Si5 0.098589 0.676981 0.166143
Si Si6 0.060874 0.175292 0.806363
O O1 0.500000 0.781128 0.500000
O O2 0.612794 0.727525 0.392259
O O3 0.635069 0.792865 0.555720
O O4 0.590605 0.000000 0.446142
O O5 0.744680 0.211198 0.654832
O O6 0.838225 0.259698 0.774417
O O7 0.838912 0.000000 0.699516
O O8 0.140625 0.500000 0.679692
O O9 0.111742 0.219669 0.720400
O O10 0.624005 0.780153 0.064078
O O11 0.617785 0.000000 0.945958
O O12 0.500000 0.845180 0.000000
O O13 0.603652 0.722838 0.893145
O O14 0.091289 0.500000 0.176618
O O15 0.018651 0.745609 0.197735
O O16 0.047868 0.000000 0.808776
#
# Coordination Sequence:
#
# PCOD8101366 Si02
#       6
#     8   8   8   8   8   8
#     4  10  21  38  61  84 107 144 188 226 272 333
#     4  11  23  37  56  83 114 147 184 231 279 323
#     4  10  22  39  56  79 115 153 185 222 275 334
#     4   8  16  32  54  79 108 145 185 227 277 328
#     4  10  20  36  58  81 110 149 189 229 276 331
#     4  11  21  33  56  87 114 143 184 233 278 325
#
# _framework density 19.787331999999999
#
# number of rings (size 3 to 8) (size 9 to 14) (size 15 to 20)
#    0.000    2.000    0.000    5.000    0.000    7.333 
#    0.000    0.833    0.000    0.000    0.000    0.000 
#    0.000    0.000    0.000    0.000    0.000    0.000 
#
# Total GULP energy -297652.132069 kJ/mol
# GULP energy per Si atom -12402.172170 kJ/mol
# Density = 1.974229 g / cm^3
# Si number density = 19.787332 Si / 1000 Ang^3
#
#
#
# Elastic Constant Matrix: (Units=GPa)
#
#
# Indices 1 2 3 4 5 6 
#
# 1 62.2613 20.9685 15.1655 0.0000 25.6484 0.0000
# 2 20.9685 85.8571 23.8742 0.0000 12.1250 0.0000
# 3 15.1655 23.8742 70.8886 0.0000 33.3902 0.0000
# 4 0.0000 0.0000 0.0000 17.0305 0.0000 0.1104
# 5 25.6484 12.1250 33.3902 0.0000 31.7320 0.0000
# 6 0.0000 0.0000 0.0000 0.1104 0.0000 24.7026
#
#
#
# Elastic Compliance Matrix: (Units=1/GPa)
#
#
# Indices 1 2 3 4 5 6 
#
# 1 0.028746 -0.005487 0.011212 0.000000 -0.032937 0.000000
# 2 -0.005487 0.013906 -0.006138 0.000000 0.005580 0.000000
# 3 0.011212 -0.006138 0.033585 0.000000 -0.042057 0.000000
# 4 0.000000 0.000000 0.000000 0.058720 0.000000 -0.000263
# 5 -0.032937 0.005580 -0.042057 0.000000 0.100259 0.000000
# 6 0.000000 0.000000 0.000000 -0.000263 0.000000 0.040483
#
#
# Mechanical properties :
#
#
# Convention : Reuss Voigt Hill
#
# Bulk Modulus (GPa) = 13.26046 37.66926 25.46486
# Shear Modulus (GPa) = 16.57485 25.29294 20.93389
#
# Velocity S-wave (km/s) = 2.89736 3.57913 3.25613
# Velocity P-wave (km/s) = 4.23190 6.01320 5.19940
#
# Compressibility (1/GPa) = 0.07541216
#
# Stress axis : x y z
#
# Youngs Moduli (GPa) = 34.78697 71.91140 29.77509
#
# Poissons Ratio (x) = 0.39457 -0.33384
# Poissons Ratio (y) = 0.19087 0.18275
# Poissons Ratio (z) = -0.39003 0.44137
#
# Static dielectric constant tensor:
#      x y z
#    x 3.440110 0.000000 0.323500 
#    y 0.000000 3.557500 0.000000 
#    z 0.323500 0.000000 3.997530 
# 
# 
# High freq. dielectric constant tensor:
#      x y z
#    x 1.750770 0.000000 0.013640 
#    y 0.000000 1.769540 0.000000 
#    z 0.013640 0.000000 1.788200 
# 
# From -- ./inp_files/221725.got.cif
#   From: 2010.06.25/outbox.cif.g09.slc.cpg/sg12_111_cif.got.tgz:221725.got - 2010.06.28 00:19:55.
