data_PCOD8101555
_publ_section_title
;
Structure prediction by ZEFSAII (Michael W. Deem and Ramdas Pophale) SiO2 
 PCOD8101555
Probable space group: C 2/M
;
_chemical_formula_sum "Si O2"
_cell_formula_units_Z 56
_cell_length_a 15.776909
_cell_length_b 23.128788
_cell_length_c 9.737871
_cell_angle_alpha 90.000000
_cell_angle_beta 52.906453
_cell_angle_gamma 90.000000
_cell_volume 2834.341630
_symmetry_space_group_name_H-M "C 2/M"
_symmetry_group_IT_number 12
_symmetry_cell_setting 'monoclinic'
loop_
_space_group_symop_operation_xyz
x,y,z
-x,y,-z
-x,-y,-z
x,-y,z
1/2+x,1/2+y,z
1/2-x,1/2+y,-z
1/2-x,1/2-y,-z
1/2+x,1/2-y,z
loop_
_atom_site_type_symbol
_atom_site_label
_atom_site_fract_x
_atom_site_fract_y
_atom_site_fract_z
Si Si1 0.090859 0.384754 0.215334
Si Si2 0.764395 0.064979 0.236541
Si Si3 0.601346 0.654963 0.308492
Si Si4 0.791101 0.569076 0.156633
Si Si5 0.369179 0.066564 0.381705
Si Si6 0.198162 0.270845 0.188257
Si Si7 0.399362 0.663402 0.013891
O O1 0.158847 0.424274 0.250500
O O2 0.107731 0.317619 0.238547
O O3 0.965510 0.395538 0.348045
O O4 0.126893 0.401143 0.026875
O O5 0.734449 0.078314 0.423945
O O6 0.868984 0.098379 0.084746
O O7 0.800220 0.000000 0.181740
O O8 0.500000 0.640504 0.500000
O O9 0.677760 0.599909 0.248812
O O10 0.651646 0.715542 0.315629
O O11 0.574988 0.665884 0.173512
O O12 0.778885 0.500000 0.145115
O O13 0.838387 0.583950 0.258563
O O14 0.405354 0.000000 0.353695
O O15 0.297331 0.300335 0.169271
O O16 0.250000 0.250000 0.000000
O O17 0.500000 0.685967 0.000000
#
# Coordination Sequence:
#
# PCOD8101555 Si02
#       7
#     8   8   8   8   8   8   8
#     4  11  19  36  66  84 119 163 202 246 307 360
#     4  10  20  36  58  85 124 162 198 248 302 356
#     4  11  24  43  64  87 123 160 202 249 303 358
#     4  11  22  39  60  90 128 162 201 251 300 358
#     4  10  22  35  55  94 130 154 200 253 298 365
#     4   9  19  42  59  84 118 153 196 247 298 357
#     4  10  22  40  63  86 118 154 201 256 293 357
#
# _framework density 19.757674000000002
#
# number of rings (size 3 to 8) (size 9 to 14) (size 15 to 20)
#    0.000    1.714    4.286    2.143    2.000    5.143 
#    5.143    0.714    0.000    0.000    0.000    0.000 
#    0.000    0.000    0.000    0.000    0.000    0.000 
#
# Total GULP energy -347083.273041 kJ/mol
# GULP energy per Si atom -12395.831180 kJ/mol
# Density = 1.971271 g / cm^3
# Si number density = 19.757674 Si / 1000 Ang^3
#
#
#
# Elastic Constant Matrix: (Units=GPa)
#
#
# Indices 1 2 3 4 5 6 
#
# 1 89.0955 21.9575 3.6479 0.0000 5.0504 0.0000
# 2 21.9575 92.9210 16.9288 0.0000 -8.7484 0.0000
# 3 3.6479 16.9288 59.2432 0.0000 3.1010 0.0000
# 4 0.0000 0.0000 0.0000 27.0057 0.0000 -6.3808
# 5 5.0504 -8.7484 3.1010 0.0000 26.3385 0.0000
# 6 0.0000 0.0000 0.0000 -6.3808 0.0000 14.7540
#
#
#
# Elastic Compliance Matrix: (Units=1/GPa)
#
#
# Indices 1 2 3 4 5 6 
#
# 1 0.012214 -0.003280 0.000367 0.000000 -0.003475 0.000000
# 2 -0.003280 0.012710 -0.003707 0.000000 0.005287 0.000000
# 3 0.000367 -0.003707 0.018096 0.000000 -0.003432 0.000000
# 4 0.000000 0.000000 0.000000 0.041244 0.000000 0.017837
# 5 -0.003475 0.005287 -0.003432 0.000000 0.040794 0.000000
# 6 0.000000 0.000000 0.000000 0.017837 0.000000 0.075492
#
#
# Mechanical properties :
#
#
# Convention : Reuss Voigt Hill
#
# Bulk Modulus (GPa) = 33.57909 36.25870 34.91889
# Shear Modulus (GPa) = 22.34974 26.86801 24.60887
#
# Velocity S-wave (km/s) = 3.36697 3.69165 3.53304
# Velocity P-wave (km/s) = 5.66989 6.04670 5.86133
#
# Compressibility (1/GPa) = 0.02978044
#
# Stress axis : x y z
#
# Youngs Moduli (GPa) = 81.87134 78.67784 55.26144
#
# Poissons Ratio (x) = 0.25809 -0.02029
# Poissons Ratio (y) = 0.26856 0.20484
# Poissons Ratio (z) = -0.03006 0.29163
#
# Static dielectric constant tensor:
#      x y z
#    x 3.594850 0.000000 -0.044230 
#    y 0.000000 4.641720 0.000000 
#    z -0.044230 0.000000 3.721780 
# 
# 
# High freq. dielectric constant tensor:
#      x y z
#    x 1.754200 0.000000 0.000170 
#    y 0.000000 1.775420 0.000000 
#    z 0.000170 0.000000 1.772050 
# 
# From -- ./inp_files/65737.got.cif
#   From: 2010.06.25/outbox.cif.g09.slc.cpg/sg12_33_cif.got.tgz:65737.got - 2010.06.28 00:19:55.
