data_PCOD8101195
_publ_section_title
;
Structure prediction by ZEFSAII (Michael W. Deem and Ramdas Pophale) SiO2 
 PCOD8101195
Probable space group: C 2/M
;
_chemical_formula_sum "Si O2"
_cell_formula_units_Z 48
_cell_length_a 19.147138
_cell_length_b 8.537819
_cell_length_c 22.478382
_cell_angle_alpha 90.000000
_cell_angle_beta 41.342543
_cell_angle_gamma 90.000000
_cell_volume 2427.323593
_symmetry_space_group_name_H-M "C 2/M"
_symmetry_group_IT_number 12
_symmetry_cell_setting 'monoclinic'
loop_
_space_group_symop_operation_xyz
x,y,z
-x,y,-z
-x,-y,-z
x,-y,z
1/2+x,1/2+y,z
1/2-x,1/2+y,-z
1/2-x,1/2-y,-z
1/2+x,1/2-y,z
loop_
_atom_site_type_symbol
_atom_site_label
_atom_site_fract_x
_atom_site_fract_y
_atom_site_fract_z
Si Si1 0.115658 0.813570 0.933779
Si Si2 0.026278 0.686394 0.417632
Si Si3 0.071636 0.186449 0.750367
Si Si4 0.358929 0.685248 0.951604
Si Si5 0.367612 0.814264 0.415964
Si Si6 0.737068 0.686638 0.743479
O O1 0.188089 0.743813 0.835296
O O2 0.117468 0.000000 0.928543
O O3 0.147824 0.751558 0.977241
O O4 0.000000 0.745985 0.000000
O O5 0.024257 0.500000 0.417483
O O6 0.144016 0.751673 0.331608
O O7 0.000000 0.749801 0.500000
O O8 0.943729 0.749160 0.420600
O O9 0.083791 0.260698 0.677685
O O10 0.168990 0.243304 0.729891
O O11 0.961238 0.247658 0.849829
O O12 0.072106 0.000000 0.743883
O O13 0.363656 0.500000 0.946467
O O14 0.250000 0.750000 0.000000
O O15 0.250000 0.750000 0.500000
O O16 0.362463 0.000000 0.421179
O O17 0.735963 0.500000 0.744069
#
# Coordination Sequence:
#
# PCOD8101195 Si02
#       6
#     8   8   8   8   8   8
#     4   9  15  28  50  78 105 137 187 233 266 304
#     4   9  18  32  52  80 105 130 174 228 273 311
#     4  10  20  36  57  82 112 146 181 225 281 329
#     4  10  21  34  53  81 114 150 186 228 275 324
#     4  11  23  38  59  85 112 143 177 220 274 332
#     4   9  16  29  53  79 105 138 182 235 274 306
#
# _framework density 19.774868000000001
#
# number of rings (size 3 to 8) (size 9 to 14) (size 15 to 20)
#    0.000    2.333    1.667    1.500    2.333    3.333 
#    0.000    0.000    0.000   10.500    0.000    0.000 
#    0.000    0.000    0.000    0.000    0.000    0.000 
#
# Total GULP energy -297407.279518 kJ/mol
# GULP energy per Si atom -12391.969980 kJ/mol
# Density = 1.972986 g / cm^3
# Si number density = 19.774868 Si / 1000 Ang^3
#
#
#
# Elastic Constant Matrix: (Units=GPa)
#
#
# Indices 1 2 3 4 5 6 
#
# 1 216.4930 21.1611 117.2094 -0.0001 -0.3086 0.0002
# 2 21.1611 18.7969 18.2584 -0.0002 2.4687 0.0008
# 3 117.2094 18.2584 196.9628 0.0000 3.4577 0.0000
# 4 -0.0001 -0.0002 0.0000 19.8900 0.0000 1.6096
# 5 -0.3086 2.4687 3.4577 0.0000 47.8555 0.0000
# 6 0.0002 0.0008 0.0000 1.6096 0.0000 23.3566
#
#
#
# Elastic Compliance Matrix: (Units=1/GPa)
#
#
# Indices 1 2 3 4 5 6 
#
# 1 0.007129 -0.004360 -0.003848 0.000000 0.000549 0.000000
# 2 -0.004360 0.061464 -0.003051 0.000001 -0.002978 -0.000002
# 3 -0.003848 -0.003051 0.007657 0.000000 -0.000421 0.000000
# 4 0.000000 0.000001 0.000000 0.050559 0.000000 -0.003484
# 5 0.000549 -0.002978 -0.000421 0.000000 0.021084 0.000000
# 6 0.000000 -0.000002 0.000000 -0.003484 0.000000 0.043055
#
#
# Mechanical properties :
#
#
# Convention : Reuss Voigt Hill
#
# Bulk Modulus (GPa) = 18.61085 82.83450 50.72267
# Shear Modulus (GPa) = 21.60988 36.59535 29.10262
#
# Velocity S-wave (km/s) = 3.30933 4.30653 3.84043
# Velocity P-wave (km/s) = 4.90245 8.16749 6.73580
#
# Compressibility (1/GPa) = 0.05373211
#
# Stress axis : x y z
#
# Youngs Moduli (GPa) = 140.26428 16.26982 130.59671
#
# Poissons Ratio (x) = 0.07094 0.50254
# Poissons Ratio (y) = 0.61162 0.39839
# Poissons Ratio (z) = 0.53974 0.04963
#
# Static dielectric constant tensor:
#      x y z
#    x 3.864770 0.000000 0.022430 
#    y 0.000000 3.021330 0.000000 
#    z 0.022430 0.000000 3.908080 
# 
# 
# High freq. dielectric constant tensor:
#      x y z
#    x 1.789890 0.000000 0.001960 
#    y 0.000000 1.710610 0.000000 
#    z 0.001960 0.000000 1.792230 
# 
# From -- ./inp_files/315207.got.cif
#   From: 2010.06.25/outbox.cif.g09.slc.cpg/sg12_158_cif.got.tgz:315207.got - 2010.06.28 00:19:55.
