data_PCOD8101341
_publ_section_title
;
Structure prediction by ZEFSAII (Michael W. Deem and Ramdas Pophale) SiO2 
 PCOD8101341
Probable space group: C 2/M
;
_chemical_formula_sum "Si O2"
_cell_formula_units_Z 48
_cell_length_a 15.218942
_cell_length_b 8.792256
_cell_length_c 18.755241
_cell_angle_alpha 90.000000
_cell_angle_beta 90.590821
_cell_angle_gamma 90.000000
_cell_volume 2509.483506
_symmetry_space_group_name_H-M "C 2/M"
_symmetry_group_IT_number 12
_symmetry_cell_setting 'monoclinic'
loop_
_space_group_symop_operation_xyz
x,y,z
-x,y,-z
-x,-y,-z
x,-y,z
1/2+x,1/2+y,z
1/2-x,1/2+y,-z
1/2-x,1/2-y,-z
1/2+x,1/2-y,z
loop_
_atom_site_type_symbol
_atom_site_label
_atom_site_fract_x
_atom_site_fract_y
_atom_site_fract_z
Si Si1 0.591983 0.679129 0.425931
Si Si2 0.608105 0.819580 0.070614
Si Si3 0.087329 0.679977 0.911293
Si Si4 0.590560 0.821125 0.576308
Si Si5 0.750748 0.176755 0.677251
Si Si6 0.738543 0.679302 0.827854
O O1 0.575180 0.500000 0.429368
O O2 0.619123 0.737457 0.504161
O O3 0.503894 0.761965 0.398061
O O4 0.669080 0.722399 0.372811
O O5 0.513389 0.765181 0.099430
O O6 0.685260 0.751491 0.120442
O O7 0.609132 0.000000 0.071827
O O8 0.621493 0.764701 0.989238
O O9 0.095043 0.500000 0.903683
O O10 0.144472 0.756187 0.850138
O O11 0.660126 0.780701 0.637766
O O12 0.586858 0.000000 0.560896
O O13 0.759739 0.275428 0.747811
O O14 0.753425 0.000000 0.697617
O O15 0.736323 0.500000 0.834349
#
# Coordination Sequence:
#
# PCOD8101341 Si02
#       6
#     8   8   8   8   8   8
#     4  10  20  36  58  82 107 135 173 219 263 306
#     4   8  17  34  56  79 102 136 177 214 258 313
#     4   9  17  35  59  77 101 138 177 214 257 314
#     4  10  20  36  58  81 105 136 176 216 258 312
#     4  10  23  39  53  74 107 146 179 209 256 315
#     4  11  22  34  51  79 110 137 172 218 264 308
#
# _framework density 19.127441999999999
#
# number of rings (size 3 to 8) (size 9 to 14) (size 15 to 20)
#    0.000    2.333    0.000    4.500    0.000    4.000 
#    0.000    9.167    0.000    0.000    0.000    0.000 
#    0.000    0.000    0.000    0.000    0.000    0.000 
#
# Total GULP energy -297629.798194 kJ/mol
# GULP energy per Si atom -12401.241591 kJ/mol
# Density = 1.908391 g / cm^3
# Si number density = 19.127442 Si / 1000 Ang^3
#
#
#
# Elastic Constant Matrix: (Units=GPa)
#
#
# Indices 1 2 3 4 5 6 
#
# 1 94.0011 25.6135 37.1059 0.0000 1.6188 0.0000
# 2 25.6135 40.7407 22.6435 0.0000 -2.4134 0.0000
# 3 37.1059 22.6435 70.1459 0.0000 5.3797 0.0000
# 4 0.0000 0.0000 0.0000 29.1429 0.0000 1.8190
# 5 1.6188 -2.4134 5.3797 0.0000 17.5362 0.0000
# 6 0.0000 0.0000 0.0000 1.8190 0.0000 20.3078
#
#
#
# Elastic Compliance Matrix: (Units=1/GPa)
#
#
# Indices 1 2 3 4 5 6 
#
# 1 0.014535 -0.005979 -0.005728 0.000000 -0.000408 0.000000
# 2 -0.005979 0.033299 -0.008172 0.000000 0.007642 0.000000
# 3 -0.005728 -0.008172 0.020451 0.000000 -0.006870 0.000000
# 4 0.000000 0.000000 0.000000 0.034507 0.000000 -0.003091
# 5 -0.000408 0.007642 -0.006870 0.000000 0.060222 0.000000
# 6 0.000000 0.000000 0.000000 -0.003091 0.000000 0.049519
#
#
# Mechanical properties :
#
#
# Convention : Reuss Voigt Hill
#
# Bulk Modulus (GPa) = 35.05422 41.73482 38.39452
# Shear Modulus (GPa) = 19.09856 21.36570 20.23213
#
# Velocity S-wave (km/s) = 3.16332 3.34581 3.25584
# Velocity P-wave (km/s) = 5.63103 6.06569 5.85240
#
# Compressibility (1/GPa) = 0.02852723
#
# Stress axis : x y z
#
# Youngs Moduli (GPa) = 68.79825 30.03057 48.89797
#
# Poissons Ratio (x) = 0.17955 0.28007
# Poissons Ratio (y) = 0.41135 0.39962
# Poissons Ratio (z) = 0.39405 0.24542
#
# Static dielectric constant tensor:
#      x y z
#    x 3.816240 0.000000 0.096890 
#    y 0.000000 3.310400 0.000000 
#    z 0.096890 0.000000 3.451300 
# 
# 
# High freq. dielectric constant tensor:
#      x y z
#    x 1.758290 0.000000 -0.001410 
#    y 0.000000 1.730510 0.000000 
#    z -0.001410 0.000000 1.739190 
# 
# From -- ./inp_files/267653.got.cif
#   From: 2010.06.25/outbox.cif.g09.slc.cpg/sg12_134_cif.got.tgz:267653.got - 2010.06.28 00:19:55.
