data_PCOD8101001
_publ_section_title
;
Structure prediction by ZEFSAII (Michael W. Deem and Ramdas Pophale) SiO2 
 PCOD8101001
Probable space group: C 2/M
;
_chemical_formula_sum "Si O2"
_cell_formula_units_Z 56
_cell_length_a 15.821235
_cell_length_b 9.104537
_cell_length_c 19.427046
_cell_angle_alpha 90.000000
_cell_angle_beta 89.080917
_cell_angle_gamma 90.000000
_cell_volume 2798.009196
_symmetry_space_group_name_H-M "C 2/M"
_symmetry_group_IT_number 12
_symmetry_cell_setting 'monoclinic'
loop_
_space_group_symop_operation_xyz
x,y,z
-x,y,-z
-x,-y,-z
x,-y,z
1/2+x,1/2+y,z
1/2-x,1/2+y,-z
1/2-x,1/2-y,-z
1/2+x,1/2-y,z
loop_
_atom_site_type_symbol
_atom_site_label
_atom_site_fract_x
_atom_site_fract_y
_atom_site_fract_z
Si Si1 0.998453 0.325547 0.422391
Si Si2 0.079399 0.331376 0.789880
Si Si3 0.088053 0.826690 0.214139
Si Si4 0.154501 0.672150 0.932384
Si Si5 0.337182 0.174678 0.663011
Si Si6 0.169684 0.668539 0.651751
Si Si7 0.848253 0.171284 0.934169
O O1 0.998703 0.500000 0.420943
O O2 0.912998 0.269183 0.386651
O O3 0.000000 0.264269 0.500000
O O4 0.082764 0.269629 0.382688
O O5 0.047471 0.500000 0.793885
O O6 0.109775 0.273112 0.863494
O O7 0.155020 0.318816 0.734064
O O8 0.004502 0.228521 0.763836
O O9 0.155944 0.745290 0.261246
O O10 0.102430 0.780502 0.134787
O O11 0.097927 0.000000 0.224867
O O12 0.144416 0.500000 0.940970
O O13 0.251651 0.720087 0.925372
O O14 0.112203 0.747639 0.999779
O O15 0.250799 0.234306 0.629716
O O16 0.333223 0.000000 0.668344
O O17 0.187162 0.500000 0.630323
O O18 0.856660 0.000000 0.947789
#
# Coordination Sequence:
#
# PCOD8101001 Si02
#       7
#     8   8   8   8   8   8   8
#     4   9  19  38  63  89 121 160 195 231 286 351
#     4  10  20  36  56  80 112 151 194 239 292 347
#     4  11  22  36  56  81 112 150 193 242 293 346
#     4   9  18  33  53  74 102 141 188 237 287 346
#     4  11  22  38  61  90 120 154 198 244 287 344
#     4  10  20  38  62  87 120 160 196 237 291 346
#     4   9  19  35  52  73 104 142 186 236 291 346
#
# _framework density 20.014230000000001
#
# number of rings (size 3 to 8) (size 9 to 14) (size 15 to 20)
#    0.000    2.143    1.429    1.714    0.000    5.714 
#    0.000    5.714    0.000    3.000    0.000    0.000 
#    0.000    0.000    0.000    0.000    0.000    0.000 
#
# Total GULP energy -347228.186423 kJ/mol
# GULP energy per Si atom -12401.006658 kJ/mol
# Density = 1.996868 g / cm^3
# Si number density = 20.014230 Si / 1000 Ang^3
#
#
#
# Elastic Constant Matrix: (Units=GPa)
#
#
# Indices 1 2 3 4 5 6 
#
# 1 126.2792 42.6028 51.7311 0.0000 6.9412 0.0000
# 2 42.6028 55.9025 35.2780 0.0000 1.0252 0.0000
# 3 51.7311 35.2780 121.4447 0.0000 10.0957 0.0000
# 4 0.0000 0.0000 0.0000 18.3771 0.0000 2.5531
# 5 6.9412 1.0252 10.0957 0.0000 26.5423 0.0000
# 6 0.0000 0.0000 0.0000 2.5531 0.0000 33.4642
#
#
#
# Elastic Compliance Matrix: (Units=1/GPa)
#
#
# Indices 1 2 3 4 5 6 
#
# 1 0.011491 -0.007012 -0.002717 0.000000 -0.001701 0.000000
# 2 -0.007012 0.026250 -0.004860 0.000000 0.002668 0.000000
# 3 -0.002717 -0.004860 0.011079 0.000000 -0.003316 0.000000
# 4 0.000000 0.000000 0.000000 0.054999 0.000000 -0.004196
# 5 -0.001701 0.002668 -0.003316 0.000000 0.039279 0.000000
# 6 0.000000 0.000000 0.000000 -0.004196 0.000000 0.030203
#
#
# Mechanical properties :
#
#
# Convention : Reuss Voigt Hill
#
# Bulk Modulus (GPa) = 50.90946 62.53891 56.72419
# Shear Modulus (GPa) = 23.92068 27.27767 25.59917
#
# Velocity S-wave (km/s) = 3.46089 3.69577 3.58026
# Velocity P-wave (km/s) = 6.43912 7.03752 6.74496
#
# Compressibility (1/GPa) = 0.01964271
#
# Stress axis : x y z
#
# Youngs Moduli (GPa) = 87.02640 38.09527 90.26188
#
# Poissons Ratio (x) = 0.26711 0.24520
# Poissons Ratio (y) = 0.61019 0.43871
# Poissons Ratio (z) = 0.23641 0.18516
#
# Static dielectric constant tensor:
#      x y z
#    x 3.611700 0.000000 0.038180 
#    y 0.000000 3.345910 0.000000 
#    z 0.038180 0.000000 3.814740 
# 
# 
# High freq. dielectric constant tensor:
#      x y z
#    x 1.780510 0.000000 0.003490 
#    y 0.000000 1.755690 0.000000 
#    z 0.003490 0.000000 1.785560 
# 
# From -- ./inp_files/309062.got.cif
#   From: 2010.06.25/outbox.cif.g09.slc.cpg/sg12_155_cif.got.tgz:309062.got - 2010.06.28 00:19:55.
