data_PCOD8101502
_publ_section_title
;
Structure prediction by ZEFSAII (Michael W. Deem and Ramdas Pophale) SiO2 
 PCOD8101502
Probable space group: C 2/M
;
_chemical_formula_sum "Si O2"
_cell_formula_units_Z 64
_cell_length_a 26.900642
_cell_length_b 8.995226
_cell_length_c 17.665467
_cell_angle_alpha 90.000000
_cell_angle_beta 48.969230
_cell_angle_gamma 90.000000
_cell_volume 3224.607456
_symmetry_space_group_name_H-M "C 2/M"
_symmetry_group_IT_number 12
_symmetry_cell_setting 'monoclinic'
loop_
_space_group_symop_operation_xyz
x,y,z
-x,y,-z
-x,-y,-z
x,-y,z
1/2+x,1/2+y,z
1/2-x,1/2+y,-z
1/2-x,1/2-y,-z
1/2+x,1/2-y,z
loop_
_atom_site_type_symbol
_atom_site_label
_atom_site_fract_x
_atom_site_fract_y
_atom_site_fract_z
Si Si1 0.137283 0.674531 0.698092
Si Si2 0.261462 0.675944 0.156078
Si Si3 0.131650 0.676287 0.203078
Si Si4 0.892638 0.327733 0.443733
Si Si5 0.755597 0.674007 0.657495
Si Si6 0.112972 0.825880 0.061896
Si Si7 0.482196 0.326549 0.102168
Si Si8 0.986879 0.172161 0.600453
O O1 0.141056 0.500000 0.705494
O O2 0.122506 0.718348 0.626817
O O3 0.207603 0.742791 0.648188
O O4 0.081474 0.737264 0.808781
O O5 0.258114 0.500000 0.164254
O O6 0.202296 0.734208 0.162205
O O7 0.254522 0.739269 0.247905
O O8 0.330431 0.729968 0.052007
O O9 0.128071 0.500000 0.204246
O O10 0.118841 0.737336 0.133000
O O11 0.077433 0.734873 0.315085
O O12 0.913337 0.500000 0.429008
O O13 0.830114 0.293197 0.558612
O O14 0.952032 0.225578 0.411012
O O15 0.739353 0.500000 0.669453
O O16 0.042713 0.787978 0.096337
O O17 0.120886 0.000000 0.070706
O O18 0.464610 0.500000 0.121397
O O19 0.500000 0.275438 0.000000
O O20 0.000000 0.201983 0.500000
O O21 0.974383 0.000000 0.631103
#
# Coordination Sequence:
#
# PCOD8101502 Si02
#       8
#     8   8   8   8   8   8   8   8
#     4  11  23  37  55  85 120 149 184 232 285 336
#     4   9  19  36  59  85 111 146 191 234 277 333
#     4  11  22  37  59  85 115 151 189 229 279 338
#     4  10  22  39  60  86 116 151 189 230 277 336
#     4  10  20  38  62  84 110 148 193 233 275 333
#     4  10  20  36  58  84 114 146 187 237 283 330
#     4  10  21  38  60  82 107 148 196 236 280 337
#     4  11  24  40  59  85 116 149 188 235 283 331
#
# _framework density 19.847377000000002
#
# number of rings (size 3 to 8) (size 9 to 14) (size 15 to 20)
#    0.000    1.750    0.000    4.125    0.000    8.250 
#    0.000    3.750    0.000    0.000    0.000    0.000 
#    0.000    0.000    0.000    0.000    0.000    0.000 
#
# Total GULP energy -396976.004634 kJ/mol
# GULP energy per Si atom -12405.500145 kJ/mol
# Density = 1.980220 g / cm^3
# Si number density = 19.847377 Si / 1000 Ang^3
#
#
#
# Elastic Constant Matrix: (Units=GPa)
#
#
# Indices 1 2 3 4 5 6 
#
# 1 70.5406 25.9081 -1.3850 -0.0285 3.3959 0.0105
# 2 25.9081 47.4312 17.1817 -0.0122 3.1067 0.0233
# 3 -1.3850 17.1817 74.6476 -0.0033 5.4003 0.0034
# 4 -0.0285 -0.0122 -0.0033 12.4403 -0.0015 11.7471
# 5 3.3959 3.1067 5.4003 -0.0015 36.7403 -0.0038
# 6 0.0105 0.0233 0.0034 11.7471 -0.0038 16.4147
#
#
#
# Elastic Compliance Matrix: (Units=1/GPa)
#
#
# Indices 1 2 3 4 5 6 
#
# 1 0.018336 -0.011009 0.002961 0.000090 -0.001199 -0.000061
# 2 -0.011009 0.029662 -0.006998 0.000104 -0.000462 -0.000108
# 3 0.002961 -0.006998 0.015201 -0.000001 -0.001916 0.000005
# 4 0.000090 0.000104 -0.000001 0.247921 -0.000026 -0.177424
# 5 -0.001199 -0.000462 -0.001916 -0.000026 0.027650 0.000027
# 6 -0.000061 -0.000108 0.000005 -0.177424 0.000027 0.187894
#
#
# Mechanical properties :
#
#
# Convention : Reuss Voigt Hill
#
# Bulk Modulus (GPa) = 30.20672 30.66990 30.43831
# Shear Modulus (GPa) = 8.80605 23.18003 15.99304
#
# Velocity S-wave (km/s) = 2.10868 3.42118 2.84174
# Velocity P-wave (km/s) = 4.60231 5.57606 5.11242
#
# Compressibility (1/GPa) = 0.03310522
#
# Stress axis : x y z
#
# Youngs Moduli (GPa) = 54.53854 33.71296 65.78680
#
# Poissons Ratio (x) = 0.37116 -0.19479
# Poissons Ratio (y) = 0.60044 0.46039
# Poissons Ratio (z) = -0.16149 0.23593
#
# Static dielectric constant tensor:
#      x y z
#    x 3.766670 -0.000010 0.003850 
#    y -0.000010 3.462220 0.000010 
#    z 0.003850 0.000010 3.855920 
# 
# 
# High freq. dielectric constant tensor:
#      x y z
#    x 1.790360 0.000000 0.000910 
#    y 0.000000 1.757200 0.000000 
#    z 0.000910 0.000000 1.792440 
# 
# From -- ./inp_files/295468.got.cif
#   From: 2010.06.25/outbox.cif.g09.slc.cpg/sg12_148_cif.got.tgz:295468.got - 2010.06.28 00:19:55.
