data_PCOD8101527
_publ_section_title
;
Structure prediction by ZEFSAII (Michael W. Deem and Ramdas Pophale) SiO2 
 PCOD8101527
Probable space group: C 2/M
;
_chemical_formula_sum "Si O2"
_cell_formula_units_Z 64
_cell_length_a 12.242990
_cell_length_b 19.239300
_cell_length_c 28.701108
_cell_angle_alpha 90.000000
_cell_angle_beta 150.958076
_cell_angle_gamma 90.000000
_cell_volume 3281.855436
_symmetry_space_group_name_H-M "C 2/M"
_symmetry_group_IT_number 12
_symmetry_cell_setting 'monoclinic'
loop_
_space_group_symop_operation_xyz
x,y,z
-x,y,-z
-x,-y,-z
x,-y,z
1/2+x,1/2+y,z
1/2-x,1/2+y,-z
1/2-x,1/2-y,-z
1/2+x,1/2-y,z
loop_
_atom_site_type_symbol
_atom_site_label
_atom_site_fract_x
_atom_site_fract_y
_atom_site_fract_z
Si Si1 0.483576 0.802327 0.622502
Si Si2 0.022579 0.578126 0.909314
Si Si3 0.540100 0.293748 0.235350
Si Si4 0.746807 0.420716 0.101870
Si Si5 0.793653 0.332684 0.458575
Si Si6 0.499630 0.418354 0.716428
Si Si7 0.341245 0.828100 0.218290
Si Si8 0.157506 0.811954 0.935351
O O1 0.319862 0.742177 0.579138
O O2 0.377316 0.850975 0.542306
O O3 0.534496 0.849182 0.687227
O O4 0.715125 0.766845 0.689997
O O5 0.061397 0.500000 0.941345
O O6 0.105252 0.589332 0.888129
O O7 0.762498 0.597298 0.810588
O O8 0.163483 0.625452 0.997118
O O9 0.581429 0.372254 0.269884
O O10 0.432326 0.247334 0.236086
O O11 0.367867 0.291186 0.128016
O O12 0.717596 0.500000 0.106580
O O13 0.887050 0.382939 0.194721
O O14 0.500000 0.388041 0.000000
O O15 0.624909 0.392346 0.377171
O O16 0.000000 0.325704 0.500000
O O17 0.446204 0.500000 0.704459
O O18 0.077154 0.832379 0.129361
O O19 0.250000 0.750000 0.000000
#
# Coordination Sequence:
#
# PCOD8101527 Si02
#       8
#     8   8   8   8   8   8   8   8
#     4  10  22  39  63  90 121 152 194 252 308 363
#     4  10  22  39  57  82 119 165 205 240 295 359
#     4  11  23  39  59  91 125 157 206 250 301 363
#     4  10  20  36  58  84 118 161 205 245 295 356
#     4  11  21  42  66  90 117 152 200 251 314 370
#     4  11  24  42  63  89 123 162 202 251 306 366
#     4  11  21  35  58  87 120 157 199 249 300 349
#     4  11  23  34  55  87 120 157 202 251 288 348
#
# _framework density 19.501165
#
# number of rings (size 3 to 8) (size 9 to 14) (size 15 to 20)
#    0.000    1.375    3.750    1.500    3.500    2.250 
#    0.000    3.750    0.000    0.000    0.000    2.625 
#    0.000    0.000    0.000    0.000    0.000    0.000 
#
# Total GULP energy -396722.599060 kJ/mol
# GULP energy per Si atom -12397.581221 kJ/mol
# Density = 1.945678 g / cm^3
# Si number density = 19.501165 Si / 1000 Ang^3
#
#
#
# Elastic Constant Matrix: (Units=GPa)
#
#
# Indices 1 2 3 4 5 6 
#
# 1 58.2490 14.8316 32.1165 -0.0015 -4.9750 -0.0005
# 2 14.8316 56.9655 28.4150 -0.0014 -13.2246 -0.0004
# 3 32.1165 28.4150 120.7897 -0.0024 -26.8694 0.0006
# 4 -0.0015 -0.0014 -0.0024 31.7354 -0.0005 -1.3875
# 5 -4.9750 -13.2246 -26.8694 -0.0005 46.8308 0.0007
# 6 -0.0005 -0.0004 0.0006 -1.3875 0.0007 12.4933
#
#
#
# Elastic Compliance Matrix: (Units=1/GPa)
#
#
# Indices 1 2 3 4 5 6 
#
# 1 0.020659 -0.003215 -0.005102 0.000000 -0.001640 0.000001
# 2 -0.003215 0.020861 -0.003230 0.000001 0.003696 0.000001
# 3 -0.005102 -0.003230 0.011545 0.000001 0.005170 -0.000001
# 4 0.000000 0.000001 0.000001 0.031664 0.000001 0.003517
# 5 -0.001640 0.003696 0.005170 0.000001 0.025189 -0.000001
# 6 0.000001 0.000001 -0.000001 0.003517 -0.000001 0.080433
#
#
# Mechanical properties :
#
#
# Convention : Reuss Voigt Hill
#
# Bulk Modulus (GPa) = 33.36509 42.97003 38.16756
# Shear Modulus (GPa) = 22.37774 28.92131 25.64952
#
# Velocity S-wave (km/s) = 3.39116 3.85522 3.63062
# Velocity P-wave (km/s) = 5.69910 6.47298 6.09833
#
# Compressibility (1/GPa) = 0.02997145
#
# Stress axis : x y z
#
# Youngs Moduli (GPa) = 48.40506 47.93656 86.61542
#
# Poissons Ratio (x) = 0.15411 0.44187
# Poissons Ratio (y) = 0.15562 0.27981
# Poissons Ratio (z) = 0.24694 0.15486
#
# Static dielectric constant tensor:
#      x y z
#    x 3.808340 0.000000 0.085790 
#    y 0.000000 3.459320 0.000000 
#    z 0.085790 0.000000 4.160340 
# 
# 
# High freq. dielectric constant tensor:
#      x y z
#    x 1.768060 0.000000 -0.003050 
#    y 0.000000 1.732670 0.000000 
#    z -0.003050 0.000000 1.775250 
# 
# From -- ./inp_files/359006.got.cif
#   From: 2010.06.25/outbox.cif.g09.slc.cpg/sg12_180_cif.got.tgz:359006.got - 2010.06.28 00:19:55.
