data_PCOD8101153
_publ_section_title
;
Structure prediction by ZEFSAII (Michael W. Deem and Ramdas Pophale) SiO2 
 PCOD8101153
Probable space group: C 2/M
;
_chemical_formula_sum "Si O2"
_cell_formula_units_Z 64
_cell_length_a 32.129915
_cell_length_b 8.788288
_cell_length_c 24.320641
_cell_angle_alpha 90.000000
_cell_angle_beta 27.300620
_cell_angle_gamma 90.000000
_cell_volume 3149.770821
_symmetry_space_group_name_H-M "C 2/M"
_symmetry_group_IT_number 12
_symmetry_cell_setting 'monoclinic'
loop_
_space_group_symop_operation_xyz
x,y,z
-x,y,-z
-x,-y,-z
x,-y,z
1/2+x,1/2+y,z
1/2-x,1/2+y,-z
1/2-x,1/2-y,-z
1/2+x,1/2-y,z
loop_
_atom_site_type_symbol
_atom_site_label
_atom_site_fract_x
_atom_site_fract_y
_atom_site_fract_z
Si Si1 0.163582 0.677136 0.175175
Si Si2 0.350920 0.322853 0.497743
Si Si3 0.038658 0.677386 0.722561
Si Si4 0.901802 0.179280 0.638729
Si Si5 0.785669 0.319307 0.682962
Si Si6 0.906938 0.821290 0.131489
Si Si7 0.637538 0.676850 0.089663
Si Si8 0.847098 0.674472 0.307860
O O1 0.141931 0.500000 0.208879
O O2 0.109100 0.770910 0.285228
O O3 0.131463 0.727739 0.152890
O O4 0.271627 0.710264 0.051860
O O5 0.374553 0.500000 0.473957
O O6 0.431124 0.236162 0.372589
O O7 0.346328 0.256005 0.564233
O O8 0.259480 0.291396 0.570696
O O9 0.017552 0.500000 0.744889
O O10 0.117617 0.716606 0.673212
O O11 0.947188 0.766584 0.847569
O O12 0.822873 0.264131 0.697618
O O13 0.000000 0.228602 0.500000
O O14 0.887995 0.000000 0.649617
O O15 0.792451 0.500000 0.670103
O O16 0.681461 0.261895 0.798202
O O17 0.900474 0.779635 0.202783
O O18 0.911826 0.000000 0.119314
O O19 0.000000 0.746224 0.000000
O O20 0.630478 0.500000 0.112724
O O21 0.867480 0.500000 0.268812
#
# Coordination Sequence:
#
# PCOD8101153 Si02
#       8
#     8   8   8   8   8   8   8   8
#     4  10  22  42  65  87 116 152 193 244 296 349
#     4  10  20  36  57  80 114 154 192 237 289 343
#     4  11  22  35  55  85 116 149 193 237 283 342
#     4  11  25  42  62  88 120 158 199 246 299 356
#     4  10  21  38  59  85 116 152 195 242 293 350
#     4   9  19  36  58  83 113 150 190 234 286 345
#     4  10  22  40  62  88 117 153 194 239 295 352
#     4   9  20  36  53  79 113 149 190 235 283 337
#
# _framework density 20.318939
#
# number of rings (size 3 to 8) (size 9 to 14) (size 15 to 20)
#    0.000    2.000    0.000    2.625    1.750    5.750 
#    0.000    3.750    0.000    0.000    0.000    0.000 
#    0.000    0.000    0.000    0.000    0.000    0.000 
#
# Total GULP energy -396882.249414 kJ/mol
# GULP energy per Si atom -12402.570294 kJ/mol
# Density = 2.027269 g / cm^3
# Si number density = 20.318939 Si / 1000 Ang^3
#
#
#
# Elastic Constant Matrix: (Units=GPa)
#
#
# Indices 1 2 3 4 5 6 
#
# 1 53.8986 16.6041 16.5587 -0.0155 2.1659 0.0050
# 2 16.6041 48.2725 34.4497 -0.0097 -3.9244 0.0022
# 3 16.5587 34.4497 101.8439 -0.0419 5.0433 0.0079
# 4 -0.0155 -0.0097 -0.0419 31.0187 0.0112 1.7298
# 5 2.1659 -3.9244 5.0433 0.0112 24.2820 -0.0017
# 6 0.0050 0.0022 0.0079 1.7298 -0.0017 35.9409
#
#
#
# Elastic Compliance Matrix: (Units=1/GPa)
#
#
# Indices 1 2 3 4 5 6 
#
# 1 0.021052 -0.006750 -0.001003 0.000008 -0.002760 -0.000003
# 2 -0.006750 0.030492 -0.009589 -0.000010 0.007522 0.000002
# 3 -0.001003 -0.009589 0.013436 0.000016 -0.004251 -0.000003
# 4 0.000008 -0.000010 0.000016 0.032325 -0.000021 -0.001556
# 5 -0.002760 0.007522 -0.004251 -0.000021 0.043528 0.000004
# 6 -0.000003 0.000002 -0.000003 -0.001556 0.000004 0.027898
#
#
# Mechanical properties :
#
#
# Convention : Reuss Voigt Hill
#
# Bulk Modulus (GPa) = 33.00741 37.69332 35.35037
# Shear Modulus (GPa) = 23.41759 27.34182 25.37971
#
# Velocity S-wave (km/s) = 3.39853 3.67227 3.53805
# Velocity P-wave (km/s) = 5.62849 6.04746 5.84174
#
# Compressibility (1/GPa) = 0.03029622
#
# Stress axis : x y z
#
# Youngs Moduli (GPa) = 47.50194 32.79503 74.42559
#
# Poissons Ratio (x) = 0.22136 0.07464
# Poissons Ratio (y) = 0.32063 0.71370
# Poissons Ratio (z) = 0.04764 0.31448
#
# Static dielectric constant tensor:
#      x y z
#    x 3.606320 -0.000030 -0.177640 
#    y -0.000030 3.623980 0.000090 
#    z -0.177640 0.000090 3.855700 
# 
# 
# High freq. dielectric constant tensor:
#      x y z
#    x 1.788660 0.000000 -0.009530 
#    y 0.000000 1.797260 0.000010 
#    z -0.009530 0.000010 1.798330 
# 
# From -- ./inp_files/353337.got.cif
#   From: 2010.06.25/outbox.cif.g09.slc.cpg/sg12_177_cif.got.tgz:353337.got - 2010.06.28 00:19:55.
