data_PCOD8101110
_publ_section_title
;
Structure prediction by ZEFSAII (Michael W. Deem and Ramdas Pophale) SiO2 
 PCOD8101110
Probable space group: C 2/M
;
_chemical_formula_sum "Si O2"
_cell_formula_units_Z 64
_cell_length_a 20.963577
_cell_length_b 8.600557
_cell_length_c 19.203486
_cell_angle_alpha 90.000000
_cell_angle_beta 109.183627
_cell_angle_gamma 90.000000
_cell_volume 3270.094849
_symmetry_space_group_name_H-M "C 2/M"
_symmetry_group_IT_number 12
_symmetry_cell_setting 'monoclinic'
loop_
_space_group_symop_operation_xyz
x,y,z
-x,y,-z
-x,-y,-z
x,-y,z
1/2+x,1/2+y,z
1/2-x,1/2+y,-z
1/2-x,1/2-y,-z
1/2+x,1/2-y,z
loop_
_atom_site_type_symbol
_atom_site_label
_atom_site_fract_x
_atom_site_fract_y
_atom_site_fract_z
Si Si1 0.961745 0.318213 0.419900
Si Si2 0.171706 0.818741 0.138131
Si Si3 0.686452 0.819034 0.667008
Si Si4 0.834819 0.818549 0.707034
Si Si5 0.470417 0.682316 0.693136
Si Si6 0.690586 0.321163 0.815927
Si Si7 0.573824 0.828562 0.998783
Si Si8 0.434197 0.181017 0.160226
O O1 0.974479 0.500000 0.423003
O O2 0.992965 0.257034 0.359645
O O3 0.000000 0.242980 0.500000
O O4 0.881514 0.281547 0.400893
O O5 0.155337 0.755870 0.210292
O O6 0.235274 0.724037 0.130908
O O7 0.189634 0.000000 0.147575
O O8 0.111313 0.789495 0.063447
O O9 0.757734 0.782821 0.652265
O O10 0.684352 0.706514 0.731720
O O11 0.686697 0.000000 0.690688
O O12 0.893356 0.751020 0.676737
O O13 0.848470 0.000000 0.713949
O O14 0.470677 0.500000 0.680049
O O15 0.510895 0.720271 0.777870
O O16 0.674210 0.500000 0.827254
O O17 0.639285 0.206468 0.834841
O O18 0.569312 0.757198 0.919960
O O19 0.608896 0.000000 0.010128
O O20 0.500000 0.849474 0.000000
O O21 0.454144 0.000000 0.170997
#
# Coordination Sequence:
#
# PCOD8101110 Si02
#       8
#     8   8   8   8   8   8   8   8
#     4  10  21  37  59  85 114 150 188 227 276 335
#     4  10  20  36  57  79 109 148 190 231 280 337
#     4   9  17  35  59  80 111 150 189 225 270 335
#     4   8  17  33  55  82 109 147 188 228 278 329
#     4  11  21  35  57  85 114 141 185 238 280 328
#     4  11  21  34  55  82 109 140 184 234 281 326
#     4  10  22  38  54  76 108 145 186 236 288 332
#     4  11  22  36  55  78 109 146 183 225 281 340
#
# _framework density 19.571297000000001
#
# number of rings (size 3 to 8) (size 9 to 14) (size 15 to 20)
#    0.000    2.000    1.250    3.750    0.000    2.000 
#    0.000    6.250    0.000    0.000    0.000    0.000 
#    0.000    0.000    0.000    0.000    0.000    0.000 
#
# Total GULP energy -396607.492910 kJ/mol
# GULP energy per Si atom -12393.984153 kJ/mol
# Density = 1.952675 g / cm^3
# Si number density = 19.571297 Si / 1000 Ang^3
#
#
#
# Elastic Constant Matrix: (Units=GPa)
#
#
# Indices 1 2 3 4 5 6 
#
# 1 132.5558 11.0411 46.2151 0.0000 18.3453 0.0000
# 2 11.0411 35.9686 16.0232 0.0000 6.0745 0.0000
# 3 46.2151 16.0232 101.3053 0.0000 24.6027 0.0000
# 4 0.0000 0.0000 0.0000 20.5911 0.0000 4.0103
# 5 18.3453 6.0745 24.6027 0.0000 20.8265 0.0000
# 6 0.0000 0.0000 0.0000 4.0103 0.0000 21.1034
#
#
#
# Elastic Compliance Matrix: (Units=1/GPa)
#
#
# Indices 1 2 3 4 5 6 
#
# 1 0.009273 -0.000752 -0.003058 0.000000 -0.004336 0.000000
# 2 -0.000752 0.030260 -0.003450 0.000000 -0.004088 0.000000
# 3 -0.003058 -0.003450 0.015304 0.000000 -0.014379 0.000000
# 4 0.000000 0.000000 0.000000 0.050431 0.000000 -0.009584
# 5 -0.004336 -0.004088 -0.014379 0.000000 0.070013 0.000000
# 6 0.000000 0.000000 0.000000 -0.009584 0.000000 0.049207
#
#
# Mechanical properties :
#
#
# Convention : Reuss Voigt Hill
#
# Bulk Modulus (GPa) = 24.80397 46.26538 35.53467
# Shear Modulus (GPa) = 19.80599 25.60753 22.70676
#
# Velocity S-wave (km/s) = 3.18463 3.62114 3.40988
# Velocity P-wave (km/s) = 5.12091 6.41671 5.80508
#
# Compressibility (1/GPa) = 0.04031613
#
# Stress axis : x y z
#
# Youngs Moduli (GPa) = 107.84006 33.04664 65.34216
#
# Poissons Ratio (x) = 0.02484 0.19984
# Poissons Ratio (y) = 0.08107 0.22546
# Poissons Ratio (z) = 0.32981 0.11403
#
# Static dielectric constant tensor:
#      x y z
#    x 3.413670 0.000000 0.573880 
#    y 0.000000 3.400210 0.000000 
#    z 0.573880 0.000000 3.138970 
# 
# 
# High freq. dielectric constant tensor:
#      x y z
#    x 1.775990 0.000000 0.014170 
#    y 0.000000 1.747540 0.000000 
#    z 0.014170 0.000000 1.740860 
# 
# From -- ./inp_files/320081.got.cif
#   From: 2010.06.25/outbox.cif.g09.slc.cpg/sg12_161_cif.got.tgz:320081.got - 2010.06.28 00:19:55.
