data_PCOD8101035
_publ_section_title
;
Structure prediction by ZEFSAII (Michael W. Deem and Ramdas Pophale) SiO2 
 PCOD8101035
Probable space group: C 2/M
;
_chemical_formula_sum "Si O2"
_cell_formula_units_Z 64
_cell_length_a 24.356706
_cell_length_b 8.659840
_cell_length_c 28.040437
_cell_angle_alpha 90.000000
_cell_angle_beta 147.152387
_cell_angle_gamma 90.000000
_cell_volume 3208.027737
_symmetry_space_group_name_H-M "C 2/M"
_symmetry_group_IT_number 12
_symmetry_cell_setting 'monoclinic'
loop_
_space_group_symop_operation_xyz
x,y,z
-x,y,-z
-x,-y,-z
x,-y,z
1/2+x,1/2+y,z
1/2-x,1/2+y,-z
1/2-x,1/2-y,-z
1/2+x,1/2-y,z
loop_
_atom_site_type_symbol
_atom_site_label
_atom_site_fract_x
_atom_site_fract_y
_atom_site_fract_z
Si Si1 0.213900 0.317926 0.758293
Si Si2 0.550466 0.820453 0.821656
Si Si3 0.569297 0.819550 0.094861
Si Si4 0.421495 0.681027 0.058101
Si Si5 0.024630 0.817843 0.570896
Si Si6 0.635934 0.820040 0.473640
Si Si7 0.845409 0.678178 0.620691
Si Si8 0.289383 0.182757 0.137819
O O1 0.199384 0.500000 0.744741
O O2 0.327861 0.275794 0.828069
O O3 0.191412 0.253932 0.795052
O O4 0.136191 0.240589 0.665328
O O5 0.579111 0.712695 0.886384
O O6 0.434383 0.794158 0.723073
O O7 0.619559 0.760040 0.828798
O O8 0.572160 0.000000 0.849160
O O9 0.511562 0.780116 0.101274
O O10 0.594138 0.000000 0.109952
O O11 0.500000 0.764694 0.000000
O O12 0.436879 0.500000 0.059252
O O13 0.317065 0.744761 0.959811
O O14 0.941979 0.765356 0.548969
O O15 0.000000 0.753416 0.500000
O O16 0.025658 0.000000 0.571135
O O17 0.751158 0.777199 0.571090
O O18 0.618037 0.770094 0.405476
O O19 0.617171 0.000000 0.467281
O O20 0.811947 0.500000 0.594133
O O21 0.285759 0.000000 0.136336
#
# Coordination Sequence:
#
# PCOD8101035 Si02
#       8
#     8   8   8   8   8   8   8   8
#     4  11  22  40  67  93 118 154 201 248 299 355
#     4  10  20  36  56  82 119 158 194 234 293 357
#     4  11  23  40  62  88 119 155 200 248 296 353
#     4  11  22  37  57  84 118 156 198 244 295 345
#     4  11  25  43  61  86 123 161 197 243 302 360
#     4  10  20  37  63  89 114 149 198 246 295 352
#     4   9  19  36  59  86 118 154 191 241 301 356
#     4   9  19  36  59  85 117 154 192 240 297 351
#
# _framework density 19.949952
#
# number of rings (size 3 to 8) (size 9 to 14) (size 15 to 20)
#    0.000    1.750    1.250    3.000    0.000    5.500 
#    0.000    4.375    0.000    0.000    0.000    0.000 
#    0.000    0.000    0.000    0.000    0.000    0.000 
#
# Total GULP energy -396921.382524 kJ/mol
# GULP energy per Si atom -12403.793204 kJ/mol
# Density = 1.990455 g / cm^3
# Si number density = 19.949952 Si / 1000 Ang^3
#
#
#
# Elastic Constant Matrix: (Units=GPa)
#
#
# Indices 1 2 3 4 5 6 
#
# 1 74.1444 14.7125 48.3720 0.0000 4.9581 -0.0001
# 2 14.7125 45.0594 27.4737 0.0001 -2.5086 -0.0008
# 3 48.3720 27.4737 125.8142 0.0000 -6.6445 -0.0001
# 4 0.0000 0.0001 0.0000 23.6725 0.0000 -1.5768
# 5 4.9581 -2.5086 -6.6445 0.0000 32.2228 0.0000
# 6 -0.0001 -0.0008 -0.0001 -1.5768 0.0000 30.9155
#
#
#
# Elastic Compliance Matrix: (Units=1/GPa)
#
#
# Indices 1 2 3 4 5 6 
#
# 1 0.018769 -0.002116 -0.006991 0.000000 -0.004494 0.000000
# 2 -0.002116 0.025863 -0.004763 0.000000 0.001357 0.000001
# 3 -0.006991 -0.004763 0.011842 0.000000 0.003147 0.000000
# 4 0.000000 0.000000 0.000000 0.042387 0.000000 0.002162
# 5 -0.004494 0.001357 0.003147 0.000000 0.032480 0.000000
# 6 0.000000 0.000001 0.000000 0.002162 0.000000 0.032457
#
#
# Mechanical properties :
#
#
# Convention : Reuss Voigt Hill
#
# Bulk Modulus (GPa) = 34.80077 47.34824 41.07451
# Shear Modulus (GPa) = 24.86133 27.65948 26.26041
#
# Velocity S-wave (km/s) = 3.53396 3.72754 3.63204
# Velocity P-wave (km/s) = 5.84241 6.50470 6.18243
#
# Compressibility (1/GPa) = 0.02873500
#
# Stress axis : x y z
#
# Youngs Moduli (GPa) = 53.28001 38.66508 84.44222
#
# Poissons Ratio (x) = 0.08180 0.59037
# Poissons Ratio (y) = 0.11272 0.40216
# Poissons Ratio (z) = 0.37250 0.18415
#
# Static dielectric constant tensor:
#      x y z
#    x 3.717490 0.000000 -0.025270 
#    y 0.000000 3.462320 0.000000 
#    z -0.025270 0.000000 3.714530 
# 
# 
# High freq. dielectric constant tensor:
#      x y z
#    x 1.783710 0.000000 0.004230 
#    y 0.000000 1.767430 0.000000 
#    z 0.004230 0.000000 1.786760 
# 
# From -- ./inp_files/382526.got.cif
#   From: 2010.06.25/outbox.cif.g09.slc.cpg/sg12_192_cif.got.tgz:382526.got - 2010.06.28 00:19:55.
