data_PCOD8101008
_publ_section_title
;
Structure prediction by ZEFSAII (Michael W. Deem and Ramdas Pophale) SiO2 
 PCOD8101008
Probable space group: C 2/M
;
_chemical_formula_sum "Si O2"
_cell_formula_units_Z 52
_cell_length_a 26.247407
_cell_length_b 18.568930
_cell_length_c 11.211080
_cell_angle_alpha 90.000000
_cell_angle_beta 30.666192
_cell_angle_gamma 90.000000
_cell_volume 2786.898237
_symmetry_space_group_name_H-M "C 2/M"
_symmetry_group_IT_number 12
_symmetry_cell_setting 'monoclinic'
loop_
_space_group_symop_operation_xyz
x,y,z
-x,y,-z
-x,-y,-z
x,-y,z
1/2+x,1/2+y,z
1/2-x,1/2+y,-z
1/2-x,1/2-y,-z
1/2+x,1/2-y,z
loop_
_atom_site_type_symbol
_atom_site_label
_atom_site_fract_x
_atom_site_fract_y
_atom_site_fract_z
Si Si1 0.725077 0.658667 0.404183
Si Si2 0.683617 0.150197 0.380941
Si Si3 0.541235 0.000000 0.131029
Si Si4 0.685202 0.000000 0.445128
Si Si5 0.480935 0.138162 0.669311
Si Si6 0.738231 0.000000 0.600043
Si Si7 0.711140 0.768909 0.946721
Si Si8 0.383205 0.781561 0.251911
O O1 0.711294 0.572874 0.449693
O O2 0.719986 0.675412 0.271277
O O3 0.640731 0.700805 0.651719
O O4 0.831041 0.693902 0.233613
O O5 0.712275 0.067108 0.306691
O O6 0.584090 0.172090 0.509050
O O7 0.780174 0.194056 0.143221
O O8 0.660518 0.160993 0.566690
O O9 0.433090 0.000000 0.288351
O O10 0.559330 0.071895 0.171797
O O11 0.621266 0.000000 0.865086
O O12 0.750165 0.000000 0.434003
O O13 0.500000 0.106563 0.500000
O O14 0.401578 0.203055 0.822552
O O15 0.750000 0.750000 0.000000
O O16 0.500000 0.790227 0.000000
#
# Coordination Sequence:
#
# PCOD8101008 Si02
#       8
#     8   8   4   4   8   4   8   8
#     4  10  22  35  56  85 109 149 189 228 278 339
#     4  10  21  35  55  84 112 144 187 223 282 340
#     4  10  22  32  52  81 117 146 178 219 293 337
#     4  10  21  33  53  85 115 145 174 225 284 351
#     4  11  20  35  54  82 111 147 187 232 270 337
#     4  12  19  35  54  80 119 147 182 227 280 338
#     4  11  21  37  54  76 113 150 186 228 277 324
#     4  10  20  36  56  80 115 144 184 235 279 330
#
# _framework density 18.658736000000001
#
# number of rings (size 3 to 8) (size 9 to 14) (size 15 to 20)
#    0.000    1.538    4.615    1.385    2.154    0.000 
#    0.000    1.154    0.000    0.000    0.000    1.615 
#    0.000    0.154    0.000    0.000    0.000    0.000 
#
# Total GULP energy -322220.730311 kJ/mol
# GULP energy per Si atom -12393.105012 kJ/mol
# Density = 1.861627 g / cm^3
# Si number density = 18.658736 Si / 1000 Ang^3
#
#
#
# Elastic Constant Matrix: (Units=GPa)
#
#
# Indices 1 2 3 4 5 6 
#
# 1 87.5795 34.3673 17.6197 0.0000 11.6553 0.0000
# 2 34.3673 149.8171 32.7204 0.0000 -0.5276 0.0000
# 3 17.6197 32.7204 52.6540 0.0000 6.4909 0.0000
# 4 0.0000 0.0000 0.0000 19.8262 0.0000 -4.4974
# 5 11.6553 -0.5276 6.4909 0.0000 22.6901 0.0000
# 6 0.0000 0.0000 0.0000 -4.4974 0.0000 23.7901
#
#
#
# Elastic Compliance Matrix: (Units=1/GPa)
#
#
# Indices 1 2 3 4 5 6 
#
# 1 0.013782 -0.002723 -0.002114 0.000000 -0.006538 0.000000
# 2 -0.002723 0.008318 -0.004617 0.000000 0.002913 0.000000
# 3 -0.002114 -0.004617 0.023268 0.000000 -0.005678 0.000000
# 4 0.000000 0.000000 0.000000 0.052698 0.000000 0.009962
# 5 -0.006538 0.002913 -0.005678 0.000000 0.049123 0.000000
# 6 0.000000 0.000000 0.000000 0.009962 0.000000 0.043918
#
#
# Mechanical properties :
#
#
# Convention : Reuss Voigt Hill
#
# Bulk Modulus (GPa) = 37.79143 51.05169 44.42156
# Shear Modulus (GPa) = 22.84832 26.95082 24.89957
#
# Velocity S-wave (km/s) = 3.50314 3.80466 3.65701
# Velocity P-wave (km/s) = 6.05480 6.83526 6.45683
#
# Compressibility (1/GPa) = 0.02646103
#
# Stress axis : x y z
#
# Youngs Moduli (GPa) = 72.55797 120.22073 42.97696
#
# Poissons Ratio (x) = 0.32735 0.09085
# Poissons Ratio (y) = 0.19757 0.19842
# Poissons Ratio (z) = 0.15338 0.55505
#
# Static dielectric constant tensor:
#      x y z
#    x 3.542210 0.000000 0.196750 
#    y 0.000000 3.617030 0.000000 
#    z 0.196750 0.000000 3.251460 
# 
# 
# High freq. dielectric constant tensor:
#      x y z
#    x 1.723150 0.000000 0.023360 
#    y 0.000000 1.728720 0.000000 
#    z 0.023360 0.000000 1.696100 
# 
# From -- ./inp_files/144901.got.cif
#   From: 2010.06.25/outbox.cif.g09.slc.cpg/sg12_73_cif.got.tgz:144901.got - 2010.06.28 00:19:55.
