data_PCOD8101658
_publ_section_title
;
Structure prediction by ZEFSAII (Michael W. Deem and Ramdas Pophale) SiO2 
 PCOD8101658
Probable space group: C 2/M
;
_chemical_formula_sum "Si O2"
_cell_formula_units_Z 48
_cell_length_a 27.075280
_cell_length_b 8.942561
_cell_length_c 15.322023
_cell_angle_alpha 90.000000
_cell_angle_beta 40.914483
_cell_angle_gamma 90.000000
_cell_volume 2429.668884
_symmetry_space_group_name_H-M "C 2/M"
_symmetry_group_IT_number 12
_symmetry_cell_setting 'monoclinic'
loop_
_space_group_symop_operation_xyz
x,y,z
-x,y,-z
-x,-y,-z
x,-y,z
1/2+x,1/2+y,z
1/2-x,1/2+y,-z
1/2-x,1/2-y,-z
1/2+x,1/2-y,z
loop_
_atom_site_type_symbol
_atom_site_label
_atom_site_fract_x
_atom_site_fract_y
_atom_site_fract_z
Si Si1 0.908576 0.324441 0.803164
Si Si2 0.584264 0.322182 0.886926
Si Si3 0.932382 0.176328 0.421332
Si Si4 0.669673 0.676346 0.603335
Si Si5 0.852087 0.673624 0.686621
Si Si6 0.321488 0.676254 0.073041
O O1 0.916962 0.500000 0.805869
O O2 0.878060 0.284737 0.748564
O O3 0.988923 0.248851 0.710986
O O4 0.847839 0.261187 0.951775
O O5 0.582438 0.500000 0.889467
O O6 0.623089 0.261510 0.747730
O O7 0.629435 0.265102 0.911107
O O8 0.500000 0.256131 0.000000
O O9 0.871761 0.224795 0.429820
O O10 0.903899 0.231748 0.552721
O O11 0.944089 0.000000 0.408226
O O12 0.679388 0.500000 0.596278
O O13 0.750000 0.750000 0.500000
O O14 0.865501 0.500000 0.647773
O O15 0.764926 0.717693 0.791490
O O16 0.331004 0.500000 0.044599
#
# Coordination Sequence:
#
# PCOD8101658 Si02
#       6
#     8   8   8   8   8   8
#     4  11  23  38  57  82 114 150 189 236 287 338
#     4   9  17  32  55  80 107 141 180 221 268 327
#     4  11  23  38  59  86 114 148 191 235 279 333
#     4  10  21  37  58  84 113 146 184 226 275 333
#     4  10  22  39  58  82 113 151 191 232 286 344
#     4  10  20  36  59  83 110 147 188 231 281 338
#
# _framework density 19.755779
#
# number of rings (size 3 to 8) (size 9 to 14) (size 15 to 20)
#    0.000    1.833    0.000    4.000    0.000    9.333 
#    0.000    0.833    0.000    2.000    0.000    0.000 
#    0.000    0.000    0.000    0.000    0.000    0.000 
#
# Total GULP energy -297721.172002 kJ/mol
# GULP energy per Si atom -12405.048833 kJ/mol
# Density = 1.971081 g / cm^3
# Si number density = 19.755779 Si / 1000 Ang^3
#
#
#
# Elastic Constant Matrix: (Units=GPa)
#
#
# Indices 1 2 3 4 5 6 
#
# 1 93.8557 27.6426 18.0040 0.0009 -4.4556 0.0001
# 2 27.6426 44.1905 22.7375 -0.0052 4.3399 0.0027
# 3 18.0040 22.7375 101.2476 -0.0022 4.1057 0.0027
# 4 0.0009 -0.0052 -0.0022 25.9560 0.0003 -5.5470
# 5 -4.4556 4.3399 4.1057 0.0003 42.3312 -0.0002
# 6 0.0001 0.0027 0.0027 -5.5470 -0.0002 23.0105
#
#
#
# Elastic Compliance Matrix: (Units=1/GPa)
#
#
# Indices 1 2 3 4 5 6 
#
# 1 0.013307 -0.008236 -0.000610 -0.000002 0.002304 0.000001
# 2 -0.008236 0.030866 -0.005325 0.000006 -0.003515 -0.000002
# 3 -0.000610 -0.005325 0.011206 0.000000 -0.000605 -0.000001
# 4 -0.000002 0.000006 0.000000 0.040619 -0.000001 0.009792
# 5 0.002304 -0.003515 -0.000605 -0.000001 0.024285 0.000000
# 6 0.000001 -0.000002 -0.000001 0.009792 0.000000 0.045819
#
#
# Mechanical properties :
#
#
# Convention : Reuss Voigt Hill
#
# Bulk Modulus (GPa) = 36.98659 41.78466 39.38563
# Shear Modulus (GPa) = 24.57536 29.65351 27.11444
#
# Velocity S-wave (km/s) = 3.53081 3.87848 3.70872
# Velocity P-wave (km/s) = 5.94850 6.42288 6.19024
#
# Compressibility (1/GPa) = 0.02703682
#
# Stress axis : x y z
#
# Youngs Moduli (GPa) = 75.14936 32.39782 89.24145
#
# Poissons Ratio (x) = 0.26684 0.05444
# Poissons Ratio (y) = 0.61895 0.47518
# Poissons Ratio (z) = 0.04584 0.17251
#
# Static dielectric constant tensor:
#      x y z
#    x 3.807450 -0.000050 0.000990 
#    y -0.000050 3.369430 -0.000060 
#    z 0.000990 -0.000060 3.768920 
# 
# 
# High freq. dielectric constant tensor:
#      x y z
#    x 1.789430 0.000000 -0.001170 
#    y 0.000000 1.747790 0.000000 
#    z -0.001170 0.000000 1.787110 
# 
# From -- ./inp_files/244633.got.cif
#   From: 2010.06.25/outbox.cif.g09.slc.cpg/sg12_123_cif.got.tgz:244633.got - 2010.06.28 00:19:55.
