data_PCOD8101847
_publ_section_title
;
Structure prediction by ZEFSAII (Michael W. Deem and Ramdas Pophale) SiO2 
 PCOD8101847
Probable space group: C 2/M
;
_chemical_formula_sum "Si O2"
_cell_formula_units_Z 64
_cell_length_a 16.237154
_cell_length_b 9.078052
_cell_length_c 21.768760
_cell_angle_alpha 90.000000
_cell_angle_beta 91.492256
_cell_angle_gamma 90.000000
_cell_volume 3207.664612
_symmetry_space_group_name_H-M "C 2/M"
_symmetry_group_IT_number 12
_symmetry_cell_setting 'monoclinic'
loop_
_space_group_symop_operation_xyz
x,y,z
-x,y,-z
-x,-y,-z
x,-y,z
1/2+x,1/2+y,z
1/2-x,1/2+y,-z
1/2-x,1/2-y,-z
1/2+x,1/2-y,z
loop_
_atom_site_type_symbol
_atom_site_label
_atom_site_fract_x
_atom_site_fract_y
_atom_site_fract_z
Si Si1 0.165834 0.167376 0.504083
Si Si2 0.586303 0.170391 0.614374
Si Si3 0.334183 0.670047 0.744914
Si Si4 0.922504 0.830703 0.626875
Si Si5 0.243773 0.675501 0.065344
Si Si6 0.091994 0.172927 0.857819
Si Si7 0.909172 0.170766 0.872972
Si Si8 0.655199 0.171891 0.746619
O O1 0.250000 0.250000 0.500000
O O2 0.111498 0.235446 0.556415
O O3 0.121074 0.180702 0.438776
O O4 0.183448 0.000000 0.522001
O O5 0.495187 0.215219 0.630019
O O6 0.641114 0.205973 0.674756
O O7 0.591481 0.000000 0.596213
O O8 0.315283 0.500000 0.733912
O O9 0.364870 0.731093 0.680291
O O10 0.400026 0.697614 0.799802
O O11 0.246104 0.738370 0.762444
O O12 0.951014 0.000000 0.639835
O O13 0.239897 0.500000 0.059270
O O14 0.327203 0.725148 0.102761
O O15 0.158392 0.730301 0.093975
O O16 0.250000 0.750000 0.000000
O O17 0.092118 0.245773 0.790472
O O18 0.004732 0.214738 0.890078
O O19 0.093495 0.000000 0.847720
O O20 0.892329 0.000000 0.889939
O O21 0.645232 0.000000 0.760859
#
# Coordination Sequence:
#
# PCOD8101847 Si02
#       8
#     8   8   8   8   8   8   8   8
#     4  11  23  39  59  81 110 150 196 248 303 364
#     4  11  23  37  55  83 118 152 194 247 300 357
#     4   9  17  33  59  85 112 151 195 240 293 357
#     4  10  21  38  58  81 112 153 200 244 297 362
#     4  11  24  42  63  91 127 162 201 249 297 353
#     4  10  22  39  62  93 125 158 202 256 304 355
#     4  10  20  38  64  90 120 161 203 245 302 362
#     4  10  20  36  59  87 119 157 199 246 298 357
#
# _framework density 19.952210999999998
#
# number of rings (size 3 to 8) (size 9 to 14) (size 15 to 20)
#    0.000    1.750    1.250    3.000    0.000    8.000 
#    0.000    3.750    0.000    0.000    0.000    0.000 
#    0.000    0.000    0.000    0.000    0.000    0.000 
#
# Total GULP energy -396702.782150 kJ/mol
# GULP energy per Si atom -12396.961942 kJ/mol
# Density = 1.990680 g / cm^3
# Si number density = 19.952211 Si / 1000 Ang^3
#
#
#
# Elastic Constant Matrix: (Units=GPa)
#
#
# Indices 1 2 3 4 5 6 
#
# 1 137.0294 43.8856 47.5102 0.0000 -14.1780 0.0000
# 2 43.8856 69.5880 46.7059 0.0000 -2.1915 0.0000
# 3 47.5102 46.7059 102.5968 0.0000 -15.1100 0.0000
# 4 0.0000 0.0000 0.0000 32.5017 0.0000 -5.2148
# 5 -14.1780 -2.1915 -15.1100 0.0000 26.9688 0.0000
# 6 0.0000 0.0000 0.0000 -5.2148 0.0000 35.2712
#
#
#
# Elastic Compliance Matrix: (Units=1/GPa)
#
#
# Indices 1 2 3 4 5 6 
#
# 1 0.009883 -0.004920 -0.001777 0.000000 0.003800 0.000000
# 2 -0.004920 0.023530 -0.009300 0.000000 -0.005885 0.000000
# 3 -0.001777 -0.009300 0.015864 0.000000 0.007198 0.000000
# 4 0.000000 0.000000 0.000000 0.031515 0.000000 0.004659
# 5 0.003800 -0.005885 0.007198 0.000000 0.042632 0.000000
# 6 0.000000 0.000000 0.000000 0.004659 0.000000 0.029041
#
#
# Mechanical properties :
#
#
# Convention : Reuss Voigt Hill
#
# Bulk Modulus (GPa) = 57.86406 65.04640 61.45523
# Shear Modulus (GPa) = 26.28546 30.35584 28.32065
#
# Velocity S-wave (km/s) = 3.63357 3.90478 3.77161
# Velocity P-wave (km/s) = 6.83140 7.28022 7.05938
#
# Compressibility (1/GPa) = 0.01728188
#
# Stress axis : x y z
#
# Youngs Moduli (GPa) = 101.18631 42.49931 63.03771
#
# Poissons Ratio (x) = 0.20911 0.11201
# Poissons Ratio (y) = 0.49786 0.58625
# Poissons Ratio (z) = 0.17980 0.39524
#
# Static dielectric constant tensor:
#      x y z
#    x 3.936070 0.000000 0.048650 
#    y 0.000000 3.545040 0.000000 
#    z 0.048650 0.000000 3.559470 
# 
# 
# High freq. dielectric constant tensor:
#      x y z
#    x 1.792970 0.000000 -0.003780 
#    y 0.000000 1.762570 0.000000 
#    z -0.003780 0.000000 1.784260 
# 
# From -- ./inp_files/338842.got.cif
#   From: 2010.06.25/outbox.cif.g09.slc.cpg/sg12_170_cif.got.tgz:338842.got - 2010.06.28 00:19:55.
