data_PCOD8101487
_publ_section_title
;
Structure prediction by ZEFSAII (Michael W. Deem and Ramdas Pophale) SiO2 
 PCOD8101487
Probable space group: C 2/M
;
_chemical_formula_sum "Si O2"
_cell_formula_units_Z 40
_cell_length_a 17.838506
_cell_length_b 18.477403
_cell_length_c 12.715664
_cell_angle_alpha 90.000000
_cell_angle_beta 149.242685
_cell_angle_gamma 90.000000
_cell_volume 2143.391764
_symmetry_space_group_name_H-M "C 2/M"
_symmetry_group_IT_number 12
_symmetry_cell_setting 'monoclinic'
loop_
_space_group_symop_operation_xyz
x,y,z
-x,y,-z
-x,-y,-z
x,-y,z
1/2+x,1/2+y,z
1/2-x,1/2+y,-z
1/2-x,1/2-y,-z
1/2+x,1/2-y,z
loop_
_atom_site_type_symbol
_atom_site_label
_atom_site_fract_x
_atom_site_fract_y
_atom_site_fract_z
Si Si1 0.868070 0.849364 0.147148
Si Si2 0.560724 0.000000 0.955588
Si Si3 0.607043 0.718561 0.044864
Si Si4 0.616454 0.500000 0.731097
Si Si5 0.422823 0.228734 0.509342
Si Si6 0.042945 0.651892 0.838781
O O1 0.992962 0.801784 0.354129
O O2 0.901827 0.932438 0.213256
O O3 0.866787 0.836407 0.020291
O O4 0.708019 0.830508 0.998675
O O5 0.504053 0.928744 0.827756
O O6 0.500000 0.000000 0.000000
O O7 0.735270 0.000000 0.158331
O O8 0.755008 0.744395 0.280463
O O9 0.500000 0.679606 0.000000
O O10 0.520126 0.791189 0.905050
O O11 0.500000 0.500000 0.500000
O O12 0.500000 0.195602 0.500000
O O13 0.430314 0.168292 0.609031
#
# Coordination Sequence:
#
# PCOD8101487 Si02
#       6
#     8   4   8   4   8   8
#     4  10  20  36  58  84 109 143 191 226 261 339
#     4  10  22  40  56  81 118 140 176 237 272 317
#     4  11  22  36  56  85 113 142 183 236 278 314
#     4  10  22  38  60  80 108 150 186 216 276 330
#     4  11  18  35  62  78 110 147 185 226 272 322
#     4  10  20  36  58  84 109 146 188 220 272 335
#
# _framework density 18.662011
#
# number of rings (size 3 to 8) (size 9 to 14) (size 15 to 20)
#    0.000    1.600    4.000    2.400    2.800    3.200 
#    3.600    2.000    0.000    0.000    0.000    0.000 
#    0.000    0.000    0.000    0.000    0.000    0.000 
#
# Total GULP energy -247961.752656 kJ/mol
# GULP energy per Si atom -12398.087633 kJ/mol
# Density = 1.861954 g / cm^3
# Si number density = 18.662011 Si / 1000 Ang^3
#
#
#
# Elastic Constant Matrix: (Units=GPa)
#
#
# Indices 1 2 3 4 5 6 
#
# 1 123.6557 48.6418 40.4072 0.0000 -15.2722 0.0000
# 2 48.6418 122.7101 38.2507 0.0000 -22.0140 0.0000
# 3 40.4072 38.2507 110.1980 0.0000 -23.7299 0.0000
# 4 0.0000 0.0000 0.0000 9.3455 0.0000 1.0881
# 5 -15.2722 -22.0140 -23.7299 0.0000 24.9843 0.0000
# 6 0.0000 0.0000 0.0000 1.0881 0.0000 20.5978
#
#
#
# Elastic Compliance Matrix: (Units=1/GPa)
#
#
# Indices 1 2 3 4 5 6 
#
# 1 0.010244 -0.003083 -0.002417 0.000000 0.001250 0.000000
# 2 -0.003083 0.010940 -0.001253 0.000000 0.006564 0.000000
# 3 -0.002417 -0.001253 0.012370 0.000000 0.009167 0.000000
# 4 0.000000 0.000000 0.000000 0.107666 0.000000 -0.005688
# 5 0.001250 0.006564 0.009167 0.000000 0.055280 0.000000
# 6 0.000000 0.000000 0.000000 -0.005688 0.000000 0.048849
#
#
# Mechanical properties :
#
#
# Convention : Reuss Voigt Hill
#
# Bulk Modulus (GPa) = 49.88299 67.90702 58.89500
# Shear Modulus (GPa) = 18.82977 26.26979 22.54978
#
# Velocity S-wave (km/s) = 3.17991 3.75595 3.47987
# Velocity P-wave (km/s) = 6.34587 7.43481 6.91182
#
# Compressibility (1/GPa) = 0.02004691
#
# Stress axis : x y z
#
# Youngs Moduli (GPa) = 97.61941 91.41061 80.84161
#
# Poissons Ratio (x) = 0.28182 0.19539
# Poissons Ratio (y) = 0.30096 0.10131
# Poissons Ratio (z) = 0.23594 0.11456
#
# Static dielectric constant tensor:
#      x y z
#    x 3.495280 0.000000 -0.159830 
#    y 0.000000 3.473870 0.000000 
#    z -0.159830 0.000000 3.499020 
# 
# 
# High freq. dielectric constant tensor:
#      x y z
#    x 1.728200 0.000000 -0.011200 
#    y 0.000000 1.708010 0.000000 
#    z -0.011200 0.000000 1.728510 
# 
# From -- ./inp_files/48637.got.cif
#   From: 2010.06.25/outbox.cif.g09.slc.cpg/sg12_25_cif.got.tgz:48637.got - 2010.06.28 00:19:55.
