data_PCOD8101408
_publ_section_title
;
Structure prediction by ZEFSAII (Michael W. Deem and Ramdas Pophale) SiO2 
 PCOD8101408
Probable space group: C 2/M
;
_chemical_formula_sum "Si O2"
_cell_formula_units_Z 64
_cell_length_a 19.422682
_cell_length_b 8.999890
_cell_length_c 33.212767
_cell_angle_alpha 90.000000
_cell_angle_beta 143.426832
_cell_angle_gamma 90.000000
_cell_volume 3459.294700
_symmetry_space_group_name_H-M "C 2/M"
_symmetry_group_IT_number 12
_symmetry_cell_setting 'monoclinic'
loop_
_space_group_symop_operation_xyz
x,y,z
-x,y,-z
-x,-y,-z
x,-y,z
1/2+x,1/2+y,z
1/2-x,1/2+y,-z
1/2-x,1/2-y,-z
1/2+x,1/2-y,z
loop_
_atom_site_type_symbol
_atom_site_label
_atom_site_fract_x
_atom_site_fract_y
_atom_site_fract_z
Si Si1 0.382270 0.332985 0.968729
Si Si2 0.642926 0.175088 0.816181
Si Si3 0.633046 0.825278 0.957383
Si Si4 0.873986 0.674616 0.559080
Si Si5 0.223872 0.825146 0.696587
Si Si6 0.034047 0.327415 0.559892
Si Si7 0.929263 0.824184 0.300243
Si Si8 0.518734 0.823944 0.186927
O O1 0.357904 0.500000 0.973345
O O2 0.273750 0.283606 0.890395
O O3 0.500000 0.326501 0.000000
O O4 0.401935 0.221577 0.014510
O O5 0.611827 0.265203 0.761858
O O6 0.556160 0.231675 0.810312
O O7 0.629843 0.000000 0.801676
O O8 0.536965 0.768840 0.880902
O O9 0.648732 0.000000 0.962609
O O10 0.750000 0.750000 0.000000
O O11 0.861814 0.500000 0.561957
O O12 0.750000 0.750000 0.500000
O O13 0.931420 0.707088 0.542840
O O14 0.950860 0.746636 0.630597
O O15 0.149554 0.758137 0.625760
O O16 0.170521 0.780820 0.714736
O O17 0.352118 0.757692 0.751910
O O18 0.225038 0.000000 0.691820
O O19 0.064446 0.500000 0.573332
O O20 0.000000 0.268438 0.500000
O O21 0.949740 0.000000 0.307979
O O22 0.522761 0.000000 0.189655
#
# Coordination Sequence:
#
# PCOD8101408 Si02
#       8
#     8   8   8   8   8   8   8   8
#     4  10  22  39  57  82 115 149 189 237 287 342
#     4  10  20  37  56  76 110 148 182 225 280 333
#     4  11  21  37  60  82 112 148 188 235 287 342
#     4  10  20  36  58  82 111 146 182 219 269 323
#     4   9  19  36  56  78 105 140 181 221 265 320
#     4   9  19  36  56  80 111 141 172 218 269 314
#     4  10  21  36  55  80 111 142 182 229 270 321
#     4   9  19  36  56  78 107 143 180 226 279 329
#
# _framework density 18.500881
#
# number of rings (size 3 to 8) (size 9 to 14) (size 15 to 20)
#    0.000    2.250    1.250    1.125    1.750    3.000 
#    0.000    4.375    0.000    0.000    0.000    0.000 
#    0.000    0.000    0.000    0.000    0.000    0.000 
#
# Total GULP energy -396838.779228 kJ/mol
# GULP energy per Si atom -12401.211851 kJ/mol
# Density = 1.845877 g / cm^3
# Si number density = 18.500881 Si / 1000 Ang^3
#
#
#
# Elastic Constant Matrix: (Units=GPa)
#
#
# Indices 1 2 3 4 5 6 
#
# 1 99.9844 41.0234 93.2506 -0.0001 6.0639 0.0000
# 2 41.0234 59.0057 55.6941 -0.0001 -0.5254 0.0000
# 3 93.2506 55.6941 182.6310 0.0000 3.4878 0.0000
# 4 -0.0001 -0.0001 0.0000 33.2412 0.0000 -5.7714
# 5 6.0639 -0.5254 3.4878 0.0000 42.9544 0.0000
# 6 0.0000 0.0000 0.0000 -5.7714 0.0000 23.7771
#
#
#
# Elastic Compliance Matrix: (Units=1/GPa)
#
#
# Indices 1 2 3 4 5 6 
#
# 1 0.020802 -0.006318 -0.008651 0.000000 -0.002312 0.000000
# 2 -0.006318 0.025750 -0.004657 0.000000 0.001585 0.000000
# 3 -0.008651 -0.004657 0.011308 0.000000 0.000246 0.000000
# 4 0.000000 0.000000 0.000000 0.031407 0.000000 0.007623
# 5 -0.002312 0.001585 0.000246 0.000000 0.023606 0.000000
# 6 0.000000 0.000000 0.000000 0.007623 0.000000 0.043908
#
#
# Mechanical properties :
#
#
# Convention : Reuss Voigt Hill
#
# Bulk Modulus (GPa) = 53.73805 80.17305 66.95555
# Shear Modulus (GPa) = 24.72387 30.10473 27.41430
#
# Velocity S-wave (km/s) = 3.65959 4.03824 3.85357
# Velocity P-wave (km/s) = 6.85318 8.07292 7.48793
#
# Compressibility (1/GPa) = 0.01860879
#
# Stress axis : x y z
#
# Youngs Moduli (GPa) = 48.07241 38.83555 88.43396
#
# Poissons Ratio (x) = 0.24536 0.76500
# Poissons Ratio (y) = 0.30372 0.41182
# Poissons Ratio (z) = 0.41585 0.18085
#
# Static dielectric constant tensor:
#      x y z
#    x 4.396140 0.000010 -0.082300 
#    y 0.000010 3.597040 0.000000 
#    z -0.082300 0.000000 3.590690 
# 
# 
# High freq. dielectric constant tensor:
#      x y z
#    x 1.721420 0.000000 0.002340 
#    y 0.000000 1.707280 0.000000 
#    z 0.002340 0.000000 1.729590 
# 
# From -- ./inp_files/378516.got.cif
#   From: 2010.06.25/outbox.cif.g09.slc.cpg/sg12_190_cif.got.tgz:378516.got - 2010.06.28 00:19:55.
