data_PCOD8101941
_publ_section_title
;
Structure prediction by ZEFSAII (Michael W. Deem and Ramdas Pophale) SiO2 
 PCOD8101941
Probable space group: C 2/M
;
_chemical_formula_sum "Si O2"
_cell_formula_units_Z 56
_cell_length_a 21.536349
_cell_length_b 9.081479
_cell_length_c 16.332239
_cell_angle_alpha 90.000000
_cell_angle_beta 118.343738
_cell_angle_gamma 90.000000
_cell_volume 2811.343466
_symmetry_space_group_name_H-M "C 2/M"
_symmetry_group_IT_number 12
_symmetry_cell_setting 'monoclinic'
loop_
_space_group_symop_operation_xyz
x,y,z
-x,y,-z
-x,-y,-z
x,-y,z
1/2+x,1/2+y,z
1/2-x,1/2+y,-z
1/2-x,1/2-y,-z
1/2+x,1/2-y,z
loop_
_atom_site_type_symbol
_atom_site_label
_atom_site_fract_x
_atom_site_fract_y
_atom_site_fract_z
Si Si1 0.166501 0.826837 0.103877
Si Si2 0.280429 0.665616 0.270003
Si Si3 0.467499 0.339641 0.890952
Si Si4 0.093806 0.672945 0.908831
Si Si5 0.540263 0.673438 0.446143
Si Si6 0.300465 0.673784 0.466103
Si Si7 0.915212 0.834185 0.256849
O O1 0.241715 0.773515 0.182580
O O2 0.112555 0.786266 0.144245
O O3 0.167332 0.000000 0.086381
O O4 0.145833 0.747442 0.006577
O O5 0.252168 0.500000 0.237989
O O6 0.269470 0.712127 0.357148
O O7 0.363605 0.674794 0.302748
O O8 0.469565 0.500000 0.847527
O O9 0.511890 0.220261 0.868621
O O10 0.500000 0.360047 0.000000
O O11 0.101368 0.500000 0.922814
O O12 0.114235 0.724313 0.830826
O O13 0.500000 0.743035 0.500000
O O14 0.547156 0.500000 0.465222
O O15 0.619081 0.736664 0.479416
O O16 0.493268 0.709970 0.336574
O O17 0.299952 0.500000 0.482418
O O18 0.250000 0.750000 0.500000
O O19 0.915516 0.000000 0.221069
#
# Coordination Sequence:
#
# PCOD8101941 Si02
#       7
#     8   8   8   8   8   8   8
#     4  10  21  37  58  81 112 154 195 236 286 346
#     4  10  21  37  58  84 114 151 194 242 294 345
#     4   8  16  33  54  75 102 141 188 233 278 334
#     4  11  22  35  54  83 117 150 189 238 292 347
#     4   9  16  34  64  88 107 146 201 243 281 340
#     4  10  21  38  61  91 123 153 193 244 297 353
#     4  10  20  36  60  85 111 148 198 246 286 340
#
# _framework density 19.919302999999999
#
# number of rings (size 3 to 8) (size 9 to 14) (size 15 to 20)
#    0.000    2.286    1.429    2.571    0.000    6.000 
#    0.000    5.000    0.000    0.857    0.000    0.000 
#    0.000    0.000    0.000    0.000    0.000    0.000 
#
# Total GULP energy -347092.336059 kJ/mol
# GULP energy per Si atom -12396.154859 kJ/mol
# Density = 1.987397 g / cm^3
# Si number density = 19.919303 Si / 1000 Ang^3
#
#
#
# Elastic Constant Matrix: (Units=GPa)
#
#
# Indices 1 2 3 4 5 6 
#
# 1 111.1617 34.5177 55.4149 0.0000 -1.4529 0.0000
# 2 34.5177 92.0538 53.6414 0.0000 -4.0559 0.0000
# 3 55.4149 53.6414 110.6612 0.0000 0.7374 0.0000
# 4 0.0000 0.0000 0.0000 16.1134 0.0000 3.3413
# 5 -1.4529 -4.0559 0.7374 0.0000 34.9180 0.0000
# 6 0.0000 0.0000 0.0000 3.3413 0.0000 21.1834
#
#
#
# Elastic Compliance Matrix: (Units=1/GPa)
#
#
# Indices 1 2 3 4 5 6 
#
# 1 0.012125 -0.001375 -0.005408 0.000000 0.000459 0.000000
# 2 -0.001375 0.015424 -0.006801 0.000000 0.001878 0.000000
# 3 -0.005408 -0.006801 0.015050 0.000000 -0.001333 0.000000
# 4 0.000000 0.000000 0.000000 0.064159 0.000000 -0.010120
# 5 0.000459 0.001878 -0.001333 0.000000 0.028904 0.000000
# 6 0.000000 0.000000 0.000000 -0.010120 0.000000 0.048803
#
#
# Mechanical properties :
#
#
# Convention : Reuss Voigt Hill
#
# Bulk Modulus (GPa) = 64.80129 66.78054 65.79092
# Shear Modulus (GPa) = 23.06516 25.79647 24.43082
#
# Velocity S-wave (km/s) = 3.40653 3.60258 3.50593
# Velocity P-wave (km/s) = 6.93362 7.13464 7.03485
#
# Compressibility (1/GPa) = 0.01543179
#
# Stress axis : x y z
#
# Youngs Moduli (GPa) = 82.47496 64.83214 66.44345
#
# Poissons Ratio (x) = 0.08913 0.35935
# Poissons Ratio (y) = 0.11338 0.45187
# Poissons Ratio (z) = 0.44605 0.44092
#
# Static dielectric constant tensor:
#      x y z
#    x 4.067920 0.000000 0.152590 
#    y 0.000000 3.306840 0.000000 
#    z 0.152590 0.000000 3.427930 
# 
# 
# High freq. dielectric constant tensor:
#      x y z
#    x 1.781520 0.000000 0.002120 
#    y 0.000000 1.746870 0.000000 
#    z 0.002120 0.000000 1.771320 
# 
# From -- ./inp_files/281733.got.cif
#   From: 2010.06.25/outbox.cif.g09.slc.cpg/sg12_141_cif.got.tgz:281733.got - 2010.06.28 00:19:55.
