data_PCOD8101328
_publ_section_title
;
Structure prediction by ZEFSAII (Michael W. Deem and Ramdas Pophale) SiO2 
 PCOD8101328
Probable space group: C 2/M
;
_chemical_formula_sum "Si O2"
_cell_formula_units_Z 64
_cell_length_a 15.191708
_cell_length_b 9.278659
_cell_length_c 24.686115
_cell_angle_alpha 90.000000
_cell_angle_beta 73.583807
_cell_angle_gamma 90.000000
_cell_volume 3337.868276
_symmetry_space_group_name_H-M "C 2/M"
_symmetry_group_IT_number 12
_symmetry_cell_setting 'monoclinic'
loop_
_space_group_symop_operation_xyz
x,y,z
-x,y,-z
-x,-y,-z
x,-y,z
1/2+x,1/2+y,z
1/2-x,1/2+y,-z
1/2-x,1/2-y,-z
1/2+x,1/2-y,z
loop_
_atom_site_type_symbol
_atom_site_label
_atom_site_fract_x
_atom_site_fract_y
_atom_site_fract_z
Si Si1 0.452997 0.664380 0.260223
Si Si2 0.899157 0.169547 0.994384
Si Si3 0.753856 0.170253 0.282333
Si Si4 0.705849 0.166845 0.078157
Si Si5 0.631457 0.168622 0.207307
Si Si6 0.661046 0.664527 0.500600
Si Si7 0.632941 0.167521 0.399558
Si Si8 0.980979 0.840225 0.378968
O O1 0.470798 0.500000 0.239564
O O2 0.356910 0.724763 0.253313
O O3 0.532587 0.758869 0.220837
O O4 0.439868 0.676584 0.326810
O O5 0.870266 0.246270 0.943336
O O6 0.906058 0.000000 0.981954
O O7 0.813336 0.206897 0.049239
O O8 0.000000 0.222240 0.000000
O O9 0.686573 0.237553 0.248627
O O10 0.723965 0.207235 0.349373
O O11 0.750606 0.000000 0.275741
O O12 0.688799 0.203366 0.143634
O O13 0.689109 0.000000 0.067528
O O14 0.615292 0.000000 0.217622
O O15 0.684727 0.500000 0.482853
O O16 0.750000 0.750000 0.500000
O O17 0.617392 0.736434 0.455246
O O18 0.597104 0.677559 0.563186
O O19 0.551003 0.208942 0.373538
O O20 0.629679 0.000000 0.416280
O O21 0.026408 0.000000 0.377579
#
# Coordination Sequence:
#
# PCOD8101328 Si02
#       8
#     8   8   8   8   8   8   8   8
#     4  10  20  36  58  80 105 143 189 231 277 328
#     4   9  18  34  57  85 113 146 189 229 265 319
#     4   9  19  36  57  79 108 147 184 226 278 333
#     4   9  19  34  54  81 115 151 183 227 279 323
#     4  10  20  37  56  79 113 149 187 228 276 326
#     4  11  23  38  55  78 108 140 178 228 284 341
#     4  11  21  36  58  81 106 140 183 225 280 346
#     4  10  21  37  55  77 108 141 179 230 284 335
#
# _framework density 19.173912999999999
#
# number of rings (size 3 to 8) (size 9 to 14) (size 15 to 20)
#    0.000    2.125    1.250    1.875    0.000    6.250 
#    0.000    5.625    0.000    0.000    0.000    0.000 
#    0.000    0.000    0.000    0.000    0.000    0.000 
#
# Total GULP energy -396627.043706 kJ/mol
# GULP energy per Si atom -12394.595116 kJ/mol
# Density = 1.913027 g / cm^3
# Si number density = 19.173913 Si / 1000 Ang^3
#
#
#
# Elastic Constant Matrix: (Units=GPa)
#
#
# Indices 1 2 3 4 5 6 
#
# 1 112.4839 37.6004 21.1625 0.0000 -9.4137 0.0000
# 2 37.6004 64.9551 38.4042 0.0000 -6.6220 0.0000
# 3 21.1625 38.4042 74.2240 0.0000 -11.7427 0.0000
# 4 0.0000 0.0000 0.0000 26.7944 0.0000 0.2968
# 5 -9.4137 -6.6220 -11.7427 0.0000 22.7341 0.0000
# 6 0.0000 0.0000 0.0000 0.2968 0.0000 32.9890
#
#
#
# Elastic Compliance Matrix: (Units=1/GPa)
#
#
# Indices 1 2 3 4 5 6 
#
# 1 0.011221 -0.006596 0.000702 0.000000 0.003088 0.000000
# 2 -0.006596 0.026065 -0.011801 0.000000 -0.001234 0.000000
# 3 0.000702 -0.011801 0.020561 0.000000 0.007473 0.000000
# 4 0.000000 0.000000 0.000000 0.037325 0.000000 -0.000336
# 5 0.003088 -0.001234 0.007473 0.000000 0.048766 0.000000
# 6 0.000000 0.000000 0.000000 -0.000336 0.000000 0.030316
#
#
# Mechanical properties :
#
#
# Convention : Reuss Voigt Hill
#
# Bulk Modulus (GPa) = 44.52911 49.55525 47.04218
# Shear Modulus (GPa) = 23.02777 26.80322 24.91549
#
# Velocity S-wave (km/s) = 3.46930 3.74291 3.60870
# Velocity P-wave (km/s) = 6.27074 6.67685 6.47698
#
# Compressibility (1/GPa) = 0.02245722
#
# Stress axis : x y z
#
# Youngs Moduli (GPa) = 89.11581 38.36613 48.63627
#
# Poissons Ratio (x) = 0.25306 -0.03414
# Poissons Ratio (y) = 0.58780 0.57395
# Poissons Ratio (z) = -0.06255 0.45275
#
# Static dielectric constant tensor:
#      x y z
#    x 3.591620 0.000000 -0.121970 
#    y 0.000000 3.439570 0.000000 
#    z -0.121970 0.000000 2.980520 
# 
# 
# High freq. dielectric constant tensor:
#      x y z
#    x 1.750630 0.000000 -0.002730 
#    y 0.000000 1.730280 0.000000 
#    z -0.002730 0.000000 1.746850 
# 
# From -- ./inp_files/359819.got.cif
#   From: 2010.06.25/outbox.cif.g09.slc.cpg/sg12_180_cif.got.tgz:359819.got - 2010.06.28 00:19:55.
