data_PCOD8101345
_publ_section_title
;
Structure prediction by ZEFSAII (Michael W. Deem and Ramdas Pophale) SiO2 
 PCOD8101345
Probable space group: C 2/M
;
_chemical_formula_sum "Si O2"
_cell_formula_units_Z 40
_cell_length_a 26.742499
_cell_length_b 9.017003
_cell_length_c 9.528799
_cell_angle_alpha 90.000000
_cell_angle_beta 110.768696
_cell_angle_gamma 90.000000
_cell_volume 2148.439166
_symmetry_space_group_name_H-M "C 2/M"
_symmetry_group_IT_number 12
_symmetry_cell_setting 'monoclinic'
loop_
_space_group_symop_operation_xyz
x,y,z
-x,y,-z
-x,-y,-z
x,-y,z
1/2+x,1/2+y,z
1/2-x,1/2+y,-z
1/2-x,1/2-y,-z
1/2+x,1/2-y,z
loop_
_atom_site_type_symbol
_atom_site_label
_atom_site_fract_x
_atom_site_fract_y
_atom_site_fract_z
Si Si1 0.295357 0.170351 0.632043
Si Si2 0.706614 0.167226 0.046525
Si Si3 0.004492 0.829734 0.665911
Si Si4 0.913045 0.676073 0.057495
Si Si5 0.594338 0.327893 0.235584
O O1 0.250000 0.250000 0.500000
O O2 0.278136 0.182153 0.776060
O O3 0.351570 0.249843 0.660336
O O4 0.300857 0.000000 0.590055
O O5 0.708324 0.000000 0.995903
O O6 0.750000 0.250000 0.000000
O O7 0.646818 0.229834 0.962281
O O8 0.947357 0.805630 0.680652
O O9 0.000000 0.782192 0.500000
O O10 0.048059 0.724009 0.779846
O O11 0.023372 0.000000 0.699506
O O12 0.914854 0.500000 0.035610
O O13 0.930047 0.753387 0.928627
O O14 0.605502 0.500000 0.215822
#
# Coordination Sequence:
#
# PCOD8101345 Si02
#       5
#     8   8   8   8   8
#     4  10  21  37  56  81 111 142 179 221 267 317
#     4   9  20  36  54  79 108 139 177 219 263 315
#     4  10  22  38  55  79 110 142 178 222 271 319
#     4  10  21  37  56  80 109 141 180 222 266 319
#     4  10  20  36  58  81 106 141 183 221 263 318
#
# _framework density 18.618169000000002
#
# number of rings (size 3 to 8) (size 9 to 14) (size 15 to 20)
#    0.000    2.200    0.000    3.600    0.000   10.800 
#    0.000    6.000    0.000    0.000    0.000    0.000 
#    0.000    0.000    0.000    0.000    0.000    0.000 
#
# Total GULP energy -248057.200785 kJ/mol
# GULP energy per Si atom -12402.860039 kJ/mol
# Density = 1.857579 g / cm^3
# Si number density = 18.618169 Si / 1000 Ang^3
#
#
#
# Elastic Constant Matrix: (Units=GPa)
#
#
# Indices 1 2 3 4 5 6 
#
# 1 109.1128 61.1833 64.7381 0.0000 -8.7256 0.0000
# 2 61.1833 114.5712 61.5389 0.0000 2.6196 0.0000
# 3 64.7381 61.5389 122.4380 0.0000 11.6062 0.0000
# 4 0.0000 0.0000 0.0000 36.3663 0.0000 5.5783
# 5 -8.7256 2.6196 11.6062 0.0000 31.7061 0.0000
# 6 0.0000 0.0000 0.0000 5.5783 0.0000 31.6105
#
#
#
# Elastic Compliance Matrix: (Units=1/GPa)
#
#
# Indices 1 2 3 4 5 6 
#
# 1 0.016989 -0.005524 -0.006934 0.000000 0.007670 0.000000
# 2 -0.005524 0.013800 -0.003899 0.000000 -0.001233 0.000000
# 3 -0.006934 -0.003899 0.014445 0.000000 -0.006874 0.000000
# 4 0.000000 0.000000 0.000000 0.028263 0.000000 -0.004988
# 5 0.007670 -0.001233 -0.006874 0.000000 0.036269 0.000000
# 6 0.000000 0.000000 0.000000 -0.004988 0.000000 0.032515
#
#
# Mechanical properties :
#
#
# Convention : Reuss Voigt Hill
#
# Bulk Modulus (GPa) = 79.85958 80.11585 79.98772
# Shear Modulus (GPa) = 27.90682 30.51401 29.21041
#
# Velocity S-wave (km/s) = 3.87577 4.05277 3.96526
# Velocity P-wave (km/s) = 7.93821 8.06377 8.00124
#
# Compressibility (1/GPa) = 0.01252198
#
# Stress axis : x y z
#
# Youngs Moduli (GPa) = 58.85994 72.46249 69.22972
#
# Poissons Ratio (x) = 0.40027 0.48003
# Poissons Ratio (y) = 0.32513 0.26990
# Poissons Ratio (z) = 0.40812 0.28250
#
# Static dielectric constant tensor:
#      x y z
#    x 3.474200 0.000000 0.064060 
#    y 0.000000 3.548880 0.000000 
#    z 0.064060 0.000000 3.431810 
# 
# 
# High freq. dielectric constant tensor:
#      x y z
#    x 1.728610 0.000000 0.004790 
#    y 0.000000 1.732260 0.000000 
#    z 0.004790 0.000000 1.720690 
# 
# From -- ./inp_files/92749.got.cif
#   From: 2010.06.25/outbox.cif.g09.slc.cpg/sg12_47_cif.got.tgz:92749.got - 2010.06.28 00:19:55.
