data_PCOD8101966
_publ_section_title
;
Structure prediction by ZEFSAII (Michael W. Deem and Ramdas Pophale) SiO2 
 PCOD8101966
Probable space group: C 2/M
;
_chemical_formula_sum "Si O2"
_cell_formula_units_Z 48
_cell_length_a 20.295881
_cell_length_b 25.720270
_cell_length_c 9.369223
_cell_angle_alpha 90.000000
_cell_angle_beta 151.914930
_cell_angle_gamma 90.000000
_cell_volume 2302.538280
_symmetry_space_group_name_H-M "C 2/M"
_symmetry_group_IT_number 12
_symmetry_cell_setting 'monoclinic'
loop_
_space_group_symop_operation_xyz
x,y,z
-x,y,-z
-x,-y,-z
x,-y,z
1/2+x,1/2+y,z
1/2-x,1/2+y,-z
1/2-x,1/2-y,-z
1/2+x,1/2-y,z
loop_
_atom_site_type_symbol
_atom_site_label
_atom_site_fract_x
_atom_site_fract_y
_atom_site_fract_z
Si Si1 0.186433 0.059320 0.101161
Si Si2 0.339667 0.390935 0.231140
Si Si3 0.626635 0.224693 0.347708
Si Si4 0.643301 0.723134 0.690394
Si Si5 0.849105 0.394979 0.650342
Si Si6 0.372402 0.559243 0.571203
O O1 0.313183 0.066090 0.453204
O O2 0.171787 0.000000 0.023156
O O3 0.235443 0.094204 0.060229
O O4 0.037108 0.076129 0.888658
O O5 0.500000 0.390087 0.500000
O O6 0.295269 0.335197 0.212616
O O7 0.313404 0.435682 0.297771
O O8 0.750000 0.250000 0.500000
O O9 0.617434 0.249060 0.488819
O O10 0.647621 0.163219 0.404247
O O11 0.500000 0.237547 0.000000
O O12 0.500000 0.720994 0.500000
O O13 0.750000 0.750000 0.000000
O O14 0.721934 0.401121 0.518588
O O15 0.000000 0.411524 0.000000
O O16 0.354145 0.500000 0.591188
#
# Coordination Sequence:
#
# PCOD8101966 Si02
#       6
#     8   8   8   8   8   8
#     4  10  20  37  62  89 116 150 194 242 292 348
#     4   9  19  36  59  88 115 143 186 244 300 345
#     4  11  24  41  61  88 122 160 202 250 302 356
#     4  11  22  38  61  87 117 156 200 245 298 359
#     4  11  24  39  55  83 121 159 196 237 290 347
#     4  10  20  36  60  86 113 150 196 243 290 345
#
# _framework density 20.846558999999999
#
# number of rings (size 3 to 8) (size 9 to 14) (size 15 to 20)
#    0.000    1.667    0.000    4.500    0.000   10.000 
#    0.000    0.833    0.000    2.000    0.000    0.000 
#    0.000    0.000    0.000    0.000    0.000    0.000 
#
# Total GULP energy -297408.365737 kJ/mol
# GULP energy per Si atom -12392.015239 kJ/mol
# Density = 2.079911 g / cm^3
# Si number density = 20.846559 Si / 1000 Ang^3
#
#
#
# Elastic Constant Matrix: (Units=GPa)
#
#
# Indices 1 2 3 4 5 6 
#
# 1 88.2652 52.5985 55.0743 0.0000 -21.5166 0.0000
# 2 52.5985 94.9194 48.4949 0.0000 -7.6172 0.0000
# 3 55.0743 48.4949 134.5322 0.0000 -21.6573 0.0000
# 4 0.0000 0.0000 0.0000 29.4183 0.0000 -7.1266
# 5 -21.5166 -7.6172 -21.6573 0.0000 33.7666 0.0000
# 6 0.0000 0.0000 0.0000 -7.1266 0.0000 39.1555
#
#
#
# Elastic Compliance Matrix: (Units=1/GPa)
#
#
# Indices 1 2 3 4 5 6 
#
# 1 0.021496 -0.009112 -0.004060 0.000000 0.009038 0.000000
# 2 -0.009112 0.016776 -0.002947 0.000000 -0.003912 0.000000
# 3 -0.004060 -0.002947 0.010743 0.000000 0.003638 0.000000
# 4 0.000000 0.000000 0.000000 0.035560 0.000000 0.006472
# 5 0.009038 -0.003912 0.003638 0.000000 0.036825 0.000000
# 6 0.000000 0.000000 0.000000 0.006472 0.000000 0.026717
#
#
# Mechanical properties :
#
#
# Convention : Reuss Voigt Hill
#
# Bulk Modulus (GPa) = 59.60499 70.00579 64.80539
# Shear Modulus (GPa) = 26.88894 31.23802 29.06348
#
# Velocity S-wave (km/s) = 3.59534 3.87521 3.73790
# Velocity P-wave (km/s) = 6.77419 7.32649 7.05574
#
# Compressibility (1/GPa) = 0.01677712
#
# Stress axis : x y z
#
# Youngs Moduli (GPa) = 46.51958 59.60804 93.08035
#
# Poissons Ratio (x) = 0.54316 0.37795
# Poissons Ratio (y) = 0.42389 0.27429
# Poissons Ratio (z) = 0.18889 0.17565
#
# Static dielectric constant tensor:
#      x y z
#    x 4.111040 0.000000 -0.343220 
#    y 0.000000 3.877990 0.000000 
#    z -0.343220 0.000000 3.861490 
# 
# 
# High freq. dielectric constant tensor:
#      x y z
#    x 1.815410 0.000000 -0.020610 
#    y 0.000000 1.821300 0.000000 
#    z -0.020610 0.000000 1.815290 
# 
# From -- ./inp_files/80622.got.cif
#   From: 2010.06.25/outbox.cif.g09.slc.cpg/sg12_41_cif.got.tgz:80622.got - 2010.06.28 00:19:55.
