data_PCOD8101093
_publ_section_title
;
Structure prediction by ZEFSAII (Michael W. Deem and Ramdas Pophale) SiO2 
 PCOD8101093
Probable space group: C 2/M
;
_chemical_formula_sum "Si O2"
_cell_formula_units_Z 56
_cell_length_a 14.812634
_cell_length_b 9.305959
_cell_length_c 24.267633
_cell_angle_alpha 90.000000
_cell_angle_beta 62.239010
_cell_angle_gamma 90.000000
_cell_volume 2960.153359
_symmetry_space_group_name_H-M "C 2/M"
_symmetry_group_IT_number 12
_symmetry_cell_setting 'monoclinic'
loop_
_space_group_symop_operation_xyz
x,y,z
-x,y,-z
-x,-y,-z
x,-y,z
1/2+x,1/2+y,z
1/2-x,1/2+y,-z
1/2-x,1/2-y,-z
1/2+x,1/2-y,z
loop_
_atom_site_type_symbol
_atom_site_label
_atom_site_fract_x
_atom_site_fract_y
_atom_site_fract_z
Si Si1 0.890333 0.668618 0.506844
Si Si2 0.680332 0.663996 0.802794
Si Si3 0.309659 0.167144 0.411043
Si Si4 0.025618 0.839180 0.934340
Si Si5 0.591511 0.831307 0.730830
Si Si6 0.634753 0.836776 0.179184
Si Si7 0.686983 0.661653 0.061771
O O1 0.879041 0.500000 0.521515
O O2 0.796758 0.747511 0.563622
O O3 0.878064 0.705124 0.445316
O O4 0.000000 0.722190 0.500000
O O5 0.643492 0.500000 0.803276
O O6 0.615540 0.732734 0.872531
O O7 0.667357 0.753859 0.751210
O O8 0.799651 0.669467 0.783522
O O9 0.378404 0.211440 0.339579
O O10 0.280888 0.000000 0.419075
O O11 0.929443 0.840547 0.922471
O O12 0.062684 0.000000 0.939617
O O13 0.000000 0.758544 0.000000
O O14 0.476864 0.777030 0.774716
O O15 0.601215 0.000000 0.737531
O O16 0.693078 0.739202 0.118533
O O17 0.629010 0.000000 0.158166
O O18 0.730875 0.500000 0.054034
O O19 0.750000 0.750000 0.000000
#
# Coordination Sequence:
#
# PCOD8101093 Si02
#       7
#     8   8   8   8   8   8   8
#     4   9  18  34  58  86 114 145 188 234 268 313
#     4  10  20  36  57  79 104 142 186 226 272 333
#     4   9  19  35  54  80 116 153 184 221 277 327
#     4   9  17  31  51  74 100 131 171 220 271 323
#     4  10  21  37  55  79 115 150 181 227 278 327
#     4  10  21  37  57  79 107 142 181 226 279 331
#     4  11  21  34  54  78 107 140 178 226 280 337
#
# _framework density 18.917939000000001
#
# number of rings (size 3 to 8) (size 9 to 14) (size 15 to 20)
#    0.000    2.286    1.429    1.286    0.000    4.857 
#    0.000    2.857    0.000    2.143    0.000    0.000 
#    0.000    0.000    0.000    0.000    0.000    0.000 
#
# Total GULP energy -347130.786820 kJ/mol
# GULP energy per Si atom -12397.528101 kJ/mol
# Density = 1.887488 g / cm^3
# Si number density = 18.917939 Si / 1000 Ang^3
#
#
#
# Elastic Constant Matrix: (Units=GPa)
#
#
# Indices 1 2 3 4 5 6 
#
# 1 110.3268 35.9419 43.0454 0.0000 1.5677 0.0000
# 2 35.9419 61.2144 50.3045 0.0000 -1.7893 0.0000
# 3 43.0454 50.3045 127.0938 0.0000 5.0860 0.0000
# 4 0.0000 0.0000 0.0000 29.6120 0.0000 1.5302
# 5 1.5677 -1.7893 5.0860 0.0000 24.6356 0.0000
# 6 0.0000 0.0000 0.0000 1.5302 0.0000 27.7697
#
#
#
# Elastic Compliance Matrix: (Units=1/GPa)
#
#
# Indices 1 2 3 4 5 6 
#
# 1 0.011495 -0.005331 -0.001753 0.000000 -0.000757 0.000000
# 2 -0.005331 0.027035 -0.009062 0.000000 0.004174 0.000000
# 3 -0.001753 -0.009062 0.012171 0.000000 -0.003059 0.000000
# 4 0.000000 0.000000 0.000000 0.033867 0.000000 -0.001866
# 5 -0.000757 0.004174 -0.003059 0.000000 0.041575 0.000000
# 6 0.000000 0.000000 0.000000 -0.001866 0.000000 0.036113
#
#
# Mechanical properties :
#
#
# Convention : Reuss Voigt Hill
#
# Bulk Modulus (GPa) = 54.32007 61.91316 58.11661
# Shear Modulus (GPa) = 24.91464 27.69300 26.30382
#
# Velocity S-wave (km/s) = 3.63297 3.83018 3.73287
# Velocity P-wave (km/s) = 6.80983 7.23593 7.02611
#
# Compressibility (1/GPa) = 0.01840940
#
# Stress axis : x y z
#
# Youngs Moduli (GPa) = 86.99105 36.98883 82.16096
#
# Poissons Ratio (x) = 0.19719 0.14403
# Poissons Ratio (y) = 0.46375 0.74456
# Poissons Ratio (z) = 0.15250 0.33520
#
# Static dielectric constant tensor:
#      x y z
#    x 3.627170 0.000000 0.024570 
#    y 0.000000 3.347300 0.000000 
#    z 0.024570 0.000000 3.502720 
# 
# 
# High freq. dielectric constant tensor:
#      x y z
#    x 1.739570 0.000000 0.000160 
#    y 0.000000 1.713290 0.000000 
#    z 0.000160 0.000000 1.732980 
# 
# From -- ./inp_files/338565.got.cif
#   From: 2010.06.25/outbox.cif.g09.slc.cpg/sg12_170_cif.got.tgz:338565.got - 2010.06.28 00:19:55.
