data_PCOD8101282
_publ_section_title
;
Structure prediction by ZEFSAII (Michael W. Deem and Ramdas Pophale) SiO2 
 PCOD8101282
Probable space group: C 2/M
;
_chemical_formula_sum "Si O2"
_cell_formula_units_Z 48
_cell_length_a 24.993853
_cell_length_b 8.872022
_cell_length_c 12.345288
_cell_angle_alpha 90.000000
_cell_angle_beta 109.427256
_cell_angle_gamma 90.000000
_cell_volume 2581.656532
_symmetry_space_group_name_H-M "C 2/M"
_symmetry_group_IT_number 12
_symmetry_cell_setting 'monoclinic'
loop_
_space_group_symop_operation_xyz
x,y,z
-x,y,-z
-x,-y,-z
x,-y,z
1/2+x,1/2+y,z
1/2-x,1/2+y,-z
1/2-x,1/2-y,-z
1/2+x,1/2-y,z
loop_
_atom_site_type_symbol
_atom_site_label
_atom_site_fract_x
_atom_site_fract_y
_atom_site_fract_z
Si Si1 0.361862 0.677250 0.374241
Si Si2 0.750775 0.321770 0.382853
Si Si3 0.441926 0.676599 0.628521
Si Si4 0.441154 0.177908 0.259069
Si Si5 0.370343 0.323244 0.787114
Si Si6 0.941640 0.322290 0.010746
O O1 0.351574 0.500000 0.358343
O O2 0.301992 0.759278 0.346160
O O3 0.400930 0.718213 0.502432
O O4 0.390020 0.738576 0.284232
O O5 0.755447 0.500000 0.399801
O O6 0.750000 0.250000 0.500000
O O7 0.693565 0.274844 0.282458
O O8 0.456486 0.500000 0.639297
O O9 0.499314 0.769401 0.650556
O O10 0.411465 0.729960 0.717838
O O11 0.435109 0.000000 0.269899
O O12 0.437472 0.228563 0.131973
O O13 0.375286 0.500000 0.806331
O O14 0.388323 0.244181 0.910370
O O15 0.939994 0.500000 0.997742
O O16 0.000000 0.257128 0.000000
#
# Coordination Sequence:
#
# PCOD8101282 Si02
#       6
#     8   8   8   8   8   8
#     4  11  23  40  59  85 120 157 196 238 291 347
#     4  11  22  39  61  88 119 153 194 240 287 342
#     4  10  20  36  57  85 120 153 187 236 290 347
#     4  11  23  38  57  86 120 154 195 240 291 348
#     4  10  21  37  59  88 117 147 192 239 284 340
#     4  10  21  38  58  84 117 151 192 241 288 340
#
# _framework density 18.592714000000001
#
# number of rings (size 3 to 8) (size 9 to 14) (size 15 to 20)
#    0.000    1.500    3.333    2.000    0.000    6.333 
#    0.000    0.833    0.000    0.000    0.000    0.000 
#    0.000    0.000    0.000    0.000    0.000    0.000 
#
# Total GULP energy -297740.906884 kJ/mol
# GULP energy per Si atom -12405.871120 kJ/mol
# Density = 1.855040 g / cm^3
# Si number density = 18.592714 Si / 1000 Ang^3
#
#
#
# Elastic Constant Matrix: (Units=GPa)
#
#
# Indices 1 2 3 4 5 6 
#
# 1 136.5999 36.1652 47.9463 0.0000 7.2715 0.0000
# 2 36.1652 48.2062 34.3675 0.0000 8.8486 0.0000
# 3 47.9463 34.3675 98.0743 0.0000 8.9827 0.0000
# 4 0.0000 0.0000 0.0000 33.7378 0.0000 1.0091
# 5 7.2715 8.8486 8.9827 0.0000 27.5831 0.0000
# 6 0.0000 0.0000 0.0000 1.0091 0.0000 35.9180
#
#
#
# Elastic Compliance Matrix: (Units=1/GPa)
#
#
# Indices 1 2 3 4 5 6 
#
# 1 0.009729 -0.005219 -0.002933 0.000000 0.000065 0.000000
# 2 -0.005219 0.031414 -0.007895 0.000000 -0.006131 0.000000
# 3 -0.002933 -0.007895 0.014527 0.000000 -0.001425 0.000000
# 4 0.000000 0.000000 0.000000 0.029665 0.000000 -0.000833
# 5 0.000065 -0.006131 -0.001425 0.000000 0.038668 0.000000
# 6 0.000000 0.000000 0.000000 -0.000833 0.000000 0.027865
#
#
# Mechanical properties :
#
#
# Convention : Reuss Voigt Hill
#
# Bulk Modulus (GPa) = 42.41805 57.75982 50.08894
# Shear Modulus (GPa) = 26.06607 30.40788 28.23698
#
# Velocity S-wave (km/s) = 3.74833 4.04849 3.90129
# Velocity P-wave (km/s) = 6.44958 7.27921 6.87692
#
# Compressibility (1/GPa) = 0.02357487
#
# Stress axis : x y z
#
# Youngs Moduli (GPa) = 102.79048 31.83313 68.83583
#
# Poissons Ratio (x) = 0.16615 0.20189
# Poissons Ratio (y) = 0.53651 0.54346
# Poissons Ratio (z) = 0.30148 0.25132
#
# Static dielectric constant tensor:
#      x y z
#    x 3.706290 0.000000 0.009730 
#    y 0.000000 3.434720 0.000000 
#    z 0.009730 0.000000 3.504790 
# 
# 
# High freq. dielectric constant tensor:
#      x y z
#    x 1.725740 0.000000 0.000040 
#    y 0.000000 1.723790 0.000000 
#    z 0.000040 0.000000 1.722060 
# 
# From -- ./inp_files/172438.got.cif
#   From: 2010.06.25/outbox.cif.g09.slc.cpg/sg12_87_cif.got.tgz:172438.got - 2010.06.28 00:19:55.
