data_PCOD8101701
_publ_section_title
;
Structure prediction by ZEFSAII (Michael W. Deem and Ramdas Pophale) SiO2 
 PCOD8101701
Probable space group: C 2/M
;
_chemical_formula_sum "Si O2"
_cell_formula_units_Z 40
_cell_length_a 18.059968
_cell_length_b 13.147570
_cell_length_c 15.121567
_cell_angle_alpha 90.000000
_cell_angle_beta 32.931847
_cell_angle_gamma 90.000000
_cell_volume 1951.962697
_symmetry_space_group_name_H-M "C 2/M"
_symmetry_group_IT_number 12
_symmetry_cell_setting 'monoclinic'
loop_
_space_group_symop_operation_xyz
x,y,z
-x,y,-z
-x,-y,-z
x,-y,z
1/2+x,1/2+y,z
1/2-x,1/2+y,-z
1/2-x,1/2-y,-z
1/2+x,1/2-y,z
loop_
_atom_site_type_symbol
_atom_site_label
_atom_site_fract_x
_atom_site_fract_y
_atom_site_fract_z
Si Si1 0.829332 0.500000 0.584468
Si Si2 0.379877 0.183773 0.850769
Si Si3 0.912486 0.615030 0.008958
Si Si4 0.669455 0.781308 0.494963
Si Si5 0.347554 0.615361 0.627396
Si Si6 0.646969 0.000000 0.242324
O O1 0.783388 0.395633 0.581384
O O2 0.774332 0.500000 0.741651
O O3 0.990055 0.500000 0.423071
O O4 0.506279 0.231747 0.670888
O O5 0.314816 0.095141 0.856633
O O6 0.250000 0.250000 0.000000
O O7 0.446535 0.155742 0.877967
O O8 0.963283 0.500000 0.955617
O O9 0.750114 0.623782 0.189120
O O10 0.000000 0.669715 0.000000
O O11 0.750000 0.750000 0.500000
O O12 0.711427 0.697496 0.381162
O O13 0.500000 0.645386 0.500000
O O14 0.341915 0.500000 0.594144
#
# Coordination Sequence:
#
# PCOD8101701 Si02
#       6
#     4   8   8   8   8   4
#     4   9  22  38  65  87 118 161 207 251 301 359
#     4  11  22  38  61  89 118 158 203 247 297 360
#     4  10  20  36  59  84 115 150 195 251 297 345
#     4  11  24  40  64  89 121 159 204 251 302 366
#     4  10  22  38  60  87 120 155 197 250 304 355
#     4   9  20  40  60  89 118 157 208 251 287 366
#
# _framework density 20.492194999999999
#
# number of rings (size 3 to 8) (size 9 to 14) (size 15 to 20)
#    0.000    1.800    1.000    2.400    9.800    0.000 
#    1.800    0.000    0.000    1.200    0.000    0.000 
#    0.000    0.000    0.000    0.000    0.000    0.000 
#
# Total GULP energy -247835.745809 kJ/mol
# GULP energy per Si atom -12391.787290 kJ/mol
# Density = 2.044555 g / cm^3
# Si number density = 20.492195 Si / 1000 Ang^3
#
#
#
# Elastic Constant Matrix: (Units=GPa)
#
#
# Indices 1 2 3 4 5 6 
#
# 1 113.4109 50.6756 15.1801 0.0000 23.4553 0.0000
# 2 50.6756 121.1482 20.8475 0.0000 17.6497 0.0000
# 3 15.1801 20.8475 59.0738 -0.0001 7.2607 0.0000
# 4 0.0000 0.0000 -0.0001 26.8915 0.0000 4.9831
# 5 23.4553 17.6497 7.2607 0.0000 37.2866 0.0000
# 6 0.0000 0.0000 0.0000 4.9831 0.0000 27.6767
#
#
#
# Elastic Compliance Matrix: (Units=1/GPa)
#
#
# Indices 1 2 3 4 5 6 
#
# 1 0.011848 -0.004007 -0.000971 0.000000 -0.005367 0.000000
# 2 -0.004007 0.010654 -0.002480 0.000000 -0.002040 0.000000
# 3 -0.000971 -0.002480 0.018270 0.000000 -0.001773 0.000000
# 4 0.000000 0.000000 0.000000 0.038470 0.000000 -0.006926
# 5 -0.005367 -0.002040 -0.001773 0.000000 0.031506 0.000000
# 6 0.000000 0.000000 0.000000 -0.006926 0.000000 0.037379
#
#
# Mechanical properties :
#
#
# Convention : Reuss Voigt Hill
#
# Bulk Modulus (GPa) = 38.67270 51.89326 45.28298
# Shear Modulus (GPa) = 29.12708 32.16627 30.64667
#
# Velocity S-wave (km/s) = 3.77420 3.96622 3.87140
# Velocity P-wave (km/s) = 6.15676 6.80830 6.49071
#
# Compressibility (1/GPa) = 0.02585804
#
# Stress axis : x y z
#
# Youngs Moduli (GPa) = 84.40328 93.85887 54.73310
#
# Poissons Ratio (x) = 0.37608 0.05313
# Poissons Ratio (y) = 0.33820 0.13572
# Poissons Ratio (z) = 0.08194 0.23273
#
# Static dielectric constant tensor:
#      x y z
#    x 4.750360 0.000000 0.344030 
#    y 0.000000 3.933970 0.000000 
#    z 0.344030 0.000000 3.787740 
# 
# 
# High freq. dielectric constant tensor:
#      x y z
#    x 1.799230 0.000000 0.017780 
#    y 0.000000 1.794900 0.000000 
#    z 0.017780 0.000000 1.798120 
# 
# From -- ./inp_files/225573.got.cif
#   From: 2010.06.25/outbox.cif.g09.slc.cpg/sg12_113_cif.got.tgz:225573.got - 2010.06.28 00:19:55.
