data_PCOD8101003
_publ_section_title
;
Structure prediction by ZEFSAII (Michael W. Deem and Ramdas Pophale) SiO2 
 PCOD8101003
Probable space group: C 2/M
;
_chemical_formula_sum "Si O2"
_cell_formula_units_Z 48
_cell_length_a 17.890228
_cell_length_b 23.786197
_cell_length_c 13.185536
_cell_angle_alpha 90.000000
_cell_angle_beta 26.321850
_cell_angle_gamma 90.000000
_cell_volume 2487.981428
_symmetry_space_group_name_H-M "C 2/M"
_symmetry_group_IT_number 12
_symmetry_cell_setting 'monoclinic'
loop_
_space_group_symop_operation_xyz
x,y,z
-x,y,-z
-x,-y,-z
x,-y,z
1/2+x,1/2+y,z
1/2-x,1/2+y,-z
1/2-x,1/2-y,-z
1/2+x,1/2-y,z
loop_
_atom_site_type_symbol
_atom_site_label
_atom_site_fract_x
_atom_site_fract_y
_atom_site_fract_z
Si Si1 0.708413 0.861908 0.603952
Si Si2 0.189262 0.148869 0.289998
Si Si3 0.969332 0.733055 0.918888
Si Si4 0.842802 0.565204 0.760025
Si Si5 0.475414 0.640649 0.910250
Si Si6 0.899587 0.435091 0.924764
O O1 0.782362 0.860098 0.626093
O O2 0.624785 0.801089 0.677741
O O3 0.564838 0.909005 0.775119
O O4 0.852547 0.880610 0.350383
O O5 0.000000 0.166435 0.500000
O O6 0.297915 0.199099 0.108849
O O7 0.233149 0.091634 0.177226
O O8 0.948561 0.795841 0.900635
O O9 0.000000 0.736960 0.000000
O O10 0.796145 0.500000 0.797532
O O11 0.899742 0.576240 0.805002
O O12 0.000000 0.584142 0.500000
O O13 0.680285 0.602222 0.932075
O O14 0.500000 0.637846 0.000000
O O15 0.897406 0.500000 0.954028
#
# Coordination Sequence:
#
# PCOD8101003 Si02
#       6
#     8   8   8   8   8   8
#     4  10  20  36  56  80 113 143 175 223 271 313
#     4  10  20  36  56  82 114 142 174 221 272 315
#     4   8  18  35  54  79 111 144 175 216 267 318
#     4  10  22  39  55  77 111 143 177 226 273 312
#     4  11  21  35  58  83 106 141 187 222 262 324
#     4  10  21  38  58  79 107 145 183 218 265 323
#
# _framework density 19.292749000000001
#
# number of rings (size 3 to 8) (size 9 to 14) (size 15 to 20)
#    0.000    2.167    0.000    4.000    0.000    3.333 
#    0.000    9.167    0.000    0.000    0.000    0.000 
#    0.000    0.000    0.000    0.000    0.000    0.000 
#
# Total GULP energy -297605.306276 kJ/mol
# GULP energy per Si atom -12400.221095 kJ/mol
# Density = 1.924884 g / cm^3
# Si number density = 19.292749 Si / 1000 Ang^3
#
#
#
# Elastic Constant Matrix: (Units=GPa)
#
#
# Indices 1 2 3 4 5 6 
#
# 1 69.7056 25.7958 27.3341 0.0483 -13.3145 0.0144
# 2 25.7958 98.5944 32.5290 0.0418 -17.3706 0.0567
# 3 27.3341 32.5290 125.0221 0.1196 -12.3291 0.0406
# 4 0.0483 0.0418 0.1196 26.7039 -0.0019 -0.7689
# 5 -13.3145 -17.3706 -12.3291 -0.0019 37.0160 -0.0218
# 6 0.0144 0.0567 0.0406 -0.7689 -0.0218 27.0767
#
#
#
# Elastic Compliance Matrix: (Units=1/GPa)
#
#
# Indices 1 2 3 4 5 6 
#
# 1 0.017212 -0.002949 -0.002607 -0.000014 0.003939 0.000004
# 2 -0.002949 0.012336 -0.002170 -0.000004 0.004005 -0.000018
# 3 -0.002607 -0.002170 0.009244 -0.000033 0.001123 -0.000008
# 4 -0.000014 -0.000004 -0.000033 0.037479 -0.000016 0.001064
# 5 0.003939 0.004005 0.001123 -0.000016 0.030686 0.000012
# 6 0.000004 -0.000018 -0.000008 0.001064 0.000012 0.036962
#
#
# Mechanical properties :
#
#
# Convention : Reuss Voigt Hill
#
# Bulk Modulus (GPa) = 42.84635 51.62666 47.23651
# Shear Modulus (GPa) = 29.91306 32.00352 30.95829
#
# Velocity S-wave (km/s) = 3.94189 4.07730 4.01017
# Velocity P-wave (km/s) = 6.55551 6.99882 6.78079
#
# Compressibility (1/GPa) = 0.02333921
#
# Stress axis : x y z
#
# Youngs Moduli (GPa) = 58.09814 81.06542 108.17858
#
# Poissons Ratio (x) = 0.23907 0.28207
# Poissons Ratio (y) = 0.17134 0.23473
# Poissons Ratio (z) = 0.15149 0.17590
#
# Static dielectric constant tensor:
#      x y z
#    x 3.571120 0.000080 0.026370 
#    y 0.000080 3.727010 0.000280 
#    z 0.026370 0.000280 3.606210 
# 
# 
# High freq. dielectric constant tensor:
#      x y z
#    x 1.745410 -0.000010 0.003400 
#    y -0.000010 1.751840 0.000030 
#    z 0.003400 0.000030 1.760660 
# 
# From -- ./inp_files/50585.got.cif
#   From: 2010.06.25/outbox.cif.g09.slc.cpg/sg12_26_cif.got.tgz:50585.got - 2010.06.28 00:19:55.
