data_PCOD8101830
_publ_section_title
;
Structure prediction by ZEFSAII (Michael W. Deem and Ramdas Pophale) SiO2 
 PCOD8101830
Probable space group: C 2/M
;
_chemical_formula_sum "Si O2"
_cell_formula_units_Z 48
_cell_length_a 8.364445
_cell_length_b 20.843445
_cell_length_c 12.012420
_cell_angle_alpha 90.000000
_cell_angle_beta 98.982615
_cell_angle_gamma 90.000000
_cell_volume 2068.606651
_symmetry_space_group_name_H-M "C 2/M"
_symmetry_group_IT_number 12
_symmetry_cell_setting 'monoclinic'
loop_
_space_group_symop_operation_xyz
x,y,z
-x,y,-z
-x,-y,-z
x,-y,z
1/2+x,1/2+y,z
1/2-x,1/2+y,-z
1/2-x,1/2-y,-z
1/2+x,1/2-y,z
loop_
_atom_site_type_symbol
_atom_site_label
_atom_site_fract_x
_atom_site_fract_y
_atom_site_fract_z
Si Si1 0.786161 0.701058 0.408411
Si Si2 0.137425 0.928818 0.423631
Si Si3 0.484033 0.767740 0.740737
Si Si4 0.588530 0.571924 0.161716
Si Si5 0.376606 0.313043 0.070735
Si Si6 0.100312 0.632922 0.912756
O O1 0.750000 0.750000 0.500000
O O2 0.767378 0.628349 0.450302
O O3 0.670529 0.720959 0.290416
O O4 0.965990 0.709934 0.378867
O O5 0.066941 0.924148 0.292304
O O6 0.000000 0.916006 0.500000
O O7 0.214751 0.000000 0.451524
O O8 0.624650 0.723628 0.811677
O O9 0.470967 0.832148 0.815460
O O10 0.558606 0.500000 0.116993
O O11 0.446591 0.614409 0.093318
O O12 0.772887 0.591182 0.145160
O O13 0.500000 0.276944 0.000000
O O14 0.201307 0.313415 0.993565
O O15 0.000000 0.594867 0.000000
#
# Coordination Sequence:
#
# PCOD8101830 Si02
#       6
#     8   8   8   8   8   8
#     4  12  24  38  63  96 126 155 202 260 316 369
#     4  10  20  40  66  90 116 157 209 257 305 360
#     4  12  21  39  56  88 125 162 200 249 309 365
#     4  10  21  40  64  89 119 159 211 258 300 357
#     4  10  20  36  59  87 117 161 213 251 293 351
#     4  11  22  36  57  88 126 165 197 248 310 372
#
# _framework density 23.204025999999999
#
# number of rings (size 3 to 8) (size 9 to 14) (size 15 to 20)
#    0.000    1.167    3.333    4.500    0.000    3.333 
#    0.000    0.000    0.000    3.000    0.000    0.000 
#    0.000    0.000    0.000    0.000    0.000    0.000 
#
# Total GULP energy -297336.978577 kJ/mol
# GULP energy per Si atom -12389.040774 kJ/mol
# Density = 2.315121 g / cm^3
# Si number density = 23.204026 Si / 1000 Ang^3
#
#
#
# Elastic Constant Matrix: (Units=GPa)
#
#
# Indices 1 2 3 4 5 6 
#
# 1 63.4081 15.3190 16.3024 0.0000 -21.6993 0.0000
# 2 15.3190 128.6918 15.4364 0.0000 -14.3251 0.0000
# 3 16.3024 15.4364 84.2659 0.0000 -33.6209 0.0000
# 4 0.0000 0.0000 0.0000 29.2141 0.0000 -1.3225
# 5 -21.6993 -14.3251 -33.6209 0.0000 47.8044 0.0000
# 6 0.0000 0.0000 0.0000 -1.3225 0.0000 22.2395
#
#
#
# Elastic Compliance Matrix: (Units=1/GPa)
#
#
# Indices 1 2 3 4 5 6 
#
# 1 0.018894 -0.001330 -0.000207 0.000000 0.008032 0.000000
# 2 -0.001330 0.008163 -0.000699 0.000000 0.001351 0.000000
# 3 -0.000207 -0.000699 0.016562 0.000000 0.011344 0.000000
# 4 0.000000 0.000000 0.000000 0.034322 0.000000 0.002041
# 5 0.008032 0.001351 0.011344 0.000000 0.032948 0.000000
# 6 0.000000 0.000000 0.000000 0.002041 0.000000 0.045087
#
#
# Mechanical properties :
#
#
# Convention : Reuss Voigt Hill
#
# Bulk Modulus (GPa) = 25.54520 41.16462 33.35491
# Shear Modulus (GPa) = 28.81900 35.13881 31.97891
#
# Velocity S-wave (km/s) = 3.52800 3.89568 3.71639
# Velocity P-wave (km/s) = 5.25629 6.16554 5.72898
#
# Compressibility (1/GPa) = 0.03914630
#
# Stress axis : x y z
#
# Youngs Moduli (GPa) = 52.92637 122.50333 60.38095
#
# Poissons Ratio (x) = 0.16295 0.01249
# Poissons Ratio (y) = 0.07040 0.04221
# Poissons Ratio (z) = 0.01095 0.08565
#
# Static dielectric constant tensor:
#      x y z
#    x 4.022750 0.000000 -0.161200 
#    y 0.000000 4.243610 0.000000 
#    z -0.161200 0.000000 4.463110 
# 
# 
# High freq. dielectric constant tensor:
#      x y z
#    x 1.894600 0.000000 -0.023440 
#    y 0.000000 1.905870 0.000000 
#    z -0.023440 0.000000 1.942410 
# 
# From -- ./inp_files/122020.got.cif
#   From: 2010.06.25/outbox.cif.g09.slc.cpg/sg12_62_cif.got.tgz:122020.got - 2010.06.28 00:19:55.
