data_PCOD8101192
_publ_section_title
;
Structure prediction by ZEFSAII (Michael W. Deem and Ramdas Pophale) SiO2 
 PCOD8101192
Probable space group: C 2/M
;
_chemical_formula_sum "Si O2"
_cell_formula_units_Z 48
_cell_length_a 20.671349
_cell_length_b 8.835665
_cell_length_c 14.027432
_cell_angle_alpha 90.000000
_cell_angle_beta 90.288390
_cell_angle_gamma 90.000000
_cell_volume 2562.009475
_symmetry_space_group_name_H-M "C 2/M"
_symmetry_group_IT_number 12
_symmetry_cell_setting 'monoclinic'
loop_
_space_group_symop_operation_xyz
x,y,z
-x,y,-z
-x,-y,-z
x,-y,z
1/2+x,1/2+y,z
1/2-x,1/2+y,-z
1/2-x,1/2-y,-z
1/2+x,1/2-y,z
loop_
_atom_site_type_symbol
_atom_site_label
_atom_site_fract_x
_atom_site_fract_y
_atom_site_fract_z
Si Si1 0.498914 0.679724 0.393646
Si Si2 0.752066 0.320366 0.604351
Si Si3 0.073637 0.322543 0.109990
Si Si4 0.574109 0.823358 0.893853
Si Si5 0.873968 0.179012 0.283865
Si Si6 0.627930 0.678557 0.288309
O O1 0.500000 0.747089 0.500000
O O2 0.494946 0.500000 0.396682
O O3 0.436106 0.745513 0.339959
O O4 0.563127 0.733164 0.340612
O O5 0.752733 0.500000 0.594296
O O6 0.750000 0.250000 0.500000
O O7 0.689822 0.263116 0.662870
O O8 0.813956 0.265449 0.662087
O O9 0.080838 0.500000 0.131505
O O10 0.121373 0.227776 0.178181
O O11 0.999573 0.269484 0.125322
O O12 0.094579 0.285426 0.002082
O O13 0.623817 0.738753 0.824383
O O14 0.579312 0.000000 0.874613
O O15 0.875319 0.000000 0.280867
O O16 0.639499 0.500000 0.296376
#
# Coordination Sequence:
#
# PCOD8101192 Si02
#       6
#     8   8   8   8   8   8
#     4   9  17  31  52  78 107 138 178 228 278 328
#     4  11  24  41  60  81 113 154 191 231 281 338
#     4   9  18  34  55  83 118 151 182 224 285 340
#     4   9  18  33  56  84 116 150 182 228 284 337
#     4  10  20  36  57  82 111 147 188 233 282 331
#     4  11  21  35  58  85 113 148 188 233 282 333
#
# _framework density 18.735292999999999
#
# number of rings (size 3 to 8) (size 9 to 14) (size 15 to 20)
#    0.000    2.167    1.667    3.000    0.000    4.667 
#    0.000    2.500    0.000    2.500    0.000    0.000 
#    0.000    0.000    0.000    0.000    0.000    0.000 
#
# Total GULP energy -297628.961621 kJ/mol
# GULP energy per Si atom -12401.206734 kJ/mol
# Density = 1.869265 g / cm^3
# Si number density = 18.735293 Si / 1000 Ang^3
#
#
#
# Elastic Constant Matrix: (Units=GPa)
#
#
# Indices 1 2 3 4 5 6 
#
# 1 132.3383 35.8532 72.7688 0.0000 -3.6809 0.0000
# 2 35.8532 40.4506 36.9429 0.0000 -4.2040 0.0000
# 3 72.7688 36.9429 153.9591 0.0000 -6.2201 0.0000
# 4 0.0000 0.0000 0.0000 34.8142 0.0000 1.7024
# 5 -3.6809 -4.2040 -6.2201 0.0000 35.6229 0.0000
# 6 0.0000 0.0000 0.0000 1.7024 0.0000 26.4669
#
#
#
# Elastic Compliance Matrix: (Units=1/GPa)
#
#
# Indices 1 2 3 4 5 6 
#
# 1 0.011466 -0.006700 -0.003823 0.000000 -0.000273 0.000000
# 2 -0.006700 0.035784 -0.005315 0.000000 0.002603 0.000000
# 3 -0.003823 -0.005315 0.009604 0.000000 0.000655 0.000000
# 4 0.000000 0.000000 0.000000 0.028815 0.000000 -0.001853
# 5 -0.000273 0.002603 0.000655 0.000000 0.028465 0.000000
# 6 0.000000 0.000000 0.000000 -0.001853 0.000000 0.037902
#
#
# Mechanical properties :
#
#
# Convention : Reuss Voigt Hill
#
# Bulk Modulus (GPa) = 39.71518 68.65308 54.18413
# Shear Modulus (GPa) = 26.02762 31.45968 28.74365
#
# Velocity S-wave (km/s) = 3.73128 4.10221 3.92113
# Velocity P-wave (km/s) = 6.30931 7.69160 7.03449
#
# Compressibility (1/GPa) = 0.02517929
#
# Stress axis : x y z
#
# Youngs Moduli (GPa) = 87.21476 27.94524 104.12563
#
# Poissons Ratio (x) = 0.18723 0.39805
# Poissons Ratio (y) = 0.58433 0.55339
# Poissons Ratio (z) = 0.33340 0.14852
#
# Static dielectric constant tensor:
#      x y z
#    x 3.511330 0.000000 0.092900 
#    y 0.000000 3.173100 0.000000 
#    z 0.092900 0.000000 3.927520 
# 
# 
# High freq. dielectric constant tensor:
#      x y z
#    x 1.715550 0.000000 0.000020 
#    y 0.000000 1.709530 0.000000 
#    z 0.000020 0.000000 1.744570 
# 
# From -- ./inp_files/229289.got.cif
#   From: 2010.06.25/outbox.cif.g09.slc.cpg/sg12_115_cif.got.tgz:229289.got - 2010.06.28 00:19:55.
