data_PCOD8101484
_publ_section_title
;
Structure prediction by ZEFSAII (Michael W. Deem and Ramdas Pophale) SiO2 
 PCOD8101484
Probable space group: C 2/M
;
_chemical_formula_sum "Si O2"
_cell_formula_units_Z 64
_cell_length_a 27.731895
_cell_length_b 9.146253
_cell_length_c 14.862136
_cell_angle_alpha 90.000000
_cell_angle_beta 125.042950
_cell_angle_gamma 90.000000
_cell_volume 3086.315856
_symmetry_space_group_name_H-M "C 2/M"
_symmetry_group_IT_number 12
_symmetry_cell_setting 'monoclinic'
loop_
_space_group_symop_operation_xyz
x,y,z
-x,y,-z
-x,-y,-z
x,-y,z
1/2+x,1/2+y,z
1/2-x,1/2+y,-z
1/2-x,1/2-y,-z
1/2+x,1/2-y,z
loop_
_atom_site_type_symbol
_atom_site_label
_atom_site_fract_x
_atom_site_fract_y
_atom_site_fract_z
Si Si1 0.346599 0.171003 0.892530
Si Si2 0.678278 0.665773 0.506028
Si Si3 0.763892 0.172670 0.107500
Si Si4 0.964545 0.171233 0.049212
Si Si5 0.997327 0.833859 0.281485
Si Si6 0.584225 0.826938 0.505200
Si Si7 0.393841 0.332646 0.297933
Si Si8 0.816583 0.334612 0.661780
O O1 0.285735 0.219992 0.873982
O O2 0.344872 0.212697 0.785815
O O3 0.356239 0.000000 0.917003
O O4 0.401509 0.253782 0.993691
O O5 0.655623 0.500000 0.490508
O O6 0.648846 0.767314 0.549507
O O7 0.746893 0.677497 0.596684
O O8 0.659633 0.723944 0.387654
O O9 0.827623 0.225894 0.211284
O O10 0.764794 0.000000 0.092271
O O11 0.750000 0.250000 0.000000
O O12 0.000415 0.206722 0.179004
O O13 0.953237 0.000000 0.026471
O O14 0.000000 0.231984 0.000000
O O15 0.930189 0.817209 0.244245
O O16 0.038971 0.726254 0.381154
O O17 0.019136 0.000000 0.319980
O O18 0.571173 0.762944 0.590204
O O19 0.582793 0.000000 0.508145
O O20 0.392278 0.500000 0.330059
O O21 0.834210 0.500000 0.653756
#
# Coordination Sequence:
#
# PCOD8101484 Si02
#       8
#     8   8   8   8   8   8   8   8
#     4  10  21  37  59  87 121 155 191 238 300 360
#     4  10  20  36  58  83 117 158 197 239 292 355
#     4  10  21  38  62  92 125 161 199 245 300 359
#     4  10  23  42  63  89 119 154 205 256 296 354
#     4  10  22  41  63  86 117 158 204 253 306 363
#     4  12  25  38  58  88 122 157 201 254 303 357
#     4  10  21  40  64  88 120 163 206 247 301 367
#     4   9  19  36  57  84 117 152 194 244 295 351
#
# _framework density 20.736696999999999
#
# number of rings (size 3 to 8) (size 9 to 14) (size 15 to 20)
#    0.000    1.875    0.000    3.375    1.750    7.750 
#    0.000    1.250    0.000    0.000    0.000    0.000 
#    0.000    0.000    0.000    0.000    0.000    0.000 
#
# Total GULP energy -396885.057214 kJ/mol
# GULP energy per Si atom -12402.658038 kJ/mol
# Density = 2.068950 g / cm^3
# Si number density = 20.736697 Si / 1000 Ang^3
#
#
#
# Elastic Constant Matrix: (Units=GPa)
#
#
# Indices 1 2 3 4 5 6 
#
# 1 76.7759 27.2379 28.7106 0.0000 -10.2840 0.0000
# 2 27.2379 86.8717 48.1568 0.0000 -7.0994 0.0000
# 3 28.7106 48.1568 113.3993 0.0000 -9.7442 0.0000
# 4 0.0000 0.0000 0.0000 35.6674 0.0000 0.7173
# 5 -10.2840 -7.0994 -9.7442 0.0000 29.2172 0.0000
# 6 0.0000 0.0000 0.0000 0.7173 0.0000 28.3296
#
#
#
# Elastic Compliance Matrix: (Units=1/GPa)
#
#
# Indices 1 2 3 4 5 6 
#
# 1 0.015554 -0.003348 -0.002178 0.000000 0.003935 0.000000
# 2 -0.003348 0.015846 -0.005819 0.000000 0.000731 0.000000
# 3 -0.002178 -0.005819 0.011997 0.000000 0.001821 0.000000
# 4 0.000000 0.000000 0.000000 0.028051 0.000000 -0.000710
# 5 0.003935 0.000731 0.001821 0.000000 0.036396 0.000000
# 6 0.000000 0.000000 0.000000 -0.000710 0.000000 0.035317
#
#
# Mechanical properties :
#
#
# Convention : Reuss Voigt Hill
#
# Bulk Modulus (GPa) = 48.29040 53.91749 51.10394
# Shear Modulus (GPa) = 28.94272 30.17229 29.55751
#
# Velocity S-wave (km/s) = 3.73999 3.81861 3.77951
# Velocity P-wave (km/s) = 6.47982 6.74536 6.61392
#
# Compressibility (1/GPa) = 0.02070805
#
# Stress axis : x y z
#
# Youngs Moduli (GPa) = 64.29106 63.10579 83.35109
#
# Poissons Ratio (x) = 0.21127 0.18156
# Poissons Ratio (y) = 0.21524 0.48502
# Poissons Ratio (z) = 0.14004 0.36721
#
# Static dielectric constant tensor:
#      x y z
#    x 3.969290 0.000000 -0.141430 
#    y 0.000000 3.640680 0.000000 
#    z -0.141430 0.000000 3.715640 
# 
# 
# High freq. dielectric constant tensor:
#      x y z
#    x 1.822600 0.000000 -0.005210 
#    y 0.000000 1.797470 0.000000 
#    z -0.005210 0.000000 1.815510 
# 
# From -- ./inp_files/249905.got.cif
#   From: 2010.06.25/outbox.cif.g09.slc.cpg/sg12_125_cif.got.tgz:249905.got - 2010.06.28 00:19:55.
