data_PCOD8101135
_publ_section_title
;
Structure prediction by ZEFSAII (Michael W. Deem and Ramdas Pophale) SiO2 
 PCOD8101135
Probable space group: C 2/M
;
_chemical_formula_sum "Si O2"
_cell_formula_units_Z 64
_cell_length_a 12.902647
_cell_length_b 13.506386
_cell_length_c 28.515933
_cell_angle_alpha 90.000000
_cell_angle_beta 138.665702
_cell_angle_gamma 90.000000
_cell_volume 3282.058636
_symmetry_space_group_name_H-M "C 2/M"
_symmetry_group_IT_number 12
_symmetry_cell_setting 'monoclinic'
loop_
_space_group_symop_operation_xyz
x,y,z
-x,y,-z
-x,-y,-z
x,-y,z
1/2+x,1/2+y,z
1/2-x,1/2+y,-z
1/2-x,1/2-y,-z
1/2+x,1/2-y,z
loop_
_atom_site_type_symbol
_atom_site_label
_atom_site_fract_x
_atom_site_fract_y
_atom_site_fract_z
Si Si1 0.007354 0.189781 0.805365
Si Si2 0.603927 0.388912 0.138910
Si Si3 0.205655 0.887108 0.345256
Si Si4 0.673770 0.882001 0.046702
Si Si5 0.293908 0.383880 0.989310
Si Si6 0.373389 0.112119 0.160405
Si Si7 0.512993 0.767887 0.450198
Si Si8 0.174652 0.115377 0.441073
O O1 0.906923 0.177307 0.818604
O O2 0.935782 0.126475 0.739041
O O3 0.190431 0.158179 0.872476
O O4 0.989921 0.307119 0.786746
O O5 0.562124 0.500000 0.141445
O O6 0.477872 0.357541 0.056373
O O7 0.774148 0.384182 0.174250
O O8 0.349559 0.817071 0.379105
O O9 0.139319 0.862595 0.374440
O O10 0.265971 0.000000 0.364510
O O11 0.704626 0.840047 0.004640
O O12 0.682329 0.000000 0.051110
O O13 0.500000 0.843520 0.000000
O O14 0.265886 0.500000 0.977913
O O15 0.226162 0.343643 0.917457
O O16 0.437130 0.000000 0.173919
O O17 0.500000 0.734708 0.500000
O O18 0.649131 0.848572 0.488101
O O19 0.547212 0.672389 0.429641
O O20 0.161686 0.000000 0.449031
#
# Coordination Sequence:
#
# PCOD8101135 Si02
#       8
#     8   8   8   8   8   8   8   8
#     4  11  22  34  53  77 104 138 183 225 267 321
#     4   9  18  34  54  74  97 129 172 221 271 326
#     4  10  20  36  57  80 109 145 183 221 262 312
#     4   9  18  32  50  75 106 135 171 227 286 330
#     4   8  15  30  50  70  93 125 168 218 272 329
#     4  10  21  35  51  72 100 134 173 221 274 325
#     4   9  18  34  58  86 115 148 183 215 253 305
#     4   9  18  34  58  89 120 146 177 217 257 303
#
# _framework density 19.499955
#
# number of rings (size 3 to 8) (size 9 to 14) (size 15 to 20)
#    0.000    2.625    0.000    2.625    0.000    8.250 
#    0.000    0.625    0.000    7.500    0.000    0.000 
#    0.000    0.000    0.000    0.000    0.000    0.000 
#
# Total GULP energy -396680.234096 kJ/mol
# GULP energy per Si atom -12396.257316 kJ/mol
# Density = 1.945557 g / cm^3
# Si number density = 19.499955 Si / 1000 Ang^3
#
#
#
# Elastic Constant Matrix: (Units=GPa)
#
#
# Indices 1 2 3 4 5 6 
#
# 1 99.9786 55.3338 37.0524 0.0000 -0.7713 0.0000
# 2 55.3338 99.0627 29.1841 0.0000 -0.2886 0.0000
# 3 37.0524 29.1841 80.4946 0.0000 -2.7977 0.0000
# 4 0.0000 0.0000 0.0000 22.4741 0.0000 -0.7604
# 5 -0.7713 -0.2886 -2.7977 0.0000 16.5973 0.0000
# 6 0.0000 0.0000 0.0000 -0.7604 0.0000 34.0720
#
#
#
# Elastic Compliance Matrix: (Units=1/GPa)
#
#
# Indices 1 2 3 4 5 6 
#
# 1 0.015853 -0.007506 -0.004582 0.000000 -0.000166 0.000000
# 2 -0.007506 0.014860 -0.001947 0.000000 -0.000419 0.000000
# 3 -0.004582 -0.001947 0.015319 0.000000 0.002335 0.000000
# 4 0.000000 0.000000 0.000000 0.044529 0.000000 0.000994
# 5 -0.000166 -0.000419 0.002335 0.000000 0.060629 0.000000
# 6 0.000000 0.000000 0.000000 0.000994 0.000000 0.029372
#
#
# Mechanical properties :
#
#
# Convention : Reuss Voigt Hill
#
# Bulk Modulus (GPa) = 55.67090 58.07515 56.87303
# Shear Modulus (GPa) = 23.29709 25.15972 24.22840
#
# Velocity S-wave (km/s) = 3.46023 3.59589 3.52871
# Velocity P-wave (km/s) = 6.67649 6.86203 6.76989
#
# Compressibility (1/GPa) = 0.01796270
#
# Stress axis : x y z
#
# Youngs Moduli (GPa) = 63.07958 67.29694 65.27706
#
# Poissons Ratio (x) = 0.50511 0.29908
# Poissons Ratio (y) = 0.47346 0.12710
# Poissons Ratio (z) = 0.28902 0.13103
#
# Static dielectric constant tensor:
#      x y z
#    x 3.560280 0.000000 -0.127720 
#    y 0.000000 3.629000 0.000000 
#    z -0.127720 0.000000 3.289370 
# 
# 
# High freq. dielectric constant tensor:
#      x y z
#    x 1.755660 0.000000 -0.011560 
#    y 0.000000 1.770600 0.000000 
#    z -0.011560 0.000000 1.726380 
# 
# From -- ./inp_files/358465.got.cif
#   From: 2010.06.25/outbox.cif.g09.slc.cpg/sg12_180_cif.got.tgz:358465.got - 2010.06.28 00:19:55.
