data_PCOD8101301
_publ_section_title
;
Structure prediction by ZEFSAII (Michael W. Deem and Ramdas Pophale) SiO2 
 PCOD8101301
Probable space group: C 2/M
;
_chemical_formula_sum "Si O2"
_cell_formula_units_Z 44
_cell_length_a 8.784585
_cell_length_b 16.745153
_cell_length_c 20.104548
_cell_angle_alpha 90.000000
_cell_angle_beta 48.680050
_cell_angle_gamma 90.000000
_cell_volume 2221.081236
_symmetry_space_group_name_H-M "C 2/M"
_symmetry_group_IT_number 12
_symmetry_cell_setting 'monoclinic'
loop_
_space_group_symop_operation_xyz
x,y,z
-x,y,-z
-x,-y,-z
x,-y,z
1/2+x,1/2+y,z
1/2-x,1/2+y,-z
1/2-x,1/2-y,-z
1/2+x,1/2-y,z
loop_
_atom_site_type_symbol
_atom_site_label
_atom_site_fract_x
_atom_site_fract_y
_atom_site_fract_z
Si Si1 0.515662 0.255102 0.699505
Si Si2 0.609488 0.000000 0.258149
Si Si3 0.635910 0.500000 0.396195
Si Si4 0.081570 0.830338 0.402354
Si Si5 0.351632 0.348262 0.216545
Si Si6 0.257469 0.500000 0.064961
Si Si7 0.347161 0.662850 0.984671
O O1 0.679812 0.187869 0.667545
O O2 0.545901 0.279051 0.613382
O O3 0.553907 0.328083 0.738783
O O4 0.287338 0.222512 0.774545
O O5 0.710203 0.075265 0.265117
O O6 0.647104 0.000000 0.167899
O O7 0.373869 0.000000 0.344363
O O8 0.500000 0.500000 0.500000
O O9 0.571437 0.420228 0.376337
O O10 0.000000 0.817258 0.500000
O O11 0.536806 0.365299 0.114447
O O12 0.500000 0.500000 0.000000
O O13 0.200414 0.585442 0.044753
O O14 0.500000 0.677575 0.000000
O O15 0.250000 0.750000 0.000000
#
# Coordination Sequence:
#
# PCOD8101301 Si02
#       7
#     8   4   4   8   8   4   8
#     4  10  22  35  57  89 115 152 204 240 304 361
#     4  12  20  39  63  82 122 162 200 254 297 373
#     4  10  22  37  61  86 116 155 199 243 312 357
#     4  10  20  38  59  82 118 153 196 248 302 360
#     4  11  21  36  58  86 118 157 199 246 300 356
#     4  10  20  36  57  89 115 165 207 237 308 367
#     4  11  21  37  59  87 120 159 204 252 297 360
#
# _framework density 19.810171
#
# number of rings (size 3 to 8) (size 9 to 14) (size 15 to 20)
#    0.000    1.455    5.455    1.636    0.000    0.727 
#    0.000    0.455    0.000    3.273    0.000    0.000 
#    0.000    0.000    0.000    0.000    0.000    0.000 
#
# Total GULP energy -272547.451915 kJ/mol
# GULP energy per Si atom -12388.520542 kJ/mol
# Density = 1.976508 g / cm^3
# Si number density = 19.810171 Si / 1000 Ang^3
#
#
#
# Elastic Constant Matrix: (Units=GPa)
#
#
# Indices 1 2 3 4 5 6 
#
# 1 72.0415 32.9479 34.1467 0.0016 12.6440 0.0045
# 2 32.9479 138.7341 24.1159 0.0007 10.0065 0.0017
# 3 34.1467 24.1159 96.6301 0.0008 8.4587 0.0044
# 4 0.0016 0.0007 0.0008 26.8564 -0.0010 -6.8387
# 5 12.6440 10.0065 8.4587 -0.0010 30.1851 -0.0032
# 6 0.0045 0.0017 0.0044 -6.8387 -0.0032 -36.0504
#
#
#
# Elastic Compliance Matrix: (Units=1/GPa)
#
#
# Indices 1 2 3 4 5 6 
#
# 1 0.018812 -0.003146 -0.005397 -0.000001 -0.005325 0.000002
# 2 -0.003146 0.008183 -0.000829 0.000000 -0.001163 0.000000
# 3 -0.005397 -0.000829 0.012548 0.000000 -0.000981 0.000001
# 4 -0.000001 0.000000 0.000000 0.035519 0.000001 -0.006738
# 5 -0.005325 -0.001163 -0.000981 0.000001 0.036020 -0.000004
# 6 0.000002 0.000000 0.000001 -0.006738 -0.000004 -0.026461
#
#
# Mechanical properties :
#
#
# Convention : Reuss Voigt Hill
#
# Bulk Modulus (GPa) = 48.07318 54.42517 51.24918
# Shear Modulus (GPa) = 45.33193 18.61124 31.97158
#
# Velocity S-wave (km/s) = 4.78882 3.06842 4.02169
# Velocity P-wave (km/s) = 7.40923 6.33140 6.89142
#
# Compressibility (1/GPa) = 0.02080162
#
# Stress axis : x y z
#
# Youngs Moduli (GPa) = 53.15776 122.20435 79.69084
#
# Poissons Ratio (x) = 0.38439 0.43005
# Poissons Ratio (y) = 0.16721 0.06606
# Poissons Ratio (z) = 0.28687 0.10129
#
# Static dielectric constant tensor:
#      x y z
#    x 3.345710 0.000000 -0.037020 
#    y 0.000000 4.366240 0.000000 
#    z -0.037020 0.000000 3.539170 
# 
# 
# High freq. dielectric constant tensor:
#      x y z
#    x 1.744430 0.000000 -0.000480 
#    y 0.000000 1.791490 0.000000 
#    z -0.000480 0.000000 1.772910 
# 
# From -- ./inp_files/195468.got.cif
#   From: 2010.06.25/outbox.cif.g09.slc.cpg/sg12_98_cif.got.tgz:195468.got - 2010.06.28 00:19:55.
