data_PCOD8101112
_publ_section_title
;
Structure prediction by ZEFSAII (Michael W. Deem and Ramdas Pophale) SiO2 
 PCOD8101112
Probable space group: C 2/M
;
_chemical_formula_sum "Si O2"
_cell_formula_units_Z 48
_cell_length_a 19.655631
_cell_length_b 9.125650
_cell_length_c 30.685873
_cell_angle_alpha 90.000000
_cell_angle_beta 152.170355
_cell_angle_gamma 90.000000
_cell_volume 2569.575055
_symmetry_space_group_name_H-M "C 2/M"
_symmetry_group_IT_number 12
_symmetry_cell_setting 'monoclinic'
loop_
_space_group_symop_operation_xyz
x,y,z
-x,y,-z
-x,-y,-z
x,-y,z
1/2+x,1/2+y,z
1/2-x,1/2+y,-z
1/2-x,1/2-y,-z
1/2+x,1/2-y,z
loop_
_atom_site_type_symbol
_atom_site_label
_atom_site_fract_x
_atom_site_fract_y
_atom_site_fract_z
Si Si1 0.027129 0.170999 0.888607
Si Si2 0.476151 0.671971 0.533936
Si Si3 0.730885 0.328267 0.740242
Si Si4 0.600543 0.669770 0.758105
Si Si5 0.769448 0.830868 0.075521
Si Si6 0.195426 0.671866 0.426175
O O1 0.096089 0.205611 0.880379
O O2 0.870798 0.245175 0.801823
O O3 0.008617 0.000000 0.886368
O O4 0.129764 0.234328 0.984638
O O5 0.500000 0.744618 0.500000
O O6 0.502188 0.500000 0.545980
O O7 0.592178 0.733198 0.634703
O O8 0.312045 0.708581 0.454827
O O9 0.755518 0.500000 0.746775
O O10 0.703965 0.293315 0.775831
O O11 0.552193 0.500000 0.729569
O O12 0.687886 0.708729 0.851162
O O13 0.458056 0.768710 0.676764
O O14 0.724156 0.000000 0.045236
O O15 0.184430 0.500000 0.429289
O O16 0.250000 0.750000 0.500000
#
# Coordination Sequence:
#
# PCOD8101112 Si02
#       6
#     8   8   8   8   8   8
#     4  10  21  37  57  83 113 140 179 230 276 326
#     4   9  19  35  54  80 111 145 186 224 263 321
#     4  10  20  36  57  79 110 148 183 222 272 328
#     4  10  21  38  58  82 110 144 188 227 269 327
#     4   9  20  39  60  80 108 146 183 223 275 333
#     4  11  21  36  58  82 112 148 185 226 272 321
#
# _framework density 18.680132
#
# number of rings (size 3 to 8) (size 9 to 14) (size 15 to 20)
#    0.000    2.167    1.667    1.000    2.333    2.667 
#    0.000    3.333    0.000    2.500    0.000    0.000 
#    0.000    0.000    0.000    0.000    0.000    0.000 
#
# Total GULP energy -297653.779623 kJ/mol
# GULP energy per Si atom -12402.240818 kJ/mol
# Density = 1.863762 g / cm^3
# Si number density = 18.680132 Si / 1000 Ang^3
#
#
#
# Elastic Constant Matrix: (Units=GPa)
#
#
# Indices 1 2 3 4 5 6 
#
# 1 99.9890 29.2736 36.4456 -0.0001 -13.6073 0.0002
# 2 29.2736 59.0920 33.6733 -0.0002 5.6649 0.0005
# 3 36.4456 33.6733 80.0512 -0.0008 1.2006 0.0004
# 4 -0.0001 -0.0002 -0.0008 36.8172 0.0001 6.3541
# 5 -13.6073 5.6649 1.2006 0.0001 38.7319 0.0000
# 6 0.0002 0.0005 0.0004 6.3541 0.0000 25.6628
#
#
#
# Elastic Compliance Matrix: (Units=1/GPa)
#
#
# Indices 1 2 3 4 5 6 
#
# 1 0.013782 -0.004931 -0.004286 0.000000 0.005696 0.000000
# 2 -0.004931 0.024369 -0.007930 0.000000 -0.005051 0.000000
# 3 -0.004286 -0.007930 0.017792 0.000000 -0.000897 0.000000
# 4 0.000000 0.000000 0.000000 0.028374 0.000000 -0.007025
# 5 0.005696 -0.005051 -0.000897 0.000000 0.028586 0.000000
# 6 0.000000 0.000000 0.000000 -0.007025 0.000000 0.040706
#
#
# Mechanical properties :
#
#
# Convention : Reuss Voigt Hill
#
# Bulk Modulus (GPa) = 46.19069 48.65747 47.42408
# Shear Modulus (GPa) = 25.62532 29.55834 27.59183
#
# Velocity S-wave (km/s) = 3.70779 3.98218 3.84743
# Velocity P-wave (km/s) = 6.56591 6.87371 6.72157
#
# Compressibility (1/GPa) = 0.02164938
#
# Stress axis : x y z
#
# Youngs Moduli (GPa) = 72.55746 41.03644 56.20419
#
# Poissons Ratio (x) = 0.20237 0.24088
# Poissons Ratio (y) = 0.35781 0.44568
# Poissons Ratio (z) = 0.31097 0.32540
#
# Static dielectric constant tensor:
#      x y z
#    x 3.858590 0.000210 0.123780 
#    y 0.000210 2.690390 0.000350 
#    z 0.123780 0.000350 3.856470 
# 
# 
# High freq. dielectric constant tensor:
#      x y z
#    x 1.735560 0.000000 -0.001330 
#    y 0.000000 1.709280 0.000000 
#    z -0.001330 0.000000 1.729480 
# 
# From -- ./inp_files/229903.got.cif
#   From: 2010.06.25/outbox.cif.g09.slc.cpg/sg12_115_cif.got.tgz:229903.got - 2010.06.28 00:19:55.
