data_PCOD8101604
_publ_section_title
;
Structure prediction by ZEFSAII (Michael W. Deem and Ramdas Pophale) SiO2 
 PCOD8101604
Probable space group: C 2/M
;
_chemical_formula_sum "Si O2"
_cell_formula_units_Z 64
_cell_length_a 11.813920
_cell_length_b 18.980368
_cell_length_c 28.386495
_cell_angle_alpha 90.000000
_cell_angle_beta 148.667867
_cell_angle_gamma 90.000000
_cell_volume 3309.880345
_symmetry_space_group_name_H-M "C 2/M"
_symmetry_group_IT_number 12
_symmetry_cell_setting 'monoclinic'
loop_
_space_group_symop_operation_xyz
x,y,z
-x,y,-z
-x,-y,-z
x,-y,z
1/2+x,1/2+y,z
1/2-x,1/2+y,-z
1/2-x,1/2-y,-z
1/2+x,1/2-y,z
loop_
_atom_site_type_symbol
_atom_site_label
_atom_site_fract_x
_atom_site_fract_y
_atom_site_fract_z
Si Si1 0.741368 0.319657 0.408760
Si Si2 0.688885 0.869518 0.316288
Si Si3 0.716462 0.078984 0.875331
Si Si4 0.937437 0.328737 0.627418
Si Si5 0.779379 0.303503 0.942027
Si Si6 0.150372 0.082064 0.456943
Si Si7 0.362896 0.712472 0.731401
Si Si8 0.618846 0.348232 0.980196
O O1 0.678768 0.247095 0.412530
O O2 0.641300 0.385906 0.401136
O O3 0.641025 0.325246 0.320784
O O4 0.000000 0.324083 0.500000
O O5 0.533208 0.915877 0.228288
O O6 0.588278 0.868303 0.332475
O O7 0.711387 0.792633 0.301954
O O8 0.921044 0.907311 0.401488
O O9 0.733541 0.098879 0.936580
O O10 0.800988 0.000000 0.898004
O O11 0.865354 0.131514 0.897027
O O12 0.193418 0.321852 0.707524
O O13 0.835791 0.376158 0.550558
O O14 0.604262 0.293021 0.838290
O O15 0.847355 0.230137 0.989169
O O16 0.682493 0.354403 0.948020
O O17 0.000000 0.338685 0.000000
O O18 0.210537 0.000000 0.475934
#
# Coordination Sequence:
#
# PCOD8101604 Si02
#       8
#     8   8   8   8   8   8   8   8
#     4  11  22  40  65  88 116 162 208 250 299 361
#     4  11  22  37  60  93 122 153 204 251 306 357
#     4  11  21  39  61  86 124 162 203 241 297 375
#     4  11  22  40  64  87 120 159 205 253 306 359
#     4  11  21  36  60  91 128 149 195 264 304 349
#     4  12  25  41  60  87 126 162 202 251 304 362
#     4  11  21  38  64  90 123 155 203 256 304 358
#     4  10  20  36  58  88 120 157 204 238 307 353
#
# _framework density 19.336046
#
# number of rings (size 3 to 8) (size 9 to 14) (size 15 to 20)
#    0.000    1.000    5.000    4.125    0.000    5.750 
#    0.000    0.000    0.000    3.000    0.000    0.000 
#    0.000    0.000    0.000    0.000    0.000    0.000 
#
# Total GULP energy -396897.705035 kJ/mol
# GULP energy per Si atom -12403.053282 kJ/mol
# Density = 1.929204 g / cm^3
# Si number density = 19.336046 Si / 1000 Ang^3
#
#
#
# Elastic Constant Matrix: (Units=GPa)
#
#
# Indices 1 2 3 4 5 6 
#
# 1 106.1996 39.7289 28.6698 0.0001 -5.4678 0.0000
# 2 39.7289 71.9248 13.6701 0.0009 0.1493 -0.0002
# 3 28.6698 13.6701 76.8760 0.0020 4.3541 -0.0014
# 4 0.0001 0.0009 0.0020 5.3006 0.0010 5.1105
# 5 -5.4678 0.1493 4.3541 0.0010 28.6750 -0.0002
# 6 0.0000 -0.0002 -0.0014 5.1105 -0.0002 14.4947
#
#
#
# Elastic Compliance Matrix: (Units=1/GPa)
#
#
# Indices 1 2 3 4 5 6 
#
# 1 0.013049 -0.006475 -0.003891 0.000003 0.003113 -0.000002
# 2 -0.006475 0.017605 -0.000646 -0.000004 -0.001228 0.000002
# 3 -0.003891 -0.000646 0.014743 -0.000010 -0.002977 0.000005
# 4 0.000003 -0.000004 -0.000010 0.285818 -0.000008 -0.100772
# 5 0.003113 -0.001228 -0.002977 -0.000008 0.035926 0.000003
# 6 -0.000002 0.000002 0.000005 -0.100772 0.000003 0.104520
#
#
# Mechanical properties :
#
#
# Convention : Reuss Voigt Hill
#
# Bulk Modulus (GPa) = 42.78613 46.57090 44.67852
# Shear Modulus (GPa) = 9.97055 21.22283 15.59669
#
# Velocity S-wave (km/s) = 2.27325 3.31657 2.84317
# Velocity P-wave (km/s) = 5.39128 6.22924 5.82535
#
# Compressibility (1/GPa) = 0.02337206
#
# Stress axis : x y z
#
# Youngs Moduli (GPa) = 76.63270 56.80119 67.82973
#
# Poissons Ratio (x) = 0.36778 0.26396
# Poissons Ratio (y) = 0.49618 0.04384
# Poissons Ratio (z) = 0.29822 0.03671
#
# Static dielectric constant tensor:
#      x y z
#    x 3.840380 0.000000 -0.069960 
#    y 0.000000 3.344690 0.000000 
#    z -0.069960 0.000000 3.551400 
# 
# 
# High freq. dielectric constant tensor:
#      x y z
#    x 1.758410 0.000000 -0.000680 
#    y 0.000000 1.726480 0.000000 
#    z -0.000680 0.000000 1.760690 
# 
# From -- ./inp_files/374500.got.cif
#   From: 2010.06.25/outbox.cif.g09.slc.cpg/sg12_188_cif.got.tgz:374500.got - 2010.06.28 00:19:55.
