data_PCOD8101947
_publ_section_title
;
Structure prediction by ZEFSAII (Michael W. Deem and Ramdas Pophale) SiO2 
 PCOD8101947
Probable space group: C 2/M
;
_chemical_formula_sum "Si O2"
_cell_formula_units_Z 60
_cell_length_a 17.923928
_cell_length_b 12.239705
_cell_length_c 20.975903
_cell_angle_alpha 90.000000
_cell_angle_beta 44.861272
_cell_angle_gamma 90.000000
_cell_volume 3246.053843
_symmetry_space_group_name_H-M "C 2/M"
_symmetry_group_IT_number 12
_symmetry_cell_setting 'monoclinic'
loop_
_space_group_symop_operation_xyz
x,y,z
-x,y,-z
-x,-y,-z
x,-y,z
1/2+x,1/2+y,z
1/2-x,1/2+y,-z
1/2-x,1/2-y,-z
1/2+x,1/2-y,z
loop_
_atom_site_type_symbol
_atom_site_label
_atom_site_fract_x
_atom_site_fract_y
_atom_site_fract_z
Si Si1 0.917729 0.751602 0.388613
Si Si2 0.233042 0.627129 0.431902
Si Si3 0.550997 0.625713 0.402392
Si Si4 0.748950 0.225848 0.288682
Si Si5 0.553298 0.125458 0.835720
Si Si6 0.079700 0.625702 0.203845
Si Si7 0.699263 0.374283 0.874687
Si Si8 0.000000 0.727633 0.000000
O O1 0.869029 0.660635 0.465210
O O2 0.831834 0.800693 0.393439
O O3 0.964349 0.851723 0.400842
O O4 0.009931 0.697007 0.293004
O O5 0.256099 0.500000 0.428308
O O6 0.213679 0.651704 0.369384
O O7 0.500000 0.659793 0.500000
O O8 0.584193 0.500000 0.381230
O O9 0.654818 0.694994 0.325232
O O10 0.850363 0.298794 0.245164
O O11 0.773087 0.145283 0.215873
O O12 0.454060 0.147468 0.848854
O O13 0.590239 0.000000 0.808621
O O14 0.519789 0.150285 0.927959
O O15 0.062336 0.500000 0.233453
O O16 0.202397 0.657747 0.139214
O O17 0.667804 0.500000 0.902820
O O18 0.600371 0.302051 0.956072
#
# Coordination Sequence:
#
# PCOD8101947 Si02
#       8
#     8   8   8   8   8   8   8   4
#     4  11  21  39  55  80 117 153 195 238 278 325
#     4  11  23  36  55  82 115 156 196 234 279 326
#     4  11  22  36  55  80 113 155 197 239 283 325
#     4  11  20  37  56  83 114 148 187 239 276 334
#     4  10  21  38  60  84 110 145 185 232 285 342
#     4  10  20  36  60  85 114 150 189 231 281 335
#     4  10  21  37  60  85 113 147 183 227 287 345
#     4  10  22  38  62  86 114 144 180 232 284 348
#
# _framework density 18.483982000000001
#
# number of rings (size 3 to 8) (size 9 to 14) (size 15 to 20)
#    0.000    1.467    4.000    2.000    0.000    0.533 
#    0.000    0.667    0.000    0.000    0.000    0.000 
#    0.000    0.000    0.000    0.000    0.000    0.000 
#
# Total GULP energy -372114.087205 kJ/mol
# GULP energy per Si atom -12403.802907 kJ/mol
# Density = 1.844191 g / cm^3
# Si number density = 18.483982 Si / 1000 Ang^3
#
#
#
# Elastic Constant Matrix: (Units=GPa)
#
#
# Indices 1 2 3 4 5 6 
#
# 1 91.2594 19.7277 15.4427 0.0000 -4.6511 0.0000
# 2 19.7277 66.4462 21.0777 0.0000 -2.7689 0.0000
# 3 15.4427 21.0777 59.9115 0.0000 -2.1424 0.0000
# 4 0.0000 0.0000 0.0000 6.3774 0.0000 -5.1112
# 5 -4.6511 -2.7689 -2.1424 0.0000 28.6129 0.0000
# 6 0.0000 0.0000 0.0000 -5.1112 0.0000 26.1985
#
#
#
# Elastic Compliance Matrix: (Units=1/GPa)
#
#
# Indices 1 2 3 4 5 6 
#
# 1 0.011996 -0.002853 -0.002034 0.000000 0.001522 0.000000
# 2 -0.002853 0.017660 -0.005448 0.000000 0.000837 0.000000
# 3 -0.002034 -0.005448 0.019153 0.000000 0.000576 0.000000
# 4 0.000000 0.000000 0.000000 0.185867 0.000000 0.036262
# 5 0.001522 0.000837 0.000576 0.000000 0.035321 0.000000
# 6 0.000000 0.000000 0.000000 0.036262 0.000000 0.045245
#
#
# Mechanical properties :
#
#
# Convention : Reuss Voigt Hill
#
# Bulk Modulus (GPa) = 35.53728 36.67926 36.10827
# Shear Modulus (GPa) = 14.48057 22.99569 18.73813
#
# Velocity S-wave (km/s) = 2.80199 3.53099 3.18740
# Velocity P-wave (km/s) = 5.45306 6.04241 5.75529
#
# Compressibility (1/GPa) = 0.02813946
#
# Stress axis : x y z
#
# Youngs Moduli (GPa) = 83.35930 56.62580 52.21193
#
# Poissons Ratio (x) = 0.16156 0.10620
# Poissons Ratio (y) = 0.23783 0.28443
# Poissons Ratio (z) = 0.16955 0.30848
#
# Static dielectric constant tensor:
#      x y z
#    x 3.543570 0.000000 -0.046530 
#    y 0.000000 3.299380 0.000000 
#    z -0.046530 0.000000 3.271540 
# 
# 
# High freq. dielectric constant tensor:
#      x y z
#    x 1.730710 0.000000 -0.001060 
#    y 0.000000 1.718530 0.000000 
#    z -0.001060 0.000000 1.710950 
# 
# From -- ./inp_files/315943.got.cif
#   From: 2010.06.25/outbox.cif.g09.slc.cpg/sg12_158_cif.got.tgz:315943.got - 2010.06.28 00:19:55.
