data_PCOD8101443
_publ_section_title
;
Structure prediction by ZEFSAII (Michael W. Deem and Ramdas Pophale) SiO2 
 PCOD8101443
Probable space group: C 2/M
;
_chemical_formula_sum "Si O2"
_cell_formula_units_Z 48
_cell_length_a 20.382770
_cell_length_b 8.973422
_cell_length_c 26.425417
_cell_angle_alpha 90.000000
_cell_angle_beta 30.050720
_cell_angle_gamma 90.000000
_cell_volume 2420.351035
_symmetry_space_group_name_H-M "C 2/M"
_symmetry_group_IT_number 12
_symmetry_cell_setting 'monoclinic'
loop_
_space_group_symop_operation_xyz
x,y,z
-x,y,-z
-x,-y,-z
x,-y,z
1/2+x,1/2+y,z
1/2-x,1/2+y,-z
1/2-x,1/2-y,-z
1/2+x,1/2-y,z
loop_
_atom_site_type_symbol
_atom_site_label
_atom_site_fract_x
_atom_site_fract_y
_atom_site_fract_z
Si Si1 0.993929 0.323226 0.903835
Si Si2 0.736694 0.672764 0.788055
Si Si3 0.234648 0.673489 0.114768
Si Si4 0.265926 0.676005 0.543132
Si Si5 0.529758 0.673635 0.422567
Si Si6 0.024151 0.323391 0.769700
O O1 0.001709 0.500000 0.901614
O O2 0.022236 0.263488 0.828302
O O3 0.099441 0.255428 0.871656
O O4 0.851234 0.271581 0.015402
O O5 0.714357 0.500000 0.792036
O O6 0.784342 0.702034 0.813145
O O7 0.844615 0.733851 0.677739
O O8 0.262565 0.500000 0.084762
O O9 0.103823 0.732147 0.174789
O O10 0.252439 0.500000 0.546107
O O11 0.250000 0.750000 0.500000
O O12 0.406089 0.721814 0.471688
O O13 0.153607 0.738513 0.655540
O O14 0.500000 0.713880 0.500000
O O15 0.562913 0.500000 0.394203
O O16 0.027132 0.500000 0.768014
#
# Coordination Sequence:
#
# PCOD8101443 Si02
#       6
#     8   8   8   8   8   8
#     4  11  22  37  59  84 111 145 186 231 279 331
#     4  11  23  38  58  83 113 149 186 228 279 333
#     4  10  21  38  58  81 112 148 186 228 276 329
#     4  10  20  36  58  83 112 146 184 226 274 328
#     4  10  21  38  60  84 112 148 189 232 276 324
#     4   9  19  37  59  81 109 147 185 224 274 329
#
# _framework density 19.831833
#
# number of rings (size 3 to 8) (size 9 to 14) (size 15 to 20)
#    0.000    1.833    0.000    4.000    0.000    8.333 
#    0.000    5.000    0.000    0.000    0.000    0.000 
#    0.000    0.000    0.000    0.000    0.000    0.000 
#
# Total GULP energy -297723.262684 kJ/mol
# GULP energy per Si atom -12405.135945 kJ/mol
# Density = 1.978669 g / cm^3
# Si number density = 19.831833 Si / 1000 Ang^3
#
#
#
# Elastic Constant Matrix: (Units=GPa)
#
#
# Indices 1 2 3 4 5 6 
#
# 1 82.8915 22.4356 0.5871 -0.0093 1.7336 0.0205
# 2 22.4356 49.8372 25.1449 -0.0068 3.7568 0.0132
# 3 0.5871 25.1449 93.7809 -0.0027 1.7851 0.0121
# 4 -0.0093 -0.0068 -0.0027 37.1551 0.0041 0.5170
# 5 1.7336 3.7568 1.7851 0.0041 35.9853 -0.0104
# 6 0.0205 0.0132 0.0121 0.5170 -0.0104 28.8673
#
#
#
# Elastic Compliance Matrix: (Units=1/GPa)
#
#
# Indices 1 2 3 4 5 6 
#
# 1 0.014011 -0.007242 0.001854 0.000002 -0.000011 -0.000007
# 2 -0.007242 0.027110 -0.007183 0.000003 -0.002125 -0.000005
# 3 0.001854 -0.007183 0.012577 0.000000 0.000037 -0.000003
# 4 0.000002 0.000003 0.000000 0.026921 -0.000004 -0.000482
# 5 -0.000011 -0.002125 0.000037 -0.000004 0.028010 0.000011
# 6 -0.000007 -0.000005 -0.000003 -0.000482 0.000011 0.034650
#
#
# Mechanical properties :
#
#
# Convention : Reuss Voigt Hill
#
# Bulk Modulus (GPa) = 35.01892 35.87164 35.44528
# Shear Modulus (GPa) = 28.09949 32.29103 30.19526
#
# Velocity S-wave (km/s) = 3.76824 4.03953 3.90624
# Velocity P-wave (km/s) = 6.05220 6.31539 6.18520
#
# Compressibility (1/GPa) = 0.02855599
#
# Stress axis : x y z
#
# Youngs Moduli (GPa) = 71.37109 36.88677 79.51154
#
# Poissons Ratio (x) = 0.26715 -0.14744
# Poissons Ratio (y) = 0.51689 0.57113
# Poissons Ratio (z) = -0.13235 0.26496
#
# Static dielectric constant tensor:
#      x y z
#    x 3.535160 0.000030 0.472460 
#    y 0.000030 3.395940 -0.000040 
#    z 0.472460 -0.000040 3.038010 
# 
# 
# High freq. dielectric constant tensor:
#      x y z
#    x 1.791900 0.000000 -0.001310 
#    y 0.000000 1.752430 0.000000 
#    z -0.001310 0.000000 1.788690 
# 
# From -- ./inp_files/327181.got.cif
#   From: 2010.06.25/outbox.cif.g09.slc.cpg/sg12_164_cif.got.tgz:327181.got - 2010.06.28 00:19:55.
