data_PCOD8101223
_publ_section_title
;
Structure prediction by ZEFSAII (Michael W. Deem and Ramdas Pophale) SiO2 
 PCOD8101223
Probable space group: C 2/M
;
_chemical_formula_sum "Si O2"
_cell_formula_units_Z 64
_cell_length_a 20.118927
_cell_length_b 9.167879
_cell_length_c 23.891052
_cell_angle_alpha 90.000000
_cell_angle_beta 127.377369
_cell_angle_gamma 90.000000
_cell_volume 3501.767342
_symmetry_space_group_name_H-M "C 2/M"
_symmetry_group_IT_number 12
_symmetry_cell_setting 'monoclinic'
loop_
_space_group_symop_operation_xyz
x,y,z
-x,y,-z
-x,-y,-z
x,-y,z
1/2+x,1/2+y,z
1/2-x,1/2+y,-z
1/2-x,1/2-y,-z
1/2+x,1/2-y,z
loop_
_atom_site_type_symbol
_atom_site_label
_atom_site_fract_x
_atom_site_fract_y
_atom_site_fract_z
Si Si1 0.609260 0.328684 0.795357
Si Si2 0.337638 0.832572 0.779722
Si Si3 0.075401 0.335122 0.495030
Si Si4 0.066461 0.166225 0.987917
Si Si5 0.972130 0.331268 0.142883
Si Si6 0.720862 0.332945 0.143722
Si Si7 0.821871 0.831562 0.369506
Si Si8 0.967598 0.168095 0.360120
O O1 0.620622 0.500000 0.810580
O O2 0.572260 0.257492 0.831361
O O3 0.698999 0.263216 0.827707
O O4 0.546338 0.296042 0.712022
O O5 0.428811 0.808765 0.800518
O O6 0.327553 0.726930 0.827071
O O7 0.271687 0.791736 0.697487
O O8 0.323724 0.000000 0.792153
O O9 0.099568 0.500000 0.493558
O O10 0.156446 0.258333 0.563397
O O11 0.000000 0.321738 0.500000
O O12 0.047066 0.259198 0.422834
O O13 0.061176 0.273076 0.932966
O O14 0.045544 0.000000 0.959170
O O15 0.159766 0.177561 0.059526
O O16 0.000000 0.219936 0.000000
O O17 0.946962 0.500000 0.135081
O O18 0.747127 0.500000 0.168436
O O19 0.883065 0.788506 0.349748
O O20 0.831540 0.000000 0.390113
O O21 0.988895 0.000000 0.381095
#
# Coordination Sequence:
#
# PCOD8101223 Si02
#       8
#     8   8   8   8   8   8   8   8
#     4  11  23  40  59  81 115 152 189 231 280 337
#     4  10  20  36  57  83 114 147 186 230 279 333
#     4   9  17  27  43  75 112 141 174 224 277 317
#     4  10  21  39  60  84 114 148 185 228 281 336
#     4  11  24  39  59  86 114 147 189 233 281 334
#     4  11  22  36  60  87 112 144 187 233 279 331
#     4   9  16  30  51  76 107 142 182 223 269 329
#     4   9  17  31  52  75 103 146 185 218 270 333
#
# _framework density 18.276484
#
# number of rings (size 3 to 8) (size 9 to 14) (size 15 to 20)
#    0.000    2.000    2.500    1.500    0.000    5.250 
#    0.000    0.000    0.000    0.750    0.000    0.000 
#    0.000    0.000    0.000    0.000    0.000    0.000 
#
# Total GULP energy -396897.340901 kJ/mol
# GULP energy per Si atom -12403.041903 kJ/mol
# Density = 1.823489 g / cm^3
# Si number density = 18.276484 Si / 1000 Ang^3
#
#
#
# Elastic Constant Matrix: (Units=GPa)
#
#
# Indices 1 2 3 4 5 6 
#
# 1 39.5544 27.6386 6.3047 0.0000 -8.0537 0.0000
# 2 27.6386 103.0975 49.0083 0.0000 -5.0431 0.0000
# 3 6.3047 49.0083 87.6491 0.0000 0.8708 0.0000
# 4 0.0000 0.0000 0.0000 29.0955 0.0000 0.9550
# 5 -8.0537 -5.0431 0.8708 0.0000 21.4585 0.0000
# 6 0.0000 0.0000 0.0000 0.9550 0.0000 24.3032
#
#
#
# Elastic Compliance Matrix: (Units=1/GPa)
#
#
# Indices 1 2 3 4 5 6 
#
# 1 0.033898 -0.010051 0.003080 0.000000 0.010235 0.000000
# 2 -0.010051 0.016445 -0.008476 0.000000 0.000437 0.000000
# 3 0.003080 -0.008476 0.015942 0.000000 -0.001483 0.000000
# 4 0.000000 0.000000 0.000000 0.034414 0.000000 -0.001352
# 5 0.010235 0.000437 -0.001483 0.000000 0.050606 0.000000
# 6 0.000000 0.000000 0.000000 -0.001352 0.000000 0.041200
#
#
# Mechanical properties :
#
#
# Convention : Reuss Voigt Hill
#
# Bulk Modulus (GPa) = 28.25684 44.02271 36.13977
# Shear Modulus (GPa) = 21.25901 24.79473 23.02687
#
# Velocity S-wave (km/s) = 3.41426 3.68726 3.55338
# Velocity P-wave (km/s) = 5.57110 6.50133 6.05411
#
# Compressibility (1/GPa) = 0.03538966
#
# Stress axis : x y z
#
# Youngs Moduli (GPa) = 29.50057 60.81034 62.72833
#
# Poissons Ratio (x) = 0.61119 -0.19319
# Poissons Ratio (y) = 0.29650 0.53170
# Poissons Ratio (z) = -0.09085 0.51544
#
# Static dielectric constant tensor:
#      x y z
#    x 3.092170 0.000000 0.086770 
#    y 0.000000 3.465680 0.000000 
#    z 0.086770 0.000000 3.512940 
# 
# 
# High freq. dielectric constant tensor:
#      x y z
#    x 1.673750 0.000000 0.007550 
#    y 0.000000 1.716590 0.000000 
#    z 0.007550 0.000000 1.721210 
# 
# From -- ./inp_files/346260.got.cif
#   From: 2010.06.25/outbox.cif.g09.slc.cpg/sg12_174_cif.got.tgz:346260.got - 2010.06.28 00:19:55.
