data_PCOD8101270
_publ_section_title
;
Structure prediction by ZEFSAII (Michael W. Deem and Ramdas Pophale) SiO2 
 PCOD8101270
Probable space group: C 2/M
;
_chemical_formula_sum "Si O2"
_cell_formula_units_Z 56
_cell_length_a 9.617280
_cell_length_b 16.598557
_cell_length_c 17.650339
_cell_angle_alpha 90.000000
_cell_angle_beta 75.954428
_cell_angle_gamma 90.000000
_cell_volume 2733.338968
_symmetry_space_group_name_H-M "C 2/M"
_symmetry_group_IT_number 12
_symmetry_cell_setting 'monoclinic'
loop_
_space_group_symop_operation_xyz
x,y,z
-x,y,-z
-x,-y,-z
x,-y,z
1/2+x,1/2+y,z
1/2-x,1/2+y,-z
1/2-x,1/2-y,-z
1/2+x,1/2-y,z
loop_
_atom_site_type_symbol
_atom_site_label
_atom_site_fract_x
_atom_site_fract_y
_atom_site_fract_z
Si Si1 0.139570 0.090019 0.279602
Si Si2 0.176763 0.136308 0.712846
Si Si3 0.854757 0.657577 0.545553
Si Si4 0.128019 0.702258 0.802482
Si Si5 0.156138 0.797942 0.951378
Si Si6 0.649885 0.908036 0.166047
Si Si7 0.136406 0.161804 0.441666
O O1 0.232179 0.146500 0.212854
O O2 0.171012 0.113566 0.361720
O O3 0.975194 0.094708 0.277930
O O4 0.195031 0.000000 0.260304
O O5 0.265608 0.117015 0.624722
O O6 0.148765 0.231090 0.733484
O O7 0.260359 0.092921 0.768825
O O8 0.899237 0.745254 0.572459
O O9 0.769610 0.659669 0.479191
O O10 0.000000 0.611353 0.500000
O O11 0.119966 0.741505 0.885400
O O12 0.987120 0.649535 0.804951
O O13 0.249144 0.875547 0.914882
O O14 0.250000 0.750000 0.000000
O O15 0.000000 0.827464 0.000000
O O16 0.604022 0.000000 0.153629
O O17 0.000000 0.120611 0.500000
#
# Coordination Sequence:
#
# PCOD8101270 Si02
#       7
#     8   8   8   8   8   8   8
#     4  12  25  40  61  93 130 168 210 267 327 376
#     4  11  22  41  65  91 124 171 223 263 310 384
#     4  10  21  35  60  89 115 161 223 276 313 368
#     4  11  24  42  70  93 126 170 215 250 309 386
#     4  11  23  46  74 100 128 166 214 256 302 377
#     4  11  25  43  65  99 136 167 204 262 320 373
#     4  10  20  36  57  84 120 160 216 269 313 367
#
# _framework density 20.487763999999999
#
# number of rings (size 3 to 8) (size 9 to 14) (size 15 to 20)
#    0.000    1.143    4.286    2.571    4.000    0.571 
#    0.000    2.143    0.000    2.143    0.000    0.000 
#    0.000    0.000    0.000    0.000    0.000    0.000 
#
# Total GULP energy -347178.100322 kJ/mol
# GULP energy per Si atom -12399.217869 kJ/mol
# Density = 2.044113 g / cm^3
# Si number density = 20.487764 Si / 1000 Ang^3
#
#
#
# Elastic Constant Matrix: (Units=GPa)
#
#
# Indices 1 2 3 4 5 6 
#
# 1 102.8458 18.5985 38.2046 0.0000 -13.7056 0.0000
# 2 18.5985 93.4823 16.8002 0.0000 -2.5597 0.0000
# 3 38.2046 16.8002 86.5437 0.0000 -9.2959 0.0000
# 4 0.0000 0.0000 0.0000 11.0642 0.0000 -2.8059
# 5 -13.7056 -2.5597 -9.2959 0.0000 45.9514 0.0000
# 6 0.0000 0.0000 0.0000 -2.8059 0.0000 21.3940
#
#
#
# Elastic Compliance Matrix: (Units=1/GPa)
#
#
# Indices 1 2 3 4 5 6 
#
# 1 0.012109 -0.001479 -0.004783 0.000000 0.002562 0.000000
# 2 -0.001479 0.011266 -0.001548 0.000000 -0.000127 0.000000
# 3 -0.004783 -0.001548 0.014111 0.000000 0.001342 0.000000
# 4 0.000000 0.000000 0.000000 0.093491 0.000000 0.012262
# 5 0.002562 -0.000127 0.001342 0.000000 0.022791 0.000000
# 6 0.000000 0.000000 0.000000 0.012262 0.000000 0.048350
#
#
# Mechanical properties :
#
#
# Convention : Reuss Voigt Hill
#
# Bulk Modulus (GPa) = 45.73337 47.78651 46.75994
# Shear Modulus (GPa) = 22.21956 29.63314 25.92635
#
# Velocity S-wave (km/s) = 3.29679 3.80726 3.56118
# Velocity P-wave (km/s) = 6.07145 6.53468 6.30732
#
# Compressibility (1/GPa) = 0.02186587
#
# Stress axis : x y z
#
# Youngs Moduli (GPa) = 82.58293 88.76117 70.86700
#
# Poissons Ratio (x) = 0.13131 0.33897
# Poissons Ratio (y) = 0.12217 0.10967
# Poissons Ratio (z) = 0.39501 0.13737
#
# Static dielectric constant tensor:
#      x y z
#    x 3.843410 0.000000 -0.196800 
#    y 0.000000 3.720030 0.000000 
#    z -0.196800 0.000000 3.798580 
# 
# 
# High freq. dielectric constant tensor:
#      x y z
#    x 1.818730 0.000000 -0.008200 
#    y 0.000000 1.778830 0.000000 
#    z -0.008200 0.000000 1.805250 
# 
# From -- ./inp_files/257047.got.cif
#   From: 2010.06.25/outbox.cif.g09.slc.cpg/sg12_129_cif.got.tgz:257047.got - 2010.06.28 00:19:55.
