data_PCOD8101623
_publ_section_title
;
Structure prediction by ZEFSAII (Michael W. Deem and Ramdas Pophale) SiO2 
 PCOD8101623
Probable space group: C 2/M
;
_chemical_formula_sum "Si O2"
_cell_formula_units_Z 40
_cell_length_a 11.533197
_cell_length_b 28.429216
_cell_length_c 9.589575
_cell_angle_alpha 90.000000
_cell_angle_beta 32.815457
_cell_angle_gamma 90.000000
_cell_volume 1703.966756
_symmetry_space_group_name_H-M "C 2/M"
_symmetry_group_IT_number 12
_symmetry_cell_setting 'monoclinic'
loop_
_space_group_symop_operation_xyz
x,y,z
-x,y,-z
-x,-y,-z
x,-y,z
1/2+x,1/2+y,z
1/2-x,1/2+y,-z
1/2-x,1/2-y,-z
1/2+x,1/2-y,z
loop_
_atom_site_type_symbol
_atom_site_label
_atom_site_fract_x
_atom_site_fract_y
_atom_site_fract_z
Si Si1 0.076254 0.053235 0.076616
Si Si2 0.547554 0.698480 0.609401
Si Si3 0.186755 0.901339 0.441487
Si Si4 0.974468 0.279657 0.868363
Si Si5 0.678547 0.881891 0.990537
O O1 0.883338 0.055917 0.387338
O O2 0.164618 0.000000 0.987774
O O3 0.263799 0.090015 0.926644
O O4 0.000000 0.067496 0.000000
O O5 0.500000 0.714974 0.500000
O O6 0.517513 0.641249 0.657969
O O7 0.792806 0.702625 0.413552
O O8 0.406152 0.733997 0.846830
O O9 0.427951 0.887023 0.225272
O O10 0.186038 0.908242 0.273069
O O11 0.798414 0.323462 0.034770
O O12 0.000000 0.262592 0.000000
#
# Coordination Sequence:
#
# PCOD8101623 Si02
#       5
#     8   8   8   8   8
#     4  11  26  45  65  95 128 161 207 266 333 393
#     4  10  20  36  58  89 127 166 206 255 302 362
#     4  10  21  41  68  95 127 167 217 262 311 374
#     4  10  20  38  57  88 125 165 210 253 303 364
#     4  10  20  43  67  92 129 168 211 266 311 369
#
# _framework density 23.474637000000001
#
# number of rings (size 3 to 8) (size 9 to 14) (size 15 to 20)
#    0.000    1.800    4.000    1.800    0.000    4.800 
#   10.800    4.000    0.000    0.000    0.000    0.000 
#    0.000    0.000    0.000    0.000    0.000    0.000 
#
# Total GULP energy -247894.020085 kJ/mol
# GULP energy per Si atom -12394.701004 kJ/mol
# Density = 2.342121 g / cm^3
# Si number density = 23.474637 Si / 1000 Ang^3
#
#
#
# Elastic Constant Matrix: (Units=GPa)
#
#
# Indices 1 2 3 4 5 6 
#
# 1 122.1747 80.7071 36.6069 0.0000 27.5066 0.0000
# 2 80.7071 107.7824 36.9598 0.0000 23.4150 0.0000
# 3 36.6069 36.9598 87.6238 0.0000 2.9072 0.0000
# 4 0.0000 0.0000 0.0000 22.8572 0.0000 2.3207
# 5 27.5066 23.4150 2.9072 0.0000 45.8338 0.0000
# 6 0.0000 0.0000 0.0000 2.3207 0.0000 37.8410
#
#
#
# Elastic Compliance Matrix: (Units=1/GPa)
#
#
# Indices 1 2 3 4 5 6 
#
# 1 0.017270 -0.011137 -0.002367 0.000000 -0.004525 0.000000
# 2 -0.011137 0.019463 -0.003456 0.000000 -0.003040 0.000000
# 3 -0.002367 -0.003456 0.013782 0.000000 0.002312 0.000000
# 4 0.000000 0.000000 0.000000 0.044024 0.000000 -0.002700
# 5 -0.004525 -0.003040 0.002312 0.000000 0.025940 0.000000
# 6 0.000000 0.000000 0.000000 -0.002700 0.000000 0.026592
#
#
# Mechanical properties :
#
#
# Convention : Reuss Voigt Hill
#
# Bulk Modulus (GPa) = 60.25907 69.56984 64.91445
# Shear Modulus (GPa) = 26.80646 32.19354 29.50000
#
# Velocity S-wave (km/s) = 3.38292 3.70728 3.54881
# Velocity P-wave (km/s) = 6.40191 6.93006 6.67121
#
# Compressibility (1/GPa) = 0.01659501
#
# Stress axis : x y z
#
# Youngs Moduli (GPa) = 57.90426 51.38042 72.55665
#
# Poissons Ratio (x) = 0.57222 0.17176
# Poissons Ratio (y) = 0.64487 0.25074
# Poissons Ratio (z) = 0.13707 0.17756
#
# Static dielectric constant tensor:
#      x y z
#    x 4.590430 0.000000 -0.508170 
#    y 0.000000 4.236370 0.000000 
#    z -0.508170 0.000000 4.552140 
# 
# 
# High freq. dielectric constant tensor:
#      x y z
#    x 1.968150 0.000000 -0.053180 
#    y 0.000000 1.915490 0.000000 
#    z -0.053180 0.000000 1.946510 
# 
# From -- ./inp_files/54005.got.cif
#   From: 2010.06.25/outbox.cif.g09.slc.cpg/sg12_28_cif.got.tgz:54005.got - 2010.06.28 00:19:55.
