data_PCOD8101877
_publ_section_title
;
Structure prediction by ZEFSAII (Michael W. Deem and Ramdas Pophale) SiO2 
 PCOD8101877
Probable space group: C 2/M
;
_chemical_formula_sum "Si O2"
_cell_formula_units_Z 64
_cell_length_a 9.594293
_cell_length_b 24.700873
_cell_length_c 15.048319
_cell_angle_alpha 90.000000
_cell_angle_beta 67.178892
_cell_angle_gamma 90.000000
_cell_volume 3287.096350
_symmetry_space_group_name_H-M "C 2/M"
_symmetry_group_IT_number 12
_symmetry_cell_setting 'monoclinic'
loop_
_space_group_symop_operation_xyz
x,y,z
-x,y,-z
-x,-y,-z
x,-y,z
1/2+x,1/2+y,z
1/2-x,1/2+y,-z
1/2-x,1/2-y,-z
1/2+x,1/2-y,z
loop_
_atom_site_type_symbol
_atom_site_label
_atom_site_fract_x
_atom_site_fract_y
_atom_site_fract_z
Si Si1 0.041295 0.562234 0.237091
Si Si2 0.703202 0.354453 0.869272
Si Si3 0.687351 0.239545 0.657904
Si Si4 0.352761 0.256852 0.787341
Si Si5 0.371562 0.937288 0.100063
Si Si6 0.674617 0.171110 0.485401
Si Si7 0.860945 0.856345 0.910979
Si Si8 0.873090 0.558105 0.459547
O O1 0.096992 0.500000 0.220095
O O2 0.187132 0.600194 0.197463
O O3 0.928224 0.574941 0.184801
O O4 0.950399 0.575511 0.348427
O O5 0.747634 0.294782 0.828200
O O6 0.539060 0.367642 0.870188
O O7 0.708526 0.355051 0.973978
O O8 0.525727 0.238545 0.744637
O O9 0.808761 0.219693 0.701143
O O10 0.699265 0.199106 0.573452
O O11 0.724792 0.300516 0.614994
O O12 0.322637 0.300032 0.871977
O O13 0.216896 0.904890 0.123532
O O14 0.334170 0.000000 0.093466
O O15 0.500000 0.917362 0.000000
O O16 0.500000 0.173913 0.500000
O O17 0.730201 0.108546 0.482654
O O18 0.784663 0.500000 0.471031
O O19 0.000000 0.548155 0.500000
#
# Coordination Sequence:
#
# PCOD8101877 Si02
#       8
#     8   8   8   8   8   8   8   8
#     4  10  21  38  64  92 121 162 207 249 302 365
#     4  11  24  41  58  87 125 161 203 255 305 363
#     4  11  23  38  61  85 115 164 200 250 306 361
#     4  12  24  41  58  86 122 159 208 250 307 365
#     4  10  21  40  63  91 121 156 204 252 298 359
#     4  10  20  36  59  88 122 149 198 253 300 364
#     4  11  25  39  59  88 122 162 204 251 313 357
#     4   9  19  34  57  91 122 151 191 247 307 360
#
# _framework density 19.470071999999998
#
# number of rings (size 3 to 8) (size 9 to 14) (size 15 to 20)
#    0.000    1.500    3.750    1.125    5.250    0.500 
#    2.250    1.250    0.000    0.750    0.000    0.875 
#    0.000    0.500    0.000    0.000    0.000    0.000 
#
# Total GULP energy -396801.248200 kJ/mol
# GULP energy per Si atom -12400.039006 kJ/mol
# Density = 1.942576 g / cm^3
# Si number density = 19.470072 Si / 1000 Ang^3
#
#
#
# Elastic Constant Matrix: (Units=GPa)
#
#
# Indices 1 2 3 4 5 6 
#
# 1 81.0347 35.5289 18.9025 0.0000 12.1038 0.0000
# 2 35.5289 92.5376 6.0418 0.0000 4.4227 0.0000
# 3 18.9025 6.0418 54.5720 0.0000 20.8762 0.0000
# 4 0.0000 0.0000 0.0000 29.0548 0.0000 -3.4626
# 5 12.1038 4.4227 20.8762 0.0000 30.2030 0.0000
# 6 0.0000 0.0000 0.0000 -3.4626 0.0000 27.3443
#
#
#
# Elastic Compliance Matrix: (Units=1/GPa)
#
#
# Indices 1 2 3 4 5 6 
#
# 1 0.016245 -0.005843 -0.003829 0.000000 -0.003008 0.000000
# 2 -0.005843 0.013011 0.000566 0.000000 0.000045 0.000000
# 3 -0.003829 0.000566 0.025874 0.000000 -0.016432 0.000000
# 4 0.000000 0.000000 0.000000 0.034945 0.000000 0.004425
# 5 -0.003008 0.000045 -0.016432 0.000000 0.045666 0.000000
# 6 0.000000 0.000000 0.000000 0.004425 0.000000 0.037131
#
#
# Mechanical properties :
#
#
# Convention : Reuss Voigt Hill
#
# Bulk Modulus (GPa) = 27.08772 38.78785 32.93779
# Shear Modulus (GPa) = 24.58326 28.49849 26.54087
#
# Velocity S-wave (km/s) = 3.55719 3.82999 3.69611
# Velocity P-wave (km/s) = 5.55105 6.28677 5.93033
#
# Compressibility (1/GPa) = 0.03691710
#
# Stress axis : x y z
#
# Youngs Moduli (GPa) = 61.55809 76.85941 38.64847
#
# Poissons Ratio (x) = 0.44911 0.14800
# Poissons Ratio (y) = 0.35970 -0.02189
# Poissons Ratio (z) = 0.23573 -0.04352
#
# Static dielectric constant tensor:
#      x y z
#    x 3.428830 0.000000 0.193630 
#    y 0.000000 3.848240 0.000000 
#    z 0.193630 0.000000 3.628570 
# 
# 
# High freq. dielectric constant tensor:
#      x y z
#    x 1.743020 0.000000 0.024030 
#    y 0.000000 1.766810 0.000000 
#    z 0.024030 0.000000 1.767490 
# 
# From -- ./inp_files/199773.got.cif
#   From: 2010.06.25/outbox.cif.g09.slc.cpg/sg12_100_cif.got.tgz:199773.got - 2010.06.28 00:19:55.
