data_PCOD8101848
_publ_section_title
;
Structure prediction by ZEFSAII (Michael W. Deem and Ramdas Pophale) SiO2 
 PCOD8101848
Probable space group: C 2/M
;
_chemical_formula_sum "Si O2"
_cell_formula_units_Z 64
_cell_length_a 14.342695
_cell_length_b 8.410095
_cell_length_c 29.948807
_cell_angle_alpha 90.000000
_cell_angle_beta 58.308673
_cell_angle_gamma 90.000000
_cell_volume 3073.866055
_symmetry_space_group_name_H-M "C 2/M"
_symmetry_group_IT_number 12
_symmetry_cell_setting 'monoclinic'
loop_
_space_group_symop_operation_xyz
x,y,z
-x,y,-z
-x,-y,-z
x,-y,z
1/2+x,1/2+y,z
1/2-x,1/2+y,-z
1/2-x,1/2-y,-z
1/2+x,1/2-y,z
loop_
_atom_site_type_symbol
_atom_site_label
_atom_site_fract_x
_atom_site_fract_y
_atom_site_fract_z
Si Si1 0.299485 0.815389 0.379740
Si Si2 0.961370 0.183895 0.403988
Si Si3 0.878366 0.680247 0.512305
Si Si4 0.016090 0.814404 0.856361
Si Si5 0.565440 0.311783 0.941839
Si Si6 0.306508 0.814813 0.860432
Si Si7 0.745870 0.183936 0.782869
Si Si8 0.312158 0.185019 0.674394
O O1 0.401834 0.714071 0.371997
O O2 0.193030 0.786039 0.436691
O O3 0.281030 0.757816 0.333900
O O4 0.330101 0.000000 0.372438
O O5 0.877230 0.242460 0.463378
O O6 0.071279 0.287695 0.378611
O O7 0.992071 0.000000 0.402341
O O8 0.831723 0.500000 0.521910
O O9 0.000000 0.682123 0.500000
O O10 0.007580 0.757782 0.910212
O O11 0.117862 0.724916 0.807832
O O12 0.904257 0.780358 0.858833
O O13 0.042977 0.000000 0.847443
O O14 0.562550 0.500000 0.946329
O O15 0.692022 0.255253 0.911007
O O16 0.500000 0.234416 0.000000
O O17 0.300961 0.783220 0.808988
O O18 0.326483 0.000000 0.863767
O O19 0.811155 0.225293 0.721682
O O20 0.759791 0.000000 0.790669
O O21 0.289801 0.000000 0.686987
#
# Coordination Sequence:
#
# PCOD8101848 Si02
#       8
#     8   8   8   8   8   8   8   8
#     4  12  25  42  64  91 122 157 197 240 292 351
#     4  12  25  42  64  91 122 157 197 240 292 351
#     4  11  22  39  64  90 121 159 197 239 292 348
#     4  10  20  36  59  87 119 158 202 247 296 350
#     4   8  16  32  54  83 122 163 202 246 295 346
#     4  10  20  36  59  87 119 158 202 247 296 350
#     4  11  23  41  63  87 115 151 196 246 300 354
#     4  12  25  44  65  90 121 152 192 243 299 356
#
# _framework density 20.820687
#
# number of rings (size 3 to 8) (size 9 to 14) (size 15 to 20)
#    0.000    1.250    1.250    6.750    0.000    2.000 
#    0.000    5.000    0.000   12.750    0.000    0.000 
#    0.000    0.000    0.000    0.000    0.000    0.000 
#
# Total GULP energy -396965.870785 kJ/mol
# GULP energy per Si atom -12405.183462 kJ/mol
# Density = 2.077330 g / cm^3
# Si number density = 20.820687 Si / 1000 Ang^3
#
#
#
# Elastic Constant Matrix: (Units=GPa)
#
#
# Indices 1 2 3 4 5 6 
#
# 1 93.4521 4.1987 15.7026 0.0000 9.6883 0.0000
# 2 4.1987 81.8200 11.5847 0.0000 1.0453 -0.0001
# 3 15.7026 11.5847 88.7743 0.0000 9.9333 0.0000
# 4 0.0000 0.0000 0.0000 24.0518 0.0000 1.1618
# 5 9.6883 1.0453 9.9333 0.0000 21.6614 0.0000
# 6 0.0000 -0.0001 0.0000 1.1618 0.0000 33.2925
#
#
#
# Elastic Compliance Matrix: (Units=1/GPa)
#
#
# Indices 1 2 3 4 5 6 
#
# 1 0.011422 -0.000320 -0.001485 0.000000 -0.004412 0.000000
# 2 -0.000320 0.012461 -0.001600 0.000000 0.000275 0.000000
# 3 -0.001485 -0.001600 0.012283 0.000000 -0.004891 0.000000
# 4 0.000000 0.000000 0.000000 0.041647 0.000000 -0.001453
# 5 -0.004412 0.000275 -0.004891 0.000000 0.050368 0.000000
# 6 0.000000 0.000000 0.000000 -0.001453 0.000000 0.030088
#
#
# Mechanical properties :
#
#
# Convention : Reuss Voigt Hill
#
# Bulk Modulus (GPa) = 34.06358 36.33539 35.19948
# Shear Modulus (GPa) = 28.59348 31.30516 29.94932
#
# Velocity S-wave (km/s) = 3.70985 3.88178 3.79679
# Velocity P-wave (km/s) = 5.89463 6.13029 6.01361
#
# Compressibility (1/GPa) = 0.02935687
#
# Stress axis : x y z
#
# Youngs Moduli (GPa) = 87.55063 80.24756 81.41100
#
# Poissons Ratio (x) = 0.02564 0.12089
# Poissons Ratio (y) = 0.02797 0.13030
# Poissons Ratio (z) = 0.13001 0.12843
#
# Static dielectric constant tensor:
#      x y z
#    x 3.817540 0.000000 0.079050 
#    y 0.000000 3.684770 0.000000 
#    z 0.079050 0.000000 3.891110 
# 
# 
# High freq. dielectric constant tensor:
#      x y z
#    x 1.821880 0.000000 0.008010 
#    y 0.000000 1.814330 0.000000 
#    z 0.008010 0.000000 1.808860 
# 
# From -- ./inp_files/375051.got.cif
#   From: 2010.06.25/outbox.cif.g09.slc.cpg/sg12_188_cif.got.tgz:375051.got - 2010.06.28 00:19:55.
