data_PCOD8101920
_publ_section_title
;
Structure prediction by ZEFSAII (Michael W. Deem and Ramdas Pophale) SiO2 
 PCOD8101920
Probable space group: C 2/M
;
_chemical_formula_sum "Si O2"
_cell_formula_units_Z 52
_cell_length_a 12.812368
_cell_length_b 12.387823
_cell_length_c 26.762681
_cell_angle_alpha 90.000000
_cell_angle_beta 44.115158
_cell_angle_gamma 90.000000
_cell_volume 2956.836885
_symmetry_space_group_name_H-M "C 2/M"
_symmetry_group_IT_number 12
_symmetry_cell_setting 'monoclinic'
loop_
_space_group_symop_operation_xyz
x,y,z
-x,y,-z
-x,-y,-z
x,-y,z
1/2+x,1/2+y,z
1/2-x,1/2+y,-z
1/2-x,1/2-y,-z
1/2+x,1/2-y,z
loop_
_atom_site_type_symbol
_atom_site_label
_atom_site_fract_x
_atom_site_fract_y
_atom_site_fract_z
Si Si1 0.951864 0.373745 0.117112
Si Si2 0.196671 0.373754 0.117244
Si Si3 0.500000 0.250155 0.000000
Si Si4 0.149246 0.750053 0.233919
Si Si5 0.885830 0.628397 0.653844
Si Si6 0.123568 0.382189 0.500091
Si Si7 0.152472 0.871594 0.653681
O O1 0.918112 0.500000 0.122772
O O2 0.003513 0.327039 0.046534
O O3 0.803275 0.314319 0.186941
O O4 0.082301 0.351195 0.111826
O O5 0.212982 0.500000 0.123176
O O6 0.135801 0.314002 0.186998
O O7 0.356928 0.327375 0.046631
O O8 0.133702 0.663931 0.283002
O O9 0.017405 0.835975 0.283314
O O10 0.894314 0.500000 0.649092
O O11 0.743054 0.669798 0.671149
O O12 0.040872 0.676373 0.575585
O O13 0.177131 0.500000 0.500123
O O14 0.267478 0.323632 0.424643
O O15 0.000000 0.396380 0.500000
O O16 0.158143 0.000000 0.648978
#
# Coordination Sequence:
#
# PCOD8101920 Si02
#       7
#     8   8   4   8   8   8   8
#     4  10  21  36  52  73 101 126 150 188 235 278
#     4  10  21  36  52  73 101 126 150 188 235 278
#     4  10  20  36  60  78  88 118 164 194 220 272
#     4  11  20  30  48  73  98 128 160 187 228 286
#     4   9  17  30  47  67  93 125 162 202 238 274
#     4   7  12  25  44  64  88 120 158 202 244 270
#     4   9  17  30  47  67  93 125 162 202 238 274
#
# _framework density 17.586361
#
# number of rings (size 3 to 8) (size 9 to 14) (size 15 to 20)
#    0.000    2.615    0.000    4.615    0.000    0.615 
#    0.000    0.000    0.000   14.769    0.000    0.000 
#    0.000   19.692    0.000    0.000    0.000    0.000 
#
# Total GULP energy -322179.645176 kJ/mol
# GULP energy per Si atom -12391.524814 kJ/mol
# Density = 1.754633 g / cm^3
# Si number density = 17.586361 Si / 1000 Ang^3
#
#
#
# Elastic Constant Matrix: (Units=GPa)
#
#
# Indices 1 2 3 4 5 6 
#
# 1 88.1315 39.9374 57.4670 0.0000 -2.6405 0.0000
# 2 39.9374 64.1873 41.5675 0.0000 -0.0332 0.0000
# 3 57.4670 41.5675 145.1518 0.0000 -1.0230 0.0000
# 4 0.0000 0.0000 0.0000 47.8148 0.0000 -1.3731
# 5 -2.6405 -0.0332 -1.0230 0.0000 34.4422 0.0000
# 6 0.0000 0.0000 0.0000 -1.3731 0.0000 26.0270
#
#
#
# Elastic Compliance Matrix: (Units=1/GPa)
#
#
# Indices 1 2 3 4 5 6 
#
# 1 0.018290 -0.008220 -0.004878 0.000000 0.001249 0.000000
# 2 -0.008220 0.022822 -0.003286 0.000000 -0.000706 0.000000
# 3 -0.004878 -0.003286 0.009761 0.000000 -0.000087 0.000000
# 4 0.000000 0.000000 0.000000 0.020946 0.000000 0.001105
# 5 0.001249 -0.000706 -0.000087 0.000000 0.029127 0.000000
# 6 0.000000 0.000000 0.000000 0.001105 0.000000 0.038480
#
#
# Mechanical properties :
#
#
# Convention : Reuss Voigt Hill
#
# Bulk Modulus (GPa) = 55.23734 63.93493 59.58614
# Shear Modulus (GPa) = 28.05372 32.22338 30.13855
#
# Velocity S-wave (km/s) = 3.99833 4.28517 4.14423
# Velocity P-wave (km/s) = 7.26587 7.80496 7.54023
#
# Compressibility (1/GPa) = 0.01810369
#
# Stress axis : x y z
#
# Youngs Moduli (GPa) = 54.67405 43.81784 102.44704
#
# Poissons Ratio (x) = 0.36020 0.49978
# Poissons Ratio (y) = 0.44944 0.33664
# Poissons Ratio (z) = 0.26672 0.14398
#
# Static dielectric constant tensor:
#      x y z
#    x 3.200930 0.000000 -0.030510 
#    y 0.000000 3.023580 0.000000 
#    z -0.030510 0.000000 3.628040 
# 
# 
# High freq. dielectric constant tensor:
#      x y z
#    x 1.672780 0.000000 -0.002280 
#    y 0.000000 1.660300 0.000000 
#    z -0.002280 0.000000 1.703780 
# 
# From -- ./inp_files/335581.got.cif
#   From: 2010.06.25/outbox.cif.g09.slc.cpg/sg12_168_cif.got.tgz:335581.got - 2010.06.28 00:19:55.
