data_PCOD8101482
_publ_section_title
;
Structure prediction by ZEFSAII (Michael W. Deem and Ramdas Pophale) SiO2 
 PCOD8101482
Probable space group: C 2/M
;
_chemical_formula_sum "Si O2"
_cell_formula_units_Z 64
_cell_length_a 29.265437
_cell_length_b 9.183400
_cell_length_c 25.150222
_cell_angle_alpha 90.000000
_cell_angle_beta 30.094030
_cell_angle_gamma 90.000000
_cell_volume 3389.241381
_symmetry_space_group_name_H-M "C 2/M"
_symmetry_group_IT_number 12
_symmetry_cell_setting 'monoclinic'
loop_
_space_group_symop_operation_xyz
x,y,z
-x,y,-z
-x,-y,-z
x,-y,z
1/2+x,1/2+y,z
1/2-x,1/2+y,-z
1/2-x,1/2-y,-z
1/2+x,1/2-y,z
loop_
_atom_site_type_symbol
_atom_site_label
_atom_site_fract_x
_atom_site_fract_y
_atom_site_fract_z
Si Si1 0.902419 0.667784 0.079788
Si Si2 0.990076 0.670698 0.784466
Si Si3 0.304936 0.169697 0.399269
Si Si4 0.017151 0.169916 0.317200
Si Si5 0.345029 0.832745 0.019323
Si Si6 0.771580 0.669637 0.715814
Si Si7 0.830019 0.329335 0.775317
Si Si8 0.825526 0.832799 0.561660
O O1 0.888887 0.500000 0.109444
O O2 0.895934 0.692265 0.023552
O O3 0.827638 0.758757 0.186811
O O4 0.000000 0.726249 0.000000
O O5 0.986966 0.500000 0.774000
O O6 0.964115 0.761258 0.758833
O O7 0.089309 0.715767 0.706723
O O8 0.915480 0.714146 0.903148
O O9 0.250000 0.250000 0.500000
O O10 0.263338 0.209670 0.383532
O O11 0.292338 0.000000 0.423262
O O12 0.079103 0.248242 0.298496
O O13 0.912895 0.198545 0.437369
O O14 0.041329 0.000000 0.291206
O O15 0.255911 0.732142 0.105194
O O16 0.314138 0.000000 0.044043
O O17 0.760252 0.500000 0.717964
O O18 0.819681 0.704614 0.723282
O O19 0.832373 0.735104 0.607395
O O20 0.837887 0.500000 0.779086
O O21 0.822315 0.000000 0.583183
#
# Coordination Sequence:
#
# PCOD8101482 Si02
#       8
#     8   8   8   8   8   8   8   8
#     4   9  18  33  57  83 112 150 190 232 278 333
#     4  10  21  36  58  86 117 151 189 232 280 335
#     4  10  20  36  58  83 117 154 188 232 279 333
#     4  11  23  39  60  85 112 147 192 238 284 337
#     4   9  19  36  57  84 113 147 190 231 277 335
#     4  10  22  38  57  83 115 149 188 235 286 337
#     4  10  22  41  61  82 112 148 187 237 290 337
#     4  10  22  38  58  85 117 151 191 233 277 337
#
# _framework density 18.883282000000001
#
# number of rings (size 3 to 8) (size 9 to 14) (size 15 to 20)
#    0.000    2.125    1.250    1.125    1.750    4.750 
#    0.000    2.500    0.000    0.000    0.000    0.000 
#    0.000    0.000    0.000    0.000    0.000    0.000 
#
# Total GULP energy -396938.500942 kJ/mol
# GULP energy per Si atom -12404.328154 kJ/mol
# Density = 1.884030 g / cm^3
# Si number density = 18.883282 Si / 1000 Ang^3
#
#
#
# Elastic Constant Matrix: (Units=GPa)
#
#
# Indices 1 2 3 4 5 6 
#
# 1 87.6628 43.2388 32.1492 -0.0091 -4.8527 0.0029
# 2 43.2388 74.5976 36.1485 -0.0078 5.2471 0.0016
# 3 32.1492 36.1485 70.3226 -0.0096 17.8838 0.0044
# 4 -0.0091 -0.0078 -0.0096 33.4443 0.0042 3.3647
# 5 -4.8527 5.2471 17.8838 0.0042 32.1644 -0.0004
# 6 0.0029 0.0016 0.0044 3.3647 -0.0004 30.0234
#
#
#
# Elastic Compliance Matrix: (Units=1/GPa)
#
#
# Indices 1 2 3 4 5 6 
#
# 1 0.017959 -0.008049 -0.005935 0.000000 0.007323 0.000000
# 2 -0.008049 0.021641 -0.007265 0.000001 -0.000705 0.000001
# 3 -0.005935 -0.007265 0.023986 0.000006 -0.013047 -0.000003
# 4 0.000000 0.000001 0.000006 0.030241 -0.000007 -0.003389
# 5 0.007323 -0.000705 -0.013047 -0.000007 0.039564 0.000003
# 6 0.000000 0.000001 -0.000003 -0.003389 0.000003 0.033687
#
#
# Mechanical properties :
#
#
# Convention : Reuss Voigt Hill
#
# Bulk Modulus (GPa) = 47.42094 50.62845 49.02469
# Shear Modulus (GPa) = 23.08331 27.19619 25.13975
#
# Velocity S-wave (km/s) = 3.50011 3.79915 3.65269
# Velocity P-wave (km/s) = 6.44217 6.79074 6.61875
#
# Compressibility (1/GPa) = 0.02108773
#
# Stress axis : x y z
#
# Youngs Moduli (GPa) = 55.68140 46.20936 41.69056
#
# Poissons Ratio (x) = 0.37192 0.24745
# Poissons Ratio (y) = 0.44816 0.30289
# Poissons Ratio (z) = 0.33049 0.33572
#
# Static dielectric constant tensor:
#      x y z
#    x 3.531390 -0.000010 -0.065880 
#    y -0.000010 3.449790 0.000020 
#    z -0.065880 0.000020 3.458790 
# 
# 
# High freq. dielectric constant tensor:
#      x y z
#    x 1.738750 0.000000 -0.001440 
#    y 0.000000 1.732120 0.000000 
#    z -0.001440 0.000000 1.735460 
# 
# From -- ./inp_files/249085.got.cif
#   From: 2010.06.25/outbox.cif.g09.slc.cpg/sg12_125_cif.got.tgz:249085.got - 2010.06.28 00:19:55.
