data_PCOD8101615
_publ_section_title
;
Structure prediction by ZEFSAII (Michael W. Deem and Ramdas Pophale) SiO2 
 PCOD8101615
Probable space group: C 2/M
;
_chemical_formula_sum "Si O2"
_cell_formula_units_Z 64
_cell_length_a 25.160328
_cell_length_b 14.439770
_cell_length_c 18.926084
_cell_angle_alpha 90.000000
_cell_angle_beta 25.491633
_cell_angle_gamma 90.000000
_cell_volume 2959.297985
_symmetry_space_group_name_H-M "C 2/M"
_symmetry_group_IT_number 12
_symmetry_cell_setting 'monoclinic'
loop_
_space_group_symop_operation_xyz
x,y,z
-x,y,-z
-x,-y,-z
x,-y,z
1/2+x,1/2+y,z
1/2-x,1/2+y,-z
1/2-x,1/2-y,-z
1/2+x,1/2-y,z
loop_
_atom_site_type_symbol
_atom_site_label
_atom_site_fract_x
_atom_site_fract_y
_atom_site_fract_z
Si Si1 0.238796 0.104821 0.039114
Si Si2 0.199099 0.607194 0.389759
Si Si3 0.759721 0.235662 0.829561
Si Si4 0.077209 0.163860 0.970899
Si Si5 0.576483 0.892306 0.305845
Si Si6 0.109006 0.104751 0.425725
Si Si7 0.026587 0.109073 0.678696
Si Si8 0.361451 0.397258 0.316252
O O1 0.244897 0.173678 0.096304
O O2 0.118871 0.132595 0.136321
O O3 0.223346 0.000000 0.087052
O O4 0.360604 0.114543 0.846311
O O5 0.180901 0.500000 0.427314
O O6 0.295560 0.618588 0.209985
O O7 0.255424 0.652585 0.395249
O O8 0.063525 0.646357 0.533180
O O9 0.619425 0.265196 0.981114
O O10 0.852615 0.323621 0.725854
O O11 0.790542 0.176144 0.722757
O O12 0.000000 0.212188 0.000000
O O13 0.985672 0.092241 0.119258
O O14 0.582324 0.000000 0.326306
O O15 0.000000 0.106841 0.500000
O O16 0.067580 0.143610 0.551994
O O17 0.161159 0.000000 0.369580
O O18 0.106917 0.154063 0.646839
O O19 0.044140 0.000000 0.662457
O O20 0.315823 0.500000 0.388723
#
# Coordination Sequence:
#
# PCOD8101615 Si02
#       8
#     8   8   8   8   8   8   8   8
#     4  10  20  37  59  85 116 148 189 243 289 339
#     4   9  19  36  56  80 115 156 195 233 282 345
#     4  12  23  36  61  84 115 156 195 233 294 350
#     4  10  22  37  54  80 113 150 196 243 281 335
#     4  10  23  38  55  88 125 153 188 233 288 351
#     4  10  20  36  58  89 118 145 190 245 293 337
#     4   9  17  31  56  87 112 137 186 245 291 333
#     4   9  17  34  59  82 109 152 198 240 284 332
#
# _framework density 21.626750000000001
#
# number of rings (size 3 to 8) (size 9 to 14) (size 15 to 20)
#    0.000    2.125    1.250    1.875    1.750    3.500 
#    0.000    2.500    0.000    6.750    0.000    0.000 
#    0.000    0.000    0.000    0.000    0.000    0.000 
#
# Total GULP energy -396426.024612 kJ/mol
# GULP energy per Si atom -12388.313269 kJ/mol
# Density = 2.157753 g / cm^3
# Si number density = 21.626750 Si / 1000 Ang^3
#
#
#
# Elastic Constant Matrix: (Units=GPa)
#
#
# Indices 1 2 3 4 5 6 
#
# 1 142.0771 33.7278 30.7400 0.0000 -1.9607 0.0000
# 2 33.7278 60.8079 19.1202 0.0001 -8.8225 0.0000
# 3 30.7400 19.1202 79.7908 0.0000 -1.6797 0.0000
# 4 0.0000 0.0001 0.0000 14.4253 -0.0001 -0.4283
# 5 -1.9607 -8.8225 -1.6797 -0.0001 32.7764 0.0000
# 6 0.0000 0.0000 0.0000 -0.4283 0.0000 10.8087
#
#
#
# Elastic Compliance Matrix: (Units=1/GPa)
#
#
# Indices 1 2 3 4 5 6 
#
# 1 0.008499 -0.004091 -0.002309 0.000000 -0.000711 0.000000
# 2 -0.004091 0.020467 -0.003221 0.000000 0.005099 0.000000
# 3 -0.002309 -0.003221 0.014188 0.000000 -0.000278 0.000000
# 4 0.000000 0.000000 0.000000 0.069404 0.000000 0.002750
# 5 -0.000711 0.005099 -0.000278 0.000000 0.031826 0.000000
# 6 0.000000 0.000000 0.000000 0.002750 0.000000 0.092627
#
#
# Mechanical properties :
#
#
# Convention : Reuss Voigt Hill
#
# Bulk Modulus (GPa) = 41.81967 49.98352 45.90160
# Shear Modulus (GPa) = 18.92324 24.87461 21.89893
#
# Velocity S-wave (km/s) = 2.96124 3.39511 3.18557
# Velocity P-wave (km/s) = 5.57413 6.20734 5.89924
#
# Compressibility (1/GPa) = 0.02391219
#
# Stress axis : x y z
#
# Youngs Moduli (GPa) = 117.65427 48.85855 70.48053
#
# Poissons Ratio (x) = 0.19990 0.16274
# Poissons Ratio (y) = 0.48138 0.22701
# Poissons Ratio (z) = 0.27167 0.15737
#
# Static dielectric constant tensor:
#      x y z
#    x 4.338860 0.000000 -0.039590 
#    y 0.000000 3.814070 0.000000 
#    z -0.039590 0.000000 3.912890 
# 
# 
# High freq. dielectric constant tensor:
#      x y z
#    x 1.862570 0.000000 0.007320 
#    y 0.000000 1.822200 0.000000 
#    z 0.007320 0.000000 1.834810 
# 
# From -- ./inp_files/290097.got.cif
#   From: 2010.06.25/outbox.cif.g09.slc.cpg/sg12_146_cif.got.tgz:290097.got - 2010.06.28 00:19:55.
