data_PCOD8101783
_publ_section_title
;
Structure prediction by ZEFSAII (Michael W. Deem and Ramdas Pophale) SiO2 
 PCOD8101783
Probable space group: C 2/M
;
_chemical_formula_sum "Si O2"
_cell_formula_units_Z 52
_cell_length_a 9.257436
_cell_length_b 30.937582
_cell_length_c 16.000367
_cell_angle_alpha 90.000000
_cell_angle_beta 33.796772
_cell_angle_gamma 90.000000
_cell_volume 2549.036857
_symmetry_space_group_name_H-M "C 2/M"
_symmetry_group_IT_number 12
_symmetry_cell_setting 'monoclinic'
loop_
_space_group_symop_operation_xyz
x,y,z
-x,y,-z
-x,-y,-z
x,-y,z
1/2+x,1/2+y,z
1/2-x,1/2+y,-z
1/2-x,1/2-y,-z
1/2+x,1/2-y,z
loop_
_atom_site_type_symbol
_atom_site_label
_atom_site_fract_x
_atom_site_fract_y
_atom_site_fract_z
Si Si1 0.466054 0.110467 0.378598
Si Si2 0.656109 0.203156 0.843418
Si Si3 0.395339 0.883790 0.219172
Si Si4 0.529650 0.281154 0.795150
Si Si5 0.473725 0.547610 0.414369
Si Si6 0.500000 0.175426 0.500000
Si Si7 0.040273 0.133729 0.075777
O O1 0.381562 0.122618 0.325612
O O2 0.361070 0.144982 0.497146
O O3 0.784615 0.107681 0.232625
O O4 0.312058 0.066077 0.473711
O O5 0.719464 0.160954 0.759782
O O6 0.498164 0.237941 0.864600
O O7 0.913959 0.225484 0.757546
O O8 0.500000 0.189205 0.000000
O O9 0.210720 0.921465 0.271476
O O10 0.692486 0.894135 0.046428
O O11 0.826195 0.292888 0.638268
O O12 0.398463 0.322058 0.904845
O O13 0.500000 0.542800 0.500000
O O14 0.501175 0.500000 0.359660
O O15 0.000000 0.147596 0.000000
#
# Coordination Sequence:
#
# PCOD8101783 Si02
#       7
#     8   8   8   8   8   4   8
#     4   9  19  36  60  84 112 155 193 238 291 355
#     4  12  24  37  58  84 116 157 204 243 292 342
#     4  10  20  36  59  86 115 152 198 243 293 346
#     4  11  24  37  54  83 116 161 198 248 283 342
#     4   9  18  36  61  88 116 148 190 237 294 361
#     4  10  22  40  57  80 122 156 193 238 298 344
#     4   9  18  34  56  80 115 153 198 241 287 336
#
# _framework density 20.399863
#
# number of rings (size 3 to 8) (size 9 to 14) (size 15 to 20)
#    0.000    2.000    1.538    1.846    6.462    0.615 
#    4.154    1.154    0.000    5.077    0.000    0.000 
#    0.000    0.000    0.000    0.000    0.000    0.000 
#
# Total GULP energy -322115.319106 kJ/mol
# GULP energy per Si atom -12389.050735 kJ/mol
# Density = 2.035343 g / cm^3
# Si number density = 20.399863 Si / 1000 Ang^3
#
#
#
# Elastic Constant Matrix: (Units=GPa)
#
#
# Indices 1 2 3 4 5 6 
#
# 1 94.5953 57.7372 29.5925 0.0000 -13.8998 0.0000
# 2 57.7372 132.8158 48.3153 0.0000 -17.1667 0.0000
# 3 29.5925 48.3153 79.0191 0.0000 -8.3722 0.0000
# 4 0.0000 0.0000 0.0000 3.2026 0.0000 7.7588
# 5 -13.8998 -17.1667 -8.3722 0.0000 28.7494 0.0000
# 6 0.0000 0.0000 0.0000 7.7588 0.0000 10.5270
#
#
#
# Elastic Compliance Matrix: (Units=1/GPa)
#
#
# Indices 1 2 3 4 5 6 
#
# 1 0.014954 -0.005336 -0.001970 0.000000 0.003470 0.000000
# 2 -0.005336 0.012101 -0.005065 0.000000 0.003171 0.000000
# 3 -0.001970 -0.005065 0.016580 0.000000 0.000851 0.000000
# 4 0.000000 0.000000 0.000000 -0.397466 0.000000 0.292950
# 5 0.003470 0.003171 0.000851 0.000000 0.038603 0.000000
# 6 0.000000 0.000000 0.000000 0.292950 0.000000 -0.120922
#
#
# Mechanical properties :
#
#
# Convention : Reuss Voigt Hill
#
# Bulk Modulus (GPa) = 52.92699 64.19113 58.55906
# Shear Modulus (GPa) = -12.34229 19.88148 3.76960
#
# Velocity S-wave (km/s) = -2.46238 3.12523 1.36083
# Velocity P-wave (km/s) = 4.23281 6.67514 5.58901
#
# Compressibility (1/GPa) = 0.01889395
#
# Stress axis : x y z
#
# Youngs Moduli (GPa) = 66.87050 82.63751 60.31315
#
# Poissons Ratio (x) = 0.44092 0.11883
# Poissons Ratio (y) = 0.35679 0.30548
# Poissons Ratio (z) = 0.13175 0.41855
#
# Static dielectric constant tensor:
#      x y z
#    x 4.055360 0.000000 -0.159030 
#    y 0.000000 3.616480 0.000000 
#    z -0.159030 0.000000 3.838380 
# 
# 
# High freq. dielectric constant tensor:
#      x y z
#    x 1.806230 0.000000 -0.010430 
#    y 0.000000 1.760690 0.000000 
#    z -0.010430 0.000000 1.798680 
# 
# From -- ./inp_files/201185.got.cif
#   From: 2010.06.25/outbox.cif.g09.slc.cpg/sg12_101_cif.got.tgz:201185.got - 2010.06.28 00:19:55.
