data_PCOD8101831
_publ_section_title
;
Structure prediction by ZEFSAII (Michael W. Deem and Ramdas Pophale) SiO2 
 PCOD8101831
Probable space group: C 2/M
;
_chemical_formula_sum "Si O2"
_cell_formula_units_Z 48
_cell_length_a 27.230422
_cell_length_b 8.377588
_cell_length_c 15.499262
_cell_angle_alpha 90.000000
_cell_angle_beta 40.837965
_cell_angle_gamma 90.000000
_cell_volume 2312.120029
_symmetry_space_group_name_H-M "C 2/M"
_symmetry_group_IT_number 12
_symmetry_cell_setting 'monoclinic'
loop_
_space_group_symop_operation_xyz
x,y,z
-x,y,-z
-x,-y,-z
x,-y,z
1/2+x,1/2+y,z
1/2-x,1/2+y,-z
1/2-x,1/2-y,-z
1/2+x,1/2-y,z
loop_
_atom_site_type_symbol
_atom_site_label
_atom_site_fract_x
_atom_site_fract_y
_atom_site_fract_z
Si Si1 0.838002 0.685484 0.539541
Si Si2 0.584328 0.189969 0.389339
Si Si3 0.324667 0.816155 0.234850
Si Si4 0.579259 0.811663 0.058466
Si Si5 0.833527 0.688749 0.888382
Si Si6 0.086157 0.816756 0.728545
O O1 0.856927 0.500000 0.500187
O O2 0.872910 0.750218 0.582350
O O3 0.748837 0.707991 0.659696
O O4 0.875476 0.785693 0.413988
O O5 0.500000 0.257843 0.500000
O O6 0.626122 0.259448 0.249902
O O7 0.583795 0.000000 0.387357
O O8 0.375884 0.794734 0.250588
O O9 0.300198 0.000000 0.259977
O O10 0.371308 0.762100 0.089367
O O11 0.622890 0.751195 0.085040
O O12 0.501548 0.719115 0.158416
O O13 0.563123 0.000000 0.082057
O O14 0.833224 0.500000 0.886584
O O15 0.750000 0.750000 0.000000
O O16 0.098709 0.000000 0.737606
#
# Coordination Sequence:
#
# PCOD8101831 Si02
#       6
#     8   8   8   8   8   8
#     4  11  22  38  61  87 118 155 195 238 286 342
#     4   9  18  34  58  85 113 149 191 232 276 332
#     4  11  23  40  61  86 118 153 192 238 290 347
#     4  10  22  40  62  87 118 156 193 235 289 346
#     4  10  20  36  59  87 118 151 189 232 281 339
#     4  12  25  40  60  86 116 151 195 245 293 344
#
# _framework density 20.760168
#
# number of rings (size 3 to 8) (size 9 to 14) (size 15 to 20)
#    0.000    1.500    0.000    5.500    0.000    6.667 
#    0.000    0.833    0.000    3.500    0.000    0.000 
#    0.000    0.000    0.000    0.000    0.000    0.000 
#
# Total GULP energy -297751.110217 kJ/mol
# GULP energy per Si atom -12406.296259 kJ/mol
# Density = 2.071292 g / cm^3
# Si number density = 20.760168 Si / 1000 Ang^3
#
#
#
# Elastic Constant Matrix: (Units=GPa)
#
#
# Indices 1 2 3 4 5 6 
#
# 1 173.7195 7.3242 78.1053 0.0014 7.8273 0.0056
# 2 7.3242 37.3115 16.7488 0.0286 -0.6941 -0.0027
# 3 78.1053 16.7488 175.7766 0.0130 8.0621 -0.0006
# 4 0.0014 0.0286 0.0130 30.0320 -0.0074 -9.1175
# 5 7.8273 -0.6941 8.0621 -0.0074 47.5163 -0.0018
# 6 0.0056 -0.0027 -0.0006 -9.1175 -0.0018 6.3500
#
#
#
# Elastic Compliance Matrix: (Units=1/GPa)
#
#
# Indices 1 2 3 4 5 6 
#
# 1 0.007213 -0.000003 -0.003175 -0.000002 -0.000650 -0.000010
# 2 -0.000003 0.028035 -0.002710 -0.000038 0.000870 -0.000044
# 3 -0.003175 -0.002710 0.007393 0.000000 -0.000771 0.000002
# 4 -0.000002 -0.000038 0.000000 0.059029 0.000012 0.084756
# 5 -0.000650 0.000870 -0.000771 0.000012 0.021296 0.000024
# 6 -0.000010 -0.000044 0.000002 0.084756 0.000024 0.279175
#
#
# Mechanical properties :
#
#
# Convention : Reuss Voigt Hill
#
# Bulk Modulus (GPa) = 32.39835 65.68489 49.04162
# Shear Modulus (GPa) = 11.78673 35.75495 23.77084
#
# Velocity S-wave (km/s) = 2.38535 4.15455 3.38749
# Velocity P-wave (km/s) = 4.81938 7.39745 6.24294
#
# Compressibility (1/GPa) = 0.03086577
#
# Stress axis : x y z
#
# Youngs Moduli (GPa) = 138.63167 35.67019 135.25442
#
# Poissons Ratio (x) = 0.00010 0.42945
# Poissons Ratio (y) = 0.00038 0.36653
# Poissons Ratio (z) = 0.44018 0.09666
#
# Static dielectric constant tensor:
#      x y z
#    x 4.078510 0.000000 0.299520 
#    y 0.000000 3.440400 0.000010 
#    z 0.299520 0.000010 4.048600 
# 
# 
# High freq. dielectric constant tensor:
#      x y z
#    x 1.830080 0.000000 0.002380 
#    y 0.000000 1.790640 0.000000 
#    z 0.002380 0.000000 1.831520 
# 
# From -- ./inp_files/244644.got.cif
#   From: 2010.06.25/outbox.cif.g09.slc.cpg/sg12_123_cif.got.tgz:244644.got - 2010.06.28 00:19:55.
