data_PCOD8101051
_publ_section_title
;
Structure prediction by ZEFSAII (Michael W. Deem and Ramdas Pophale) SiO2 
 PCOD8101051
Probable space group: C 2/M
;
_chemical_formula_sum "Si O2"
_cell_formula_units_Z 40
_cell_length_a 27.208010
_cell_length_b 15.249810
_cell_length_c 5.292690
_cell_angle_alpha 90.000000
_cell_angle_beta 54.682951
_cell_angle_gamma 90.000000
_cell_volume 1791.882475
_symmetry_space_group_name_H-M "C 2/M"
_symmetry_group_IT_number 12
_symmetry_cell_setting 'monoclinic'
loop_
_space_group_symop_operation_xyz
x,y,z
-x,y,-z
-x,-y,-z
x,-y,z
1/2+x,1/2+y,z
1/2-x,1/2+y,-z
1/2-x,1/2-y,-z
1/2+x,1/2-y,z
loop_
_atom_site_type_symbol
_atom_site_label
_atom_site_fract_x
_atom_site_fract_y
_atom_site_fract_z
Si Si1 0.817396 0.500000 0.669798
Si Si2 0.428846 0.402947 0.219548
Si Si3 0.657771 0.817990 0.266845
Si Si4 0.070424 0.199224 0.282002
Si Si5 0.221091 0.188140 0.382087
Si Si6 0.261879 0.500000 0.593990
O O1 0.859572 0.412301 0.559669
O O2 0.785203 0.500000 0.495513
O O3 0.771955 0.500000 0.039058
O O4 0.399749 0.500000 0.278557
O O5 0.411117 0.366201 0.547186
O O6 0.500000 0.411390 0.000000
O O7 0.408656 0.341760 0.045110
O O8 0.608493 0.789778 0.204300
O O9 0.661775 0.737184 0.454108
O O10 0.726361 0.829845 0.974019
O O11 0.000000 0.223487 0.500000
O O12 0.250000 0.250000 0.500000
O O13 0.199226 0.090990 0.542604
#
# Coordination Sequence:
#
# PCOD8101051 Si02
#       6
#     4   8   8   8   8   4
#     4  10  20  36  59  80 108 150 188 223 287 340
#     4   9  18  35  57  79 111 155 193 226 276 336
#     4  10  22  37  58  84 112 152 188 235 285 336
#     4  10  21  36  57  84 115 150 191 236 280 331
#     4  10  20  37  59  82 114 148 189 234 283 343
#     4  10  20  36  56  84 112 143 185 230 281 336
#
# _framework density 22.322892
#
# number of rings (size 3 to 8) (size 9 to 14) (size 15 to 20)
#    0.000    2.200    2.000    0.600    2.800    2.400 
#    3.600    0.500    0.000    0.000    0.000    7.000 
#    0.000    0.000    0.000    0.000    0.000    0.000 
#
# Total GULP energy -247777.587115 kJ/mol
# GULP energy per Si atom -12388.879356 kJ/mol
# Density = 2.227208 g / cm^3
# Si number density = 22.322892 Si / 1000 Ang^3
#
#
#
# Elastic Constant Matrix: (Units=GPa)
#
#
# Indices 1 2 3 4 5 6 
#
# 1 69.2494 68.0172 -9.2320 0.0000 -4.3877 0.0000
# 2 68.0172 213.4636 -2.9936 0.0000 -0.4016 0.0000
# 3 -9.2320 -2.9936 36.4229 0.0000 -8.2971 0.0000
# 4 0.0000 0.0000 0.0000 11.2704 0.0000 15.1769
# 5 -4.3877 -0.4016 -8.2971 0.0000 5.9735 0.0000
# 6 0.0000 0.0000 0.0000 15.1769 0.0000 39.3068
#
#
#
# Elastic Compliance Matrix: (Units=1/GPa)
#
#
# Indices 1 2 3 4 5 6 
#
# 1 0.027457 -0.008451 0.015696 0.000000 0.041401 0.000000
# 2 -0.008451 0.007297 -0.004161 0.000000 -0.011496 0.000000
# 3 0.015696 -0.004161 0.049232 0.000000 0.079631 0.000000
# 4 0.000000 0.000000 0.000000 0.184831 0.000000 -0.071366
# 5 0.041401 -0.011496 0.079631 0.000000 0.307649 0.000000
# 6 0.000000 0.000000 0.000000 -0.071366 0.000000 0.052996
#
#
# Mechanical properties :
#
#
# Convention : Reuss Voigt Hill
#
# Bulk Modulus (GPa) = 11.09214 47.85768 29.47491
# Shear Modulus (GPa) = 7.65292 28.86643 18.25968
#
# Velocity S-wave (km/s) = 1.85357 3.59991 2.86314
# Velocity P-wave (km/s) = 3.09204 6.22612 4.91555
#
# Compressibility (1/GPa) = 0.09015394
#
# Stress axis : x y z
#
# Youngs Moduli (GPa) = 36.42117 137.03622 20.31213
#
# Poissons Ratio (x) = 1.15805 -0.31882
# Poissons Ratio (y) = 0.30778 0.08452
# Poissons Ratio (z) = -0.57166 0.57021
#
# Static dielectric constant tensor:
#      x y z
#    x 4.130650 0.000000 0.154520 
#    y 0.000000 4.145920 0.000000 
#    z 0.154520 0.000000 3.799350 
# 
# 
# High freq. dielectric constant tensor:
#      x y z
#    x 1.874830 0.000000 0.018990 
#    y 0.000000 1.895580 0.000000 
#    z 0.018990 0.000000 1.862450 
# 
# From -- ./inp_files/24098.got.cif
#   From: 2010.06.25/outbox.cif.g09.slc.cpg/sg12_13_cif.got.tgz:24098.got - 2010.06.28 00:19:55.
