data_PCOD8101477
_publ_section_title
;
Structure prediction by ZEFSAII (Michael W. Deem and Ramdas Pophale) SiO2 
 PCOD8101477
Probable space group: C 2/M
;
_chemical_formula_sum "Si O2"
_cell_formula_units_Z 64
_cell_length_a 13.902714
_cell_length_b 13.114621
_cell_length_c 17.096902
_cell_angle_alpha 90.000000
_cell_angle_beta 78.583767
_cell_angle_gamma 90.000000
_cell_volume 3055.583523
_symmetry_space_group_name_H-M "C 2/M"
_symmetry_group_IT_number 12
_symmetry_cell_setting 'monoclinic'
loop_
_space_group_symop_operation_xyz
x,y,z
-x,y,-z
-x,-y,-z
x,-y,z
1/2+x,1/2+y,z
1/2-x,1/2+y,-z
1/2-x,1/2-y,-z
1/2+x,1/2-y,z
loop_
_atom_site_type_symbol
_atom_site_label
_atom_site_fract_x
_atom_site_fract_y
_atom_site_fract_z
Si Si1 0.801793 0.611276 0.728160
Si Si2 0.662995 0.184515 0.108300
Si Si3 0.078954 0.887235 0.770783
Si Si4 0.638977 0.253413 0.411911
Si Si5 0.538268 0.618071 0.606927
Si Si6 0.250599 0.616041 0.503881
Si Si7 0.269269 0.117947 0.064796
Si Si8 0.039426 0.727923 0.911340
O O1 0.847810 0.500000 0.700561
O O2 0.806134 0.628173 0.819319
O O3 0.689400 0.610437 0.721499
O O4 0.856066 0.700963 0.673444
O O5 0.683623 0.307123 0.110294
O O6 0.548234 0.163557 0.113142
O O7 0.726559 0.133185 0.029279
O O8 0.021250 0.853034 0.701530
O O9 0.069052 0.816294 0.847435
O O10 0.044984 0.000000 0.802500
O O11 0.534542 0.311170 0.432627
O O12 0.727003 0.335568 0.413910
O O13 0.656463 0.168103 0.477002
O O14 0.509421 0.500000 0.597411
O O15 0.650237 0.636044 0.562284
O O16 0.222044 0.500000 0.519034
O O17 0.371195 0.150865 0.088862
O O18 0.245696 0.000000 0.089077
O O19 0.000000 0.774925 0.000000
#
# Coordination Sequence:
#
# PCOD8101477 Si02
#       8
#     8   8   8   8   8   8   8   8
#     4  11  21  37  60  84 114 156 199 240 289 351
#     4  10  21  37  59  85 112 154 195 241 293 351
#     4  10  20  36  58  83 116 154 197 247 293 342
#     4  11  21  34  62  91 114 150 194 241 283 340
#     4  10  20  38  63  89 117 155 201 240 286 346
#     4  10  21  39  61  90 121 151 192 238 288 347
#     4  10  21  38  58  84 118 152 193 243 294 349
#     4  10  21  37  57  84 117 151 198 245 295 351
#
# _framework density 20.945262
#
# number of rings (size 3 to 8) (size 9 to 14) (size 15 to 20)
#    0.000    1.750    2.500    2.250    0.000    4.500 
#    0.000    1.250    0.000   15.750    0.000    0.000 
#    0.000    0.000    0.000    0.000    0.000    0.000 
#
# Total GULP energy -396559.672254 kJ/mol
# GULP energy per Si atom -12392.489758 kJ/mol
# Density = 2.089759 g / cm^3
# Si number density = 20.945262 Si / 1000 Ang^3
#
#
#
# Elastic Constant Matrix: (Units=GPa)
#
#
# Indices 1 2 3 4 5 6 
#
# 1 57.6230 26.2927 23.1570 0.0000 20.0073 0.0000
# 2 26.2927 140.2391 44.5601 0.0000 10.8981 0.0000
# 3 23.1570 44.5601 84.6636 0.0000 16.9034 0.0000
# 4 0.0000 0.0000 0.0000 24.2726 0.0000 3.6444
# 5 20.0073 10.8981 16.9034 0.0000 28.0524 0.0000
# 6 0.0000 0.0000 0.0000 3.6444 0.0000 30.6852
#
#
#
# Elastic Compliance Matrix: (Units=1/GPa)
#
#
# Indices 1 2 3 4 5 6 
#
# 1 0.024825 -0.002737 -0.002304 0.000000 -0.015254 0.000000
# 2 -0.002737 0.008876 -0.004120 0.000000 0.000986 0.000000
# 3 -0.002304 -0.004120 0.015872 0.000000 -0.006320 0.000000
# 4 0.000000 0.000000 0.000000 0.041947 0.000000 -0.004982
# 5 -0.015254 0.000986 -0.006320 0.000000 0.049952 0.000000
# 6 0.000000 0.000000 0.000000 -0.004982 0.000000 0.033181
#
#
# Mechanical properties :
#
#
# Convention : Reuss Voigt Hill
#
# Bulk Modulus (GPa) = 31.99859 52.28281 42.14070
# Shear Modulus (GPa) = 24.58302 29.16975 26.87639
#
# Velocity S-wave (km/s) = 3.42962 3.73589 3.58603
# Velocity P-wave (km/s) = 5.56718 6.60492 6.10813
#
# Compressibility (1/GPa) = 0.03125138
#
# Stress axis : x y z
#
# Youngs Moduli (GPa) = 40.28140 112.65967 63.00417
#
# Poissons Ratio (x) = 0.30833 0.14517
# Poissons Ratio (y) = 0.11024 0.25958
# Poissons Ratio (z) = 0.09282 0.46417
#
# Static dielectric constant tensor:
#      x y z
#    x 3.725990 0.000000 0.312700 
#    y 0.000000 3.823210 0.000000 
#    z 0.312700 0.000000 3.774980 
# 
# 
# High freq. dielectric constant tensor:
#      x y z
#    x 1.807480 0.000000 0.030670 
#    y 0.000000 1.816340 0.000000 
#    z 0.030670 0.000000 1.820090 
# 
# From -- ./inp_files/269282.got.cif
#   From: 2010.06.25/outbox.cif.g09.slc.cpg/sg12_135_cif.got.tgz:269282.got - 2010.06.28 00:19:55.
