data_PCOD8101029
_publ_section_title
;
Structure prediction by ZEFSAII (Michael W. Deem and Ramdas Pophale) SiO2 
 PCOD8101029
Probable space group: C 2/M
;
_chemical_formula_sum "Si O2"
_cell_formula_units_Z 56
_cell_length_a 28.843366
_cell_length_b 9.446694
_cell_length_c 21.074075
_cell_angle_alpha 90.000000
_cell_angle_beta 150.709354
_cell_angle_gamma 90.000000
_cell_volume 2809.288440
_symmetry_space_group_name_H-M "C 2/M"
_symmetry_group_IT_number 12
_symmetry_cell_setting 'monoclinic'
loop_
_space_group_symop_operation_xyz
x,y,z
-x,y,-z
-x,-y,-z
x,-y,z
1/2+x,1/2+y,z
1/2-x,1/2+y,-z
1/2-x,1/2-y,-z
1/2+x,1/2-y,z
loop_
_atom_site_type_symbol
_atom_site_label
_atom_site_fract_x
_atom_site_fract_y
_atom_site_fract_z
Si Si1 0.670946 0.661455 0.593349
Si Si2 0.656772 0.337749 0.894427
Si Si3 0.453060 0.337229 0.359356
Si Si4 0.022562 0.332549 0.098778
Si Si5 0.383391 0.341157 0.015874
Si Si6 0.221167 0.334331 0.401730
Si Si7 0.183913 0.338364 0.721984
O O1 0.701726 0.500000 0.644464
O O2 0.562516 0.690974 0.479435
O O3 0.695770 0.696355 0.550089
O O4 0.724188 0.766444 0.705387
O O5 0.687308 0.500000 0.926457
O O6 0.590088 0.290488 0.758336
O O7 0.750000 0.250000 0.000000
O O8 0.597063 0.309134 0.887067
O O9 0.432480 0.500000 0.352918
O O10 0.408581 0.243474 0.362287
O O11 0.016943 0.500000 0.093580
O O12 0.123428 0.283798 0.250037
O O13 0.939119 0.272163 0.041870
O O14 0.000000 0.278702 0.000000
O O15 0.416156 0.500000 0.035959
O O16 0.270045 0.326536 0.873899
O O17 0.215116 0.500000 0.412380
O O18 0.250000 0.250000 0.500000
O O19 0.154758 0.500000 0.674009
#
# Coordination Sequence:
#
# PCOD8101029 Si02
#       7
#     8   8   8   8   8   8   8
#     4  10  22  40  61  83 112 154 198 236 283 347
#     4  10  20  36  56  82 115 151 191 236 286 343
#     4  10  21  36  58  84 113 154 198 231 278 347
#     4  10  22  41  64  91 119 153 202 252 298 352
#     4  10  22  37  58  87 118 151 190 237 293 350
#     4  10  23  42  64  90 121 158 200 250 302 354
#     4  11  22  37  57  87 122 152 187 237 292 344
#
# _framework density 19.933873999999999
#
# number of rings (size 3 to 8) (size 9 to 14) (size 15 to 20)
#    0.000    1.857    1.429    1.714    2.000    6.571 
#    0.000    0.000    0.000    0.000    0.000    0.000 
#    0.000    0.000    0.000    0.000    0.000    0.000 
#
# Total GULP energy -347099.392992 kJ/mol
# GULP energy per Si atom -12396.406893 kJ/mol
# Density = 1.988850 g / cm^3
# Si number density = 19.933874 Si / 1000 Ang^3
#
#
#
# Elastic Constant Matrix: (Units=GPa)
#
#
# Indices 1 2 3 4 5 6 
#
# 1 124.4049 48.4843 44.0111 0.0000 -12.7071 0.0000
# 2 48.4843 59.7994 33.4577 0.0000 -4.4673 0.0000
# 3 44.0111 33.4577 91.5214 0.0000 -17.9529 0.0000
# 4 0.0000 0.0000 0.0000 28.1992 0.0000 -3.3183
# 5 -12.7071 -4.4673 -17.9529 0.0000 34.3264 0.0000
# 6 0.0000 0.0000 0.0000 -3.3183 0.0000 35.4629
#
#
#
# Elastic Compliance Matrix: (Units=1/GPa)
#
#
# Indices 1 2 3 4 5 6 
#
# 1 0.012470 -0.008591 -0.002418 0.000000 0.002234 0.000000
# 2 -0.008591 0.027004 -0.006324 0.000000 -0.002973 0.000000
# 3 -0.002418 -0.006324 0.015672 0.000000 0.006478 0.000000
# 4 0.000000 0.000000 0.000000 0.035857 0.000000 0.003355
# 5 0.002234 -0.002973 0.006478 0.000000 0.032960 0.000000
# 6 0.000000 0.000000 0.000000 0.003355 0.000000 0.028512
#
#
# Mechanical properties :
#
#
# Convention : Reuss Voigt Hill
#
# Bulk Modulus (GPa) = 48.82713 58.62576 53.72645
# Shear Modulus (GPa) = 25.77761 29.58255 27.68008
#
# Velocity S-wave (km/s) = 3.59995 3.85650 3.73043
# Velocity P-wave (km/s) = 6.46740 7.02168 6.75023
#
# Compressibility (1/GPa) = 0.02048042
#
# Stress axis : x y z
#
# Youngs Moduli (GPa) = 80.19356 37.03175 63.80882
#
# Poissons Ratio (x) = 0.31813 0.15428
# Poissons Ratio (y) = 0.68891 0.40353
# Poissons Ratio (z) = 0.19390 0.23419
#
# Static dielectric constant tensor:
#      x y z
#    x 3.656630 0.000000 -0.252530 
#    y 0.000000 3.567200 0.000000 
#    z -0.252530 0.000000 3.774430 
# 
# 
# High freq. dielectric constant tensor:
#      x y z
#    x 1.785810 0.000000 -0.011820 
#    y 0.000000 1.768120 0.000000 
#    z -0.011820 0.000000 1.785920 
# 
# From -- ./inp_files/329655.got.cif
#   From: 2010.06.25/outbox.cif.g09.slc.cpg/sg12_165_cif.got.tgz:329655.got - 2010.06.28 00:19:55.
