data_PCOD8101065
_publ_section_title
;
Structure prediction by ZEFSAII (Michael W. Deem and Ramdas Pophale) SiO2 
 PCOD8101065
Probable space group: C 2/M
;
_chemical_formula_sum "Si O2"
_cell_formula_units_Z 40
_cell_length_a 8.503860
_cell_length_b 16.241479
_cell_length_c 14.126499
_cell_angle_alpha 90.000000
_cell_angle_beta 82.909542
_cell_angle_gamma 90.000000
_cell_volume 1936.164227
_symmetry_space_group_name_H-M "C 2/M"
_symmetry_group_IT_number 12
_symmetry_cell_setting 'monoclinic'
loop_
_space_group_symop_operation_xyz
x,y,z
-x,y,-z
-x,-y,-z
x,-y,z
1/2+x,1/2+y,z
1/2-x,1/2+y,-z
1/2-x,1/2-y,-z
1/2+x,1/2-y,z
loop_
_atom_site_type_symbol
_atom_site_label
_atom_site_fract_x
_atom_site_fract_y
_atom_site_fract_z
Si Si1 0.205251 0.834285 0.119925
Si Si2 0.500000 0.763856 0.000000
Si Si3 0.057405 0.000000 0.102987
Si Si4 0.930620 0.500000 0.611261
Si Si5 0.382269 0.669211 0.668293
Si Si6 0.939285 0.669441 0.398321
Si Si7 0.432540 0.500000 0.309872
O O1 0.054503 0.790013 0.084598
O O2 0.218502 0.812276 0.229235
O O3 0.178864 0.929108 0.112852
O O4 0.361581 0.819673 0.049064
O O5 0.919634 0.000000 0.194961
O O6 0.000000 0.000000 0.000000
O O7 0.993555 0.584887 0.656246
O O8 0.740007 0.500000 0.629971
O O9 0.000000 0.500000 0.500000
O O10 0.502000 0.745575 0.651960
O O11 0.476432 0.582588 0.662491
O O12 0.252868 0.667681 0.593210
O O13 0.000000 0.668724 0.500000
#
# Coordination Sequence:
#
# PCOD8101065 Si02
#       7
#     8   4   4   4   8   8   4
#     4  10  21  37  60  85 122 157 203 250 300 364
#     4  10  20  36  56  86 118 158 200 244 310 350
#     4  10  20  40  59  89 121 159 203 249 302 364
#     4  10  23  44  63  92 124 161 210 256 316 377
#     4  11  22  40  63  92 124 162 213 253 311 366
#     4  11  23  41  63  91 127 162 207 261 311 372
#     4  10  23  41  66  91 125 169 205 261 315 365
#
# _framework density 20.659403000000001
#
# number of rings (size 3 to 8) (size 9 to 14) (size 15 to 20)
#    0.000    1.600    1.000    3.600    0.000    3.600 
#    3.600    4.500    0.000    0.000    0.000    0.000 
#    0.000    0.000    0.000    0.000    0.000    0.000 
#
# Total GULP energy -247850.355715 kJ/mol
# GULP energy per Si atom -12392.517786 kJ/mol
# Density = 2.061238 g / cm^3
# Si number density = 20.659403 Si / 1000 Ang^3
#
#
#
# Elastic Constant Matrix: (Units=GPa)
#
#
# Indices 1 2 3 4 5 6 
#
# 1 117.6629 50.7787 28.8847 0.0000 1.0415 0.0000
# 2 50.7787 169.7394 27.3424 0.0000 -15.4342 0.0000
# 3 28.8847 27.3424 83.9915 0.0000 3.4112 0.0000
# 4 0.0000 0.0000 0.0000 28.7495 0.0000 -4.3503
# 5 1.0415 -15.4342 3.4112 0.0000 21.1712 0.0000
# 6 0.0000 0.0000 0.0000 -4.3503 0.0000 19.5651
#
#
#
# Elastic Compliance Matrix: (Units=1/GPa)
#
#
# Indices 1 2 3 4 5 6 
#
# 1 0.010394 -0.002902 -0.002540 0.000000 -0.002218 0.000000
# 2 -0.002902 0.007575 -0.001709 0.000000 0.005941 0.000000
# 3 -0.002540 -0.001709 0.013469 0.000000 -0.003291 0.000000
# 4 0.000000 0.000000 0.000000 0.035994 0.000000 0.008003
# 5 -0.002218 0.005941 -0.003291 0.000000 0.052204 0.000000
# 6 0.000000 0.000000 0.000000 0.008003 0.000000 0.052891
#
#
# Mechanical properties :
#
#
# Convention : Reuss Voigt Hill
#
# Bulk Modulus (GPa) = 58.35421 65.04504 61.69963
# Shear Modulus (GPa) = 25.96822 31.52302 28.74562
#
# Velocity S-wave (km/s) = 3.54922 3.91044 3.73420
# Velocity P-wave (km/s) = 6.71589 7.20705 6.96580
#
# Compressibility (1/GPa) = 0.01713672
#
# Stress axis : x y z
#
# Youngs Moduli (GPa) = 96.20547 132.01216 74.24182
#
# Poissons Ratio (x) = 0.38311 0.18856
# Poissons Ratio (y) = 0.27920 0.12689
# Poissons Ratio (z) = 0.24435 0.22563
#
# Static dielectric constant tensor:
#      x y z
#    x 3.635930 0.000000 -0.014560 
#    y 0.000000 4.426430 0.000000 
#    z -0.014560 0.000000 3.430070 
# 
# 
# High freq. dielectric constant tensor:
#      x y z
#    x 1.804690 0.000000 0.002640 
#    y 0.000000 1.834950 0.000000 
#    z 0.002640 0.000000 1.802010 
# 
# From -- ./inp_files/194636.got.cif
#   From: 2010.06.25/outbox.cif.g09.slc.cpg/sg12_98_cif.got.tgz:194636.got - 2010.06.28 00:19:55.
