data_PCOD8101323
_publ_section_title
;
Structure prediction by ZEFSAII (Michael W. Deem and Ramdas Pophale) SiO2 
 PCOD8101323
Probable space group: C 2/M
;
_chemical_formula_sum "Si O2"
_cell_formula_units_Z 64
_cell_length_a 19.284281
_cell_length_b 8.952479
_cell_length_c 20.268729
_cell_angle_alpha 90.000000
_cell_angle_beta 89.974620
_cell_angle_gamma 90.000000
_cell_volume 3499.236015
_symmetry_space_group_name_H-M "C 2/M"
_symmetry_group_IT_number 12
_symmetry_cell_setting 'monoclinic'
loop_
_space_group_symop_operation_xyz
x,y,z
-x,y,-z
-x,-y,-z
x,-y,z
1/2+x,1/2+y,z
1/2-x,1/2+y,-z
1/2-x,1/2-y,-z
1/2+x,1/2-y,z
loop_
_atom_site_type_symbol
_atom_site_label
_atom_site_fract_x
_atom_site_fract_y
_atom_site_fract_z
Si Si1 0.179393 0.325658 0.255854
Si Si2 0.918387 0.823957 0.000148
Si Si3 0.677116 0.822793 0.894440
Si Si4 0.822798 0.322924 0.894816
Si Si5 0.078444 0.675748 0.369178
Si Si6 0.179849 0.674584 0.743867
Si Si7 0.582492 0.330812 0.499816
Si Si8 0.420811 0.175879 0.369461
O O1 0.191426 0.500000 0.262296
O O2 0.160457 0.282547 0.180969
O O3 0.118562 0.270121 0.303961
O O4 0.249450 0.249014 0.279524
O O5 0.885026 0.748946 0.935801
O O6 0.903379 0.000000 0.000191
O O7 0.885248 0.748863 0.064622
O O8 0.000000 0.789427 0.000000
O O9 0.749939 0.750184 0.916767
O O10 0.660818 0.781426 0.818667
O O11 0.680735 0.000000 0.906704
O O12 0.818984 0.500000 0.907462
O O13 0.083837 0.500000 0.379667
O O14 0.111568 0.751827 0.434007
O O15 0.999623 0.727790 0.358825
O O16 0.190752 0.500000 0.737677
O O17 0.119626 0.731283 0.695360
O O18 0.500000 0.316816 0.500000
O O19 0.608560 0.500000 0.499903
O O20 0.611895 0.251245 0.565329
O O21 0.415251 0.000000 0.379396
#
# Coordination Sequence:
#
# PCOD8101323 Si02
#       8
#     8   8   8   8   8   8   8   8
#     4   9  19  34  53  77 103 132 166 206 250 298
#     4  11  24  39  54  77 109 139 170 213 260 303
#     4  10  20  36  58  80 104 137 175 212 253 306
#     4  10  20  36  58  80 104 137 175 212 253 306
#     4   9  17  31  51  73  98 130 167 206 249 297
#     4   9  19  34  53  77 103 132 166 206 250 298
#     4   9  17  29  46  71 100 129 165 207 250 297
#     4   9  17  31  51  73  98 130 167 206 249 297
#
# _framework density 18.289705000000001
#
# number of rings (size 3 to 8) (size 9 to 14) (size 15 to 20)
#    0.000    2.500    0.000    1.875    0.000    5.500 
#    0.000    3.125    0.000    3.000    0.000    0.000 
#    0.000    0.000    0.000    0.000    0.000    0.000 
#
# Total GULP energy -396827.634271 kJ/mol
# GULP energy per Si atom -12400.863571 kJ/mol
# Density = 1.824808 g / cm^3
# Si number density = 18.289705 Si / 1000 Ang^3
#
#
#
# Elastic Constant Matrix: (Units=GPa)
#
#
# Indices 1 2 3 4 5 6 
#
# 1 109.2640 50.7441 79.9476 0.0000 4.4948 0.0000
# 2 50.7441 70.1478 51.5083 0.0000 3.5910 0.0000
# 3 79.9476 51.5083 142.5132 0.0000 4.2930 0.0000
# 4 0.0000 0.0000 0.0000 23.5840 0.0000 -0.0558
# 5 4.4948 3.5910 4.2930 0.0000 2.2146 0.0000
# 6 0.0000 0.0000 0.0000 -0.0558 0.0000 27.4019
#
#
#
# Elastic Compliance Matrix: (Units=1/GPa)
#
#
# Indices 1 2 3 4 5 6 
#
# 1 0.018380 -0.007350 -0.007317 0.000000 -0.011202 0.000000
# 2 -0.007350 0.023126 -0.003776 0.000000 -0.015263 0.000000
# 3 -0.007317 -0.003776 0.012590 0.000000 -0.003432 0.000000
# 4 0.000000 0.000000 0.000000 0.042402 0.000000 0.000086
# 5 -0.011202 -0.015263 -0.003432 0.000000 0.505685 0.000000
# 6 0.000000 0.000000 0.000000 0.000086 0.000000 0.036494
#
#
# Mechanical properties :
#
#
# Convention : Reuss Voigt Hill
#
# Bulk Modulus (GPa) = 58.10207 76.25831 67.18019
# Shear Modulus (GPa) = 7.33893 19.95511 13.64702
#
# Velocity S-wave (km/s) = 2.00532 3.30670 2.73455
# Velocity P-wave (km/s) = 6.09905 7.50761 6.83968
#
# Compressibility (1/GPa) = 0.01721109
#
# Stress axis : x y z
#
# Youngs Moduli (GPa) = 54.40632 43.24144 79.43017
#
# Poissons Ratio (x) = 0.31781 0.58120
# Poissons Ratio (y) = 0.39987 0.29989
# Poissons Ratio (z) = 0.39810 0.16326
#
# Static dielectric constant tensor:
#      x y z
#    x 3.310610 0.000000 0.005160 
#    y 0.000000 3.374040 0.000000 
#    z 0.005160 0.000000 3.654030 
# 
# 
# High freq. dielectric constant tensor:
#      x y z
#    x 1.688600 0.000000 0.000040 
#    y 0.000000 1.711890 0.000000 
#    z 0.000040 0.000000 1.723010 
# 
# From -- ./inp_files/314099.got.cif
#   From: 2010.06.25/outbox.cif.g09.slc.cpg/sg12_158_cif.got.tgz:314099.got - 2010.06.28 00:19:55.
