data_PCOD8101648
_publ_section_title
;
Structure prediction by ZEFSAII (Michael W. Deem and Ramdas Pophale) SiO2 
 PCOD8101648
Probable space group: C 2/M
;
_chemical_formula_sum "Si O2"
_cell_formula_units_Z 64
_cell_length_a 18.192120
_cell_length_b 12.380425
_cell_length_c 14.628834
_cell_angle_alpha 90.000000
_cell_angle_beta 97.068572
_cell_angle_gamma 90.000000
_cell_volume 3269.754546
_symmetry_space_group_name_H-M "C 2/M"
_symmetry_group_IT_number 12
_symmetry_cell_setting 'monoclinic'
loop_
_space_group_symop_operation_xyz
x,y,z
-x,y,-z
-x,-y,-z
x,-y,z
1/2+x,1/2+y,z
1/2-x,1/2+y,-z
1/2-x,1/2-y,-z
1/2+x,1/2-y,z
loop_
_atom_site_type_symbol
_atom_site_label
_atom_site_fract_x
_atom_site_fract_y
_atom_site_fract_z
Si Si1 0.820287 0.300418 0.961850
Si Si2 0.031598 0.877892 0.290139
Si Si3 0.611467 0.754509 0.715053
Si Si4 0.544345 0.310686 0.090101
Si Si5 0.184419 0.627956 0.562105
Si Si6 0.062640 0.377866 0.880412
Si Si7 0.669980 0.753683 0.375566
Si Si8 0.755874 0.377809 0.772664
O O1 0.870123 0.204320 0.925642
O O2 0.793047 0.379272 0.877747
O O3 0.750000 0.250000 0.000000
O O4 0.867953 0.368017 0.041138
O O5 0.038996 0.879943 0.181110
O O6 0.093818 0.807181 0.347685
O O7 0.953614 0.830944 0.311080
O O8 0.037931 0.000000 0.326423
O O9 0.629042 0.813544 0.623208
O O10 0.588550 0.845398 0.783517
O O11 0.680418 0.688898 0.765446
O O12 0.506804 0.193422 0.098934
O O13 0.500000 0.369570 0.000000
O O14 0.178010 0.500000 0.571429
O O15 0.268328 0.663476 0.594959
O O16 0.160657 0.663713 0.457597
O O17 0.034063 0.500000 0.874058
O O18 0.687886 0.824057 0.289664
O O19 0.738892 0.500000 0.739525
#
# Coordination Sequence:
#
# PCOD8101648 Si02
#       8
#     8   8   8   8   8   8   8   8
#     4  11  20  36  55  85 122 151 197 251 294 350
#     4  11  22  41  63  86 119 162 199 240 297 350
#     4  10  22  39  57  87 123 152 200 244 288 355
#     4   9  21  38  57  85 121 155 203 247 284 350
#     4  10  21  41  66  90 121 156 191 246 306 347
#     4  10  20  36  59  82 116 161 199 243 299 350
#     4  10  22  40  63  93 119 150 204 246 285 360
#     4  11  21  37  59  84 119 158 194 244 304 348
#
# _framework density 19.573333999999999
#
# number of rings (size 3 to 8) (size 9 to 14) (size 15 to 20)
#    0.000    1.750    2.500    1.875    0.000    3.500 
#    0.000    7.500    0.000    0.000    0.000    0.000 
#    0.000    0.000    0.000    0.000    0.000    0.000 
#
# Total GULP energy -396900.703875 kJ/mol
# GULP energy per Si atom -12403.146996 kJ/mol
# Density = 1.952878 g / cm^3
# Si number density = 19.573334 Si / 1000 Ang^3
#
#
#
# Elastic Constant Matrix: (Units=GPa)
#
#
# Indices 1 2 3 4 5 6 
#
# 1 100.9266 19.8937 33.7138 0.0000 -11.8293 0.0000
# 2 19.8937 88.9350 18.3149 0.0000 -1.1622 0.0000
# 3 33.7138 18.3149 82.2490 0.0000 -2.1290 0.0000
# 4 0.0000 0.0000 0.0000 17.4514 0.0000 1.8146
# 5 -11.8293 -1.1622 -2.1290 0.0000 28.7703 0.0000
# 6 0.0000 0.0000 0.0000 1.8146 0.0000 16.7196
#
#
#
# Elastic Compliance Matrix: (Units=1/GPa)
#
#
# Indices 1 2 3 4 5 6 
#
# 1 0.012316 -0.001760 -0.004536 0.000000 0.004657 0.000000
# 2 -0.001760 0.012038 -0.001969 0.000000 -0.000383 0.000000
# 3 -0.004536 -0.001969 0.014433 0.000000 -0.000877 0.000000
# 4 0.000000 0.000000 0.000000 0.057956 0.000000 -0.006290
# 5 0.004657 -0.000383 -0.000877 0.000000 0.036593 0.000000
# 6 0.000000 0.000000 0.000000 -0.006290 0.000000 0.060493
#
#
# Mechanical properties :
#
#
# Convention : Reuss Voigt Hill
#
# Bulk Modulus (GPa) = 44.92839 46.21726 45.57282
# Shear Modulus (GPa) = 22.95911 25.93414 24.44662
#
# Velocity S-wave (km/s) = 3.42859 3.64397 3.53792
# Velocity P-wave (km/s) = 6.21911 6.43182 6.32636
#
# Compressibility (1/GPa) = 0.02225764
#
# Stress axis : x y z
#
# Youngs Moduli (GPa) = 81.19418 83.06775 69.28435
#
# Poissons Ratio (x) = 0.14620 0.31427
# Poissons Ratio (y) = 0.14290 0.13643
# Poissons Ratio (z) = 0.36829 0.16357
#
# Static dielectric constant tensor:
#      x y z
#    x 3.608390 0.000000 0.011590 
#    y 0.000000 3.346240 0.000000 
#    z 0.011590 0.000000 3.840760 
# 
# 
# High freq. dielectric constant tensor:
#      x y z
#    x 1.768340 0.000000 -0.003230 
#    y 0.000000 1.751180 0.000000 
#    z -0.003230 0.000000 1.773520 
# 
# From -- ./inp_files/223811.got.cif
#   From: 2010.06.25/outbox.cif.g09.slc.cpg/sg12_112_cif.got.tgz:223811.got - 2010.06.28 00:19:55.
