data_PCOD8101261
_publ_section_title
;
Structure prediction by ZEFSAII (Michael W. Deem and Ramdas Pophale) SiO2 
 PCOD8101261
Probable space group: C 2/M
;
_chemical_formula_sum "Si O2"
_cell_formula_units_Z 56
_cell_length_a 22.363060
_cell_length_b 9.251165
_cell_length_c 16.547836
_cell_angle_alpha 90.000000
_cell_angle_beta 125.760653
_cell_angle_gamma 90.000000
_cell_volume 2778.042195
_symmetry_space_group_name_H-M "C 2/M"
_symmetry_group_IT_number 12
_symmetry_cell_setting 'monoclinic'
loop_
_space_group_symop_operation_xyz
x,y,z
-x,y,-z
-x,-y,-z
x,-y,z
1/2+x,1/2+y,z
1/2-x,1/2+y,-z
1/2-x,1/2-y,-z
1/2+x,1/2-y,z
loop_
_atom_site_type_symbol
_atom_site_label
_atom_site_fract_x
_atom_site_fract_y
_atom_site_fract_z
Si Si1 0.219182 0.673721 0.056827
Si Si2 0.518834 0.160643 0.604605
Si Si3 0.583000 0.169750 0.052637
Si Si4 0.584027 0.333111 0.369135
Si Si5 0.797297 0.161642 0.407958
Si Si6 0.688143 0.837187 0.739001
Si Si7 0.869421 0.339495 0.737249
O O1 0.225254 0.500000 0.052030
O O2 0.133998 0.718773 0.015299
O O3 0.270563 0.725746 0.170359
O O4 0.250000 0.750000 0.000000
O O5 0.500000 0.216905 0.500000
O O6 0.485772 0.275048 0.639128
O O7 0.603441 0.156025 0.696132
O O8 0.484149 0.000000 0.587535
O O9 0.629681 0.213555 0.169122
O O10 0.573704 0.000000 0.036573
O O11 0.500000 0.237387 0.000000
O O12 0.573935 0.500000 0.347029
O O13 0.658051 0.294222 0.476816
O O14 0.581718 0.263624 0.278883
O O15 0.811023 0.281158 0.351577
O O16 0.712027 0.162008 0.363231
O O17 0.821213 0.000000 0.397535
O O18 0.722105 0.000000 0.770626
O O19 0.903845 0.500000 0.760066
#
# Coordination Sequence:
#
# PCOD8101261 Si02
#       7
#     8   8   8   8   8   8   8
#     4  11  23  42  66  94 127 157 202 257 313 375
#     4  10  21  38  57  81 115 158 205 247 292 357
#     4   9  19  38  65  91 116 155 203 250 300 361
#     4  11  23  35  54  87 123 157 197 248 302 354
#     4  10  20  36  57  84 117 155 197 240 295 354
#     4  11  22  37  62  89 115 154 202 247 298 357
#     4  10  20  37  59  83 116 158 199 240 294 359
#
# _framework density 20.158080999999999
#
# number of rings (size 3 to 8) (size 9 to 14) (size 15 to 20)
#    0.000    1.714    2.857    1.714    0.000    3.714 
#    0.000    2.857    0.000    3.000    0.000    0.000 
#    0.000    0.000    0.000    0.000    0.000    0.000 
#
# Total GULP energy -347001.073947 kJ/mol
# GULP energy per Si atom -12392.895498 kJ/mol
# Density = 2.011220 g / cm^3
# Si number density = 20.158081 Si / 1000 Ang^3
#
#
#
# Elastic Constant Matrix: (Units=GPa)
#
#
# Indices 1 2 3 4 5 6 
#
# 1 134.9549 54.4190 41.6265 0.0000 -14.6528 0.0000
# 2 54.4190 91.3948 32.5710 0.0000 -16.5386 0.0000
# 3 41.6265 32.5710 49.1563 0.0000 -3.1465 0.0000
# 4 0.0000 0.0000 0.0000 23.0618 0.0000 6.2948
# 5 -14.6528 -16.5386 -3.1465 0.0000 35.5628 0.0000
# 6 0.0000 0.0000 0.0000 6.2948 0.0000 12.7712
#
#
#
# Elastic Compliance Matrix: (Units=1/GPa)
#
#
# Indices 1 2 3 4 5 6 
#
# 1 0.011349 -0.003896 -0.006885 0.000000 0.002255 0.000000
# 2 -0.003896 0.016986 -0.007596 0.000000 0.005622 0.000000
# 3 -0.006885 -0.007596 0.030974 0.000000 -0.003629 0.000000
# 4 0.000000 0.000000 0.000000 0.050102 0.000000 -0.024695
# 5 0.002255 0.005622 -0.003629 0.000000 0.031342 0.000000
# 6 0.000000 0.000000 0.000000 -0.024695 0.000000 0.090473
#
#
# Mechanical properties :
#
#
# Convention : Reuss Voigt Hill
#
# Bulk Modulus (GPa) = 44.33424 59.19322 51.76373
# Shear Modulus (GPa) = 18.14892 24.07179 21.11035
#
# Velocity S-wave (km/s) = 3.00380 3.45940 3.23962
# Velocity P-wave (km/s) = 5.83708 6.73683 6.30303
#
# Compressibility (1/GPa) = 0.02255593
#
# Stress axis : x y z
#
# Youngs Moduli (GPa) = 88.11010 58.87368 32.28489
#
# Poissons Ratio (x) = 0.22937 0.22228
# Poissons Ratio (y) = 0.34327 0.24522
# Poissons Ratio (z) = 0.60665 0.44718
#
# Static dielectric constant tensor:
#      x y z
#    x 3.780000 0.000000 0.071140 
#    y 0.000000 3.665780 0.000000 
#    z 0.071140 0.000000 3.665700 
# 
# 
# High freq. dielectric constant tensor:
#      x y z
#    x 1.789960 0.000000 0.001020 
#    y 0.000000 1.775700 0.000000 
#    z 0.001020 0.000000 1.779050 
# 
# From -- ./inp_files/280989.got.cif
#   From: 2010.06.25/outbox.cif.g09.slc.cpg/sg12_141_cif.got.tgz:280989.got - 2010.06.28 00:19:55.
