data_PCOD8101851
_publ_section_title
;
Structure prediction by ZEFSAII (Michael W. Deem and Ramdas Pophale) SiO2 
 PCOD8101851
Probable space group: C 2/M
;
_chemical_formula_sum "Si O2"
_cell_formula_units_Z 64
_cell_length_a 19.529563
_cell_length_b 8.502401
_cell_length_c 20.879751
_cell_angle_alpha 90.000000
_cell_angle_beta 69.410596
_cell_angle_gamma 90.000000
_cell_volume 3245.585667
_symmetry_space_group_name_H-M "C 2/M"
_symmetry_group_IT_number 12
_symmetry_cell_setting 'monoclinic'
loop_
_space_group_symop_operation_xyz
x,y,z
-x,y,-z
-x,-y,-z
x,-y,z
1/2+x,1/2+y,z
1/2-x,1/2+y,-z
1/2-x,1/2-y,-z
1/2+x,1/2-y,z
loop_
_atom_site_type_symbol
_atom_site_label
_atom_site_fract_x
_atom_site_fract_y
_atom_site_fract_z
Si Si1 0.818463 0.687157 0.938640
Si Si2 0.818997 0.317244 0.678005
Si Si3 0.664474 0.818520 0.692488
Si Si4 0.030224 0.683887 0.055314
Si Si5 0.125290 0.184903 0.207987
Si Si6 0.678291 0.320594 0.553311
Si Si7 0.581256 0.320323 0.463401
Si Si8 0.526575 0.318546 0.803531
O O1 0.816230 0.500000 0.934204
O O2 0.889713 0.750225 0.953265
O O3 0.820434 0.758468 0.866421
O O4 0.750000 0.750000 0.000000
O O5 0.799591 0.500000 0.683436
O O6 0.744711 0.220897 0.692213
O O7 0.854655 0.272913 0.733612
O O8 0.875357 0.282536 0.602258
O O9 0.657136 0.786490 0.619889
O O10 0.603823 0.711946 0.745718
O O11 0.647895 0.000000 0.711846
O O12 0.036629 0.500000 0.043016
O O13 0.974078 0.720956 0.130622
O O14 0.000000 0.763018 0.000000
O O15 0.041414 0.231748 0.219338
O O16 0.134890 0.000000 0.215113
O O17 0.691775 0.500000 0.571303
O O18 0.750000 0.250000 0.500000
O O19 0.615056 0.310120 0.522393
O O20 0.500000 0.253134 0.500000
O O21 0.580315 0.500000 0.438501
O O22 0.518787 0.500000 0.823763
#
# Coordination Sequence:
#
# PCOD8101851 Si02
#       8
#     8   8   8   8   8   8   8   8
#     4  10  20  36  59  87 120 157 201 246 296 352
#     4  12  25  41  62  89 121 154 200 252 299 356
#     4  12  25  41  62  87 121 161 201 246 300 357
#     4   9  19  37  60  86 118 156 197 243 293 348
#     4  10  22  41  63  86 120 160 199 245 304 359
#     4  11  22  39  63  89 120 156 196 246 299 352
#     4  10  23  42  63  88 119 157 198 241 297 357
#     4  10  22  40  62  89 120 157 201 247 296 354
#
# _framework density 19.719090999999999
#
# number of rings (size 3 to 8) (size 9 to 14) (size 15 to 20)
#    0.000    1.500    1.250    3.750    1.750    4.000 
#    0.000    3.750    0.000    0.000    0.000    0.000 
#    0.000    0.000    0.000    0.000    0.000    0.000 
#
# Total GULP energy -396912.187111 kJ/mol
# GULP energy per Si atom -12403.505847 kJ/mol
# Density = 1.967421 g / cm^3
# Si number density = 19.719091 Si / 1000 Ang^3
#
#
#
# Elastic Constant Matrix: (Units=GPa)
#
#
# Indices 1 2 3 4 5 6 
#
# 1 98.9203 16.2029 55.6339 0.0003 -1.2047 0.0005
# 2 16.2029 56.8313 4.1793 0.0009 6.8569 0.0015
# 3 55.6339 4.1793 111.0719 0.0002 0.5065 0.0002
# 4 0.0003 0.0009 0.0002 37.2013 0.0001 -1.5535
# 5 -1.2047 6.8569 0.5065 0.0001 42.5365 0.0003
# 6 0.0005 0.0015 0.0002 -1.5535 0.0003 26.9540
#
#
#
# Elastic Compliance Matrix: (Units=1/GPa)
#
#
# Indices 1 2 3 4 5 6 
#
# 1 0.014858 -0.003835 -0.007303 0.000000 0.001126 0.000000
# 2 -0.003835 0.018984 0.001221 0.000000 -0.003183 -0.000001
# 3 -0.007303 0.001221 0.012618 0.000000 -0.000554 0.000000
# 4 0.000000 0.000000 0.000000 0.026946 0.000000 0.001553
# 5 0.001126 -0.003183 -0.000554 0.000000 0.024061 0.000000
# 6 0.000000 -0.000001 0.000000 0.001553 0.000000 0.037190
#
#
# Mechanical properties :
#
#
# Convention : Reuss Voigt Hill
#
# Bulk Modulus (GPa) = 37.55769 46.53951 42.04860
# Shear Modulus (GPa) = 30.60625 34.05886 32.33256
#
# Velocity S-wave (km/s) = 3.94396 4.16047 4.05366
# Velocity P-wave (km/s) = 6.31090 6.83607 6.57873
#
# Compressibility (1/GPa) = 0.02662570
#
# Stress axis : x y z
#
# Youngs Moduli (GPa) = 67.30203 52.67704 79.25337
#
# Poissons Ratio (x) = 0.20202 0.57880
# Poissons Ratio (y) = 0.25810 -0.09678
# Poissons Ratio (z) = 0.49152 -0.06432
#
# Static dielectric constant tensor:
#      x y z
#    x 3.795000 0.000000 0.075060 
#    y 0.000000 3.604700 0.000000 
#    z 0.075060 0.000000 3.572860 
# 
# 
# High freq. dielectric constant tensor:
#      x y z
#    x 1.774650 0.000000 0.002410 
#    y 0.000000 1.773090 0.000000 
#    z 0.002410 0.000000 1.776140 
# 
# From -- ./inp_files/319960.got.cif
#   From: 2010.06.25/outbox.cif.g09.slc.cpg/sg12_160_cif.got.tgz:319960.got - 2010.06.28 00:19:55.
