data_PCOD8101501
_publ_section_title
;
Structure prediction by ZEFSAII (Michael W. Deem and Ramdas Pophale) SiO2 
 PCOD8101501
Probable space group: C 2/M
;
_chemical_formula_sum "Si O2"
_cell_formula_units_Z 64
_cell_length_a 10.478675
_cell_length_b 17.779056
_cell_length_c 27.529850
_cell_angle_alpha 90.000000
_cell_angle_beta 40.597675
_cell_angle_gamma 90.000000
_cell_volume 3337.556989
_symmetry_space_group_name_H-M "C 2/M"
_symmetry_group_IT_number 12
_symmetry_cell_setting 'monoclinic'
loop_
_space_group_symop_operation_xyz
x,y,z
-x,y,-z
-x,-y,-z
x,-y,z
1/2+x,1/2+y,z
1/2-x,1/2+y,-z
1/2-x,1/2-y,-z
1/2+x,1/2-y,z
loop_
_atom_site_type_symbol
_atom_site_label
_atom_site_fract_x
_atom_site_fract_y
_atom_site_fract_z
Si Si1 0.852759 0.916886 0.499059
Si Si2 0.365454 0.318973 0.643404
Si Si3 0.796245 0.417235 0.779673
Si Si4 0.083786 0.417558 0.779954
Si Si5 0.924459 0.160438 0.913593
Si Si6 0.172372 0.416635 0.911741
Si Si7 0.088183 0.337256 0.084756
Si Si8 0.061022 0.680220 0.642065
O O1 0.666444 0.870909 0.571613
O O2 0.000000 0.928623 0.500000
O O3 0.961113 0.872251 0.425199
O O4 0.787490 0.000000 0.499193
O O5 0.210069 0.298062 0.644239
O O6 0.474704 0.249435 0.636721
O O7 0.264280 0.361819 0.718058
O O8 0.718583 0.500000 0.784902
O O9 0.986989 0.431405 0.756282
O O10 0.639207 0.373409 0.859095
O O11 0.867180 0.365039 0.715095
O O12 0.149694 0.500000 0.781309
O O13 0.919700 0.379499 0.861909
O O14 0.857911 0.121994 0.882716
O O15 0.923559 0.248751 0.905075
O O16 0.787410 0.139366 0.999094
O O17 0.226540 0.500000 0.877260
O O18 0.106919 0.363824 0.886707
O O19 0.000000 0.421266 0.000000
#
# Coordination Sequence:
#
# PCOD8101501 Si02
#       8
#     8   8   8   8   8   8   8   8
#     4   9  17  32  59  89 114 147 188 224 266 325
#     4  10  20  36  58  84 114 146 184 228 274 326
#     4  10  21  36  54  77 107 141 179 226 277 328
#     4  10  21  36  54  77 107 141 179 226 277 328
#     4  10  21  35  54  78 106 139 181 229 278 333
#     4   9  18  34  54  74 101 138 178 222 274 334
#     4  10  21  35  54  78 106 139 181 229 278 333
#     4  10  20  36  58  84 114 146 184 228 274 326
#
# _framework density 19.175701
#
# number of rings (size 3 to 8) (size 9 to 14) (size 15 to 20)
#    0.000    2.250    0.000    2.625    1.750    5.000 
#    2.250    1.250    0.000    3.000    0.000    0.000 
#    0.000    0.000    0.000    0.000    0.000    0.000 
#
# Total GULP energy -396545.889361 kJ/mol
# GULP energy per Si atom -12392.059043 kJ/mol
# Density = 1.913206 g / cm^3
# Si number density = 19.175701 Si / 1000 Ang^3
#
#
#
# Elastic Constant Matrix: (Units=GPa)
#
#
# Indices 1 2 3 4 5 6 
#
# 1 47.4554 34.7942 22.2536 -0.0003 -2.5246 0.0004
# 2 34.7942 144.7267 74.0636 -0.0069 -5.8573 0.0000
# 3 22.2536 74.0636 135.1591 -0.0024 -3.7105 0.0007
# 4 -0.0003 -0.0069 -0.0024 -76.5201 -0.0021 -23.5783
# 5 -2.5246 -5.8573 -3.7105 -0.0021 20.0502 -0.0005
# 6 0.0004 0.0000 0.0007 -23.5783 -0.0005 27.3730
#
#
#
# Elastic Compliance Matrix: (Units=1/GPa)
#
#
# Indices 1 2 3 4 5 6 
#
# 1 0.025755 -0.005537 -0.001167 0.000000 0.001409 0.000000
# 2 -0.005537 0.010861 -0.004997 -0.000001 0.001551 0.000000
# 3 -0.001167 -0.004997 0.010338 0.000000 0.000306 0.000000
# 4 0.000000 -0.000001 0.000000 -0.010327 -0.000001 -0.008896
# 5 0.001409 0.001551 0.000306 -0.000001 0.050562 0.000000
# 6 0.000000 0.000000 0.000000 -0.008896 0.000000 0.028870
#
#
# Mechanical properties :
#
#
# Convention : Reuss Voigt Hill
#
# Bulk Modulus (GPa) = 42.46397 65.50712 53.98554
# Shear Modulus (GPa) = 33.94166 7.26261 20.60213
#
# Velocity S-wave (km/s) = 4.21174 1.94824 3.28134
# Velocity P-wave (km/s) = 6.77085 6.26869 6.52461
#
# Compressibility (1/GPa) = 0.02354938
#
# Stress axis : x y z
#
# Youngs Moduli (GPa) = 38.82769 92.07352 96.73376
#
# Poissons Ratio (x) = 0.50984 0.11294
# Poissons Ratio (y) = 0.21500 0.48340
# Poissons Ratio (z) = 0.04533 0.46011
#
# Static dielectric constant tensor:
#      x y z
#    x 3.327190 -0.000010 0.019200 
#    y -0.000010 3.822010 0.000010 
#    z 0.019200 0.000010 3.608250 
# 
# 
# High freq. dielectric constant tensor:
#      x y z
#    x 1.712910 0.000000 -0.001290 
#    y 0.000000 1.763370 0.000000 
#    z -0.001290 0.000000 1.747990 
# 
# From -- ./inp_files/374076.got.cif
#   From: 2010.06.25/outbox.cif.g09.slc.cpg/sg12_188_cif.got.tgz:374076.got - 2010.06.28 00:19:55.
