data_PCOD8101613
_publ_section_title
;
Structure prediction by ZEFSAII (Michael W. Deem and Ramdas Pophale) SiO2 
 PCOD8101613
Probable space group: C 2/M
;
_chemical_formula_sum "Si O2"
_cell_formula_units_Z 64
_cell_length_a 28.538084
_cell_length_b 8.895975
_cell_length_c 23.597485
_cell_angle_alpha 90.000000
_cell_angle_beta 147.516311
_cell_angle_gamma 90.000000
_cell_volume 3217.410531
_symmetry_space_group_name_H-M "C 2/M"
_symmetry_group_IT_number 12
_symmetry_cell_setting 'monoclinic'
loop_
_space_group_symop_operation_xyz
x,y,z
-x,y,-z
-x,-y,-z
x,-y,z
1/2+x,1/2+y,z
1/2-x,1/2+y,-z
1/2-x,1/2-y,-z
1/2+x,1/2-y,z
loop_
_atom_site_type_symbol
_atom_site_label
_atom_site_fract_x
_atom_site_fract_y
_atom_site_fract_z
Si Si1 0.347185 0.821949 0.466911
Si Si2 0.901383 0.322157 0.896393
Si Si3 0.013196 0.174908 0.198360
Si Si4 0.903197 0.322500 0.403014
Si Si5 0.508677 0.325397 0.692899
Si Si6 0.852537 0.174430 0.958896
Si Si7 0.660609 0.825646 0.783414
Si Si8 0.668925 0.177821 0.295902
O O1 0.353505 0.764015 0.408311
O O2 0.433089 0.771966 0.587621
O O3 0.262208 0.746701 0.407921
O O4 0.338667 0.000000 0.462896
O O5 0.900107 0.500000 0.897967
O O6 0.847333 0.259318 0.893930
O O7 0.858838 0.264051 0.794684
O O8 0.000000 0.260151 0.000000
O O9 0.099135 0.267417 0.270585
O O10 0.989819 0.206765 0.239118
O O11 0.030752 0.000000 0.204867
O O12 0.932125 0.234628 0.078178
O O13 0.910846 0.500000 0.415747
O O14 0.852644 0.273547 0.295132
O O15 0.000000 0.251416 0.500000
O O16 0.493193 0.500000 0.663526
O O17 0.602666 0.275276 0.765484
O O18 0.762445 0.201984 0.901230
O O19 0.863738 0.000000 0.956347
O O20 0.633941 0.000000 0.763796
O O21 0.674951 0.000000 0.304922
#
# Coordination Sequence:
#
# PCOD8101613 Si02
#       8
#     8   8   8   8   8   8   8   8
#     4  11  22  39  64  89 117 153 194 240 291 346
#     4  10  20  36  58  88 125 157 185 231 296 354
#     4  10  23  42  60  82 115 155 201 248 289 339
#     4   9  16  31  57  86 115 146 183 229 282 343
#     4  11  24  41  59  83 117 154 196 246 296 346
#     4  10  21  37  61  89 116 153 202 244 283 342
#     4  10  20  37  60  87 117 151 192 239 290 347
#     4  11  23  39  61  89 121 154 192 237 291 352
#
# _framework density 19.891773000000001
#
# number of rings (size 3 to 8) (size 9 to 14) (size 15 to 20)
#    0.000    1.750    2.500    1.875    0.000    4.750 
#    0.000    1.875    0.000    0.000    0.000    0.000 
#    0.000    0.000    0.000    0.000    0.000    0.000 
#
# Total GULP energy -396907.840541 kJ/mol
# GULP energy per Si atom -12403.370017 kJ/mol
# Density = 1.984650 g / cm^3
# Si number density = 19.891773 Si / 1000 Ang^3
#
#
#
# Elastic Constant Matrix: (Units=GPa)
#
#
# Indices 1 2 3 4 5 6 
#
# 1 105.2574 39.3760 49.5462 0.0000 7.1606 0.0000
# 2 39.3760 52.2548 21.9246 0.0000 1.4793 0.0000
# 3 49.5462 21.9246 54.8815 0.0000 18.7617 0.0000
# 4 0.0000 0.0000 0.0000 24.1194 0.0000 3.6018
# 5 7.1606 1.4793 18.7617 0.0000 36.9198 0.0000
# 6 0.0000 0.0000 0.0000 3.6018 0.0000 32.5824
#
#
#
# Elastic Compliance Matrix: (Units=1/GPa)
#
#
# Indices 1 2 3 4 5 6 
#
# 1 0.019989 -0.008341 -0.016341 0.000000 0.004762 0.000000
# 2 -0.008341 0.027116 -0.004216 0.000000 0.002674 0.000000
# 3 -0.016341 -0.004216 0.040564 0.000000 -0.017275 0.000000
# 4 0.000000 0.000000 0.000000 0.042156 0.000000 -0.004660
# 5 0.004762 0.002674 -0.017275 0.000000 0.034834 0.000000
# 6 0.000000 0.000000 0.000000 -0.004660 0.000000 0.031207
#
#
# Mechanical properties :
#
#
# Convention : Reuss Voigt Hill
#
# Bulk Modulus (GPa) = 33.47740 48.23191 40.85466
# Shear Modulus (GPa) = 18.96671 25.49412 22.23042
#
# Velocity S-wave (km/s) = 3.09122 3.58389 3.34663
# Velocity P-wave (km/s) = 5.44125 6.43626 5.95956
#
# Compressibility (1/GPa) = 0.02987090
#
# Stress axis : x y z
#
# Youngs Moduli (GPa) = 50.02754 36.87918 24.65244
#
# Poissons Ratio (x) = 0.30760 0.40286
# Poissons Ratio (y) = 0.41727 0.10395
# Poissons Ratio (z) = 0.81752 0.15550
#
# Static dielectric constant tensor:
#      x y z
#    x 3.653300 0.000000 0.047910 
#    y 0.000000 3.418410 0.000000 
#    z 0.047910 0.000000 3.692970 
# 
# 
# High freq. dielectric constant tensor:
#      x y z
#    x 1.780120 0.000000 0.009820 
#    y 0.000000 1.758390 0.000000 
#    z 0.009820 0.000000 1.781950 
# 
# From -- ./inp_files/353437.got.cif
#   From: 2010.06.25/outbox.cif.g09.slc.cpg/sg12_177_cif.got.tgz:353437.got - 2010.06.28 00:19:55.
