data_PCOD8101476
_publ_section_title
;
Structure prediction by ZEFSAII (Michael W. Deem and Ramdas Pophale) SiO2 
 PCOD8101476
Probable space group: C 2/M
;
_chemical_formula_sum "Si O2"
_cell_formula_units_Z 56
_cell_length_a 14.253423
_cell_length_b 13.249961
_cell_length_c 17.789243
_cell_angle_alpha 90.000000
_cell_angle_beta 120.519542
_cell_angle_gamma 90.000000
_cell_volume 2894.172038
_symmetry_space_group_name_H-M "C 2/M"
_symmetry_group_IT_number 12
_symmetry_cell_setting 'monoclinic'
loop_
_space_group_symop_operation_xyz
x,y,z
-x,y,-z
-x,-y,-z
x,-y,z
1/2+x,1/2+y,z
1/2-x,1/2+y,-z
1/2-x,1/2-y,-z
1/2+x,1/2-y,z
loop_
_atom_site_type_symbol
_atom_site_label
_atom_site_fract_x
_atom_site_fract_y
_atom_site_fract_z
Si Si1 0.750560 0.882849 0.434640
Si Si2 0.419624 0.740929 0.034866
Si Si3 0.109599 0.805936 0.377574
Si Si4 0.808508 0.612162 0.255381
Si Si5 0.292211 0.118131 0.084113
Si Si6 0.919331 0.229736 0.403583
Si Si7 0.931022 0.112446 0.801705
O O1 0.799264 0.865140 0.537436
O O2 0.643229 0.812573 0.383133
O O3 0.839476 0.853354 0.407341
O O4 0.717705 0.000000 0.410697
O O5 0.369464 0.843057 0.048712
O O6 0.480635 0.686290 0.127760
O O7 0.500000 0.770579 0.000000
O O8 0.325487 0.669495 0.965818
O O9 0.102017 0.857453 0.295094
O O10 0.992169 0.820064 0.368407
O O11 0.848595 0.500000 0.292359
O O12 0.849208 0.642660 0.188171
O O13 0.848644 0.682122 0.338859
O O14 0.678352 0.616366 0.194135
O O15 0.274982 0.000000 0.066242
O O16 0.000000 0.275211 0.500000
O O17 0.980647 0.000000 0.821930
#
# Coordination Sequence:
#
# PCOD8101476 Si02
#       7
#     8   8   8   8   8   8   8
#     4  10  21  38  58  82 114 152 195 240 289 342
#     4  11  22  38  63  90 116 149 191 239 286 345
#     4  10  21  37  57  82 114 152 193 240 288 340
#     4  10  20  36  58  83 116 153 190 236 287 341
#     4  10  22  40  62  88 119 153 190 235 290 346
#     4  10  21  37  57  82 115 152 194 241 286 339
#     4  11  21  35  60  86 114 153 194 236 284 342
#
# _framework density 19.349229999999999
#
# number of rings (size 3 to 8) (size 9 to 14) (size 15 to 20)
#    0.000    1.714    2.857    1.714    0.000    4.857 
#    0.000    0.714    0.000    0.857    0.000    0.000 
#    0.000    0.000    0.000    0.000    0.000    0.000 
#
# Total GULP energy -347186.056150 kJ/mol
# GULP energy per Si atom -12399.502005 kJ/mol
# Density = 1.930519 g / cm^3
# Si number density = 19.349230 Si / 1000 Ang^3
#
#
#
# Elastic Constant Matrix: (Units=GPa)
#
#
# Indices 1 2 3 4 5 6 
#
# 1 83.9407 23.4272 19.2942 0.0000 -22.4785 0.0000
# 2 23.4272 91.4304 25.0668 0.0000 -13.9003 0.0000
# 3 19.2942 25.0668 65.4398 0.0000 -14.4101 0.0000
# 4 0.0000 0.0000 0.0000 25.5201 0.0000 -6.6699
# 5 -22.4785 -13.9003 -14.4101 0.0000 28.0290 0.0000
# 6 0.0000 0.0000 0.0000 -6.6699 0.0000 10.3499
#
#
#
# Elastic Compliance Matrix: (Units=1/GPa)
#
#
# Indices 1 2 3 4 5 6 
#
# 1 0.015712 -0.001967 -0.001488 0.000000 0.010861 0.000000
# 2 -0.001967 0.012904 -0.003723 0.000000 0.002908 0.000000
# 3 -0.001488 -0.003723 0.018580 0.000000 0.006513 0.000000
# 4 0.000000 0.000000 0.000000 0.047121 0.000000 0.030367
# 5 0.010861 0.002908 0.006513 0.000000 0.049178 0.000000
# 6 0.000000 0.000000 0.000000 0.030367 0.000000 0.116188
#
#
# Mechanical properties :
#
#
# Convention : Reuss Voigt Hill
#
# Bulk Modulus (GPa) = 30.44872 41.82080 36.13476
# Shear Modulus (GPa) = 17.54474 24.31466 20.92970
#
# Velocity S-wave (km/s) = 3.01448 3.54873 3.29246
# Velocity P-wave (km/s) = 5.28078 6.20096 5.75928
#
# Compressibility (1/GPa) = 0.03284210
#
# Stress axis : x y z
#
# Youngs Moduli (GPa) = 63.64378 77.49538 53.82145
#
# Poissons Ratio (x) = 0.15243 0.08007
# Poissons Ratio (y) = 0.12519 0.20035
# Poissons Ratio (z) = 0.09468 0.28848
#
# Static dielectric constant tensor:
#      x y z
#    x 3.690500 0.000000 -0.111020 
#    y 0.000000 3.341090 0.000000 
#    z -0.111020 0.000000 3.492470 
# 
# 
# High freq. dielectric constant tensor:
#      x y z
#    x 1.758920 0.000000 -0.011240 
#    y 0.000000 1.739480 0.000000 
#    z -0.011240 0.000000 1.758000 
# 
# From -- ./inp_files/269177.got.cif
#   From: 2010.06.25/outbox.cif.g09.slc.cpg/sg12_135_cif.got.tgz:269177.got - 2010.06.28 00:19:55.
