data_PCOD8101557
_publ_section_title
;
Structure prediction by ZEFSAII (Michael W. Deem and Ramdas Pophale) SiO2 
 PCOD8101557
Probable space group: C 2/M
;
_chemical_formula_sum "Si O2"
_cell_formula_units_Z 56
_cell_length_a 17.057901
_cell_length_b 14.041372
_cell_length_c 12.901104
_cell_angle_alpha 90.000000
_cell_angle_beta 109.509609
_cell_angle_gamma 90.000000
_cell_volume 2912.612866
_symmetry_space_group_name_H-M "C 2/M"
_symmetry_group_IT_number 12
_symmetry_cell_setting 'monoclinic'
loop_
_space_group_symop_operation_xyz
x,y,z
-x,y,-z
-x,-y,-z
x,-y,z
1/2+x,1/2+y,z
1/2-x,1/2+y,-z
1/2-x,1/2-y,-z
1/2+x,1/2-y,z
loop_
_atom_site_type_symbol
_atom_site_label
_atom_site_fract_x
_atom_site_fract_y
_atom_site_fract_z
Si Si1 0.577787 0.105119 0.607118
Si Si2 0.980864 0.282518 0.733764
Si Si3 0.287101 0.111674 0.011085
Si Si4 0.865281 0.605353 0.825274
Si Si5 0.357044 0.288336 0.146675
Si Si6 0.843837 0.244552 0.504403
Si Si7 0.189098 0.106458 0.672818
O O1 0.500000 0.091488 0.500000
O O2 0.544918 0.149088 0.700475
O O3 0.642772 0.171045 0.573246
O O4 0.617324 0.000000 0.645878
O O5 0.938982 0.330896 0.814348
O O6 0.910755 0.241239 0.626420
O O7 0.041922 0.204083 0.814167
O O8 0.327037 0.178319 0.116548
O O9 0.293632 0.000000 0.042864
O O10 0.334027 0.137822 0.924527
O O11 0.189432 0.140477 0.954002
O O12 0.902580 0.500000 0.850804
O O13 0.789502 0.606389 0.709350
O O14 0.335125 0.317319 0.252607
O O15 0.750000 0.250000 0.500000
O O16 0.852569 0.142185 0.451849
O O17 0.156889 0.000000 0.684682
#
# Coordination Sequence:
#
# PCOD8101557 Si02
#       7
#     8   8   8   8   8   8   8
#     4   9  19  33  51  77 113 147 181 229 284 330
#     4  11  20  32  56  85 123 148 189 232 284 333
#     4   9  20  39  61  84 113 147 191 240 295 353
#     4   9  18  33  56  84 113 151 191 237 290 339
#     4  10  20  36  58  86 113 145 190 239 295 336
#     4  11  21  36  55  82 120 156 193 227 275 339
#     4  10  20  38  59  82 113 157 200 232 275 337
#
# _framework density 19.226723
#
# number of rings (size 3 to 8) (size 9 to 14) (size 15 to 20)
#    0.000    2.143    2.857    1.714    0.000    2.857 
#    0.000    3.571    0.000    0.000    0.000   26.000 
#    0.000    0.000    0.000    0.000    0.000    0.000 
#
# Total GULP energy -346886.274009 kJ/mol
# GULP energy per Si atom -12388.795500 kJ/mol
# Density = 1.918296 g / cm^3
# Si number density = 19.226723 Si / 1000 Ang^3
#
#
#
# Elastic Constant Matrix: (Units=GPa)
#
#
# Indices 1 2 3 4 5 6 
#
# 1 118.2385 55.7785 42.2668 0.0000 4.3496 0.0000
# 2 55.7785 111.6979 52.5830 0.0000 -4.7379 0.0000
# 3 42.2668 52.5830 79.1162 0.0000 10.5946 0.0000
# 4 0.0000 0.0000 0.0000 18.1589 0.0000 5.0794
# 5 4.3496 -4.7379 10.5946 0.0000 27.9854 0.0000
# 6 0.0000 0.0000 0.0000 5.0794 0.0000 21.9084
#
#
#
# Elastic Compliance Matrix: (Units=1/GPa)
#
#
# Indices 1 2 3 4 5 6 
#
# 1 0.011720 -0.004442 -0.003123 0.000000 -0.001391 0.000000
# 2 -0.004442 0.015664 -0.008939 0.000000 0.006726 0.000000
# 3 -0.003123 -0.008939 0.021475 0.000000 -0.009158 0.000000
# 4 0.000000 0.000000 0.000000 0.058888 0.000000 -0.013653
# 5 -0.001391 0.006726 -0.009158 0.000000 0.040555 0.000000
# 6 0.000000 0.000000 0.000000 -0.013653 0.000000 0.048810
#
#
# Mechanical properties :
#
#
# Convention : Reuss Voigt Hill
#
# Bulk Modulus (GPa) = 63.07934 67.81212 65.44573
# Shear Modulus (GPa) = 21.24011 24.17217 22.70614
#
# Velocity S-wave (km/s) = 3.32734 3.54957 3.44025
# Velocity P-wave (km/s) = 6.90224 7.22119 7.06352
#
# Compressibility (1/GPa) = 0.01585305
#
# Stress axis : x y z
#
# Youngs Moduli (GPa) = 85.32146 63.84099 46.56507
#
# Poissons Ratio (x) = 0.28355 0.14543
# Poissons Ratio (y) = 0.37896 0.41623
# Poissons Ratio (z) = 0.26647 0.57065
#
# Static dielectric constant tensor:
#      x y z
#    x 3.526990 0.000000 0.184730 
#    y 0.000000 3.709700 0.000000 
#    z 0.184730 0.000000 3.633620 
# 
# 
# High freq. dielectric constant tensor:
#      x y z
#    x 1.734860 0.000000 0.008740 
#    y 0.000000 1.736110 0.000000 
#    z 0.008740 0.000000 1.747930 
# 
# From -- ./inp_files/156163.got.cif
#   From: 2010.06.25/outbox.cif.g09.slc.cpg/sg12_79_cif.got.tgz:156163.got - 2010.06.28 00:19:55.
