data_PCOD8101283
_publ_section_title
;
Structure prediction by ZEFSAII (Michael W. Deem and Ramdas Pophale) SiO2 
 PCOD8101283
Probable space group: C 2/M
;
_chemical_formula_sum "Si O2"
_cell_formula_units_Z 40
_cell_length_a 13.027701
_cell_length_b 29.744264
_cell_length_c 12.709796
_cell_angle_alpha 90.000000
_cell_angle_beta 158.104014
_cell_angle_gamma 90.000000
_cell_volume 1836.658877
_symmetry_space_group_name_H-M "C 2/M"
_symmetry_group_IT_number 12
_symmetry_cell_setting 'monoclinic'
loop_
_space_group_symop_operation_xyz
x,y,z
-x,y,-z
-x,-y,-z
x,-y,z
1/2+x,1/2+y,z
1/2-x,1/2+y,-z
1/2-x,1/2-y,-z
1/2+x,1/2-y,z
loop_
_atom_site_type_symbol
_atom_site_label
_atom_site_fract_x
_atom_site_fract_y
_atom_site_fract_z
Si Si1 0.533750 0.208711 0.240541
Si Si2 0.430374 0.340630 0.313193
Si Si3 0.457434 0.052025 0.336693
Si Si4 0.554807 0.300406 0.933421
Si Si5 0.025685 0.896695 0.222263
O O1 0.376968 0.200647 0.203325
O O2 0.812521 0.181079 0.503235
O O3 0.334153 0.191222 0.954856
O O4 0.598213 0.261815 0.282563
O O5 0.500000 0.349937 0.500000
O O6 0.391840 0.387152 0.210974
O O7 0.500000 0.060771 0.500000
O O8 0.678880 0.080396 0.481458
O O9 0.485230 0.000000 0.334011
O O10 0.157536 0.068835 0.018453
O O11 0.500000 0.285717 0.000000
O O12 0.436022 0.350101 0.804868
#
# Coordination Sequence:
#
# PCOD8101283 Si02
#       5
#     8   8   8   8   8
#     4  10  23  37  55  85 120 167 209 238 288 349
#     4  11  22  40  61  84 121 164 205 245 288 342
#     4  11  23  41  63  87 118 151 184 235 307 373
#     4  10  20  36  57  85 123 158 199 251 293 339
#     4  11  23  37  60  90 115 149 199 245 291 353
#
# _framework density 21.778676000000001
#
# number of rings (size 3 to 8) (size 9 to 14) (size 15 to 20)
#    0.000    1.400    0.000    6.600    0.000   10.400 
#    0.000   11.000    0.000    3.600    0.000    0.000 
#    0.000    0.000    0.000    0.000    0.000    0.000 
#
# Total GULP energy -247981.860998 kJ/mol
# GULP energy per Si atom -12399.093050 kJ/mol
# Density = 2.172911 g / cm^3
# Si number density = 21.778676 Si / 1000 Ang^3
#
#
#
# Elastic Constant Matrix: (Units=GPa)
#
#
# Indices 1 2 3 4 5 6 
#
# 1 112.5088 36.2934 -2.2454 -0.0001 -20.9913 0.0000
# 2 36.2934 121.8702 25.0711 0.0000 2.1554 0.0000
# 3 -2.2454 25.0711 70.2689 0.0000 3.7673 -0.0002
# 4 -0.0001 0.0000 0.0000 33.2398 0.0001 1.8869
# 5 -20.9913 2.1554 3.7673 0.0001 31.8244 -0.0001
# 6 0.0000 0.0000 -0.0002 1.8869 -0.0001 24.5299
#
#
#
# Elastic Compliance Matrix: (Units=1/GPa)
#
#
# Indices 1 2 3 4 5 6 
#
# 1 0.011612 -0.003870 0.001336 0.000000 0.007763 0.000000
# 2 -0.003870 0.010147 -0.003593 0.000000 -0.002815 0.000000
# 3 0.001336 -0.003593 0.015594 0.000000 -0.000722 0.000000
# 4 0.000000 0.000000 0.000000 0.030216 0.000000 -0.002324
# 5 0.007763 -0.002815 -0.000722 0.000000 0.036819 0.000000
# 6 0.000000 0.000000 0.000000 -0.002324 0.000000 0.040945
#
#
# Mechanical properties :
#
#
# Convention : Reuss Voigt Hill
#
# Bulk Modulus (GPa) = 39.84386 46.98734 43.41560
# Shear Modulus (GPa) = 30.12872 34.28740 32.20806
#
# Velocity S-wave (km/s) = 3.72345 3.97212 3.84979
# Velocity P-wave (km/s) = 6.06795 6.53137 6.30392
#
# Compressibility (1/GPa) = 0.02509797
#
# Stress axis : x y z
#
# Youngs Moduli (GPa) = 86.12045 98.55211 64.12564
#
# Poissons Ratio (x) = 0.38140 -0.08565
# Poissons Ratio (y) = 0.33329 0.23041
# Poissons Ratio (z) = -0.11503 0.35410
#
# Static dielectric constant tensor:
#      x y z
#    x 3.876280 0.000000 -0.046910 
#    y 0.000000 3.869170 0.000000 
#    z -0.046910 0.000000 4.063480 
# 
# 
# High freq. dielectric constant tensor:
#      x y z
#    x 1.845000 0.000000 -0.002650 
#    y 0.000000 1.845650 0.000000 
#    z -0.002650 0.000000 1.874130 
# 
# From -- ./inp_files/219186.got.cif
#   From: 2010.06.25/outbox.cif.g09.slc.cpg/sg12_110_cif.got.tgz:219186.got - 2010.06.28 00:19:55.
