data_PCOD8101294
_publ_section_title
;
Structure prediction by ZEFSAII (Michael W. Deem and Ramdas Pophale) SiO2 
 PCOD8101294
Probable space group: C 2/M
;
_chemical_formula_sum "Si O2"
_cell_formula_units_Z 64
_cell_length_a 23.850543
_cell_length_b 8.815270
_cell_length_c 28.171511
_cell_angle_alpha 90.000000
_cell_angle_beta 146.831477
_cell_angle_gamma 90.000000
_cell_volume 3240.510834
_symmetry_space_group_name_H-M "C 2/M"
_symmetry_group_IT_number 12
_symmetry_cell_setting 'monoclinic'
loop_
_space_group_symop_operation_xyz
x,y,z
-x,y,-z
-x,-y,-z
x,-y,z
1/2+x,1/2+y,z
1/2-x,1/2+y,-z
1/2-x,1/2-y,-z
1/2+x,1/2-y,z
loop_
_atom_site_type_symbol
_atom_site_label
_atom_site_fract_x
_atom_site_fract_y
_atom_site_fract_z
Si Si1 0.344687 0.678644 0.594235
Si Si2 0.439309 0.323173 0.503821
Si Si3 0.156336 0.177377 0.906255
Si Si4 0.205045 0.327171 0.344939
Si Si5 0.298936 0.678214 0.169137
Si Si6 0.065790 0.680438 0.003287
Si Si7 0.483329 0.821265 0.345784
Si Si8 0.489480 0.825286 0.848670
O O1 0.343660 0.500000 0.586024
O O2 0.250000 0.750000 0.500000
O O3 0.335703 0.716705 0.643136
O O4 0.449519 0.742520 0.647351
O O5 0.500000 0.272632 0.500000
O O6 0.456996 0.500000 0.527595
O O7 0.319894 0.285549 0.410681
O O8 0.479906 0.225864 0.576223
O O9 0.160983 0.220906 0.854511
O O10 0.049086 0.236032 0.850114
O O11 0.164834 0.000000 0.919611
O O12 0.250000 0.250000 0.000000
O O13 0.200296 0.500000 0.360605
O O14 0.131910 0.306853 0.247209
O O15 0.307612 0.500000 0.185650
O O16 0.182335 0.735520 0.091415
O O17 0.366339 0.768075 0.255446
O O18 0.060321 0.500000 0.999344
O O19 0.000000 0.748372 0.000000
O O20 0.017102 0.742751 0.919787
O O21 0.493365 0.000000 0.347623
O O22 0.524172 0.000000 0.870697
#
# Coordination Sequence:
#
# PCOD8101294 Si02
#       8
#     8   8   8   8   8   8   8   8
#     4  12  23  38  62  90 122 157 195 243 302 364
#     4  10  22  41  64  90 120 159 205 251 296 349
#     4  11  21  35  58  87 117 153 190 237 297 354
#     4  10  21  37  61  91 123 156 195 244 299 357
#     4  10  21  38  60  88 119 153 198 246 295 357
#     4   9  18  35  60  87 116 152 199 249 292 339
#     4  12  25  40  61  90 122 161 200 246 304 357
#     4  10  20  36  57  87 119 152 193 239 290 350
#
# _framework density 19.749972
#
# number of rings (size 3 to 8) (size 9 to 14) (size 15 to 20)
#    0.000    1.500    2.500    3.375    0.000    4.750 
#    0.000    3.750    0.000    3.000    0.000    0.000 
#    0.000    0.000    0.000    0.000    0.000    0.000 
#
# Total GULP energy -396926.554562 kJ/mol
# GULP energy per Si atom -12403.954830 kJ/mol
# Density = 1.970502 g / cm^3
# Si number density = 19.749972 Si / 1000 Ang^3
#
#
#
# Elastic Constant Matrix: (Units=GPa)
#
#
# Indices 1 2 3 4 5 6 
#
# 1 138.7252 39.3175 63.0996 0.0000 20.2896 0.0000
# 2 39.3175 79.9439 44.7680 0.0000 5.2836 0.0001
# 3 63.0996 44.7680 163.3034 -0.0001 12.3797 0.0000
# 4 0.0000 0.0000 -0.0001 26.4686 0.0000 -2.9045
# 5 20.2896 5.2836 12.3797 0.0000 15.4004 0.0000
# 6 0.0000 0.0001 0.0000 -2.9045 0.0000 24.4388
#
#
#
# Elastic Compliance Matrix: (Units=1/GPa)
#
#
# Indices 1 2 3 4 5 6 
#
# 1 0.010894 -0.003231 -0.002470 0.000000 -0.011259 0.000000
# 2 -0.003231 0.015789 -0.003186 0.000000 0.001400 0.000000
# 3 -0.002470 -0.003186 0.008117 0.000000 -0.002177 0.000000
# 4 0.000000 0.000000 0.000000 0.038280 0.000000 0.004549
# 5 -0.011259 0.001400 -0.002177 0.000000 0.081036 0.000000
# 6 0.000000 0.000000 0.000000 0.004549 0.000000 0.041459
#
#
# Mechanical properties :
#
#
# Convention : Reuss Voigt Hill
#
# Bulk Modulus (GPa) = 58.73435 75.14919 66.94177
# Shear Modulus (GPa) = 22.82837 28.91406 25.87122
#
# Velocity S-wave (km/s) = 3.40350 3.83038 3.62323
# Velocity P-wave (km/s) = 6.72670 7.59574 7.17439
#
# Compressibility (1/GPa) = 0.01702581
#
# Stress axis : x y z
#
# Youngs Moduli (GPa) = 91.78960 63.33362 123.20319
#
# Poissons Ratio (x) = 0.20460 0.30437
# Poissons Ratio (y) = 0.29653 0.39258
# Poissons Ratio (z) = 0.22676 0.20181
#
# Static dielectric constant tensor:
#      x y z
#    x 3.703710 0.000000 0.028730 
#    y 0.000000 3.464290 0.000000 
#    z 0.028730 0.000000 3.909700 
# 
# 
# High freq. dielectric constant tensor:
#      x y z
#    x 1.763660 0.000000 0.002010 
#    y 0.000000 1.750840 0.000000 
#    z 0.002010 0.000000 1.789330 
# 
# From -- ./inp_files/382401.got.cif
#   From: 2010.06.25/outbox.cif.g09.slc.cpg/sg12_192_cif.got.tgz:382401.got - 2010.06.28 00:19:55.
