data_PCOD8101672
_publ_section_title
;
Structure prediction by ZEFSAII (Michael W. Deem and Ramdas Pophale) SiO2 
 PCOD8101672
Probable space group: C 2/M
;
_chemical_formula_sum "Si O2"
_cell_formula_units_Z 56
_cell_length_a 18.617884
_cell_length_b 8.881652
_cell_length_c 22.785857
_cell_angle_alpha 90.000000
_cell_angle_beta 52.763717
_cell_angle_gamma 90.000000
_cell_volume 2999.733298
_symmetry_space_group_name_H-M "C 2/M"
_symmetry_group_IT_number 12
_symmetry_cell_setting 'monoclinic'
loop_
_space_group_symop_operation_xyz
x,y,z
-x,y,-z
-x,-y,-z
x,-y,z
1/2+x,1/2+y,z
1/2-x,1/2+y,-z
1/2-x,1/2-y,-z
1/2+x,1/2-y,z
loop_
_atom_site_type_symbol
_atom_site_label
_atom_site_fract_x
_atom_site_fract_y
_atom_site_fract_z
Si Si1 0.904220 0.177540 0.571973
Si Si2 0.246558 0.674879 0.564026
Si Si3 0.322264 0.670007 0.124505
Si Si4 0.284819 0.173098 0.713121
Si Si5 0.873686 0.674640 0.274631
Si Si6 0.488574 0.674762 0.128263
Si Si7 0.327331 0.823182 0.000561
O O1 0.830784 0.231805 0.560803
O O2 0.883228 0.267474 0.643481
O O3 0.000000 0.229973 0.500000
O O4 0.901572 0.000000 0.585855
O O5 0.257496 0.500000 0.548081
O O6 0.250000 0.750000 0.500000
O O7 0.151671 0.710189 0.644723
O O8 0.331731 0.500000 0.095257
O O9 0.231254 0.684637 0.208823
O O10 0.410130 0.708948 0.120016
O O11 0.313104 0.784149 0.075671
O O12 0.215245 0.287229 0.717930
O O13 0.268016 0.000000 0.701650
O O14 0.897572 0.500000 0.254111
O O15 0.956737 0.773539 0.209139
O O16 0.513179 0.500000 0.118371
O O17 0.575567 0.767666 0.067800
O O18 0.321647 0.000000 0.995063
O O19 0.250000 0.750000 0.000000
#
# Coordination Sequence:
#
# PCOD8101672 Si02
#       7
#     8   8   8   8   8   8   8
#     4   9  18  33  51  72 101 136 174 215 256 303
#     4   9  18  31  49  73 101 135 171 211 257 302
#     4   9  19  36  57  81 108 136 172 219 263 307
#     4   9  17  30  51  78 105 134 168 213 264 306
#     4   9  17  31  51  76 104 135 174 216 257 302
#     4  10  20  36  59  84 108 136 173 218 263 308
#     4  12  25  39  56  78 108 144 177 212 260 315
#
# _framework density 18.668327000000001
#
# number of rings (size 3 to 8) (size 9 to 14) (size 15 to 20)
#    0.000    2.429    0.000    4.714    0.000    8.286 
#    0.000    1.429    0.000    6.857    0.000    0.000 
#    0.000    0.000    0.000    0.000    0.000    0.000 
#
# Total GULP energy -347050.011062 kJ/mol
# GULP energy per Si atom -12394.643252 kJ/mol
# Density = 1.862584 g / cm^3
# Si number density = 18.668327 Si / 1000 Ang^3
#
#
#
# Elastic Constant Matrix: (Units=GPa)
#
#
# Indices 1 2 3 4 5 6 
#
# 1 60.3274 40.2941 55.7682 0.0000 -5.3039 0.0001
# 2 40.2941 99.4504 68.4418 0.0000 0.0214 0.0000
# 3 55.7682 68.4418 165.8854 0.0000 -10.8895 0.0000
# 4 0.0000 0.0000 0.0000 40.8145 0.0000 -0.0909
# 5 -5.3039 0.0214 -10.8895 0.0000 25.4160 0.0000
# 6 0.0001 0.0000 0.0000 -0.0909 0.0000 25.2061
#
#
#
# Elastic Compliance Matrix: (Units=1/GPa)
#
#
# Indices 1 2 3 4 5 6 
#
# 1 0.026971 -0.006738 -0.006089 0.000000 0.003026 0.000000
# 2 -0.006738 0.015891 -0.004511 0.000000 -0.003352 0.000000
# 3 -0.006089 -0.004511 0.010138 0.000000 0.003077 0.000000
# 4 0.000000 0.000000 0.000000 0.024501 0.000000 0.000088
# 5 0.003026 -0.003352 0.003077 0.000000 0.041298 0.000000
# 6 0.000000 0.000000 0.000000 0.000088 0.000000 0.039673
#
#
# Mechanical properties :
#
#
# Convention : Reuss Voigt Hill
#
# Bulk Modulus (GPa) = 54.57203 72.74124 63.65663
# Shear Modulus (GPa) = 25.09326 29.03126 27.06226
#
# Velocity S-wave (km/s) = 3.67026 3.94776 3.81154
# Velocity P-wave (km/s) = 6.87437 7.73495 7.31732
#
# Compressibility (1/GPa) = 0.01832441
#
# Stress axis : x y z
#
# Youngs Moduli (GPa) = 37.07628 62.93033 98.63605
#
# Poissons Ratio (x) = 0.42405 0.60056
# Poissons Ratio (y) = 0.24984 0.44494
# Poissons Ratio (z) = 0.22574 0.28387
#
# Static dielectric constant tensor:
#      x y z
#    x 1.388510 0.000000 -2.016270 
#    y 0.000000 3.519090 0.000000 
#    z -2.016270 0.000000 1.911710 
# 
# 
# High freq. dielectric constant tensor:
#      x y z
#    x 1.675870 0.000000 -0.011160 
#    y 0.000000 1.730420 0.000000 
#    z -0.011160 0.000000 1.749650 
# 
# From -- ./inp_files/313776.got.cif
#   From: 2010.06.25/outbox.cif.g09.slc.cpg/sg12_157_cif.got.tgz:313776.got - 2010.06.28 00:19:55.
