data_PCOD8101883
_publ_section_title
;
Structure prediction by ZEFSAII (Michael W. Deem and Ramdas Pophale) SiO2 
 PCOD8101883
Probable space group: C 2/M
;
_chemical_formula_sum "Si O2"
_cell_formula_units_Z 64
_cell_length_a 12.250203
_cell_length_b 19.625962
_cell_length_c 28.185424
_cell_angle_alpha 90.000000
_cell_angle_beta 151.643500
_cell_angle_gamma 90.000000
_cell_volume 3218.491728
_symmetry_space_group_name_H-M "C 2/M"
_symmetry_group_IT_number 12
_symmetry_cell_setting 'monoclinic'
loop_
_space_group_symop_operation_xyz
x,y,z
-x,y,-z
-x,-y,-z
x,-y,z
1/2+x,1/2+y,z
1/2-x,1/2+y,-z
1/2-x,1/2-y,-z
1/2+x,1/2-y,z
loop_
_atom_site_type_symbol
_atom_site_label
_atom_site_fract_x
_atom_site_fract_y
_atom_site_fract_z
Si Si1 0.651910 0.423093 0.187927
Si Si2 0.125617 0.691999 0.139197
Si Si3 0.656937 0.789679 0.257711
Si Si4 0.163065 0.816920 0.441067
Si Si5 0.825671 0.171470 0.893309
Si Si6 0.456496 0.920492 0.392268
Si Si7 0.134880 0.830587 0.322782
Si Si8 0.862733 0.423043 0.994766
O O1 0.691919 0.500000 0.185888
O O2 0.656968 0.376342 0.144647
O O3 0.847283 0.401552 0.299691
O O4 0.405912 0.415953 0.119732
O O5 0.110308 0.728572 0.184671
O O6 0.097588 0.751658 0.089926
O O7 0.365165 0.652952 0.221640
O O8 0.930970 0.633727 0.060047
O O9 0.440196 0.833276 0.192518
O O10 0.692150 0.723307 0.303356
O O11 0.895429 0.831934 0.350812
O O12 0.250000 0.750000 0.500000
O O13 0.300674 0.882655 0.511487
O O14 0.208970 0.803437 0.402823
O O15 0.000000 0.144379 0.000000
O O16 0.280340 0.898003 0.366427
O O17 0.501567 0.000000 0.415431
O O18 0.919893 0.500000 0.034611
O O19 0.000000 0.405128 0.000000
#
# Coordination Sequence:
#
# PCOD8101883 Si02
#       8
#     8   8   8   8   8   8   8   8
#     4  10  23  41  60  85 122 165 205 249 302 365
#     4  10  21  36  57  90 124 155 199 253 305 357
#     4  10  22  39  59  89 120 159 204 248 305 359
#     4  11  23  39  62  90 120 159 203 254 302 368
#     4  11  23  38  62  90 121 162 204 255 299 358
#     4  11  23  40  63  91 123 159 203 256 312 365
#     4  10  21  37  59  90 121 157 199 244 312 365
#     4  10  20  36  59  88 123 163 199 243 309 373
#
# _framework density 19.885090000000002
#
# number of rings (size 3 to 8) (size 9 to 14) (size 15 to 20)
#    0.000    1.625    1.250    3.000    3.500    6.750 
#    0.000    3.125    0.000    1.500    0.000    0.000 
#    0.000    0.000    0.000    0.000    0.000    0.000 
#
# Total GULP energy -396804.237195 kJ/mol
# GULP energy per Si atom -12400.132412 kJ/mol
# Density = 1.983983 g / cm^3
# Si number density = 19.885090 Si / 1000 Ang^3
#
#
#
# Elastic Constant Matrix: (Units=GPa)
#
#
# Indices 1 2 3 4 5 6 
#
# 1 102.8797 47.4212 48.1984 -0.0017 -2.0787 -0.0002
# 2 47.4212 90.5043 55.4798 -0.0029 -8.2968 -0.0008
# 3 48.1984 55.4798 113.2760 -0.0022 -1.2236 -0.0016
# 4 -0.0017 -0.0029 -0.0022 32.7626 -0.0015 0.4852
# 5 -2.0787 -8.2968 -1.2236 -0.0015 34.6388 -0.0004
# 6 -0.0002 -0.0008 -0.0016 0.4852 -0.0004 26.9998
#
#
#
# Elastic Compliance Matrix: (Units=1/GPa)
#
#
# Indices 1 2 3 4 5 6 
#
# 1 0.013631 -0.005191 -0.003263 0.000000 -0.000541 0.000000
# 2 -0.005191 0.018206 -0.006667 0.000001 0.003814 0.000000
# 3 -0.003263 -0.006667 0.013467 0.000000 -0.001317 0.000001
# 4 0.000000 0.000001 0.000000 0.030531 0.000002 -0.000549
# 5 -0.000541 0.003814 -0.001317 0.000002 0.029704 0.000000
# 6 0.000000 0.000000 0.000001 -0.000549 0.000000 0.037047
#
#
# Mechanical properties :
#
#
# Convention : Reuss Voigt Hill
#
# Bulk Modulus (GPa) = 66.39358 67.65096 67.02227
# Shear Modulus (GPa) = 28.11392 29.25094 28.68243
#
# Velocity S-wave (km/s) = 3.76416 3.83952 3.80203
# Velocity P-wave (km/s) = 7.23553 7.33149 7.28367
#
# Compressibility (1/GPa) = 0.01506170
#
# Stress axis : x y z
#
# Youngs Moduli (GPa) = 73.36336 54.92838 74.25394
#
# Poissons Ratio (x) = 0.28515 0.24230
# Poissons Ratio (y) = 0.38085 0.49502
# Poissons Ratio (z) = 0.23939 0.36618
#
# Static dielectric constant tensor:
#      x y z
#    x 3.742730 0.000000 0.089500 
#    y 0.000000 3.455450 -0.000010 
#    z 0.089500 -0.000010 3.932890 
# 
# 
# High freq. dielectric constant tensor:
#      x y z
#    x 1.778280 0.000000 0.000490 
#    y 0.000000 1.757320 0.000000 
#    z 0.000490 0.000000 1.791000 
# 
# From -- ./inp_files/265053.got.cif
#   From: 2010.06.25/outbox.cif.g09.slc.cpg/sg12_133_cif.got.tgz:265053.got - 2010.06.28 00:19:55.
