data_PCOD8101798
_publ_section_title
;
Structure prediction by ZEFSAII (Michael W. Deem and Ramdas Pophale) SiO2 
 PCOD8101798
Probable space group: C 2/M
;
_chemical_formula_sum "Si O2"
_cell_formula_units_Z 48
_cell_length_a 29.323609
_cell_length_b 8.813839
_cell_length_c 15.020514
_cell_angle_alpha 90.000000
_cell_angle_beta 139.905932
_cell_angle_gamma 90.000000
_cell_volume 2500.248396
_symmetry_space_group_name_H-M "C 2/M"
_symmetry_group_IT_number 12
_symmetry_cell_setting 'monoclinic'
loop_
_space_group_symop_operation_xyz
x,y,z
-x,y,-z
-x,-y,-z
x,-y,z
1/2+x,1/2+y,z
1/2-x,1/2+y,-z
1/2-x,1/2-y,-z
1/2+x,1/2-y,z
loop_
_atom_site_type_symbol
_atom_site_label
_atom_site_fract_x
_atom_site_fract_y
_atom_site_fract_z
Si Si1 0.828806 0.823447 0.403102
Si Si2 0.330324 0.822854 0.891226
Si Si3 0.675866 0.178839 0.417413
Si Si4 0.581753 0.823450 0.615244
Si Si5 0.322344 0.823361 0.078808
Si Si6 0.417877 0.676701 0.870212
O O1 0.750419 0.784320 0.252897
O O2 0.846369 0.729509 0.517582
O O3 0.884339 0.777040 0.411011
O O4 0.837290 0.000000 0.437296
O O5 0.381441 0.722128 0.907939
O O6 0.346752 0.000000 0.900213
O O7 0.345138 0.770318 0.014434
O O8 0.750000 0.250000 0.500000
O O9 0.614416 0.228311 0.258802
O O10 0.684443 0.000000 0.426162
O O11 0.500000 0.781431 0.500000
O O12 0.615804 0.779136 0.760708
O O13 0.593854 0.000000 0.610851
O O14 0.307099 0.000000 0.053747
O O15 0.250000 0.750000 0.000000
O O16 0.405018 0.500000 0.832574
O O17 0.500000 0.717316 0.000000
#
# Coordination Sequence:
#
# PCOD8101798 Si02
#       6
#     8   8   8   8   8   8
#     4  11  22  38  62  92 124 158 204 255 305 365
#     4  10  21  37  60  89 120 161 207 251 303 365
#     4  12  24  40  65  93 122 161 207 255 308 368
#     4  10  22  39  59  88 125 162 202 251 307 364
#     4  10  20  36  59  86 117 153 200 248 293 355
#     4  11  25  43  63  92 128 162 202 253 308 367
#
# _framework density 19.198094000000001
#
# number of rings (size 3 to 8) (size 9 to 14) (size 15 to 20)
#    0.000    1.333    3.333    2.500    0.000    4.333 
#    0.000    1.667    0.000    0.000    0.000    0.000 
#    0.000    0.000    0.000    0.000    0.000    0.000 
#
# Total GULP energy -297736.110338 kJ/mol
# GULP energy per Si atom -12405.671264 kJ/mol
# Density = 1.915440 g / cm^3
# Si number density = 19.198094 Si / 1000 Ang^3
#
#
#
# Elastic Constant Matrix: (Units=GPa)
#
#
# Indices 1 2 3 4 5 6 
#
# 1 134.8408 58.2041 80.4597 0.0000 -9.7315 0.0000
# 2 58.2041 98.8028 64.1972 0.0000 -1.3437 0.0000
# 3 80.4597 64.1972 149.3284 0.0000 -8.2173 0.0000
# 4 0.0000 0.0000 0.0000 23.0657 0.0000 -3.9804
# 5 -9.7315 -1.3437 -8.2173 0.0000 42.7883 0.0000
# 6 0.0000 0.0000 0.0000 -3.9804 0.0000 37.2063
#
#
#
# Elastic Compliance Matrix: (Units=1/GPa)
#
#
# Indices 1 2 3 4 5 6 
#
# 1 0.012078 -0.004058 -0.004668 0.000000 0.001723 0.000000
# 2 -0.004058 0.015430 -0.004519 0.000000 -0.001306 0.000000
# 3 -0.004668 -0.004519 0.011207 0.000000 0.000949 0.000000
# 4 0.000000 0.000000 0.000000 0.044170 0.000000 0.004725
# 5 0.001723 -0.001306 0.000949 0.000000 0.023904 0.000000
# 6 0.000000 0.000000 0.000000 0.004725 0.000000 0.027383
#
#
# Mechanical properties :
#
#
# Convention : Reuss Voigt Hill
#
# Bulk Modulus (GPa) = 81.80450 87.63265 84.71857
# Shear Modulus (GPa) = 30.35153 32.61946 31.48549
#
# Velocity S-wave (km/s) = 3.98045 4.12648 4.05412
# Velocity P-wave (km/s) = 7.98928 8.27342 8.13259
#
# Compressibility (1/GPa) = 0.01222427
#
# Stress axis : x y z
#
# Youngs Moduli (GPa) = 82.79678 64.80778 89.23242
#
# Poissons Ratio (x) = 0.26302 0.41654
# Poissons Ratio (y) = 0.33602 0.40322
# Poissons Ratio (z) = 0.38650 0.29285
#
# Static dielectric constant tensor:
#      x y z
#    x 3.436620 0.000000 -0.176800 
#    y 0.000000 3.577550 0.000000 
#    z -0.176800 0.000000 3.711200 
# 
# 
# High freq. dielectric constant tensor:
#      x y z
#    x 1.755400 0.000000 -0.011170 
#    y 0.000000 1.749620 0.000000 
#    z -0.011170 0.000000 1.755090 
# 
# From -- ./inp_files/229970.got.cif
#   From: 2010.06.25/outbox.cif.g09.slc.cpg/sg12_115_cif.got.tgz:229970.got - 2010.06.28 00:19:55.
