data_PCOD8101853
_publ_section_title
;
Structure prediction by ZEFSAII (Michael W. Deem and Ramdas Pophale) SiO2 
 PCOD8101853
Probable space group: C 2/M
;
_chemical_formula_sum "Si O2"
_cell_formula_units_Z 64
_cell_length_a 15.526470
_cell_length_b 8.495480
_cell_length_c 33.620744
_cell_angle_alpha 90.000000
_cell_angle_beta 45.242689
_cell_angle_gamma 90.000000
_cell_volume 3149.087682
_symmetry_space_group_name_H-M "C 2/M"
_symmetry_group_IT_number 12
_symmetry_cell_setting 'monoclinic'
loop_
_space_group_symop_operation_xyz
x,y,z
-x,y,-z
-x,-y,-z
x,-y,z
1/2+x,1/2+y,z
1/2-x,1/2+y,-z
1/2-x,1/2-y,-z
1/2+x,1/2-y,z
loop_
_atom_site_type_symbol
_atom_site_label
_atom_site_fract_x
_atom_site_fract_y
_atom_site_fract_z
Si Si1 0.310921 0.315168 0.060904
Si Si2 0.383870 0.818193 0.174297
Si Si3 0.183286 0.685573 0.434928
Si Si4 0.071479 0.685468 0.176416
Si Si5 0.124902 0.316761 0.246253
Si Si6 0.490232 0.685095 0.938709
Si Si7 0.948974 0.815117 0.367849
Si Si8 0.989162 0.814278 0.443512
O O1 0.303241 0.500000 0.057782
O O2 0.179458 0.241000 0.113939
O O3 0.396915 0.275395 0.069785
O O4 0.368331 0.251424 0.000695
O O5 0.441633 0.777019 0.198747
O O6 0.268270 0.709464 0.204363
O O7 0.489679 0.782960 0.108032
O O8 0.344980 0.000000 0.184970
O O9 0.179384 0.500000 0.428472
O O10 0.320208 0.751472 0.394324
O O11 0.112844 0.723810 0.498383
O O12 0.122042 0.773390 0.417479
O O13 0.095347 0.500000 0.171063
O O14 0.078116 0.752513 0.219160
O O15 0.096439 0.500000 0.259043
O O16 0.056143 0.228118 0.303453
O O17 0.483727 0.500000 0.931090
O O18 0.980663 0.749803 0.401328
O O19 0.938425 0.000000 0.374506
O O20 0.966430 0.000000 0.454212
#
# Coordination Sequence:
#
# PCOD8101853 Si02
#       8
#     8   8   8   8   8   8   8   8
#     4   8  14  29  55  80 105 140 181 222 265 329
#     4  11  22  36  56  81 112 143 175 230 288 331
#     4  10  20  36  59  88 122 154 187 233 277 319
#     4   9  19  36  57  79 105 143 185 222 275 338
#     4  11  23  41  62  79 103 145 196 235 267 330
#     4   9  16  30  56  82 105 141 183 221 266 331
#     4  10  23  40  58  83 117 151 185 232 286 329
#     4  10  20  36  59  87 121 157 189 225 273 335
#
# _framework density 20.323346000000001
#
# number of rings (size 3 to 8) (size 9 to 14) (size 15 to 20)
#    0.000    2.250    1.250    3.375    0.000    3.500 
#    0.000    7.500    0.000    0.000    0.000    0.000 
#    0.000    0.000    0.000    0.000    0.000    0.000 
#
# Total GULP energy -396716.213727 kJ/mol
# GULP energy per Si atom -12397.381679 kJ/mol
# Density = 2.027709 g / cm^3
# Si number density = 20.323346 Si / 1000 Ang^3
#
#
#
# Elastic Constant Matrix: (Units=GPa)
#
#
# Indices 1 2 3 4 5 6 
#
# 1 108.3955 13.1375 50.1328 0.0043 10.5458 0.0064
# 2 13.1375 21.4640 -0.5213 0.0122 2.1730 0.0094
# 3 50.1328 -0.5213 100.3700 0.0039 7.9922 0.0036
# 4 0.0043 0.0122 0.0039 28.5465 0.0014 0.0830
# 5 10.5458 2.1730 7.9922 0.0014 17.6446 0.0020
# 6 0.0064 0.0094 0.0036 0.0830 0.0020 23.8097
#
#
#
# Elastic Compliance Matrix: (Units=1/GPa)
#
#
# Indices 1 2 3 4 5 6 
#
# 1 0.013624 -0.008072 -0.006513 0.000002 -0.004199 0.000001
# 2 -0.008072 0.052013 0.004594 -0.000021 -0.003662 -0.000019
# 3 -0.006513 0.004594 0.013461 -0.000003 -0.002770 -0.000002
# 4 0.000002 -0.000021 -0.000003 0.035031 0.000000 -0.000122
# 5 -0.004199 -0.003662 -0.002770 0.000000 0.060890 -0.000002
# 6 0.000001 -0.000019 -0.000002 -0.000122 -0.000002 0.042000
#
#
# Mechanical properties :
#
#
# Convention : Reuss Voigt Hill
#
# Bulk Modulus (GPa) = 16.91616 39.52527 28.22072
# Shear Modulus (GPa) = 19.47749 25.16551 22.32150
#
# Velocity S-wave (km/s) = 3.09913 3.52270 3.31768
# Velocity P-wave (km/s) = 4.59867 6.00303 5.34715
#
# Compressibility (1/GPa) = 0.05911507
#
# Stress axis : x y z
#
# Youngs Moduli (GPa) = 73.39735 19.22607 74.29108
#
# Poissons Ratio (x) = 0.15520 0.48384
# Poissons Ratio (y) = 0.59248 -0.34126
# Poissons Ratio (z) = 0.47802 -0.08832
#
# Static dielectric constant tensor:
#      x y z
#    x 3.277830 -0.000040 0.611480 
#    y -0.000040 3.311960 0.000020 
#    z 0.611480 0.000020 3.233540 
# 
# 
# High freq. dielectric constant tensor:
#      x y z
#    x 1.800100 0.000000 0.003160 
#    y 0.000000 1.764580 0.000000 
#    z 0.003160 0.000000 1.793400 
# 
# From -- ./inp_files/375384.got.cif
#   From: 2010.06.25/outbox.cif.g09.slc.cpg/sg12_188_cif.got.tgz:375384.got - 2010.06.28 00:19:55.
