data_PCOD8101268
_publ_section_title
;
Structure prediction by ZEFSAII (Michael W. Deem and Ramdas Pophale) SiO2 
 PCOD8101268
Probable space group: C 2/M
;
_chemical_formula_sum "Si O2"
_cell_formula_units_Z 48
_cell_length_a 24.797486
_cell_length_b 8.972784
_cell_length_c 12.354147
_cell_angle_alpha 90.000000
_cell_angle_beta 70.747712
_cell_angle_gamma 90.000000
_cell_volume 2595.102534
_symmetry_space_group_name_H-M "C 2/M"
_symmetry_group_IT_number 12
_symmetry_cell_setting 'monoclinic'
loop_
_space_group_symop_operation_xyz
x,y,z
-x,y,-z
-x,-y,-z
x,-y,z
1/2+x,1/2+y,z
1/2-x,1/2+y,-z
1/2-x,1/2-y,-z
1/2+x,1/2-y,z
loop_
_atom_site_type_symbol
_atom_site_label
_atom_site_fract_x
_atom_site_fract_y
_atom_site_fract_z
Si Si1 0.866368 0.823815 0.219520
Si Si2 0.441699 0.324949 0.372340
Si Si3 0.561803 0.174360 0.004031
Si Si4 0.132411 0.172151 0.374054
Si Si5 0.244213 0.326052 0.619406
Si Si6 0.058530 0.324977 0.254905
O O1 0.910573 0.773841 0.283176
O O2 0.806159 0.745687 0.278368
O O3 0.857026 0.000000 0.225749
O O4 0.890331 0.769225 0.089117
O O5 0.452493 0.500000 0.365792
O O6 0.402209 0.274180 0.497637
O O7 0.502135 0.245483 0.344270
O O8 0.565365 0.222890 0.126120
O O9 0.574068 0.000000 0.978652
O O10 0.500000 0.218898 0.000000
O O11 0.198924 0.201163 0.349075
O O12 0.113665 0.267632 0.282928
O O13 0.119612 0.000000 0.358696
O O14 0.232833 0.500000 0.607948
O O15 0.250000 0.250000 0.500000
O O16 0.053156 0.500000 0.269718
#
# Coordination Sequence:
#
# PCOD8101268 Si02
#       6
#     8   8   8   8   8   8
#     4  11  22  37  60  91 118 148 197 242 286 344
#     4  10  20  36  57  84 120 154 187 233 291 351
#     4  10  21  39  59  83 118 154 192 242 295 342
#     4  10  22  40  58  82 119 158 191 232 291 348
#     4  11  22  39  62  87 118 155 194 239 290 343
#     4  11  23  37  57  87 118 152 196 240 289 346
#
# _framework density 18.496379999999998
#
# number of rings (size 3 to 8) (size 9 to 14) (size 15 to 20)
#    0.000    1.500    3.333    2.000    0.000    6.333 
#    0.000    0.833    0.000    0.000    0.000    0.000 
#    0.000    0.000    0.000    0.000    0.000    0.000 
#
# Total GULP energy -297752.053656 kJ/mol
# GULP energy per Si atom -12406.335569 kJ/mol
# Density = 1.845428 g / cm^3
# Si number density = 18.496380 Si / 1000 Ang^3
#
#
#
# Elastic Constant Matrix: (Units=GPa)
#
#
# Indices 1 2 3 4 5 6 
#
# 1 100.8087 49.0824 51.5630 0.0000 -7.0176 0.0000
# 2 49.0824 69.1846 48.7885 0.0000 -3.1365 0.0000
# 3 51.5630 48.7885 106.2833 0.0000 -5.0898 0.0000
# 4 0.0000 0.0000 0.0000 35.2298 0.0000 -0.7470
# 5 -7.0176 -3.1365 -5.0898 0.0000 33.8298 0.0000
# 6 0.0000 0.0000 0.0000 -0.7470 0.0000 34.2063
#
#
#
# Elastic Compliance Matrix: (Units=1/GPa)
#
#
# Indices 1 2 3 4 5 6 
#
# 1 0.016264 -0.008799 -0.003756 0.000000 0.001993 0.000000
# 2 -0.008799 0.026142 -0.007759 0.000000 -0.000569 0.000000
# 3 -0.003756 -0.007759 0.014827 0.000000 0.000732 0.000000
# 4 0.000000 0.000000 0.000000 0.028398 0.000000 0.000620
# 5 0.001993 -0.000569 0.000732 0.000000 0.030031 0.000000
# 6 0.000000 0.000000 0.000000 0.000620 0.000000 0.029248
#
#
# Mechanical properties :
#
#
# Convention : Reuss Voigt Hill
#
# Bulk Modulus (GPa) = 60.21840 63.90494 62.06167
# Shear Modulus (GPa) = 26.16803 29.10939 27.63871
#
# Velocity S-wave (km/s) = 3.76542 3.97140 3.86978
# Velocity P-wave (km/s) = 7.17858 7.46019 7.32074
#
# Compressibility (1/GPa) = 0.01660622
#
# Stress axis : x y z
#
# Youngs Moduli (GPa) = 61.48631 38.25219 67.44254
#
# Poissons Ratio (x) = 0.33660 0.25329
# Poissons Ratio (y) = 0.54104 0.52326
# Poissons Ratio (z) = 0.23092 0.29679
#
# Static dielectric constant tensor:
#      x y z
#    x 3.475420 0.000000 -0.027240 
#    y 0.000000 3.392740 0.000000 
#    z -0.027240 0.000000 3.530660 
# 
# 
# High freq. dielectric constant tensor:
#      x y z
#    x 1.719530 0.000000 -0.000650 
#    y 0.000000 1.721060 0.000000 
#    z -0.000650 0.000000 1.718990 
# 
# From -- ./inp_files/172415.got.cif
#   From: 2010.06.25/outbox.cif.g09.slc.cpg/sg12_87_cif.got.tgz:172415.got - 2010.06.28 00:19:55.
