data_PCOD8101142
_publ_section_title
;
Structure prediction by ZEFSAII (Michael W. Deem and Ramdas Pophale) SiO2 
 PCOD8101142
Probable space group: C 2/M
;
_chemical_formula_sum "Si O2"
_cell_formula_units_Z 64
_cell_length_a 32.132445
_cell_length_b 8.841072
_cell_length_c 18.093249
_cell_angle_alpha 90.000000
_cell_angle_beta 139.560021
_cell_angle_gamma 90.000000
_cell_volume 3334.083186
_symmetry_space_group_name_H-M "C 2/M"
_symmetry_group_IT_number 12
_symmetry_cell_setting 'monoclinic'
loop_
_space_group_symop_operation_xyz
x,y,z
-x,y,-z
-x,-y,-z
x,-y,z
1/2+x,1/2+y,z
1/2-x,1/2+y,-z
1/2-x,1/2-y,-z
1/2+x,1/2-y,z
loop_
_atom_site_type_symbol
_atom_site_label
_atom_site_fract_x
_atom_site_fract_y
_atom_site_fract_z
Si Si1 0.042391 0.821956 0.487768
Si Si2 0.293827 0.678668 0.660205
Si Si3 0.403536 0.679686 0.094156
Si Si4 0.181590 0.673965 0.899251
Si Si5 0.195478 0.179557 0.160573
Si Si6 0.026901 0.320856 0.312589
Si Si7 0.842179 0.677862 0.585077
Si Si8 0.832181 0.326790 0.289961
O O1 0.014469 0.741553 0.377638
O O2 0.115816 0.774332 0.598298
O O3 0.000000 0.768010 0.500000
O O4 0.037830 0.000000 0.469918
O O5 0.299887 0.500000 0.663935
O O6 0.313023 0.739151 0.767309
O O7 0.220873 0.730657 0.544872
O O8 0.342637 0.749228 0.667115
O O9 0.408922 0.500000 0.102694
O O10 0.369279 0.734161 0.122073
O O11 0.473889 0.752809 0.185410
O O12 0.363429 0.738290 0.968903
O O13 0.185607 0.500000 0.930639
O O14 0.157543 0.685115 0.783214
O O15 0.250000 0.750000 0.000000
O O16 0.262403 0.238781 0.217109
O O17 0.197161 0.000000 0.160803
O O18 0.020683 0.500000 0.305516
O O19 0.096040 0.266197 0.376592
O O20 0.843489 0.500000 0.597564
O O21 0.839801 0.500000 0.327714
#
# Coordination Sequence:
#
# PCOD8101142 Si02
#       8
#     8   8   8   8   8   8   8   8
#     4  11  24  39  55  81 114 146 182 234 286 326
#     4   9  17  33  60  86 109 139 180 227 278 340
#     4  11  22  38  57  80 114 151 191 241 283 330
#     4  11  21  35  56  81 112 152 194 234 280 331
#     4   9  18  35  56  81 111 146 183 227 283 334
#     4  11  23  40  60  81 110 153 194 227 277 345
#     4   9  19  36  58  84 113 142 177 227 282 335
#     4  10  20  36  57  80 109 148 188 228 280 337
#
# _framework density 19.195682999999999
#
# number of rings (size 3 to 8) (size 9 to 14) (size 15 to 20)
#    0.000    1.875    1.250    3.000    0.000    7.000 
#    0.000    5.000    0.000    3.750    0.000    0.000 
#    0.000    0.000    0.000    0.000    0.000    0.000 
#
# Total GULP energy -396904.525726 kJ/mol
# GULP energy per Si atom -12403.266429 kJ/mol
# Density = 1.915199 g / cm^3
# Si number density = 19.195683 Si / 1000 Ang^3
#
#
#
# Elastic Constant Matrix: (Units=GPa)
#
#
# Indices 1 2 3 4 5 6 
#
# 1 123.1146 35.7554 58.6832 0.0000 -9.0420 0.0000
# 2 35.7554 52.7138 35.5459 0.0000 1.9316 0.0000
# 3 58.6832 35.5459 126.6286 0.0000 -4.4311 0.0000
# 4 0.0000 0.0000 0.0000 32.1752 0.0000 2.2582
# 5 -9.0420 1.9316 -4.4311 0.0000 32.5499 0.0000
# 6 0.0000 0.0000 0.0000 2.2582 0.0000 30.6641
#
#
#
# Elastic Compliance Matrix: (Units=1/GPa)
#
#
# Indices 1 2 3 4 5 6 
#
# 1 0.011763 -0.005536 -0.003789 0.000000 0.003080 0.000000
# 2 -0.005536 0.026177 -0.004914 0.000000 -0.003760 0.000000
# 3 -0.003789 -0.004914 0.011059 0.000000 0.000744 0.000000
# 4 0.000000 0.000000 0.000000 0.031241 0.000000 -0.002301
# 5 0.003080 -0.003760 0.000744 0.000000 0.031902 0.000000
# 6 0.000000 0.000000 0.000000 -0.002301 0.000000 0.032781
#
#
# Mechanical properties :
#
#
# Convention : Reuss Voigt Hill
#
# Bulk Modulus (GPa) = 48.73497 62.49175 55.61336
# Shear Modulus (GPa) = 27.74048 30.57600 29.15824
#
# Velocity S-wave (km/s) = 3.80563 3.99539 3.90166
# Velocity P-wave (km/s) = 6.68984 7.34234 7.02367
#
# Compressibility (1/GPa) = 0.02051915
#
# Stress axis : x y z
#
# Youngs Moduli (GPa) = 85.01368 38.20143 90.42680
#
# Poissons Ratio (x) = 0.21149 0.34266
# Poissons Ratio (y) = 0.47066 0.44436
# Poissons Ratio (z) = 0.32215 0.18772
#
# Static dielectric constant tensor:
#      x y z
#    x 3.577860 0.000000 -0.061410 
#    y 0.000000 3.332430 0.000000 
#    z -0.061410 0.000000 3.662210 
# 
# 
# High freq. dielectric constant tensor:
#      x y z
#    x 1.744180 0.000000 -0.002140 
#    y 0.000000 1.734940 0.000000 
#    z -0.002140 0.000000 1.751990 
# 
# From -- ./inp_files/295687.got.cif
#   From: 2010.06.25/outbox.cif.g09.slc.cpg/sg12_148_cif.got.tgz:295687.got - 2010.06.28 00:19:55.
