data_PCOD8101660
_publ_section_title
;
Structure prediction by ZEFSAII (Michael W. Deem and Ramdas Pophale) SiO2 
 PCOD8101660
Probable space group: C 2/M
;
_chemical_formula_sum "Si O2"
_cell_formula_units_Z 48
_cell_length_a 18.316882
_cell_length_b 15.184258
_cell_length_c 17.734176
_cell_angle_alpha 90.000000
_cell_angle_beta 31.454756
_cell_angle_gamma 90.000000
_cell_volume 2573.837408
_symmetry_space_group_name_H-M "C 2/M"
_symmetry_group_IT_number 12
_symmetry_cell_setting 'monoclinic'
loop_
_space_group_symop_operation_xyz
x,y,z
-x,y,-z
-x,-y,-z
x,-y,z
1/2+x,1/2+y,z
1/2-x,1/2+y,-z
1/2-x,1/2-y,-z
1/2+x,1/2-y,z
loop_
_atom_site_type_symbol
_atom_site_label
_atom_site_fract_x
_atom_site_fract_y
_atom_site_fract_z
Si Si1 0.111736 0.753540 0.793847
Si Si2 0.805665 0.898706 0.885903
Si Si3 0.324503 0.838284 0.406367
Si Si4 0.904289 0.903643 0.303007
Si Si5 0.294087 0.746699 0.125564
Si Si6 0.378151 0.102572 0.807418
O O1 0.143295 0.669618 0.711498
O O2 0.151695 0.842976 0.715035
O O3 0.209327 0.747709 0.781000
O O4 0.950435 0.757804 0.957463
O O5 0.775761 0.836731 0.841403
O O6 0.951122 0.864369 0.792639
O O7 0.816295 0.000000 0.849085
O O8 0.685265 0.886539 0.053598
O O9 0.250000 0.750000 0.500000
O O10 0.209832 0.912211 0.528613
O O11 0.465234 0.859929 0.328284
O O12 0.933184 0.000000 0.243690
O O13 0.210703 0.659629 0.173645
O O14 0.375499 0.000000 0.784658
#
# Coordination Sequence:
#
# PCOD8101660 Si02
#       6
#     8   8   8   8   8   8
#     4  10  21  34  56  84 114 148 187 230 295 346
#     4  10  20  36  59  83 110 149 196 239 277 333
#     4  10  20  37  57  80 110 151 191 231 275 334
#     4  10  20  37  58  82 111 146 188 234 283 342
#     4  11  20  36  57  84 119 148 181 242 291 341
#     4  11  21  35  59  87 113 149 197 237 278 337
#
# _framework density 18.649197000000001
#
# number of rings (size 3 to 8) (size 9 to 14) (size 15 to 20)
#    0.000    1.667    3.333    3.000    0.000    0.667 
#    0.000   12.500    0.000    7.000    0.000    0.000 
#    0.000    0.000    0.000    0.000    0.000    0.000 
#
# Total GULP energy -297512.564964 kJ/mol
# GULP energy per Si atom -12396.356874 kJ/mol
# Density = 1.860675 g / cm^3
# Si number density = 18.649197 Si / 1000 Ang^3
#
#
#
# Elastic Constant Matrix: (Units=GPa)
#
#
# Indices 1 2 3 4 5 6 
#
# 1 126.0507 60.9218 34.9080 0.0004 6.2751 0.0000
# 2 60.9218 93.3395 19.2477 0.0007 -0.0544 -0.0001
# 3 34.9080 19.2477 89.3874 0.0017 -6.8311 -0.0004
# 4 0.0004 0.0007 0.0017 25.5172 -0.0008 -4.5619
# 5 6.2751 -0.0544 -6.8311 -0.0008 26.7329 0.0001
# 6 0.0000 -0.0001 -0.0004 -4.5619 0.0001 21.0668
#
#
#
# Elastic Compliance Matrix: (Units=1/GPa)
#
#
# Indices 1 2 3 4 5 6 
#
# 1 0.012830 -0.007619 -0.003673 0.000000 -0.003966 0.000000
# 2 -0.007619 0.015746 -0.000281 0.000000 0.001749 0.000000
# 3 -0.003673 -0.000281 0.013002 -0.000001 0.004184 0.000000
# 4 0.000000 0.000000 -0.000001 0.040767 0.000001 0.008828
# 5 -0.003966 0.001749 0.004184 0.000001 0.039411 0.000000
# 6 0.000000 0.000000 0.000000 0.008828 0.000000 0.049380
#
#
# Mechanical properties :
#
#
# Convention : Reuss Voigt Hill
#
# Bulk Modulus (GPa) = 54.25688 59.88139 57.06914
# Shear Modulus (GPa) = 24.94681 27.57674 26.26178
#
# Velocity S-wave (km/s) = 3.66141 3.84957 3.75667
# Velocity P-wave (km/s) = 6.85793 7.20680 7.03453
#
# Compressibility (1/GPa) = 0.01843084
#
# Stress axis : x y z
#
# Youngs Moduli (GPa) = 77.94015 63.50991 76.91120
#
# Poissons Ratio (x) = 0.48389 0.28250
# Poissons Ratio (y) = 0.59384 0.02164
# Poissons Ratio (z) = 0.28628 0.01787
#
# Static dielectric constant tensor:
#      x y z
#    x 3.350980 0.000000 -0.016150 
#    y 0.000000 3.624320 0.000000 
#    z -0.016150 0.000000 3.888220 
# 
# 
# High freq. dielectric constant tensor:
#      x y z
#    x 1.702570 0.000000 -0.013340 
#    y 0.000000 1.728480 0.000000 
#    z -0.013340 0.000000 1.732140 
# 
# From -- ./inp_files/88140.got.cif
#   From: 2010.06.25/outbox.cif.g09.slc.cpg/sg12_45_cif.got.tgz:88140.got - 2010.06.28 00:19:55.
