data_PCOD8101958
_publ_section_title
;
Structure prediction by ZEFSAII (Michael W. Deem and Ramdas Pophale) SiO2 
 PCOD8101958
Probable space group: C 2/M
;
_chemical_formula_sum "Si O2"
_cell_formula_units_Z 64
_cell_length_a 28.420350
_cell_length_b 14.489594
_cell_length_c 20.038058
_cell_angle_alpha 90.000000
_cell_angle_beta 23.533137
_cell_angle_gamma 90.000000
_cell_volume 3294.717286
_symmetry_space_group_name_H-M "C 2/M"
_symmetry_group_IT_number 12
_symmetry_cell_setting 'monoclinic'
loop_
_space_group_symop_operation_xyz
x,y,z
-x,y,-z
-x,-y,-z
x,-y,z
1/2+x,1/2+y,z
1/2-x,1/2+y,-z
1/2-x,1/2-y,-z
1/2+x,1/2-y,z
loop_
_atom_site_type_symbol
_atom_site_label
_atom_site_fract_x
_atom_site_fract_y
_atom_site_fract_z
Si Si1 0.979601 0.898482 0.744046
Si Si2 0.150145 0.238914 0.458859
Si Si3 0.504531 0.608333 0.123885
Si Si4 0.665517 0.765017 0.671976
Si Si5 0.271429 0.826582 0.918218
Si Si6 0.493757 0.103209 0.698746
Si Si7 0.717591 0.261846 0.844903
Si Si8 0.041185 0.392196 0.103389
O O1 0.024601 0.877098 0.760078
O O2 0.038071 0.828638 0.615362
O O3 0.018032 0.000000 0.671175
O O4 0.838167 0.895723 0.931358
O O5 0.261818 0.205751 0.356836
O O6 0.180600 0.248428 0.341765
O O7 0.111002 0.338793 0.534724
O O8 0.499862 0.500000 0.108988
O O9 0.404491 0.670276 0.218392
O O10 0.631779 0.651432 0.939763
O O11 0.750000 0.750000 0.500000
O O12 0.580549 0.850646 0.765841
O O13 0.392902 0.878852 0.775059
O O14 0.280366 0.781188 0.833602
O O15 0.250000 0.750000 0.000000
O O16 0.445051 0.123939 0.835637
O O17 0.538686 0.000000 0.633814
O O18 0.648274 0.164991 0.933014
O O19 0.049433 0.500000 0.072928
#
# Coordination Sequence:
#
# PCOD8101958 Si02
#       8
#     8   8   8   8   8   8   8   8
#     4  10  20  36  60  86 112 149 196 238 277 338
#     4  12  23  38  56  88 125 150 188 243 298 338
#     4   9  19  37  60  82 110 154 202 235 274 339
#     4  11  20  36  59  86 118 155 193 238 288 340
#     4  11  19  40  65  82 109 152 197 230 285 347
#     4  11  22  38  63  90 115 151 198 246 290 346
#     4  10  23  39  59  86 121 153 187 243 291 343
#     4  10  21  39  61  88 117 156 203 238 280 346
#
# _framework density 19.425035999999999
#
# number of rings (size 3 to 8) (size 9 to 14) (size 15 to 20)
#    0.000    1.500    5.000    1.125    0.000    5.500 
#    0.000    1.875    0.000    0.750    0.000    0.000 
#    0.000    0.000    0.000    0.000    0.000    0.000 
#
# Total GULP energy -396779.997319 kJ/mol
# GULP energy per Si atom -12399.374916 kJ/mol
# Density = 1.938082 g / cm^3
# Si number density = 19.425036 Si / 1000 Ang^3
#
#
#
# Elastic Constant Matrix: (Units=GPa)
#
#
# Indices 1 2 3 4 5 6 
#
# 1 71.9844 23.8550 16.3827 0.0000 -4.2697 0.0000
# 2 23.8550 123.2477 42.6101 0.0000 7.2188 0.0000
# 3 16.3827 42.6101 60.6658 0.0000 9.7510 0.0000
# 4 0.0000 0.0000 0.0000 15.8323 0.0000 -3.3995
# 5 -4.2697 7.2188 9.7510 0.0000 36.2043 0.0000
# 6 0.0000 0.0000 0.0000 -3.3995 0.0000 21.0437
#
#
#
# Elastic Compliance Matrix: (Units=1/GPa)
#
#
# Indices 1 2 3 4 5 6 
#
# 1 0.015496 -0.002063 -0.003236 0.000000 0.003110 0.000000
# 2 -0.002063 0.010991 -0.007078 0.000000 -0.000528 0.000000
# 3 -0.003236 -0.007078 0.023166 0.000000 -0.005210 0.000000
# 4 0.000000 0.000000 0.000000 0.065432 0.000000 0.010570
# 5 0.003110 -0.000528 -0.005210 0.000000 0.029496 0.000000
# 6 0.000000 0.000000 0.000000 0.010570 0.000000 0.049228
#
#
# Mechanical properties :
#
#
# Convention : Reuss Voigt Hill
#
# Bulk Modulus (GPa) = 40.15948 46.84372 43.50160
# Shear Modulus (GPa) = 22.03980 26.15274 24.09627
#
# Velocity S-wave (km/s) = 3.37205 3.67323 3.52586
# Velocity P-wave (km/s) = 5.98998 6.49289 6.24650
#
# Compressibility (1/GPa) = 0.02490072
#
# Stress axis : x y z
#
# Youngs Moduli (GPa) = 64.53098 90.98402 43.16629
#
# Poissons Ratio (x) = 0.18769 0.13968
# Poissons Ratio (y) = 0.13312 0.30552
# Poissons Ratio (z) = 0.20881 0.64396
#
# Static dielectric constant tensor:
#      x y z
#    x 26.037860 0.000000 -20.777160 
#    y 0.000000 3.952930 0.000000 
#    z -20.777160 0.000000 22.302370 
# 
# 
# High freq. dielectric constant tensor:
#      x y z
#    x 1.746340 0.000000 -0.012000 
#    y 0.000000 1.761780 0.000000 
#    z -0.012000 0.000000 1.745630 
# 
# From -- ./inp_files/183748.got.cif
#   From: 2010.06.25/outbox.cif.g09.slc.cpg/sg12_92_cif.got.tgz:183748.got - 2010.06.28 00:19:55.
