data_PCOD8101436
_publ_section_title
;
Structure prediction by ZEFSAII (Michael W. Deem and Ramdas Pophale) SiO2 
 PCOD8101436
Probable space group: C 2/M
;
_chemical_formula_sum "Si O2"
_cell_formula_units_Z 56
_cell_length_a 18.265837
_cell_length_b 8.768711
_cell_length_c 25.606329
_cell_angle_alpha 90.000000
_cell_angle_beta 134.869929
_cell_angle_gamma 90.000000
_cell_volume 2906.640658
_symmetry_space_group_name_H-M "C 2/M"
_symmetry_group_IT_number 12
_symmetry_cell_setting 'monoclinic'
loop_
_space_group_symop_operation_xyz
x,y,z
-x,y,-z
-x,-y,-z
x,-y,z
1/2+x,1/2+y,z
1/2-x,1/2+y,-z
1/2-x,1/2-y,-z
1/2+x,1/2-y,z
loop_
_atom_site_type_symbol
_atom_site_label
_atom_site_fract_x
_atom_site_fract_y
_atom_site_fract_z
Si Si1 0.462640 0.179301 0.923741
Si Si2 0.182390 0.675936 0.309472
Si Si3 0.020281 0.166533 0.793290
Si Si4 0.950652 0.168654 0.312354
Si Si5 0.334869 0.818835 0.580226
Si Si6 0.642811 0.178488 0.933642
Si Si7 0.261748 0.679458 0.766320
O O1 0.555708 0.221962 0.931980
O O2 0.355844 0.251687 0.848141
O O3 0.441488 0.000000 0.915485
O O4 0.500000 0.238159 0.000000
O O5 0.211150 0.500000 0.316758
O O6 0.198088 0.730812 0.377347
O O7 0.244419 0.773004 0.298007
O O8 0.063648 0.704645 0.235458
O O9 0.039009 0.142478 0.742944
O O10 0.122408 0.235503 0.869307
O O11 0.989943 0.000000 0.802067
O O12 0.848872 0.267686 0.268676
O O13 0.054286 0.255465 0.383205
O O14 0.943137 0.000000 0.335483
O O15 0.250000 0.750000 0.500000
O O16 0.338598 0.000000 0.578059
O O17 0.652537 0.000000 0.930337
O O18 0.750000 0.250000 0.000000
O O19 0.270593 0.500000 0.775526
#
# Coordination Sequence:
#
# PCOD8101436 Si02
#       7
#     8   8   8   8   8   8   8
#     4  10  23  42  60  80 113 159 203 246 303 359
#     4  10  20  37  61  87 117 156 195 234 286 349
#     4  10  20  36  58  83 110 147 194 243 293 347
#     4  10  22  39  61  87 120 158 197 240 293 351
#     4  10  21  39  65  95 126 157 195 239 289 349
#     4  11  23  37  56  80 112 150 193 247 299 352
#     4  12  24  38  60  89 121 156 200 251 298 351
#
# _framework density 19.266228000000002
#
# number of rings (size 3 to 8) (size 9 to 14) (size 15 to 20)
#    0.000    1.571    1.429    3.429    2.000    4.286 
#    0.000    0.714    0.000    4.286    0.000    0.000 
#    0.000    0.000    0.000    0.000    0.000    0.000 
#
# Total GULP energy -346971.432536 kJ/mol
# GULP energy per Si atom -12391.836876 kJ/mol
# Density = 1.922238 g / cm^3
# Si number density = 19.266228 Si / 1000 Ang^3
#
#
#
# Elastic Constant Matrix: (Units=GPa)
#
#
# Indices 1 2 3 4 5 6 
#
# 1 43.1698 43.4417 24.5977 0.0000 26.3001 0.0000
# 2 43.4417 106.5470 55.8034 0.0000 5.2470 0.0000
# 3 24.5977 55.8034 130.8031 0.0000 19.7029 0.0000
# 4 0.0000 0.0000 0.0000 23.0045 0.0000 6.0755
# 5 26.3001 5.2470 19.7029 0.0000 24.7010 0.0000
# 6 0.0000 0.0000 0.0000 6.0755 0.0000 30.4203
#
#
#
# Elastic Compliance Matrix: (Units=1/GPa)
#
#
# Indices 1 2 3 4 5 6 
#
# 1 -1.109795 0.488689 -0.184283 0.000000 1.224830 0.000000
# 2 0.488689 -0.203036 0.075697 0.000000 -0.537577 0.000000
# 3 -0.184283 0.075697 -0.019467 0.000000 0.195662 0.000000
# 4 0.000000 0.000000 0.000000 0.045890 0.000000 -0.009165
# 5 1.224830 -0.537577 0.195662 0.000000 -1.305519 0.000000
# 6 0.000000 0.000000 0.000000 -0.009165 0.000000 0.034703
#
#
# Mechanical properties :
#
#
# Convention : Reuss Voigt Hill
#
# Bulk Modulus (GPa) = -1.74797 58.68949 28.47076
# Shear Modulus (GPa) = -1.42526 26.07029 12.32251
#
# Velocity S-wave (km/s) = -0.86103 3.68252 2.53176
# Velocity P-wave (km/s) = 1.37759 6.97207 4.83281
#
# Compressibility (1/GPa) = -0.57209363
#
# Stress axis : x y z
#
# Youngs Moduli (GPa) = -0.90107 -4.92523 -51.37012
#
# Poissons Ratio (x) = 2.40690 -9.46665
# Poissons Ratio (y) = 0.44034 3.88854
# Poissons Ratio (z) = -0.16605 0.37282
#
# Static dielectric constant tensor:
#      x y z
#    x 3.876610 0.000000 0.057410 
#    y 0.000000 3.930740 0.000000 
#    z 0.057410 0.000000 3.376360 
# 
# 
# High freq. dielectric constant tensor:
#      x y z
#    x 1.745230 0.000000 -0.001380 
#    y 0.000000 1.763250 0.000000 
#    z -0.001380 0.000000 1.749310 
# 
# From -- ./inp_files/363160.got.cif
#   From: 2010.06.25/outbox.cif.g09.slc.cpg/sg12_182_cif.got.tgz:363160.got - 2010.06.28 00:19:55.
