data_PCOD8101275
_publ_section_title
;
Structure prediction by ZEFSAII (Michael W. Deem and Ramdas Pophale) SiO2 
 PCOD8101275
Probable space group: C 2/M
;
_chemical_formula_sum "Si O2"
_cell_formula_units_Z 40
_cell_length_a 9.362297
_cell_length_b 18.030214
_cell_length_c 16.129612
_cell_angle_alpha 90.000000
_cell_angle_beta 131.058504
_cell_angle_gamma 90.000000
_cell_volume 2053.057882
_symmetry_space_group_name_H-M "C 2/M"
_symmetry_group_IT_number 12
_symmetry_cell_setting 'monoclinic'
loop_
_space_group_symop_operation_xyz
x,y,z
-x,y,-z
-x,-y,-z
x,-y,z
1/2+x,1/2+y,z
1/2-x,1/2+y,-z
1/2-x,1/2-y,-z
1/2+x,1/2-y,z
loop_
_atom_site_type_symbol
_atom_site_label
_atom_site_fract_x
_atom_site_fract_y
_atom_site_fract_z
Si Si1 0.415975 0.651234 0.552303
Si Si2 0.986143 0.316902 0.370196
Si Si3 0.735043 0.203514 0.867910
Si Si4 0.350602 0.584127 0.694391
Si Si5 0.589520 0.663432 0.908948
O O1 0.500000 0.615290 0.500000
O O2 0.511780 0.731917 0.598747
O O3 0.461029 0.602410 0.650934
O O4 0.190203 0.648574 0.459952
O O5 0.940997 0.323751 0.254697
O O6 0.829379 0.360964 0.364338
O O7 0.703441 0.286031 0.888732
O O8 0.914888 0.212044 0.876550
O O9 0.776396 0.145259 0.959872
O O10 0.277346 0.500000 0.667288
O O11 0.503407 0.592773 0.827836
#
# Coordination Sequence:
#
# PCOD8101275 Si02
#       5
#     8   8   8   8   8
#     4  11  22  35  58  84 112 152 202 246 276 334
#     4  10  20  36  57  85 115 151 193 239 287 336
#     4   9  17  31  56  83 113 139 188 235 276 333
#     4  11  23  39  58  84 122 155 186 235 298 350
#     4   9  18  33  54  86 110 145 183 232 282 338
#
# _framework density 19.483134
#
# number of rings (size 3 to 8) (size 9 to 14) (size 15 to 20)
#    0.000    2.000    2.000    3.000    2.800    2.000 
#    0.000    8.000    0.000    0.000    0.000   18.200 
#    0.000    0.000    0.000    0.000    0.000    0.000 
#
# Total GULP energy -247839.823004 kJ/mol
# GULP energy per Si atom -12391.991150 kJ/mol
# Density = 1.943879 g / cm^3
# Si number density = 19.483134 Si / 1000 Ang^3
#
#
#
# Elastic Constant Matrix: (Units=GPa)
#
#
# Indices 1 2 3 4 5 6 
#
# 1 88.2157 34.8243 40.6864 0.0000 -28.5483 0.0000
# 2 34.8243 77.8549 30.1211 0.0000 -2.7884 0.0000
# 3 40.6864 30.1211 128.1521 0.0000 -19.3323 0.0000
# 4 0.0000 0.0000 0.0000 12.5557 0.0000 5.6178
# 5 -28.5483 -2.7884 -19.3323 0.0000 24.8994 0.0000
# 6 0.0000 0.0000 0.0000 5.6178 0.0000 14.0859
#
#
#
# Elastic Compliance Matrix: (Units=1/GPa)
#
#
# Indices 1 2 3 4 5 6 
#
# 1 0.023757 -0.009098 -0.001641 0.000000 0.024946 0.000000
# 2 -0.009098 0.017642 -0.002870 0.000000 -0.010684 0.000000
# 3 -0.001641 -0.002870 0.009816 0.000000 0.005419 0.000000
# 4 0.000000 0.000000 0.000000 0.096944 0.000000 -0.038664
# 5 0.024946 -0.010684 0.005419 0.000000 0.071774 0.000000
# 6 0.000000 0.000000 0.000000 -0.038664 0.000000 0.086413
#
#
# Mechanical properties :
#
#
# Convention : Reuss Voigt Hill
#
# Bulk Modulus (GPa) = 41.67137 56.16514 48.91826
# Shear Modulus (GPa) = 14.63860 22.88094 18.75977
#
# Velocity S-wave (km/s) = 2.74405 3.43067 3.10638
# Velocity P-wave (km/s) = 5.61022 6.67703 6.16674
#
# Compressibility (1/GPa) = 0.02399729
#
# Stress axis : x y z
#
# Youngs Moduli (GPa) = 42.09232 56.68403 101.87332
#
# Poissons Ratio (x) = 0.51573 0.16716
# Poissons Ratio (y) = 0.38297 0.29234
# Poissons Ratio (z) = 0.06907 0.16267
#
# Static dielectric constant tensor:
#      x y z
#    x 3.614460 0.000000 -0.269400 
#    y 0.000000 2.981650 0.000000 
#    z -0.269400 0.000000 4.248360 
# 
# 
# High freq. dielectric constant tensor:
#      x y z
#    x 1.761140 0.000000 -0.018740 
#    y 0.000000 1.693360 0.000000 
#    z -0.018740 0.000000 1.786920 
# 
# From -- ./inp_files/196605.got.cif
#   From: 2010.06.25/outbox.cif.g09.slc.cpg/sg12_99_cif.got.tgz:196605.got - 2010.06.28 00:19:55.
