data_PCOD8101988
_publ_section_title
;
Structure prediction by ZEFSAII (Michael W. Deem and Ramdas Pophale) SiO2 
 PCOD8101988
Probable space group: C 2/M
;
_chemical_formula_sum "Si O2"
_cell_formula_units_Z 64
_cell_length_a 27.242435
_cell_length_b 17.797257
_cell_length_c 11.985298
_cell_angle_alpha 90.000000
_cell_angle_beta 28.347153
_cell_angle_gamma 90.000000
_cell_volume 2759.117028
_symmetry_space_group_name_H-M "C 2/M"
_symmetry_group_IT_number 12
_symmetry_cell_setting 'monoclinic'
loop_
_space_group_symop_operation_xyz
x,y,z
-x,y,-z
-x,-y,-z
x,-y,z
1/2+x,1/2+y,z
1/2-x,1/2+y,-z
1/2-x,1/2-y,-z
1/2+x,1/2-y,z
loop_
_atom_site_type_symbol
_atom_site_label
_atom_site_fract_x
_atom_site_fract_y
_atom_site_fract_z
Si Si1 0.013174 0.331143 0.226675
Si Si2 0.786413 0.166328 0.914468
Si Si3 0.975260 0.807758 0.411730
Si Si4 0.409444 0.583537 0.965001
Si Si5 0.679674 0.709704 0.485475
Si Si6 0.691757 0.083580 0.312281
Si Si7 0.111258 0.776015 0.867457
Si Si8 0.786736 0.586644 0.161196
O O1 0.038088 0.271747 0.280037
O O2 0.897174 0.363948 0.459418
O O3 0.035597 0.289738 0.063707
O O4 0.090080 0.401611 0.085711
O O5 0.741871 0.115546 0.099799
O O6 0.750000 0.250000 0.000000
O O7 0.913802 0.175526 0.652126
O O8 0.759339 0.126657 0.854277
O O9 0.892007 0.781593 0.479889
O O10 0.042090 0.880947 0.245580
O O11 0.456955 0.500000 0.889599
O O12 0.285708 0.577323 0.210325
O O13 0.438205 0.642520 0.003891
O O14 0.777278 0.767604 0.292960
O O15 0.614812 0.724843 0.727253
O O16 0.731176 0.625968 0.378867
O O17 0.647625 0.000000 0.375492
O O18 0.758133 0.500000 0.219760
#
# Coordination Sequence:
#
# PCOD8101988 Si02
#       8
#     8   8   8   8   8   8   8   8
#     4  10  20  36  60  86 122 159 197 258 304 365
#     4  11  23  39  63  88 118 159 208 251 304 370
#     4  10  21  38  60  86 118 153 206 251 303 359
#     4  10  23  38  56  82 120 161 202 251 301 359
#     4   9  19  37  64  91 117 158 197 256 304 370
#     4  11  23  40  59  84 122 166 206 253 310 360
#     4   9  19  37  63  91 119 151 208 248 307 369
#     4  10  22  39  60  93 129 157 199 256 318 372
#
# _framework density 23.195827999999999
#
# number of rings (size 3 to 8) (size 9 to 14) (size 15 to 20)
#    0.000    2.000    1.250    1.500    5.250    6.000 
#    0.000    4.375    0.000    0.000    0.000    9.625 
#    0.000    0.000    0.000    0.000    0.000    0.000 
#
# Total GULP energy -396460.982660 kJ/mol
# GULP energy per Si atom -12389.405708 kJ/mol
# Density = 2.314303 g / cm^3
# Si number density = 23.195828 Si / 1000 Ang^3
#
#
#
# Elastic Constant Matrix: (Units=GPa)
#
#
# Indices 1 2 3 4 5 6 
#
# 1 27.9831 9.6837 11.8824 0.0000 5.3325 0.0000
# 2 9.6837 179.5983 51.7220 0.0000 5.6008 0.0000
# 3 11.8824 51.7220 160.1332 0.0000 15.9891 0.0000
# 4 0.0000 0.0000 0.0000 34.6379 0.0000 -4.1015
# 5 5.3325 5.6008 15.9891 0.0000 32.3552 0.0000
# 6 0.0000 0.0000 0.0000 -4.1015 0.0000 21.7300
#
#
#
# Elastic Compliance Matrix: (Units=1/GPa)
#
#
# Indices 1 2 3 4 5 6 
#
# 1 0.037969 -0.001349 -0.001873 0.000000 -0.005099 0.000000
# 2 -0.001349 0.006187 -0.001908 0.000000 0.000094 0.000000
# 3 -0.001873 -0.001908 0.007296 0.000000 -0.002967 0.000000
# 4 0.000000 0.000000 0.000000 0.029530 0.000000 0.005574
# 5 -0.005099 0.000094 -0.002967 0.000000 0.033197 0.000000
# 6 0.000000 0.000000 0.000000 0.005574 0.000000 0.047071
#
#
# Mechanical properties :
#
#
# Convention : Reuss Voigt Hill
#
# Bulk Modulus (GPa) = 24.27526 57.14341 40.70933
# Shear Modulus (GPa) = 26.99181 37.37305 32.18243
#
# Velocity S-wave (km/s) = 3.41493 4.01833 3.72885
# Velocity P-wave (km/s) = 5.10265 6.79838 6.01062
#
# Compressibility (1/GPa) = 0.04119421
#
# Stress axis : x y z
#
# Youngs Moduli (GPa) = 26.33695 161.62451 137.05847
#
# Poissons Ratio (x) = 0.21802 0.25666
# Poissons Ratio (y) = 0.03553 0.26147
# Poissons Ratio (z) = 0.04932 0.30833
#
# Static dielectric constant tensor:
#      x y z
#    x 4.158410 0.000000 -0.304360 
#    y 0.000000 4.304380 0.000000 
#    z -0.304360 0.000000 4.799720 
# 
# 
# High freq. dielectric constant tensor:
#      x y z
#    x 1.903710 0.000000 -0.018620 
#    y 0.000000 1.915850 0.000000 
#    z -0.018620 0.000000 1.942250 
# 
# From -- ./inp_files/190017.got.cif
#   From: 2010.06.25/outbox.cif.g09.slc.cpg/sg12_96_cif.got.tgz:190017.got - 2010.06.28 00:19:55.
