data_PCOD8101470
_publ_section_title
;
Structure prediction by ZEFSAII (Michael W. Deem and Ramdas Pophale) SiO2 
 PCOD8101470
Probable space group: C 2/M
;
_chemical_formula_sum "Si O2"
_cell_formula_units_Z 56
_cell_length_a 14.843106
_cell_length_b 18.146573
_cell_length_c 9.934780
_cell_angle_alpha 90.000000
_cell_angle_beta 69.975242
_cell_angle_gamma 90.000000
_cell_volume 2514.172839
_symmetry_space_group_name_H-M "C 2/M"
_symmetry_group_IT_number 12
_symmetry_cell_setting 'monoclinic'
loop_
_space_group_symop_operation_xyz
x,y,z
-x,y,-z
-x,-y,-z
x,-y,z
1/2+x,1/2+y,z
1/2-x,1/2+y,-z
1/2-x,1/2-y,-z
1/2+x,1/2-y,z
loop_
_atom_site_type_symbol
_atom_site_label
_atom_site_fract_x
_atom_site_fract_y
_atom_site_fract_z
Si Si1 0.927421 0.413760 0.292417
Si Si2 0.282672 0.085520 0.594122
Si Si3 0.071485 0.084843 0.700726
Si Si4 0.397663 0.682042 0.065216
Si Si5 0.108701 0.172115 0.230412
Si Si6 0.315876 0.832589 0.129703
Si Si7 0.872962 0.658287 0.793910
O O1 0.914843 0.500000 0.278744
O O2 0.860619 0.385168 0.448157
O O3 0.896853 0.375553 0.169284
O O4 0.036335 0.394948 0.270975
O O5 0.176781 0.096600 0.580884
O O6 0.292486 0.131607 0.728217
O O7 0.299041 0.000000 0.620732
O O8 0.086719 0.113588 0.843992
O O9 0.986502 0.129653 0.666458
O O10 0.040409 0.000000 0.717889
O O11 0.322094 0.744133 0.150968
O O12 0.500000 0.725025 0.000000
O O13 0.371660 0.649368 0.934010
O O14 0.210137 0.146098 0.242900
O O15 0.091631 0.259108 0.255910
O O16 0.328115 0.848995 0.964990
#
# Coordination Sequence:
#
# PCOD8101470 Si02
#       7
#     8   8   8   8   8   8   8
#     4  11  24  40  58  86 122 153 187 239 296 344
#     4  10  22  41  62  83 114 155 195 240 289 336
#     4  10  20  36  58  83 114 155 199 236 279 342
#     4   9  17  33  55  83 117 151 190 240 292 331
#     4  10  21  35  56  87 120 153 190 238 287 334
#     4  11  21  37  60  86 121 156 187 231 289 350
#     4  11  21  39  64  87 114 151 195 239 288 344
#
# _framework density 22.273726
#
# number of rings (size 3 to 8) (size 9 to 14) (size 15 to 20)
#    0.000    1.714    0.000    7.286    0.000    6.000 
#    0.000    8.571    0.000    2.571    0.000    0.000 
#    0.000    0.000    0.000    0.000    0.000    0.000 
#
# Total GULP energy -347064.560991 kJ/mol
# GULP energy per Si atom -12395.162893 kJ/mol
# Density = 2.222303 g / cm^3
# Si number density = 22.273726 Si / 1000 Ang^3
#
#
#
# Elastic Constant Matrix: (Units=GPa)
#
#
# Indices 1 2 3 4 5 6 
#
# 1 128.9600 29.1233 17.1727 0.0000 -28.3252 0.0000
# 2 29.1233 81.9144 30.6049 0.0000 -6.2493 0.0000
# 3 17.1727 30.6049 57.7205 0.0000 -9.2255 0.0000
# 4 0.0000 0.0000 0.0000 16.5373 0.0000 -10.7038
# 5 -28.3252 -6.2493 -9.2255 0.0000 23.5179 0.0000
# 6 0.0000 0.0000 0.0000 -10.7038 0.0000 31.8380
#
#
#
# Elastic Compliance Matrix: (Units=1/GPa)
#
#
# Indices 1 2 3 4 5 6 
#
# 1 0.011238 -0.003159 0.000385 0.000000 0.012847 0.000000
# 2 -0.003159 0.016131 -0.008040 0.000000 -0.002673 0.000000
# 3 0.000385 -0.008040 0.022625 0.000000 0.007202 0.000000
# 4 0.000000 0.000000 0.000000 0.077287 0.000000 0.025984
# 5 0.012847 -0.002673 0.007202 0.000000 0.060109 0.000000
# 6 0.000000 0.000000 0.000000 0.025984 0.000000 0.040145
#
#
# Mechanical properties :
#
#
# Convention : Reuss Voigt Hill
#
# Bulk Modulus (GPa) = 35.25516 46.93295 41.09405
# Shear Modulus (GPa) = 19.33340 27.15825 23.24583
#
# Velocity S-wave (km/s) = 2.94937 3.49563 3.23405
# Velocity P-wave (km/s) = 5.24031 6.11631 5.69518
#
# Compressibility (1/GPa) = 0.02836465
#
# Stress axis : x y z
#
# Youngs Moduli (GPa) = 88.98124 61.99135 44.19945
#
# Poissons Ratio (x) = 0.19585 -0.01701
# Poissons Ratio (y) = 0.28112 0.35538
# Poissons Ratio (z) = -0.03425 0.49844
#
# Static dielectric constant tensor:
#      x y z
#    x 4.525460 0.000000 -0.249510 
#    y 0.000000 3.777710 0.000000 
#    z -0.249510 0.000000 3.767560 
# 
# 
# High freq. dielectric constant tensor:
#      x y z
#    x 1.906700 0.000000 -0.018490 
#    y 0.000000 1.861900 0.000000 
#    z -0.018490 0.000000 1.850850 
# 
# From -- ./inp_files/145466.got.cif
#   From: 2010.06.25/outbox.cif.g09.slc.cpg/sg12_73_cif.got.tgz:145466.got - 2010.06.28 00:19:55.
