data_PCOD8101703
_publ_section_title
;
Structure prediction by ZEFSAII (Michael W. Deem and Ramdas Pophale) SiO2 
 PCOD8101703
Probable space group: C 2/M
;
_chemical_formula_sum "Si O2"
_cell_formula_units_Z 56
_cell_length_a 17.349026
_cell_length_b 17.930871
_cell_length_c 9.426808
_cell_angle_alpha 90.000000
_cell_angle_beta 77.778268
_cell_angle_gamma 90.000000
_cell_volume 2866.057473
_symmetry_space_group_name_H-M "C 2/M"
_symmetry_group_IT_number 12
_symmetry_cell_setting 'monoclinic'
loop_
_space_group_symop_operation_xyz
x,y,z
-x,y,-z
-x,-y,-z
x,-y,z
1/2+x,1/2+y,z
1/2-x,1/2+y,-z
1/2-x,1/2-y,-z
1/2+x,1/2-y,z
loop_
_atom_site_type_symbol
_atom_site_label
_atom_site_fract_x
_atom_site_fract_y
_atom_site_fract_z
Si Si1 0.459867 0.794205 0.665061
Si Si2 0.274663 0.086490 0.065440
Si Si3 0.676627 0.586053 0.833768
Si Si4 0.811717 0.311641 0.299017
Si Si5 0.444450 0.083289 0.887125
Si Si6 0.204366 0.672435 0.383336
Si Si7 0.551841 0.712748 0.840693
O O1 0.500000 0.804368 0.500000
O O2 0.482538 0.864519 0.753511
O O3 0.366229 0.794349 0.682914
O O4 0.492078 0.718235 0.728615
O O5 0.262907 0.134668 0.213052
O O6 0.276333 0.000000 0.109012
O O7 0.202564 0.103471 0.986047
O O8 0.356469 0.109828 0.960541
O O9 0.652152 0.500000 0.825351
O O10 0.752661 0.601283 0.704510
O O11 0.600298 0.635367 0.822608
O O12 0.824827 0.351454 0.447094
O O13 0.767846 0.236950 0.358387
O O14 0.891945 0.285323 0.191707
O O15 0.441326 0.000000 0.825302
O O16 0.500000 0.086457 0.000000
O O17 0.500000 0.721402 0.000000
#
# Coordination Sequence:
#
# PCOD8101703 Si02
#       7
#     8   8   8   8   8   8   8
#     4  12  22  36  58  88 122 157 199 249 300 361
#     4  10  20  36  59  84 116 154 196 242 293 358
#     4  10  23  43  64  88 119 161 208 254 302 357
#     4  10  21  39  57  89 118 154 202 243 300 357
#     4  10  21  37  55  81 120 157 190 237 294 357
#     4  10  22  37  61  85 119 157 196 252 296 358
#     4  11  24  38  62  91 120 160 199 253 307 357
#
# _framework density 19.539034999999998
#
# number of rings (size 3 to 8) (size 9 to 14) (size 15 to 20)
#    0.000    1.571    2.857    2.143    2.000    2.286 
#    0.000    0.000    0.000    0.429    0.000    0.000 
#    0.000    0.000    0.000    0.000    0.000    0.000 
#
# Total GULP energy -347070.253656 kJ/mol
# GULP energy per Si atom -12395.366202 kJ/mol
# Density = 1.949456 g / cm^3
# Si number density = 19.539035 Si / 1000 Ang^3
#
#
#
# Elastic Constant Matrix: (Units=GPa)
#
#
# Indices 1 2 3 4 5 6 
#
# 1 92.8308 30.1283 43.7970 0.0000 7.6870 0.0000
# 2 30.1283 69.5528 59.1885 0.0000 12.4293 0.0000
# 3 43.7970 59.1885 128.1805 0.0000 7.1515 0.0000
# 4 0.0000 0.0000 0.0000 17.7208 0.0000 0.4879
# 5 7.6870 12.4293 7.1515 0.0000 32.3789 0.0000
# 6 0.0000 0.0000 0.0000 0.4879 0.0000 25.5743
#
#
#
# Elastic Compliance Matrix: (Units=1/GPa)
#
#
# Indices 1 2 3 4 5 6 
#
# 1 0.013294 -0.002821 -0.003163 0.000000 -0.001374 0.000000
# 2 -0.002821 0.025840 -0.010582 0.000000 -0.006912 0.000000
# 3 -0.003163 -0.010582 0.013669 0.000000 0.001794 0.000000
# 4 0.000000 0.000000 0.000000 0.056460 0.000000 -0.001077
# 5 -0.001374 -0.006912 0.001794 0.000000 0.033468 0.000000
# 6 0.000000 0.000000 0.000000 -0.001077 0.000000 0.039122
#
#
# Mechanical properties :
#
#
# Convention : Reuss Voigt Hill
#
# Bulk Modulus (GPa) = 50.83950 61.86576 56.35263
# Shear Modulus (GPa) = 22.56897 25.63150 24.10023
#
# Velocity S-wave (km/s) = 3.40232 3.62582 3.51585
# Velocity P-wave (km/s) = 6.44285 7.01856 6.73686
#
# Compressibility (1/GPa) = 0.01966975
#
# Stress axis : x y z
#
# Youngs Moduli (GPa) = 75.22189 38.69907 73.16051
#
# Poissons Ratio (x) = 0.10919 0.23139
# Poissons Ratio (y) = 0.21224 0.77421
# Poissons Ratio (z) = 0.23791 0.40953
#
# Static dielectric constant tensor:
#      x y z
#    x 3.782610 0.000000 0.125620 
#    y 0.000000 3.461010 0.000000 
#    z 0.125620 0.000000 3.758950 
# 
# 
# High freq. dielectric constant tensor:
#      x y z
#    x 1.765980 0.000000 0.006440 
#    y 0.000000 1.742420 0.000000 
#    z 0.006440 0.000000 1.763790 
# 
# From -- ./inp_files/75861.got.cif
#   From: 2010.06.25/outbox.cif.g09.slc.cpg/sg12_38_cif.got.tgz:75861.got - 2010.06.28 00:19:55.
