data_PCOD8101761
_publ_section_title
;
Structure prediction by ZEFSAII (Michael W. Deem and Ramdas Pophale) SiO2 
 PCOD8101761
Probable space group: C 2/M
;
_chemical_formula_sum "Si O2"
_cell_formula_units_Z 56
_cell_length_a 13.653003
_cell_length_b 22.981491
_cell_length_c 16.441059
_cell_angle_alpha 90.000000
_cell_angle_beta 35.713419
_cell_angle_gamma 90.000000
_cell_volume 3011.266710
_symmetry_space_group_name_H-M "C 2/M"
_symmetry_group_IT_number 12
_symmetry_cell_setting 'monoclinic'
loop_
_space_group_symop_operation_xyz
x,y,z
-x,y,-z
-x,-y,-z
x,-y,z
1/2+x,1/2+y,z
1/2-x,1/2+y,-z
1/2-x,1/2-y,-z
1/2+x,1/2-y,z
loop_
_atom_site_type_symbol
_atom_site_label
_atom_site_fract_x
_atom_site_fract_y
_atom_site_fract_z
Si Si1 0.401733 0.879738 0.648275
Si Si2 0.222653 0.137204 0.002193
Si Si3 0.977744 0.568445 0.273835
Si Si4 0.311106 0.433126 0.656652
Si Si5 0.192643 0.213621 0.876004
Si Si6 0.939073 0.935816 0.132375
Si Si7 0.691733 0.846996 0.872478
O O1 0.500000 0.867386 0.500000
O O2 0.529701 0.900391 0.632998
O O3 0.306918 0.820673 0.735488
O O4 0.261167 0.928660 0.728092
O O5 0.356548 0.088574 0.885375
O O6 0.248272 0.195794 0.930521
O O7 0.239075 0.151789 0.084168
O O8 0.036315 0.110992 0.121044
O O9 0.987631 0.500000 0.280952
O O10 0.813509 0.585689 0.332282
O O11 0.500000 0.426307 0.500000
O O12 0.274106 0.500000 0.708132
O O13 0.291539 0.390193 0.746267
O O14 0.213816 0.279906 0.833043
O O15 0.000000 0.193894 0.000000
O O16 0.981838 0.000000 0.136077
O O17 0.000000 0.927156 0.000000
O O18 0.500000 0.867121 0.000000
#
# Coordination Sequence:
#
# PCOD8101761 Si02
#       7
#     8   8   8   8   8   8   8
#     4  11  22  37  58  87 121 156 193 236 286 353
#     4  11  19  36  60  89 116 150 193 247 286 341
#     4  10  20  36  59  85 118 155 190 237 294 341
#     4  10  23  43  61  83 121 158 188 236 296 346
#     4  10  20  40  60  83 120 152 188 244 299 336
#     4  11  20  34  57  85 117 158 190 231 293 346
#     4  11  23  37  63  90 109 150 204 247 278 341
#
# _framework density 18.596824999999999
#
# number of rings (size 3 to 8) (size 9 to 14) (size 15 to 20)
#    0.000    1.429    5.714    1.286    0.000    4.286 
#    0.000    1.429    0.000    3.429    0.000    0.000 
#    0.000    0.000    0.000    0.000    0.000    0.000 
#
# Total GULP energy -347161.861503 kJ/mol
# GULP energy per Si atom -12398.637911 kJ/mol
# Density = 1.855450 g / cm^3
# Si number density = 18.596825 Si / 1000 Ang^3
#
#
#
# Elastic Constant Matrix: (Units=GPa)
#
#
# Indices 1 2 3 4 5 6 
#
# 1 97.3459 28.4556 54.7997 0.0266 -2.0788 -0.0177
# 2 28.4556 91.2094 43.7203 -0.0061 7.7417 0.0014
# 3 54.7997 43.7203 108.5463 -0.0167 12.1892 -0.0063
# 4 0.0266 -0.0061 -0.0167 19.1954 0.0080 7.0210
# 5 -2.0788 7.7417 12.1892 0.0080 26.8822 0.0010
# 6 -0.0177 0.0014 -0.0063 7.0210 0.0010 21.4885
#
#
#
# Elastic Compliance Matrix: (Units=1/GPa)
#
#
# Indices 1 2 3 4 5 6 
#
# 1 0.015084 -0.001502 -0.007575 -0.000038 0.005034 0.000023
# 2 -0.001502 0.013795 -0.004572 0.000005 -0.002016 -0.000005
# 3 -0.007575 -0.004572 0.015590 0.000029 -0.006338 -0.000011
# 4 -0.000038 0.000005 0.000029 0.059167 -0.000035 -0.019332
# 5 0.005034 -0.002016 -0.006338 -0.000035 0.041043 0.000012
# 6 0.000023 -0.000005 -0.000011 -0.019332 0.000012 0.052853
#
#
# Mechanical properties :
#
#
# Convention : Reuss Voigt Hill
#
# Bulk Modulus (GPa) = 58.23814 61.22807 59.73311
# Shear Modulus (GPa) = 21.68700 24.85495 23.27098
#
# Velocity S-wave (km/s) = 3.41862 3.65981 3.54127
# Velocity P-wave (km/s) = 6.85323 7.13122 6.99361
#
# Compressibility (1/GPa) = 0.01717088
#
# Stress axis : x y z
#
# Youngs Moduli (GPa) = 66.29713 72.49084 64.14289
#
# Poissons Ratio (x) = 0.10887 0.48590
# Poissons Ratio (y) = 0.09957 0.29324
# Poissons Ratio (z) = 0.50222 0.33140
#
# Static dielectric constant tensor:
#      x y z
#    x 3.636820 0.000000 -0.254060 
#    y 0.000000 3.467480 0.000030 
#    z -0.254060 0.000030 3.341350 
# 
# 
# High freq. dielectric constant tensor:
#      x y z
#    x 1.729590 0.000000 -0.009870 
#    y 0.000000 1.727460 0.000000 
#    z -0.009870 0.000000 1.701980 
# 
# From -- ./inp_files/272359.got.cif
#   From: 2010.06.25/outbox.cif.g09.slc.cpg/sg12_137_cif.got.tgz:272359.got - 2010.06.28 00:19:55.
