data_PCOD8101297
_publ_section_title
;
Structure prediction by ZEFSAII (Michael W. Deem and Ramdas Pophale) SiO2 
 PCOD8101297
Probable space group: C 2/M
;
_chemical_formula_sum "Si O2"
_cell_formula_units_Z 64
_cell_length_a 13.687456
_cell_length_b 28.574348
_cell_length_c 8.922097
_cell_angle_alpha 90.000000
_cell_angle_beta 64.909770
_cell_angle_gamma 90.000000
_cell_volume 3160.255088
_symmetry_space_group_name_H-M "C 2/M"
_symmetry_group_IT_number 12
_symmetry_cell_setting 'monoclinic'
loop_
_space_group_symop_operation_xyz
x,y,z
-x,y,-z
-x,-y,-z
x,-y,z
1/2+x,1/2+y,z
1/2-x,1/2+y,-z
1/2-x,1/2-y,-z
1/2+x,1/2-y,z
loop_
_atom_site_type_symbol
_atom_site_label
_atom_site_fract_x
_atom_site_fract_y
_atom_site_fract_z
Si Si1 0.882586 0.640764 0.039440
Si Si2 0.320717 0.190385 0.354328
Si Si3 0.955978 0.869200 0.871475
Si Si4 0.082326 0.949951 0.317586
Si Si5 0.385725 0.106623 0.500029
Si Si6 0.635420 0.705719 0.691456
Si Si7 0.321292 0.945773 0.248596
Si Si8 0.740394 0.148082 0.162299
O O1 0.801249 0.667501 0.204497
O O2 0.879220 0.585065 0.080979
O O3 0.863057 0.654479 0.878154
O O4 0.000000 0.660577 0.000000
O O5 0.392733 0.157235 0.414816
O O6 0.385870 0.238978 0.293967
O O7 0.199212 0.194818 0.496865
O O8 0.973842 0.910396 0.744306
O O9 0.022130 0.822642 0.775610
O O10 0.828178 0.865074 0.978907
O O11 0.000000 0.886943 0.000000
O O12 0.195148 0.934563 0.316069
O O13 0.000000 0.959676 0.500000
O O14 0.097500 0.000000 0.220586
O O15 0.500000 0.094109 0.500000
O O16 0.356789 0.067879 0.394693
O O17 0.292508 0.109232 0.690636
O O18 0.713964 0.693622 0.781440
O O19 0.350439 0.000000 0.202625
#
# Coordination Sequence:
#
# PCOD8101297 Si02
#       8
#     8   8   8   8   8   8   8   8
#     4  11  22  37  60  85 117 159 198 250 312 359
#     4   9  20  39  61  84 119 156 202 241 293 361
#     4  10  21  35  59  88 123 154 186 244 303 353
#     4  10  22  38  60  88 118 156 199 240 292 360
#     4  10  21  40  64  83 115 161 203 253 301 357
#     4   9  20  38  60  87 120 154 201 243 289 365
#     4  10  22  41  62  87 119 156 204 251 296 363
#     4  10  20  36  57  88 120 151 194 248 308 355
#
# _framework density 20.251529000000001
#
# number of rings (size 3 to 8) (size 9 to 14) (size 15 to 20)
#    0.000    2.125    1.250    1.500    7.000    2.750 
#    0.000    5.625    0.000    0.000    0.000    0.000 
#    0.000    0.000    0.000    0.000    0.000    0.000 
#
# Total GULP energy -396460.149481 kJ/mol
# GULP energy per Si atom -12389.379671 kJ/mol
# Density = 2.020544 g / cm^3
# Si number density = 20.251529 Si / 1000 Ang^3
#
#
#
# Elastic Constant Matrix: (Units=GPa)
#
#
# Indices 1 2 3 4 5 6 
#
# 1 75.9285 28.1148 15.2283 0.0000 4.5292 0.0000
# 2 28.1148 124.1834 38.5373 0.0000 6.0916 0.0000
# 3 15.2283 38.5373 85.6776 0.0000 4.2362 0.0000
# 4 0.0000 0.0000 0.0000 15.0669 0.0000 3.0924
# 5 4.5292 6.0916 4.2362 0.0000 33.1433 0.0000
# 6 0.0000 0.0000 0.0000 3.0924 0.0000 21.4372
#
#
#
# Elastic Compliance Matrix: (Units=1/GPa)
#
#
# Indices 1 2 3 4 5 6 
#
# 1 0.014551 -0.002845 -0.001242 0.000000 -0.001307 0.000000
# 2 -0.002845 0.009962 -0.003929 0.000000 -0.000940 0.000000
# 3 -0.001242 -0.003929 0.013702 0.000000 -0.000860 0.000000
# 4 0.000000 0.000000 0.000000 0.068396 0.000000 -0.009866
# 5 -0.001307 -0.000940 -0.000860 0.000000 0.030633 0.000000
# 6 0.000000 0.000000 0.000000 -0.009866 0.000000 0.048071
#
#
# Mechanical properties :
#
#
# Convention : Reuss Voigt Hill
#
# Bulk Modulus (GPa) = 45.07825 49.95005 47.51415
# Shear Modulus (GPa) = 23.95319 27.52341 25.73830
#
# Velocity S-wave (km/s) = 3.44289 3.69057 3.56888
# Velocity P-wave (km/s) = 6.17351 6.54819 6.36361
#
# Compressibility (1/GPa) = 0.02218365
#
# Stress axis : x y z
#
# Youngs Moduli (GPa) = 68.72525 100.38209 72.98179
#
# Poissons Ratio (x) = 0.28556 0.09065
# Poissons Ratio (y) = 0.19550 0.28673
# Poissons Ratio (z) = 0.08536 0.39437
#
# Static dielectric constant tensor:
#      x y z
#    x 3.695580 0.000000 -0.102090 
#    y 0.000000 3.617910 0.000000 
#    z -0.102090 0.000000 3.940170 
# 
# 
# High freq. dielectric constant tensor:
#      x y z
#    x 1.786340 0.000000 -0.003760 
#    y 0.000000 1.774580 0.000000 
#    z -0.003760 0.000000 1.801790 
# 
# From -- ./inp_files/68209.got.cif
#   From: 2010.06.25/outbox.cif.g09.slc.cpg/sg12_35_cif.got.tgz:68209.got - 2010.06.28 00:19:55.
