data_PCOD8101356
_publ_section_title
;
Structure prediction by ZEFSAII (Michael W. Deem and Ramdas Pophale) SiO2 
 PCOD8101356
Probable space group: C 2/M
;
_chemical_formula_sum "Si O2"
_cell_formula_units_Z 48
_cell_length_a 26.949681
_cell_length_b 9.050579
_cell_length_c 15.136540
_cell_angle_alpha 90.000000
_cell_angle_beta 40.968460
_cell_angle_gamma 90.000000
_cell_volume 2420.607373
_symmetry_space_group_name_H-M "C 2/M"
_symmetry_group_IT_number 12
_symmetry_cell_setting 'monoclinic'
loop_
_space_group_symop_operation_xyz
x,y,z
-x,y,-z
-x,-y,-z
x,-y,z
1/2+x,1/2+y,z
1/2-x,1/2+y,-z
1/2-x,1/2-y,-z
1/2+x,1/2-y,z
loop_
_atom_site_type_symbol
_atom_site_label
_atom_site_fract_x
_atom_site_fract_y
_atom_site_fract_z
Si Si1 0.913633 0.670663 0.623178
Si Si2 0.168703 0.169598 0.767180
Si Si3 0.676172 0.324906 0.408218
Si Si4 0.919567 0.830369 0.939578
Si Si5 0.672157 0.828717 0.083618
Si Si6 0.089319 0.175470 0.698118
O O1 0.904798 0.500000 0.607322
O O2 0.862641 0.768242 0.628071
O O3 0.887508 0.698393 0.758065
O O4 0.000000 0.723651 0.500000
O O5 0.239104 0.266576 0.702263
O O6 0.136088 0.234656 0.719431
O O7 0.195233 0.000000 0.721177
O O8 0.102672 0.182771 0.928188
O O9 0.677782 0.500000 0.404041
O O10 0.629702 0.266383 0.555455
O O11 0.861423 0.735924 0.960805
O O12 0.003692 0.763779 0.815047
O O13 0.915573 0.000000 0.912743
O O14 0.689335 0.000000 0.046259
O O15 0.750000 0.750000 0.000000
O O16 0.086565 0.000000 0.707160
#
# Coordination Sequence:
#
# PCOD8101356 Si02
#       6
#     8   8   8   8   8   8
#     4  10  22  40  59  79 106 143 185 224 267 323
#     4  10  20  36  58  81 109 146 183 219 263 320
#     4  11  22  35  55  83 113 143 177 223 273 318
#     4  10  20  36  59  83 107 140 183 227 268 314
#     4  11  23  38  57  81 110 144 180 222 272 323
#     4   9  19  36  57  82 110 142 182 223 266 318
#
# _framework density 19.829733999999998
#
# number of rings (size 3 to 8) (size 9 to 14) (size 15 to 20)
#    0.000    1.833    0.000    4.000    0.000    8.333 
#    0.000    2.500    0.000    2.000    0.000    0.000 
#    0.000    0.000    0.000    0.000    0.000    0.000 
#
# Total GULP energy -297733.637461 kJ/mol
# GULP energy per Si atom -12405.568228 kJ/mol
# Density = 1.978460 g / cm^3
# Si number density = 19.829734 Si / 1000 Ang^3
#
#
#
# Elastic Constant Matrix: (Units=GPa)
#
#
# Indices 1 2 3 4 5 6 
#
# 1 100.6285 29.6062 2.4025 0.0002 -5.7531 -0.0001
# 2 29.6062 62.9652 18.5796 0.0027 -1.1654 -0.0010
# 3 2.4025 18.5796 70.3285 0.0011 -9.6205 -0.0007
# 4 0.0002 0.0027 0.0011 25.3430 -0.0001 5.6783
# 5 -5.7531 -1.1654 -9.6205 -0.0001 41.4501 -0.0001
# 6 -0.0001 -0.0010 -0.0007 5.6783 -0.0001 16.7725
#
#
#
# Elastic Compliance Matrix: (Units=1/GPa)
#
#
# Indices 1 2 3 4 5 6 
#
# 1 0.011743 -0.005902 0.001403 0.000001 0.001790 0.000000
# 2 -0.005902 0.020205 -0.005340 -0.000002 -0.001491 0.000002
# 3 0.001403 -0.005340 0.016099 0.000000 0.003781 0.000000
# 4 0.000001 -0.000002 0.000000 0.042697 0.000000 -0.014455
# 5 0.001790 -0.001491 0.003781 0.000000 0.025209 0.000000
# 6 0.000000 0.000002 0.000000 -0.014455 0.000000 0.064515
#
#
# Mechanical properties :
#
#
# Convention : Reuss Voigt Hill
#
# Bulk Modulus (GPa) = 35.25087 37.23319 36.24203
# Shear Modulus (GPa) = 23.85446 28.93538 26.39492
#
# Velocity S-wave (km/s) = 3.47214 3.82408 3.65235
# Velocity P-wave (km/s) = 5.82149 6.18994 6.00854
#
# Compressibility (1/GPa) = 0.02836809
#
# Stress axis : x y z
#
# Youngs Moduli (GPa) = 85.15774 49.49209 62.11544
#
# Poissons Ratio (x) = 0.29212 -0.08714
# Poissons Ratio (y) = 0.50263 0.33171
# Poissons Ratio (z) = -0.11947 0.26429
#
# Static dielectric constant tensor:
#      x y z
#    x 3.761230 0.000000 0.010970 
#    y 0.000000 3.415050 0.000000 
#    z 0.010970 0.000000 3.841040 
# 
# 
# High freq. dielectric constant tensor:
#      x y z
#    x 1.785060 0.000000 -0.000100 
#    y 0.000000 1.752520 0.000000 
#    z -0.000100 0.000000 1.790550 
# 
# From -- ./inp_files/244642.got.cif
#   From: 2010.06.25/outbox.cif.g09.slc.cpg/sg12_123_cif.got.tgz:244642.got - 2010.06.28 00:19:55.
