data_PCOD8101101
_publ_section_title
;
Structure prediction by ZEFSAII (Michael W. Deem and Ramdas Pophale) SiO2 
 PCOD8101101
Probable space group: C 2/M
;
_chemical_formula_sum "Si O2"
_cell_formula_units_Z 64
_cell_length_a 9.684057
_cell_length_b 25.921582
_cell_length_c 14.534218
_cell_angle_alpha 90.000000
_cell_angle_beta 107.965926
_cell_angle_gamma 90.000000
_cell_volume 3470.568893
_symmetry_space_group_name_H-M "C 2/M"
_symmetry_group_IT_number 12
_symmetry_cell_setting 'monoclinic'
loop_
_space_group_symop_operation_xyz
x,y,z
-x,y,-z
-x,-y,-z
x,-y,z
1/2+x,1/2+y,z
1/2-x,1/2+y,-z
1/2-x,1/2-y,-z
1/2+x,1/2-y,z
loop_
_atom_site_type_symbol
_atom_site_label
_atom_site_fract_x
_atom_site_fract_y
_atom_site_fract_z
Si Si1 0.913763 0.942936 0.067498
Si Si2 0.116959 0.649789 0.802550
Si Si3 0.191089 0.812914 0.302889
Si Si4 0.835152 0.198172 0.498607
Si Si5 0.090926 0.557675 0.932515
Si Si6 0.395135 0.352483 0.178051
Si Si7 0.195241 0.691919 0.289947
Si Si8 0.166755 0.799632 0.014043
O O1 0.933370 0.912902 0.169177
O O2 0.979120 0.000000 0.098384
O O3 0.750841 0.946953 0.001993
O O4 0.000000 0.915700 0.000000
O O5 0.186054 0.648608 0.713825
O O6 0.079259 0.594540 0.840053
O O7 0.246825 0.678240 0.882024
O O8 0.973668 0.684660 0.765962
O O9 0.169077 0.831226 0.404422
O O10 0.236645 0.752765 0.297402
O O11 0.037557 0.818813 0.221378
O O12 0.750000 0.250000 0.500000
O O13 0.745427 0.168891 0.399624
O O14 0.000000 0.208347 0.500000
O O15 0.034393 0.500000 0.893196
O O16 0.000000 0.580462 0.000000
O O17 0.281603 0.342043 0.234464
O O18 0.319869 0.340268 0.065191
O O19 0.250000 0.750000 0.000000
O O20 0.000000 0.785655 0.000000
#
# Coordination Sequence:
#
# PCOD8101101 Si02
#       8
#     8   8   8   8   8   8   8   8
#     4  10  20  36  57  79 106 146 196 242 282 328
#     4  12  24  36  55  86 115 154 195 234 287 342
#     4  11  22  38  57  80 118 151 190 236 281 342
#     4  10  22  39  60  83 111 151 194 243 288 331
#     4  10  21  39  58  79 112 153 197 247 286 330
#     4  12  21  36  55  78 113 152 186 231 283 337
#     4  11  24  37  56  84 114 151 194 233 283 345
#     4  12  25  36  50  76 119 161 191 219 271 344
#
# _framework density 18.440778999999999
#
# number of rings (size 3 to 8) (size 9 to 14) (size 15 to 20)
#    0.000    1.000    3.750    4.125    7.000    0.000 
#    0.000    0.000    0.000    0.000    0.000    5.250 
#    0.000    0.000    0.000    0.000    0.000    0.000 
#
# Total GULP energy -396568.224114 kJ/mol
# GULP energy per Si atom -12392.757004 kJ/mol
# Density = 1.839881 g / cm^3
# Si number density = 18.440779 Si / 1000 Ang^3
#
#
#
# Elastic Constant Matrix: (Units=GPa)
#
#
# Indices 1 2 3 4 5 6 
#
# 1 129.5674 36.1103 56.0596 0.0000 -22.2696 0.0000
# 2 36.1103 64.7450 43.1308 0.0000 -10.4587 0.0000
# 3 56.0596 43.1308 115.7786 0.0000 -19.5808 0.0000
# 4 0.0000 0.0000 0.0000 16.1627 0.0000 -6.8340
# 5 -22.2696 -10.4587 -19.5808 0.0000 38.4487 0.0000
# 6 0.0000 0.0000 0.0000 -6.8340 0.0000 24.5991
#
#
#
# Elastic Compliance Matrix: (Units=1/GPa)
#
#
# Indices 1 2 3 4 5 6 
#
# 1 0.010675 -0.003105 -0.003402 0.000000 0.003606 0.000000
# 2 -0.003105 0.021567 -0.006394 0.000000 0.000812 0.000000
# 3 -0.003402 -0.006394 0.013174 0.000000 0.002999 0.000000
# 4 0.000000 0.000000 0.000000 0.070106 0.000000 0.019476
# 5 0.003606 0.000812 0.002999 0.000000 0.029845 0.000000
# 6 0.000000 0.000000 0.000000 0.019476 0.000000 0.046063
#
#
# Mechanical properties :
#
#
# Convention : Reuss Voigt Hill
#
# Bulk Modulus (GPa) = 50.98347 64.52137 57.75242
# Shear Modulus (GPa) = 22.34434 27.49479 24.91956
#
# Velocity S-wave (km/s) = 3.48470 3.86551 3.68003
# Velocity P-wave (km/s) = 6.62555 7.41534 7.03154
#
# Compressibility (1/GPa) = 0.01961420
#
# Stress axis : x y z
#
# Youngs Moduli (GPa) = 93.67540 46.36636 75.90892
#
# Poissons Ratio (x) = 0.14396 0.25827
# Poissons Ratio (y) = 0.29085 0.48534
# Poissons Ratio (z) = 0.31872 0.29645
#
# Static dielectric constant tensor:
#      x y z
#    x 3.577600 0.000000 -0.093330 
#    y 0.000000 2.349530 0.000000 
#    z -0.093330 0.000000 4.019110 
# 
# 
# High freq. dielectric constant tensor:
#      x y z
#    x 1.739590 0.000000 -0.009830 
#    y 0.000000 1.682050 0.000000 
#    z -0.009830 0.000000 1.707810 
# 
# From -- ./inp_files/199850.got.cif
#   From: 2010.06.25/outbox.cif.g09.slc.cpg/sg12_100_cif.got.tgz:199850.got - 2010.06.28 00:19:55.
