data_PCOD8101991
_publ_section_title
;
Structure prediction by ZEFSAII (Michael W. Deem and Ramdas Pophale) SiO2 
 PCOD8101991
Probable space group: C 2/M
;
_chemical_formula_sum "Si O2"
_cell_formula_units_Z 64
_cell_length_a 26.127914
_cell_length_b 8.947287
_cell_length_c 14.198788
_cell_angle_alpha 90.000000
_cell_angle_beta 86.432517
_cell_angle_gamma 90.000000
_cell_volume 3312.874547
_symmetry_space_group_name_H-M "C 2/M"
_symmetry_group_IT_number 12
_symmetry_cell_setting 'monoclinic'
loop_
_space_group_symop_operation_xyz
x,y,z
-x,y,-z
-x,-y,-z
x,-y,z
1/2+x,1/2+y,z
1/2-x,1/2+y,-z
1/2-x,1/2-y,-z
1/2+x,1/2-y,z
loop_
_atom_site_type_symbol
_atom_site_label
_atom_site_fract_x
_atom_site_fract_y
_atom_site_fract_z
Si Si1 0.025476 0.322598 0.403512
Si Si2 0.137509 0.673326 0.396636
Si Si3 0.502490 0.173223 0.797735
Si Si4 0.095875 0.176657 0.889926
Si Si5 0.604043 0.174800 0.089371
Si Si6 0.295470 0.173395 0.438843
Si Si7 0.805700 0.676973 0.788685
Si Si8 0.694092 0.677141 0.762467
O O1 0.029587 0.500000 0.413449
O O2 0.993943 0.282160 0.312892
O O3 0.000000 0.253131 0.500000
O O4 0.082079 0.251252 0.389967
O O5 0.132912 0.500000 0.371849
O O6 0.154696 0.696207 0.501895
O O7 0.177031 0.742176 0.315516
O O8 0.543633 0.270251 0.848182
O O9 0.445207 0.207833 0.840164
O O10 0.515982 0.000000 0.812122
O O11 0.145607 0.235497 0.827393
O O12 0.095673 0.000000 0.893010
O O13 0.098284 0.236434 0.994433
O O14 0.655476 0.236083 0.135338
O O15 0.608297 0.000000 0.065963
O O16 0.250000 0.250000 0.500000
O O17 0.307931 0.249677 0.339291
O O18 0.282418 0.000000 0.424794
O O19 0.809069 0.500000 0.788564
O O20 0.746512 0.726837 0.810848
O O21 0.692887 0.500000 0.748383
#
# Coordination Sequence:
#
# PCOD8101991 Si02
#       8
#     8   8   8   8   8   8   8   8
#     4   9  17  29  50  84 117 140 174 230 283 323
#     4   9  16  29  51  80 110 144 182 221 274 328
#     4  10  20  36  60  87 112 141 186 237 279 331
#     4  11  25  40  55  79 116 155 185 226 291 347
#     4  10  20  37  63  87 105 137 191 246 288 331
#     4  11  21  33  56  85 115 150 187 225 270 329
#     4   9  16  33  59  81 107 144 185 233 284 330
#     4  10  22  40  57  79 115 154 189 230 281 336
#
# _framework density 19.318569
#
# number of rings (size 3 to 8) (size 9 to 14) (size 15 to 20)
#    0.000    2.125    2.500    1.125    1.750    3.500 
#    0.000    0.625    0.000    1.875    0.000    0.000 
#    0.000    0.000    0.000    0.000    0.000    0.000 
#
# Total GULP energy -396689.979561 kJ/mol
# GULP energy per Si atom -12396.561861 kJ/mol
# Density = 1.927460 g / cm^3
# Si number density = 19.318569 Si / 1000 Ang^3
#
#
#
# Elastic Constant Matrix: (Units=GPa)
#
#
# Indices 1 2 3 4 5 6 
#
# 1 99.6730 23.5668 36.5488 0.0000 12.3004 0.0000
# 2 23.5668 34.3713 28.6127 0.0000 -1.0504 0.0000
# 3 36.5488 28.6127 123.4215 0.0000 3.3303 0.0000
# 4 0.0000 0.0000 0.0000 24.0344 0.0000 -3.7166
# 5 12.3004 -1.0504 3.3303 0.0000 30.7370 0.0000
# 6 0.0000 0.0000 0.0000 -3.7166 0.0000 15.7530
#
#
#
# Elastic Compliance Matrix: (Units=1/GPa)
#
#
# Indices 1 2 3 4 5 6 
#
# 1 0.013214 -0.007541 -0.002021 0.000000 -0.005327 0.000000
# 2 -0.007541 0.040496 -0.007295 0.000000 0.005192 0.000000
# 3 -0.002021 -0.007295 0.010407 0.000000 -0.000568 0.000000
# 4 0.000000 0.000000 0.000000 0.043183 0.000000 0.010188
# 5 -0.005327 0.005192 -0.000568 0.000000 0.034905 0.000000
# 6 0.000000 0.000000 0.000000 0.010188 0.000000 0.065884
#
#
# Mechanical properties :
#
#
# Convention : Reuss Voigt Hill
#
# Bulk Modulus (GPa) = 32.89100 48.32471 40.60785
# Shear Modulus (GPa) = 19.84620 25.35404 22.60012
#
# Velocity S-wave (km/s) = 3.20865 3.62666 3.42404
# Velocity P-wave (km/s) = 5.54885 6.52732 6.05787
#
# Compressibility (1/GPa) = 0.03040345
#
# Stress axis : x y z
#
# Youngs Moduli (GPa) = 75.67584 24.69385 96.08499
#
# Poissons Ratio (x) = 0.18621 0.19421
# Poissons Ratio (y) = 0.57064 0.70096
# Poissons Ratio (z) = 0.15296 0.18015
#
# Static dielectric constant tensor:
#      x y z
#    x 3.885890 0.000000 0.007580 
#    y 0.000000 3.139850 0.000000 
#    z 0.007580 0.000000 3.632330 
# 
# 
# High freq. dielectric constant tensor:
#      x y z
#    x 1.766520 0.000000 0.005670 
#    y 0.000000 1.705370 0.000000 
#    z 0.005670 0.000000 1.761720 
# 
# From -- ./inp_files/238740.got.cif
#   From: 2010.06.25/outbox.cif.g09.slc.cpg/sg12_120_cif.got.tgz:238740.got - 2010.06.28 00:19:55.
