data_PCOD8101574
_publ_section_title
;
Structure prediction by ZEFSAII (Michael W. Deem and Ramdas Pophale) SiO2 
 PCOD8101574
Probable space group: C 2/M
;
_chemical_formula_sum "Si O2"
_cell_formula_units_Z 64
_cell_length_a 28.683572
_cell_length_b 8.585734
_cell_length_c 18.352146
_cell_angle_alpha 90.000000
_cell_angle_beta 43.007073
_cell_angle_gamma 90.000000
_cell_volume 3082.750195
_symmetry_space_group_name_H-M "C 2/M"
_symmetry_group_IT_number 12
_symmetry_cell_setting 'monoclinic'
loop_
_space_group_symop_operation_xyz
x,y,z
-x,y,-z
-x,-y,-z
x,-y,z
1/2+x,1/2+y,z
1/2-x,1/2+y,-z
1/2-x,1/2-y,-z
1/2+x,1/2-y,z
loop_
_atom_site_type_symbol
_atom_site_label
_atom_site_fract_x
_atom_site_fract_y
_atom_site_fract_z
Si Si1 0.782227 0.182050 0.035253
Si Si2 0.939625 0.315536 0.363458
Si Si3 0.821417 0.684566 0.392985
Si Si4 0.824790 0.320315 0.223730
Si Si5 0.703870 0.321357 0.260843
Si Si6 0.565916 0.183802 0.466960
Si Si7 0.554835 0.319648 0.996617
Si Si8 0.428722 0.180720 0.873704
O O1 0.749313 0.265465 0.141846
O O2 0.767563 0.000000 0.057620
O O3 0.750000 0.250000 0.000000
O O4 0.862920 0.211735 0.939308
O O5 0.931741 0.500000 0.372547
O O6 0.881514 0.246837 0.375830
O O7 0.930643 0.246107 0.455005
O O8 0.015081 0.269178 0.249956
O O9 0.818642 0.500000 0.399796
O O10 0.750000 0.750000 0.500000
O O11 0.833584 0.739399 0.296129
O O12 0.847582 0.500000 0.189214
O O13 0.746538 0.299157 0.286860
O O14 0.869981 0.212539 0.120077
O O15 0.684426 0.500000 0.270483
O O16 0.634022 0.225282 0.344994
O O17 0.500000 0.252867 0.500000
O O18 0.558825 0.000000 0.480082
O O19 0.548789 0.500000 0.025268
O O20 0.538985 0.212305 0.084109
O O21 0.500000 0.268550 0.000000
O O22 0.408397 0.000000 0.889108
#
# Coordination Sequence:
#
# PCOD8101574 Si02
#       8
#     8   8   8   8   8   8   8   8
#     4  12  26  44  67  96 128 166 209 260 317 379
#     4   9  20  38  60  88 123 163 210 256 311 377
#     4  10  20  36  58  86 118 159 207 256 309 369
#     4  10  21  37  59  85 117 158 203 251 311 377
#     4  11  23  41  64  94 126 160 207 261 313 375
#     4  10  22  40  63  90 120 164 211 258 318 378
#     4  11  23  37  56  87 124 163 209 257 310 371
#     4  11  22  40  65  92 126 168 212 261 315 380
#
# _framework density 20.760684000000001
#
# number of rings (size 3 to 8) (size 9 to 14) (size 15 to 20)
#    0.000    1.500    1.250    3.750    1.750    3.250 
#    0.000    2.500    0.000    0.000    0.000    0.000 
#    0.000    0.000    0.000    0.000    0.000    0.000 
#
# Total GULP energy -396924.427734 kJ/mol
# GULP energy per Si atom -12403.888367 kJ/mol
# Density = 2.071343 g / cm^3
# Si number density = 20.760684 Si / 1000 Ang^3
#
#
#
# Elastic Constant Matrix: (Units=GPa)
#
#
# Indices 1 2 3 4 5 6 
#
# 1 140.1915 16.2103 45.6708 0.0083 4.5072 -0.0052
# 2 16.2103 24.7764 3.7173 0.0529 5.0287 -0.0311
# 3 45.6708 3.7173 110.1734 0.0113 -1.1198 -0.0109
# 4 0.0083 0.0529 0.0113 30.6860 -0.0094 -4.9097
# 5 4.5072 5.0287 -1.1198 -0.0094 37.2807 0.0052
# 6 -0.0052 -0.0311 -0.0109 -4.9097 0.0052 25.6582
#
#
#
# Elastic Compliance Matrix: (Units=1/GPa)
#
#
# Indices 1 2 3 4 5 6 
#
# 1 0.008895 -0.005194 -0.003517 0.000007 -0.000480 -0.000005
# 2 -0.005194 0.044766 0.000588 -0.000071 -0.005393 0.000041
# 3 -0.003517 0.000588 0.010521 -0.000003 0.000662 0.000004
# 4 0.000007 -0.000071 -0.000003 0.033618 0.000016 0.006433
# 5 -0.000480 -0.005393 0.000662 0.000016 0.027629 -0.000009
# 6 -0.000005 0.000041 0.000004 0.006433 -0.000009 0.040205
#
#
# Mechanical properties :
#
#
# Convention : Reuss Voigt Hill
#
# Bulk Modulus (GPa) = 20.86126 45.14868 33.00497
# Shear Modulus (GPa) = 25.27055 32.69449 28.98252
#
# Velocity S-wave (km/s) = 3.49267 3.97271 3.74040
# Velocity P-wave (km/s) = 5.13179 6.54505 5.88103
#
# Compressibility (1/GPa) = 0.04793574
#
# Stress axis : x y z
#
# Youngs Moduli (GPa) = 112.42426 22.33835 95.04487
#
# Poissons Ratio (x) = 0.11604 0.33426
# Poissons Ratio (y) = 0.58398 -0.05589
# Poissons Ratio (z) = 0.39538 -0.01314
#
# Static dielectric constant tensor:
#      x y z
#    x 4.113490 -0.000060 0.148280 
#    y -0.000060 3.568090 -0.000040 
#    z 0.148280 -0.000040 3.742450 
# 
# 
# High freq. dielectric constant tensor:
#      x y z
#    x 1.828860 0.000000 0.001400 
#    y 0.000000 1.793520 0.000000 
#    z 0.001400 0.000000 1.818800 
# 
# From -- ./inp_files/295562.got.cif
#   From: 2010.06.25/outbox.cif.g09.slc.cpg/sg12_148_cif.got.tgz:295562.got - 2010.06.28 00:19:55.
