data_PCOD8101018
_publ_section_title
;
Structure prediction by ZEFSAII (Michael W. Deem and Ramdas Pophale) SiO2 
 PCOD8101018
Probable space group: C 2/M
;
_chemical_formula_sum "Si O2"
_cell_formula_units_Z 64
_cell_length_a 14.961903
_cell_length_b 28.179414
_cell_length_c 12.561848
_cell_angle_alpha 90.000000
_cell_angle_beta 141.369312
_cell_angle_gamma 90.000000
_cell_volume 3306.468092
_symmetry_space_group_name_H-M "C 2/M"
_symmetry_group_IT_number 12
_symmetry_cell_setting 'monoclinic'
loop_
_space_group_symop_operation_xyz
x,y,z
-x,y,-z
-x,-y,-z
x,-y,z
1/2+x,1/2+y,z
1/2-x,1/2+y,-z
1/2-x,1/2-y,-z
1/2+x,1/2-y,z
loop_
_atom_site_type_symbol
_atom_site_label
_atom_site_fract_x
_atom_site_fract_y
_atom_site_fract_z
Si Si1 0.885503 0.779900 0.661650
Si Si2 0.857523 0.287696 0.818428
Si Si3 0.839233 0.126183 0.380013
Si Si4 0.597945 0.610659 0.334830
Si Si5 0.396598 0.943977 0.240777
Si Si6 0.683716 0.280305 0.848551
Si Si7 0.697098 0.055707 0.615848
Si Si8 0.219347 0.889387 0.903882
O O1 0.750000 0.750000 0.500000
O O2 0.924993 0.753537 0.807629
O O3 0.858120 0.835509 0.654301
O O4 0.011843 0.776136 0.691631
O O5 0.761973 0.329704 0.678506
O O6 0.748108 0.261777 0.797885
O O7 0.000000 0.311839 0.000000
O O8 0.846803 0.095488 0.495240
O O9 0.781191 0.096004 0.223621
O O10 0.000000 0.145251 0.500000
O O11 0.662401 0.577804 0.304285
O O12 0.429192 0.600253 0.174666
O O13 0.312364 0.928306 0.269478
O O14 0.560649 0.929559 0.417000
O O15 0.380068 0.000000 0.203194
O O16 0.342710 0.915802 0.085780
O O17 0.742978 0.333269 0.921983
O O18 0.750000 0.250000 0.000000
O O19 0.711451 0.000000 0.627182
#
# Coordination Sequence:
#
# PCOD8101018 Si02
#       8
#     8   8   8   8   8   8   8   8
#     4  11  22  36  55  80 110 152 196 232 279 332
#     4  11  21  34  55  77 108 151 194 232 286 329
#     4   9  19  37  57  79 111 152 188 228 278 332
#     4  10  20  36  56  81 113 144 187 234 273 333
#     4   9  19  39  61  82 111 143 180 225 281 340
#     4  10  21  36  51  79 114 145 186 238 273 328
#     4   9  20  38  60  82 109 145 180 225 280 337
#     4   9  20  34  57  83 108 145 182 228 280 329
#
# _framework density 19.356000999999999
#
# number of rings (size 3 to 8) (size 9 to 14) (size 15 to 20)
#    0.000    2.250    2.500    1.500    0.000    5.000 
#    0.000    3.125    0.000    3.750    0.000    0.000 
#    0.000    0.000    0.000    0.000    0.000    0.000 
#
# Total GULP energy -396429.777110 kJ/mol
# GULP energy per Si atom -12388.430535 kJ/mol
# Density = 1.931195 g / cm^3
# Si number density = 19.356001 Si / 1000 Ang^3
#
#
#
# Elastic Constant Matrix: (Units=GPa)
#
#
# Indices 1 2 3 4 5 6 
#
# 1 82.5287 11.1832 0.9258 0.0000 1.2130 0.0000
# 2 11.1832 22.8928 18.4457 0.0000 -2.2536 0.0000
# 3 0.9258 18.4457 73.2224 0.0000 -4.8662 0.0000
# 4 0.0000 0.0000 0.0000 32.0854 0.0000 0.7645
# 5 1.2130 -2.2536 -4.8662 0.0000 25.0597 0.0000
# 6 0.0000 0.0000 0.0000 0.7645 0.0000 27.1785
#
#
#
# Elastic Compliance Matrix: (Units=1/GPa)
#
#
# Indices 1 2 3 4 5 6 
#
# 1 0.013192 -0.007974 0.001775 0.000000 -0.001011 0.000000
# 2 -0.007974 0.059755 -0.014760 0.000000 0.002894 0.000000
# 3 0.001775 -0.014760 0.017484 0.000000 0.001982 0.000000
# 4 0.000000 0.000000 0.000000 0.031188 0.000000 -0.000877
# 5 -0.001011 0.002894 0.001982 0.000000 0.040599 0.000000
# 6 0.000000 0.000000 0.000000 -0.000877 0.000000 0.036818
#
#
# Mechanical properties :
#
#
# Convention : Reuss Voigt Hill
#
# Bulk Modulus (GPa) = 20.61293 26.63925 23.62609
# Shear Modulus (GPa) = 19.44573 26.73734 23.09153
#
# Velocity S-wave (km/s) = 3.17304 3.72068 3.45772
# Velocity P-wave (km/s) = 4.90884 5.67896 5.30789
#
# Compressibility (1/GPa) = 0.04851323
#
# Stress axis : x y z
#
# Youngs Moduli (GPa) = 75.80065 16.73512 57.19355
#
# Poissons Ratio (x) = 0.13345 -0.10151
# Poissons Ratio (y) = 0.60445 0.84417
# Poissons Ratio (z) = -0.13453 0.24701
#
# Static dielectric constant tensor:
#      x y z
#    x 4.202500 0.000000 -0.656110 
#    y 0.000000 3.232510 0.000000 
#    z -0.656110 0.000000 3.677500 
# 
# 
# High freq. dielectric constant tensor:
#      x y z
#    x 1.763560 0.000000 -0.001000 
#    y 0.000000 1.715530 0.000000 
#    z -0.001000 0.000000 1.761080 
# 
# From -- ./inp_files/149817.got.cif
#   From: 2010.06.25/outbox.cif.g09.slc.cpg/sg12_75_cif.got.tgz:149817.got - 2010.06.28 00:19:55.
