data_PCOD8101002
_publ_section_title
;
Structure prediction by ZEFSAII (Michael W. Deem and Ramdas Pophale) SiO2 
 PCOD8101002
Probable space group: C 2/M
;
_chemical_formula_sum "Si O2"
_cell_formula_units_Z 56
_cell_length_a 28.610740
_cell_length_b 8.557737
_cell_length_c 14.357527
_cell_angle_alpha 90.000000
_cell_angle_beta 119.769464
_cell_angle_gamma 90.000000
_cell_volume 3051.423595
_symmetry_space_group_name_H-M "C 2/M"
_symmetry_group_IT_number 12
_symmetry_cell_setting 'monoclinic'
loop_
_space_group_symop_operation_xyz
x,y,z
-x,y,-z
-x,-y,-z
x,-y,z
1/2+x,1/2+y,z
1/2-x,1/2+y,-z
1/2-x,1/2-y,-z
1/2+x,1/2-y,z
loop_
_atom_site_type_symbol
_atom_site_label
_atom_site_fract_x
_atom_site_fract_y
_atom_site_fract_z
Si Si1 0.055651 0.816788 0.102582
Si Si2 0.586138 0.679949 0.845377
Si Si3 0.752349 0.684072 0.106733
Si Si4 0.451936 0.817576 0.516162
Si Si5 0.629987 0.819129 0.713802
Si Si6 0.027001 0.684219 0.257883
Si Si7 0.146550 0.681079 0.064047
O O1 0.066337 0.729870 0.211932
O O2 0.107165 0.778985 0.090742
O O3 0.052766 0.000000 0.117324
O O4 0.000000 0.756600 0.000000
O O5 0.597378 0.500000 0.879904
O O6 0.592291 0.715287 0.742751
O O7 0.527349 0.725164 0.822030
O O8 0.629694 0.787655 0.940676
O O9 0.743448 0.500000 0.092061
O O10 0.808014 0.728782 0.213421
O O11 0.707946 0.760038 0.131014
O O12 0.750000 0.750000 0.000000
O O13 0.500000 0.744080 0.500000
O O14 0.393144 0.784304 0.412564
O O15 0.451326 0.751100 0.621152
O O16 0.463471 0.000000 0.535468
O O17 0.621160 0.000000 0.731025
O O18 0.016865 0.500000 0.250275
O O19 0.142923 0.500000 0.086378
#
# Coordination Sequence:
#
# PCOD8101002 Si02
#       7
#     8   8   8   8   8   8   8
#     4  11  23  38  57  82 114 146 181 228 281 333
#     4  12  22  32  51  81 117 149 184 228 274 329
#     4  11  22  35  56  83 115 150 188 229 278 330
#     4   9  17  32  56  84 112 146 188 229 269 324
#     4  10  20  36  56  80 112 153 190 224 272 331
#     4  11  21  35  57  82 113 150 189 227 272 330
#     4  12  24  38  57  80 111 149 190 230 278 334
#
# _framework density 18.352088999999999
#
# number of rings (size 3 to 8) (size 9 to 14) (size 15 to 20)
#    0.000    1.143    4.286    3.857    0.000    1.143 
#    0.000    2.143    0.000    0.857    0.000    0.000 
#    0.000    0.000    0.000    0.000    0.000    0.000 
#
# Total GULP energy -347189.215264 kJ/mol
# GULP energy per Si atom -12399.614831 kJ/mol
# Density = 1.831032 g / cm^3
# Si number density = 18.352089 Si / 1000 Ang^3
#
#
#
# Elastic Constant Matrix: (Units=GPa)
#
#
# Indices 1 2 3 4 5 6 
#
# 1 103.2009 19.5191 47.9799 0.0000 0.2255 0.0000
# 2 19.5191 59.8529 26.5679 0.0000 2.3820 0.0000
# 3 47.9799 26.5679 114.8406 0.0000 -1.6829 0.0000
# 4 0.0000 0.0000 0.0000 16.9912 0.0000 -2.5156
# 5 0.2255 2.3820 -1.6829 0.0000 32.1426 0.0000
# 6 0.0000 0.0000 0.0000 -2.5156 0.0000 31.0606
#
#
#
# Elastic Compliance Matrix: (Units=1/GPa)
#
#
# Indices 1 2 3 4 5 6 
#
# 1 0.012221 -0.001906 -0.004668 0.000000 -0.000189 0.000000
# 2 -0.001906 0.019000 -0.003623 0.000000 -0.001584 0.000000
# 3 -0.004668 -0.003623 0.011509 0.000000 0.000904 0.000000
# 4 0.000000 0.000000 0.000000 0.059568 0.000000 0.004825
# 5 -0.000189 -0.001584 0.000904 0.000000 0.031277 0.000000
# 6 0.000000 0.000000 0.000000 0.004825 0.000000 0.032586
#
#
# Mechanical properties :
#
#
# Convention : Reuss Voigt Hill
#
# Bulk Modulus (GPa) = 44.76699 51.78089 48.27394
# Shear Modulus (GPa) = 25.77322 28.29407 27.03364
#
# Velocity S-wave (km/s) = 3.75157 3.93075 3.84220
# Velocity P-wave (km/s) = 6.57358 6.99125 6.78563
#
# Compressibility (1/GPa) = 0.02233789
#
# Stress axis : x y z
#
# Youngs Moduli (GPa) = 81.82766 52.63090 86.88757
#
# Poissons Ratio (x) = 0.10032 0.40556
# Poissons Ratio (y) = 0.15597 0.31475
# Poissons Ratio (z) = 0.38194 0.19066
#
# Static dielectric constant tensor:
#      x y z
#    x 3.341260 0.000000 0.018820 
#    y 0.000000 3.232000 0.000000 
#    z 0.018820 0.000000 3.486170 
# 
# 
# High freq. dielectric constant tensor:
#      x y z
#    x 1.701370 0.000000 -0.001890 
#    y 0.000000 1.706390 0.000000 
#    z -0.001890 0.000000 1.700690 
# 
# From -- ./inp_files/248590.got.cif
#   From: 2010.06.25/outbox.cif.g09.slc.cpg/sg12_125_cif.got.tgz:248590.got - 2010.06.28 00:19:55.
