data_PCOD8101273
_publ_section_title
;
Structure prediction by ZEFSAII (Michael W. Deem and Ramdas Pophale) SiO2 
 PCOD8101273
Probable space group: C 2/M
;
_chemical_formula_sum "Si O2"
_cell_formula_units_Z 48
_cell_length_a 9.719664
_cell_length_b 28.168302
_cell_length_c 14.516667
_cell_angle_alpha 90.000000
_cell_angle_beta 142.284809
_cell_angle_gamma 90.000000
_cell_volume 2431.327378
_symmetry_space_group_name_H-M "C 2/M"
_symmetry_group_IT_number 12
_symmetry_cell_setting 'monoclinic'
loop_
_space_group_symop_operation_xyz
x,y,z
-x,y,-z
-x,-y,-z
x,-y,z
1/2+x,1/2+y,z
1/2-x,1/2+y,-z
1/2-x,1/2-y,-z
1/2+x,1/2-y,z
loop_
_atom_site_type_symbol
_atom_site_label
_atom_site_fract_x
_atom_site_fract_y
_atom_site_fract_z
Si Si1 0.266538 0.888599 0.830801
Si Si2 0.130032 0.290921 0.319081
Si Si3 0.538202 0.294948 0.667852
Si Si4 0.607416 0.554420 0.908506
Si Si5 0.417137 0.054765 0.358105
Si Si6 0.983231 0.607112 0.214276
O O1 0.096783 0.844559 0.747146
O O2 0.158585 0.932389 0.829317
O O3 0.314483 0.904577 0.750635
O O4 0.500000 0.872056 0.000000
O O5 0.299929 0.302333 0.492155
O O6 0.267483 0.279284 0.299663
O O7 0.977840 0.245536 0.262762
O O8 0.967676 0.336112 0.218660
O O9 0.679430 0.500000 0.962774
O O10 0.348019 0.562100 0.793283
O O11 0.746575 0.587729 0.051084
O O12 0.500000 0.075291 0.500000
O O13 0.542568 0.082820 0.342965
O O14 0.486937 0.000000 0.387018
#
# Coordination Sequence:
#
# PCOD8101273 Si02
#       6
#     8   8   8   8   8   8
#     4   9  20  36  57  84 112 148 186 231 280 331
#     4   9  19  34  56  81 108 150 185 224 285 331
#     4   9  18  36  54  78 115 145 185 231 274 336
#     4  10  21  38  59  83 113 152 190 230 284 337
#     4  10  22  38  55  81 115 148 189 238 283 332
#     4  10  20  36  57  85 112 146 190 228 280 338
#
# _framework density 19.742303
#
# number of rings (size 3 to 8) (size 9 to 14) (size 15 to 20)
#    0.000    2.500    0.000    1.000    2.333    6.333 
#    3.000    9.167    0.000    3.000    0.000    0.000 
#    0.000    0.000    0.000    0.000    0.000    0.000 
#
# Total GULP energy -297631.566543 kJ/mol
# GULP energy per Si atom -12401.315273 kJ/mol
# Density = 1.969737 g / cm^3
# Si number density = 19.742303 Si / 1000 Ang^3
#
#
#
# Elastic Constant Matrix: (Units=GPa)
#
#
# Indices 1 2 3 4 5 6 
#
# 1 105.9338 60.5220 33.5851 0.0000 -20.3361 0.0000
# 2 60.5220 109.3181 52.4747 0.0000 2.5153 0.0000
# 3 33.5851 52.4747 52.9544 0.0000 -5.2654 0.0000
# 4 0.0000 0.0000 0.0000 35.1823 0.0000 -5.1236
# 5 -20.3361 2.5153 -5.2654 0.0000 27.4021 0.0000
# 6 0.0000 0.0000 0.0000 -5.1236 0.0000 37.2880
#
#
#
# Elastic Compliance Matrix: (Units=1/GPa)
#
#
# Indices 1 2 3 4 5 6 
#
# 1 0.018134 -0.010576 0.000422 0.000000 0.014509 0.000000
# 2 -0.010576 0.024319 -0.018752 0.000000 -0.013684 0.000000
# 3 0.000422 -0.018752 0.038129 0.000000 0.009361 0.000000
# 4 0.000000 0.000000 0.000000 0.029004 0.000000 0.003985
# 5 0.014509 -0.013684 0.009361 0.000000 0.050316 0.000000
# 6 0.000000 0.000000 0.000000 0.003985 0.000000 0.027366
#
#
# Mechanical properties :
#
#
# Convention : Reuss Voigt Hill
#
# Bulk Modulus (GPa) = 43.91671 62.37446 53.14559
# Shear Modulus (GPa) = 19.78880 28.08277 23.93579
#
# Velocity S-wave (km/s) = 3.16943 3.77565 3.48575
# Velocity P-wave (km/s) = 5.97386 7.11831 6.57105
#
# Compressibility (1/GPa) = 0.02277037
#
# Stress axis : x y z
#
# Youngs Moduli (GPa) = 55.14639 41.12094 26.22664
#
# Poissons Ratio (x) = 0.43488 -0.01106
# Poissons Ratio (y) = 0.58320 0.49179
# Poissons Ratio (z) = -0.02325 0.77108
#
# Static dielectric constant tensor:
#      x y z
#    x 3.798340 0.000000 -0.172100 
#    y 0.000000 3.561580 0.000000 
#    z -0.172100 0.000000 3.479730 
# 
# 
# High freq. dielectric constant tensor:
#      x y z
#    x 1.777360 0.000000 -0.009790 
#    y 0.000000 1.762290 0.000000 
#    z -0.009790 0.000000 1.756600 
# 
# From -- ./inp_files/201051.got.cif
#   From: 2010.06.25/outbox.cif.g09.slc.cpg/sg12_101_cif.got.tgz:201051.got - 2010.06.28 00:19:55.
