data_PCOD8101320
_publ_section_title
;
Structure prediction by ZEFSAII (Michael W. Deem and Ramdas Pophale) SiO2 
 PCOD8101320
Probable space group: C 2/M
;
_chemical_formula_sum "Si O2"
_cell_formula_units_Z 56
_cell_length_a 11.780484
_cell_length_b 13.975156
_cell_length_c 18.929424
_cell_angle_alpha 90.000000
_cell_angle_beta 66.198602
_cell_angle_gamma 90.000000
_cell_volume 2851.375896
_symmetry_space_group_name_H-M "C 2/M"
_symmetry_group_IT_number 12
_symmetry_cell_setting 'monoclinic'
loop_
_space_group_symop_operation_xyz
x,y,z
-x,y,-z
-x,-y,-z
x,-y,z
1/2+x,1/2+y,z
1/2-x,1/2+y,-z
1/2-x,1/2-y,-z
1/2+x,1/2-y,z
loop_
_atom_site_type_symbol
_atom_site_label
_atom_site_fract_x
_atom_site_fract_y
_atom_site_fract_z
Si Si1 0.074497 0.391703 0.824991
Si Si2 0.361368 0.221881 0.059852
Si Si3 0.142221 0.890033 0.473584
Si Si4 0.371596 0.193316 0.338468
Si Si5 0.295596 0.109461 0.942584
Si Si6 0.035265 0.392796 0.416092
Si Si7 0.816427 0.104473 0.373260
O O1 0.116988 0.500000 0.828894
O O2 0.147722 0.323512 0.860322
O O3 0.108143 0.364872 0.737395
O O4 0.928533 0.381585 0.873046
O O5 0.296346 0.325116 0.080183
O O6 0.500000 0.239335 0.000000
O O7 0.295095 0.148357 0.022877
O O8 0.232268 0.826383 0.401934
O O9 0.190248 0.877574 0.541176
O O10 0.000000 0.854683 0.500000
O O11 0.152862 0.000000 0.446204
O O12 0.477019 0.166846 0.367639
O O13 0.389739 0.307229 0.319571
O O14 0.248759 0.000000 0.954521
O O15 0.977874 0.500000 0.427263
O O16 0.182177 0.396297 0.371300
O O17 0.000000 0.345107 0.500000
O O18 0.879880 0.000000 0.342857
#
# Coordination Sequence:
#
# PCOD8101320 Si02
#       7
#     8   8   8   8   8   8   8
#     4  10  21  37  57  85 116 148 189 237 286 334
#     4   9  18  35  60  88 119 153 188 223 272 337
#     4  10  21  37  57  83 112 143 191 249 302 353
#     4  12  23  35  61  83 111 149 200 241 297 348
#     4   9  18  35  61  89 119 153 190 229 270 328
#     4  10  20  36  58  80 102 134 186 243 288 342
#     4  10  23  39  55  78 109 145 191 245 297 347
#
# _framework density 19.639643
#
# number of rings (size 3 to 8) (size 9 to 14) (size 15 to 20)
#    0.000    2.000    1.429    2.143    2.000    3.143 
#    0.000    2.143    0.000    3.429    0.000    0.000 
#    0.000    0.000    0.000    0.000    0.000    0.000 
#
# Total GULP energy -347201.030987 kJ/mol
# GULP energy per Si atom -12400.036821 kJ/mol
# Density = 1.959494 g / cm^3
# Si number density = 19.639643 Si / 1000 Ang^3
#
#
#
# Elastic Constant Matrix: (Units=GPa)
#
#
# Indices 1 2 3 4 5 6 
#
# 1 105.6924 58.3983 37.4279 0.0000 20.4524 0.0000
# 2 58.3983 154.3500 31.5820 0.0000 7.0482 0.0000
# 3 37.4279 31.5820 65.3514 0.0000 14.3231 0.0000
# 4 0.0000 0.0000 0.0000 24.6496 0.0000 0.4208
# 5 20.4524 7.0482 14.3231 0.0000 16.8424 0.0000
# 6 0.0000 0.0000 0.0000 0.4208 0.0000 35.3903
#
#
#
# Elastic Compliance Matrix: (Units=1/GPa)
#
#
# Indices 1 2 3 4 5 6 
#
# 1 0.016210 -0.004685 -0.003853 0.000000 -0.014447 0.000000
# 2 -0.004685 0.008544 -0.002346 0.000000 0.004109 0.000000
# 3 -0.003853 -0.002346 0.021388 0.000000 -0.012528 0.000000
# 4 0.000000 0.000000 0.000000 0.040577 0.000000 -0.000483
# 5 -0.014447 0.004109 -0.012528 0.000000 0.085852 0.000000
# 6 0.000000 0.000000 0.000000 -0.000483 0.000000 0.028262
#
#
# Mechanical properties :
#
#
# Convention : Reuss Voigt Hill
#
# Bulk Modulus (GPa) = 41.02893 64.46778 52.74836
# Shear Modulus (GPa) = 21.67058 28.57548 25.12303
#
# Velocity S-wave (km/s) = 3.32537 3.81857 3.58047
# Velocity P-wave (km/s) = 5.97330 7.23454 6.63396
#
# Compressibility (1/GPa) = 0.02437305
#
# Stress axis : x y z
#
# Youngs Moduli (GPa) = 61.68943 117.04407 46.75415
#
# Poissons Ratio (x) = 0.54835 0.18016
# Poissons Ratio (y) = 0.28901 0.10970
# Poissons Ratio (z) = 0.23772 0.27463
#
# Static dielectric constant tensor:
#      x y z
#    x 3.585240 0.000000 0.115450 
#    y 0.000000 3.908370 0.000000 
#    z 0.115450 0.000000 3.225770 
# 
# 
# High freq. dielectric constant tensor:
#      x y z
#    x 1.764790 0.000000 0.011870 
#    y 0.000000 1.784510 0.000000 
#    z 0.011870 0.000000 1.727920 
# 
# From -- ./inp_files/263260.got.cif
#   From: 2010.06.25/outbox.cif.g09.slc.cpg/sg12_132_cif.got.tgz:263260.got - 2010.06.28 00:19:55.
