data_PCOD8101025
_publ_section_title
;
Structure prediction by ZEFSAII (Michael W. Deem and Ramdas Pophale) SiO2 
 PCOD8101025
Probable space group: C 2/M
;
_chemical_formula_sum "Si O2"
_cell_formula_units_Z 56
_cell_length_a 8.660286
_cell_length_b 29.234900
_cell_length_c 11.464398
_cell_angle_alpha 90.000000
_cell_angle_beta 72.495637
_cell_angle_gamma 90.000000
_cell_volume 2768.179033
_symmetry_space_group_name_H-M "C 2/M"
_symmetry_group_IT_number 12
_symmetry_cell_setting 'monoclinic'
loop_
_space_group_symop_operation_xyz
x,y,z
-x,y,-z
-x,-y,-z
x,-y,z
1/2+x,1/2+y,z
1/2-x,1/2+y,-z
1/2-x,1/2-y,-z
1/2+x,1/2-y,z
loop_
_atom_site_type_symbol
_atom_site_label
_atom_site_fract_x
_atom_site_fract_y
_atom_site_fract_z
Si Si1 0.141806 0.448057 0.800157
Si Si2 0.398378 0.869204 0.920285
Si Si3 0.227415 0.231694 0.634471
Si Si4 0.047941 0.136858 0.670488
Si Si5 0.015428 0.690606 0.696278
Si Si6 0.902766 0.086962 0.912898
Si Si7 0.746178 0.615940 0.414328
O O1 0.081989 0.500000 0.803692
O O2 0.288699 0.446382 0.861787
O O3 0.201988 0.431660 0.658442
O O4 0.988608 0.417449 0.871876
O O5 0.399302 0.833778 0.815008
O O6 0.500000 0.845375 0.000000
O O7 0.213450 0.875652 0.000268
O O8 0.250000 0.250000 0.500000
O O9 0.116326 0.187159 0.669938
O O10 0.142572 0.273465 0.724837
O O11 0.405655 0.221339 0.638424
O O12 0.165643 0.106752 0.558704
O O13 0.032929 0.111467 0.798318
O O14 0.873949 0.141234 0.648843
O O15 0.104847 0.650758 0.602378
O O16 0.000000 0.063082 0.000000
#
# Coordination Sequence:
#
# PCOD8101025 Si02
#       7
#     8   8   8   8   8   8   8
#     4   9  19  37  63  89 111 145 194 243 284 342
#     4   9  20  39  61  81 112 155 198 231 284 346
#     4  12  23  34  56  86 114 145 193 243 285 336
#     4  10  20  36  56  81 115 153 189 235 281 342
#     4  11  22  37  54  84 114 146 191 243 285 338
#     4  10  20  36  56  84 117 157 191 228 286 344
#     4   9  19  36  58  82 114 148 186 235 300 339
#
# _framework density 20.229907000000001
#
# number of rings (size 3 to 8) (size 9 to 14) (size 15 to 20)
#    0.000    2.000    1.429    3.000    2.000    2.857 
#    0.000    9.286    0.000    0.000    0.000   13.000 
#    0.000    0.000    0.000    0.000    0.000    0.000 
#
# Total GULP energy -347004.264826 kJ/mol
# GULP energy per Si atom -12393.009458 kJ/mol
# Density = 2.018386 g / cm^3
# Si number density = 20.229907 Si / 1000 Ang^3
#
#
#
# Elastic Constant Matrix: (Units=GPa)
#
#
# Indices 1 2 3 4 5 6 
#
# 1 71.0385 20.6794 31.1813 0.0000 5.3284 0.0000
# 2 20.6794 89.5270 45.7885 0.0000 6.1131 0.0000
# 3 31.1813 45.7885 132.3739 0.0000 -12.8899 0.0000
# 4 0.0000 0.0000 0.0000 14.8226 0.0000 1.1558
# 5 5.3284 6.1131 -12.8899 0.0000 25.0275 0.0000
# 6 0.0000 0.0000 0.0000 1.1558 0.0000 17.8973
#
#
#
# Elastic Compliance Matrix: (Units=1/GPa)
#
#
# Indices 1 2 3 4 5 6 
#
# 1 0.016612 -0.001487 -0.003904 0.000000 -0.005184 0.000000
# 2 -0.001487 0.014628 -0.005292 0.000000 -0.005982 0.000000
# 3 -0.003904 -0.005292 0.011066 0.000000 0.007823 0.000000
# 4 0.000000 0.000000 0.000000 0.067806 0.000000 -0.004379
# 5 -0.005184 -0.005982 0.007823 0.000000 0.046550 0.000000
# 6 0.000000 0.000000 0.000000 -0.004379 0.000000 0.056157
#
#
# Mechanical properties :
#
#
# Convention : Reuss Voigt Hill
#
# Bulk Modulus (GPa) = 47.75212 54.24866 51.00039
# Shear Modulus (GPa) = 20.73264 24.56882 22.65073
#
# Velocity S-wave (km/s) = 3.20480 3.48872 3.34977
# Velocity P-wave (km/s) = 6.11149 6.56525 6.34243
#
# Compressibility (1/GPa) = 0.02094148
#
# Stress axis : x y z
#
# Youngs Moduli (GPa) = 60.19785 68.35982 90.36451
#
# Poissons Ratio (x) = 0.10163 0.35274
# Poissons Ratio (y) = 0.08949 0.47824
# Poissons Ratio (z) = 0.23499 0.36179
#
# Static dielectric constant tensor:
#      x y z
#    x 3.799100 0.000000 -0.148650 
#    y 0.000000 3.442930 0.000000 
#    z -0.148650 0.000000 3.893240 
# 
# 
# High freq. dielectric constant tensor:
#      x y z
#    x 1.792870 0.000000 -0.014290 
#    y 0.000000 1.758070 0.000000 
#    z -0.014290 0.000000 1.793950 
# 
# From -- ./inp_files/125176.got.cif
#   From: 2010.06.25/outbox.cif.g09.slc.cpg/sg12_63_cif.got.tgz:125176.got - 2010.06.28 00:19:55.
