data_PCOD8101578
_publ_section_title
;
Structure prediction by ZEFSAII (Michael W. Deem and Ramdas Pophale) SiO2 
 PCOD8101578
Probable space group: C 2/M
;
_chemical_formula_sum "Si O2"
_cell_formula_units_Z 64
_cell_length_a 30.500826
_cell_length_b 8.809212
_cell_length_c 13.725313
_cell_angle_alpha 90.000000
_cell_angle_beta 59.137115
_cell_angle_gamma 90.000000
_cell_volume 3165.623830
_symmetry_space_group_name_H-M "C 2/M"
_symmetry_group_IT_number 12
_symmetry_cell_setting 'monoclinic'
loop_
_space_group_symop_operation_xyz
x,y,z
-x,y,-z
-x,-y,-z
x,-y,z
1/2+x,1/2+y,z
1/2-x,1/2+y,-z
1/2-x,1/2-y,-z
1/2+x,1/2-y,z
loop_
_atom_site_type_symbol
_atom_site_label
_atom_site_fract_x
_atom_site_fract_y
_atom_site_fract_z
Si Si1 0.415409 0.820681 0.874870
Si Si2 0.272363 0.825523 0.735079
Si Si3 0.879365 0.321188 0.283234
Si Si4 0.832686 0.322612 0.128514
Si Si5 0.124869 0.673968 0.286797
Si Si6 0.476180 0.320097 0.246494
Si Si7 0.703902 0.320529 0.493183
Si Si8 0.546747 0.679443 0.510190
O O1 0.394008 0.761606 0.795467
O O2 0.467296 0.735680 0.842890
O O3 0.425040 0.000000 0.863656
O O4 0.374833 0.773409 0.002627
O O5 0.218324 0.770044 0.837978
O O6 0.313983 0.806968 0.773846
O O7 0.290180 0.722170 0.625555
O O8 0.268323 0.000000 0.705411
O O9 0.880484 0.500000 0.298740
O O10 0.852221 0.278323 0.213292
O O11 0.936873 0.256202 0.215587
O O12 0.849508 0.242349 0.405889
O O13 0.820195 0.500000 0.135567
O O14 0.108485 0.500000 0.314686
O O15 0.099462 0.761995 0.405541
O O16 0.473759 0.500000 0.239163
O O17 0.460415 0.262428 0.371912
O O18 0.705022 0.500000 0.503398
O O19 0.750000 0.250000 0.500000
O O20 0.500000 0.744958 0.500000
O O21 0.547437 0.500000 0.506609
#
# Coordination Sequence:
#
# PCOD8101578 Si02
#       8
#     8   8   8   8   8   8   8   8
#     4  10  22  42  63  85 117 158 204 251 299 356
#     4  11  23  39  61  91 124 158 197 246 301 359
#     4  11  23  40  62  89 121 158 200 246 299 358
#     4  10  23  42  63  85 115 159 206 250 299 355
#     4  10  22  38  60  90 121 155 197 244 299 358
#     4  11  23  39  61  90 121 156 198 246 303 361
#     4  12  23  38  62  92 124 160 197 243 299 357
#     4  10  20  36  58  86 120 154 190 237 295 358
#
# _framework density 20.217185000000001
#
# number of rings (size 3 to 8) (size 9 to 14) (size 15 to 20)
#    0.000    1.375    2.500    3.000    0.000    6.250 
#    0.000    2.500    0.000    0.000    0.000    0.000 
#    0.000    0.000    0.000    0.000    0.000    0.000 
#
# Total GULP energy -396977.284025 kJ/mol
# GULP energy per Si atom -12405.540126 kJ/mol
# Density = 2.017117 g / cm^3
# Si number density = 20.217185 Si / 1000 Ang^3
#
#
#
# Elastic Constant Matrix: (Units=GPa)
#
#
# Indices 1 2 3 4 5 6 
#
# 1 103.0998 37.1510 28.7665 0.0000 -34.3411 0.0000
# 2 37.1510 73.2215 34.3409 0.0000 -12.7044 0.0000
# 3 28.7665 34.3409 112.1112 0.0000 -22.9811 0.0000
# 4 0.0000 0.0000 0.0000 30.4472 0.0000 -9.1923
# 5 -34.3411 -12.7044 -22.9811 0.0000 26.8689 0.0000
# 6 0.0000 0.0000 0.0000 -9.1923 0.0000 31.3096
#
#
#
# Elastic Compliance Matrix: (Units=1/GPa)
#
#
# Indices 1 2 3 4 5 6 
#
# 1 0.019246 -0.006619 0.001807 0.000000 0.023014 0.000000
# 2 -0.006619 0.018602 -0.004766 0.000000 -0.003741 0.000000
# 3 0.001807 -0.004766 0.012038 0.000000 0.010352 0.000000
# 4 0.000000 0.000000 0.000000 0.036038 0.000000 0.010581
# 5 0.023014 -0.003741 0.010352 0.000000 0.073716 0.000000
# 6 0.000000 0.000000 0.000000 0.010581 0.000000 0.035046
#
#
# Mechanical properties :
#
#
# Convention : Reuss Voigt Hill
#
# Bulk Modulus (GPa) = 32.54363 54.32772 43.43568
# Shear Modulus (GPa) = 22.31276 30.27007 26.29141
#
# Velocity S-wave (km/s) = 3.32573 3.87362 3.61009
# Velocity P-wave (km/s) = 5.55691 6.85106 6.23764
#
# Compressibility (1/GPa) = 0.03072798
#
# Stress axis : x y z
#
# Youngs Moduli (GPa) = 51.95881 53.75760 83.06962
#
# Poissons Ratio (x) = 0.35584 -0.15008
# Poissons Ratio (y) = 0.34393 0.39595
# Poissons Ratio (z) = -0.09388 0.25623
#
# Static dielectric constant tensor:
#      x y z
#    x 3.867610 0.000000 -0.025440 
#    y 0.000000 3.584740 0.000000 
#    z -0.025440 0.000000 3.655900 
# 
# 
# High freq. dielectric constant tensor:
#      x y z
#    x 1.803950 0.000000 -0.008720 
#    y 0.000000 1.787540 0.000000 
#    z -0.008720 0.000000 1.783490 
# 
# From -- ./inp_files/249698.got.cif
#   From: 2010.06.25/outbox.cif.g09.slc.cpg/sg12_125_cif.got.tgz:249698.got - 2010.06.28 00:19:55.
