data_PCOD8101486
_publ_section_title
;
Structure prediction by ZEFSAII (Michael W. Deem and Ramdas Pophale) SiO2 
 PCOD8101486
Probable space group: C 2/M
;
_chemical_formula_sum "Si O2"
_cell_formula_units_Z 64
_cell_length_a 14.898519
_cell_length_b 14.068164
_cell_length_c 17.971996
_cell_angle_alpha 90.000000
_cell_angle_beta 126.641138
_cell_angle_gamma 90.000000
_cell_volume 3022.469312
_symmetry_space_group_name_H-M "C 2/M"
_symmetry_group_IT_number 12
_symmetry_cell_setting 'monoclinic'
loop_
_space_group_symop_operation_xyz
x,y,z
-x,y,-z
-x,-y,-z
x,-y,z
1/2+x,1/2+y,z
1/2-x,1/2+y,-z
1/2-x,1/2-y,-z
1/2+x,1/2-y,z
loop_
_atom_site_type_symbol
_atom_site_label
_atom_site_fract_x
_atom_site_fract_y
_atom_site_fract_z
Si Si1 0.721111 0.613655 0.801935
Si Si2 0.118262 0.605860 0.752619
Si Si3 0.594199 0.782251 0.185292
Si Si4 0.631493 0.888369 0.350269
Si Si5 0.714428 0.607340 0.288632
Si Si6 0.655653 0.749948 0.891997
Si Si7 0.301069 0.387546 0.554022
Si Si8 0.972388 0.112431 0.404008
O O1 0.733211 0.500000 0.813787
O O2 0.845273 0.662532 0.854013
O O3 0.660829 0.650298 0.848549
O O4 0.643044 0.646165 0.692696
O O5 0.128865 0.500000 0.790311
O O6 0.167606 0.613610 0.694525
O O7 0.183053 0.670945 0.843541
O O8 0.990443 0.635487 0.678599
O O9 0.649084 0.836746 0.281484
O O10 0.626286 0.671481 0.200658
O O11 0.459421 0.779709 0.122377
O O12 0.717880 0.842544 0.451787
O O13 0.651998 0.000000 0.347145
O O14 0.666504 0.500000 0.265756
O O15 0.732133 0.647163 0.380393
O O16 0.750000 0.750000 0.000000
O O17 0.286651 0.500000 0.540826
O O18 0.427817 0.355834 0.601250
O O19 0.000000 0.155154 0.500000
O O20 0.966180 0.000000 0.408691
#
# Coordination Sequence:
#
# PCOD8101486 Si02
#       8
#     8   8   8   8   8   8   8   8
#     4  11  23  42  67  98 132 168 211 263 321 381
#     4   9  19  39  61  82 117 161 203 247 308 371
#     4  11  22  39  65  89 122 161 207 257 321 383
#     4   9  18  33  56  87 123 163 205 252 305 365
#     4  10  20  36  58  83 118 164 207 248 299 362
#     4  11  25  44  66  93 124 157 204 265 327 387
#     4   9  17  30  52  85 121 162 212 254 295 356
#     4   9  17  31  55  87 127 168 204 247 302 363
#
# _framework density 21.17474
#
# number of rings (size 3 to 8) (size 9 to 14) (size 15 to 20)
#    0.000    2.125    1.250    1.875    0.000    6.000 
#    0.000    5.625    0.000    1.500    0.000    0.000 
#    0.000    0.000    0.000    0.000    0.000    0.000 
#
# Total GULP energy -396595.190503 kJ/mol
# GULP energy per Si atom -12393.599703 kJ/mol
# Density = 2.112654 g / cm^3
# Si number density = 21.174740 Si / 1000 Ang^3
#
#
#
# Elastic Constant Matrix: (Units=GPa)
#
#
# Indices 1 2 3 4 5 6 
#
# 1 117.0647 23.5569 40.4843 0.0000 5.1672 0.0000
# 2 23.5569 68.4201 30.6802 0.0000 4.4499 0.0000
# 3 40.4843 30.6802 95.8536 0.0000 12.8474 0.0000
# 4 0.0000 0.0000 0.0000 18.8760 0.0000 -4.4479
# 5 5.1672 4.4499 12.8474 0.0000 22.9223 0.0000
# 6 0.0000 0.0000 0.0000 -4.4479 0.0000 30.5382
#
#
#
# Elastic Compliance Matrix: (Units=1/GPa)
#
#
# Indices 1 2 3 4 5 6 
#
# 1 0.010199 -0.001846 -0.003738 0.000000 0.000154 0.000000
# 2 -0.001846 0.017400 -0.004750 0.000000 -0.000300 0.000000
# 3 -0.003738 -0.004750 0.014375 0.000000 -0.006292 0.000000
# 4 0.000000 0.000000 0.000000 0.054860 0.000000 0.007990
# 5 0.000154 -0.000300 -0.006292 0.000000 0.047176 0.000000
# 6 0.000000 0.000000 0.000000 0.007990 0.000000 0.033910
#
#
# Mechanical properties :
#
#
# Convention : Reuss Voigt Hill
#
# Bulk Modulus (GPa) = 46.92956 52.30903 49.61930
# Shear Modulus (GPa) = 24.30853 26.90845 25.60849
#
# Velocity S-wave (km/s) = 3.39189 3.56867 3.48140
# Velocity P-wave (km/s) = 6.12788 6.46047 6.29637
#
# Compressibility (1/GPa) = 0.02130853
#
# Stress axis : x y z
#
# Youngs Moduli (GPa) = 98.04404 57.47020 69.56620
#
# Poissons Ratio (x) = 0.10607 0.26002
# Poissons Ratio (y) = 0.18096 0.33042
# Poissons Ratio (z) = 0.36646 0.27296
#
# Static dielectric constant tensor:
#      x y z
#    x 4.047810 0.000000 -0.060010 
#    y 0.000000 3.919740 0.000000 
#    z -0.060010 0.000000 3.543200 
# 
# 
# High freq. dielectric constant tensor:
#      x y z
#    x 1.843330 0.000000 -0.001700 
#    y 0.000000 1.832230 0.000000 
#    z -0.001700 0.000000 1.793140 
# 
# From -- ./inp_files/270692.got.cif
#   From: 2010.06.25/outbox.cif.g09.slc.cpg/sg12_136_cif.got.tgz:270692.got - 2010.06.28 00:19:55.
