data_PCOD8101188
_publ_section_title
;
Structure prediction by ZEFSAII (Michael W. Deem and Ramdas Pophale) SiO2 
 PCOD8101188
Probable space group: C 2/M
;
_chemical_formula_sum "Si O2"
_cell_formula_units_Z 64
_cell_length_a 18.030117
_cell_length_b 17.715331
_cell_length_c 16.100466
_cell_angle_alpha 90.000000
_cell_angle_beta 140.681167
_cell_angle_gamma 90.000000
_cell_volume 3258.558756
_symmetry_space_group_name_H-M "C 2/M"
_symmetry_group_IT_number 12
_symmetry_cell_setting 'monoclinic'
loop_
_space_group_symop_operation_xyz
x,y,z
-x,y,-z
-x,-y,-z
x,-y,z
1/2+x,1/2+y,z
1/2-x,1/2+y,-z
1/2-x,1/2-y,-z
1/2+x,1/2-y,z
loop_
_atom_site_type_symbol
_atom_site_label
_atom_site_fract_x
_atom_site_fract_y
_atom_site_fract_z
Si Si1 0.654921 0.844540 0.402595
Si Si2 0.115717 0.808263 0.153659
Si Si3 0.504128 0.085720 0.411114
Si Si4 0.256120 0.413895 0.856937
Si Si5 0.104227 0.638740 0.183434
Si Si6 0.091005 0.821705 0.316724
Si Si7 0.361715 0.411224 0.126966
Si Si8 0.146950 0.584622 0.052579
O O1 0.604411 0.876592 0.443546
O O2 0.639414 0.892681 0.304781
O O3 0.793876 0.842228 0.532221
O O4 0.582612 0.768264 0.319307
O O5 0.212964 0.855508 0.188859
O O6 0.153736 0.722145 0.204023
O O7 0.098997 0.848112 0.228043
O O8 0.000000 0.813791 0.000000
O O9 0.500000 0.123089 0.500000
O O10 0.383669 0.091983 0.255624
O O11 0.543828 0.000000 0.457440
O O12 0.291954 0.500000 0.863890
O O13 0.316590 0.390546 0.995735
O O14 0.962396 0.639815 0.058704
O O15 0.163460 0.583618 0.166864
O O16 0.976100 0.863622 0.252472
O O17 0.389404 0.500000 0.158991
O O18 0.261623 0.385452 0.105017
O O19 0.118135 0.500000 0.996500
#
# Coordination Sequence:
#
# PCOD8101188 Si02
#       8
#     8   8   8   8   8   8   8   8
#     4  10  22  39  58  80 112 152 186 226 275 337
#     4  11  19  34  56  84 112 143 182 230 270 331
#     4  10  21  38  59  86 116 147 187 231 276 331
#     4  10  21  35  55  84 115 148 184 228 285 337
#     4  10  20  36  57  84 109 142 188 231 277 328
#     4  10  22  39  55  80 115 148 188 227 278 333
#     4  10  21  36  55  82 115 146 183 233 284 333
#     4  10  20  36  57  82 111 140 181 236 285 325
#
# _framework density 19.640585999999999
#
# number of rings (size 3 to 8) (size 9 to 14) (size 15 to 20)
#    0.000    1.875    2.500    2.250    0.000    4.250 
#    0.000    3.125    0.000    1.500    0.000    0.000 
#    0.000    0.000    0.000    0.000    0.000    0.000 
#
# Total GULP energy -396646.147836 kJ/mol
# GULP energy per Si atom -12395.192120 kJ/mol
# Density = 1.959588 g / cm^3
# Si number density = 19.640586 Si / 1000 Ang^3
#
#
#
# Elastic Constant Matrix: (Units=GPa)
#
#
# Indices 1 2 3 4 5 6 
#
# 1 137.8797 42.5213 44.7932 0.0000 -7.7839 0.0000
# 2 42.5213 55.8287 23.8069 0.0000 7.4422 0.0000
# 3 44.7932 23.8069 93.1823 -0.0001 -11.5153 0.0000
# 4 0.0000 0.0000 -0.0001 22.0113 -0.0001 1.7513
# 5 -7.7839 7.4422 -11.5153 -0.0001 34.4121 0.0000
# 6 0.0000 0.0000 0.0000 1.7513 0.0000 25.9594
#
#
#
# Elastic Compliance Matrix: (Units=1/GPa)
#
#
# Indices 1 2 3 4 5 6 
#
# 1 0.010587 -0.007240 -0.002869 0.000000 0.003001 0.000000
# 2 -0.007240 0.026467 -0.004372 0.000000 -0.008825 0.000000
# 3 -0.002869 -0.004372 0.013836 0.000000 0.004927 0.000000
# 4 0.000000 0.000000 0.000000 0.045676 0.000000 -0.003082
# 5 0.003001 -0.008825 0.004927 0.000000 0.033295 0.000000
# 6 0.000000 0.000000 0.000000 -0.003082 0.000000 0.038730
#
#
# Mechanical properties :
#
#
# Convention : Reuss Voigt Hill
#
# Bulk Modulus (GPa) = 45.60250 56.57040 51.08645
# Shear Modulus (GPa) = 24.40656 28.19452 26.30054
#
# Velocity S-wave (km/s) = 3.52896 3.79294 3.66333
# Velocity P-wave (km/s) = 6.31456 6.93161 6.63027
#
# Compressibility (1/GPa) = 0.02192862
#
# Stress axis : x y z
#
# Youngs Moduli (GPa) = 94.45720 37.78285 72.27276
#
# Poissons Ratio (x) = 0.27355 0.20732
# Poissons Ratio (y) = 0.68388 0.31599
# Poissons Ratio (z) = 0.27096 0.16519
#
# Static dielectric constant tensor:
#      x y z
#    x 3.647450 0.000000 -0.230470 
#    y 0.000000 3.460260 0.000000 
#    z -0.230470 0.000000 3.610210 
# 
# 
# High freq. dielectric constant tensor:
#      x y z
#    x 1.766040 0.000000 -0.011770 
#    y 0.000000 1.749190 0.000000 
#    z -0.011770 0.000000 1.765310 
# 
# From -- ./inp_files/226898.got.cif
#   From: 2010.06.25/outbox.cif.g09.slc.cpg/sg12_114_cif.got.tgz:226898.got - 2010.06.28 00:19:55.
