data_PCOD8101632
_publ_section_title
;
Structure prediction by ZEFSAII (Michael W. Deem and Ramdas Pophale) SiO2 
 PCOD8101632
Probable space group: C 2/M
;
_chemical_formula_sum "Si O2"
_cell_formula_units_Z 40
_cell_length_a 18.231630
_cell_length_b 8.961063
_cell_length_c 22.052010
_cell_angle_alpha 90.000000
_cell_angle_beta 35.323160
_cell_angle_gamma 90.000000
_cell_volume 2083.060527
_symmetry_space_group_name_H-M "C 2/M"
_symmetry_group_IT_number 12
_symmetry_cell_setting 'monoclinic'
loop_
_space_group_symop_operation_xyz
x,y,z
-x,y,-z
-x,-y,-z
x,-y,z
1/2+x,1/2+y,z
1/2-x,1/2+y,-z
1/2-x,1/2-y,-z
1/2+x,1/2-y,z
loop_
_atom_site_type_symbol
_atom_site_label
_atom_site_fract_x
_atom_site_fract_y
_atom_site_fract_z
Si Si1 0.152276 0.677359 0.678789
Si Si2 0.303315 0.176529 0.105504
Si Si3 0.553809 0.176728 0.872092
Si Si4 0.939062 0.824902 0.476831
Si Si5 0.543686 0.823295 0.289582
O O1 0.151862 0.500000 0.683758
O O2 0.096573 0.745745 0.778935
O O3 0.295022 0.735189 0.572573
O O4 0.067239 0.733581 0.680334
O O5 0.349872 0.230153 0.140524
O O6 0.175778 0.262699 0.174264
O O7 0.278611 0.000000 0.120992
O O8 0.409798 0.224758 0.984658
O O9 0.559466 0.000000 0.866324
O O10 0.000000 0.785801 0.500000
O O11 0.020429 0.740548 0.371804
O O12 0.946331 0.000000 0.458266
O O13 0.548321 0.000000 0.289085
#
# Coordination Sequence:
#
# PCOD8101632 Si02
#       5
#     8   8   8   8   8
#     4   9  18  32  50  75 105 133 164 207 257 301
#     4   9  17  32  56  79  98 129 175 217 246 283
#     4   8  15  31  55  78  98 127 173 220 250 280
#     4  10  20  36  59  78  93 125 175 219 248 287
#     4  11  22  33  48  74 110 141 160 195 256 313
#
# _framework density 19.202515999999999
#
# number of rings (size 3 to 8) (size 9 to 14) (size 15 to 20)
#    0.000    2.600    0.000    3.600    0.000    4.400 
#    0.000    3.000    0.000    4.800    0.000    0.000 
#    0.000    0.000    0.000    0.000    0.000    0.000 
#
# Total GULP energy -248000.214022 kJ/mol
# GULP energy per Si atom -12400.010701 kJ/mol
# Density = 1.915881 g / cm^3
# Si number density = 19.202516 Si / 1000 Ang^3
#
#
#
# Elastic Constant Matrix: (Units=GPa)
#
#
# Indices 1 2 3 4 5 6 
#
# 1 94.9994 25.7310 33.2771 0.0000 -23.6567 0.0000
# 2 25.7310 30.4986 18.0619 0.0001 -4.0209 0.0000
# 3 33.2771 18.0619 97.1207 -0.0001 -15.4262 0.0000
# 4 0.0000 0.0001 -0.0001 17.0111 0.0000 -8.4417
# 5 -23.6567 -4.0209 -15.4262 0.0000 39.7418 0.0000
# 6 0.0000 0.0000 0.0000 -8.4417 0.0000 20.2237
#
#
#
# Elastic Compliance Matrix: (Units=1/GPa)
#
#
# Indices 1 2 3 4 5 6 
#
# 1 0.016323 -0.011427 -0.002247 0.000000 0.007688 0.000000
# 2 -0.011427 0.044895 -0.005108 0.000000 -0.004243 0.000000
# 3 -0.002247 -0.005108 0.012492 0.000000 0.002995 0.000000
# 4 0.000000 0.000000 0.000000 0.074143 0.000000 0.030949
# 5 0.007688 -0.004243 0.002995 0.000000 0.030472 0.000000
# 6 0.000000 0.000000 0.000000 0.030949 0.000000 0.062366
#
#
# Mechanical properties :
#
#
# Convention : Reuss Voigt Hill
#
# Bulk Modulus (GPa) = 27.66513 41.86207 34.76360
# Shear Modulus (GPa) = 17.22342 25.09857 21.16099
#
# Velocity S-wave (km/s) = 2.99814 3.61923 3.32323
# Velocity P-wave (km/s) = 5.14037 6.26999 5.73307
#
# Compressibility (1/GPa) = 0.03614658
#
# Stress axis : x y z
#
# Youngs Moduli (GPa) = 61.26345 22.27426 80.05262
#
# Poissons Ratio (x) = 0.25453 0.17984
# Poissons Ratio (y) = 0.70007 0.40889
# Poissons Ratio (z) = 0.13763 0.11377
#
# Static dielectric constant tensor:
#      x y z
#    x 3.657960 0.000000 0.025020 
#    y 0.000000 2.997300 0.000000 
#    z 0.025020 0.000000 3.791350 
# 
# 
# High freq. dielectric constant tensor:
#      x y z
#    x 1.752210 0.000000 -0.004820 
#    y 0.000000 1.697440 0.000000 
#    z -0.004820 0.000000 1.764220 
# 
# From -- ./inp_files/151639.got.cif
#   From: 2010.06.25/outbox.cif.g09.slc.cpg/sg12_76_cif.got.tgz:151639.got - 2010.06.28 00:19:55.
