data_PCOD8101498
_publ_section_title
;
Structure prediction by ZEFSAII (Michael W. Deem and Ramdas Pophale) SiO2 
 PCOD8101498
Probable space group: C 2/M
;
_chemical_formula_sum "Si O2"
_cell_formula_units_Z 48
_cell_length_a 25.271450
_cell_length_b 8.705231
_cell_length_c 11.563105
_cell_angle_alpha 90.000000
_cell_angle_beta 89.004239
_cell_angle_gamma 90.000000
_cell_volume 2543.427367
_symmetry_space_group_name_H-M "C 2/M"
_symmetry_group_IT_number 12
_symmetry_cell_setting 'monoclinic'
loop_
_space_group_symop_operation_xyz
x,y,z
-x,y,-z
-x,-y,-z
x,-y,z
1/2+x,1/2+y,z
1/2-x,1/2+y,-z
1/2-x,1/2-y,-z
1/2+x,1/2-y,z
loop_
_atom_site_type_symbol
_atom_site_label
_atom_site_fract_x
_atom_site_fract_y
_atom_site_fract_z
Si Si1 0.551796 0.317943 0.646954
Si Si2 0.565144 0.681564 0.386104
Si Si3 0.307259 0.323207 0.010589
Si Si4 0.333611 0.322975 0.752455
Si Si5 0.261298 0.319533 0.375649
Si Si6 0.645645 0.819448 0.767563
O O1 0.557455 0.500000 0.665090
O O2 0.491013 0.261814 0.663040
O O3 0.572075 0.267917 0.518837
O O4 0.585593 0.228575 0.741574
O O5 0.564691 0.500000 0.379903
O O6 0.613556 0.747031 0.308240
O O7 0.300554 0.500000 0.048251
O O8 0.341143 0.234642 0.104209
O O9 0.250000 0.250000 0.000000
O O10 0.339308 0.308208 0.889826
O O11 0.324680 0.500000 0.715886
O O12 0.283522 0.225618 0.713986
O O13 0.264454 0.500000 0.388085
O O14 0.250000 0.250000 0.500000
O O15 0.317272 0.259875 0.328534
O O16 0.653500 0.000000 0.759567
#
# Coordination Sequence:
#
# PCOD8101498 Si02
#       6
#     8   8   8   8   8   8
#     4   9  17  34  60  86 113 147 185 229 286 345
#     4   8  16  33  59  87 113 144 183 229 284 348
#     4  11  22  37  58  81 111 152 195 238 287 340
#     4  10  20  36  58  84 113 146 189 235 284 342
#     4  12  24  37  56  83 116 148 183 230 287 343
#     4  12  24  38  56  81 114 151 194 238 284 338
#
# _framework density 18.872171999999999
#
# number of rings (size 3 to 8) (size 9 to 14) (size 15 to 20)
#    0.000    1.667    1.667    5.500    0.000    2.000 
#    0.000    3.333    0.000    5.000    0.000    0.000 
#    0.000    0.000    0.000    0.000    0.000    0.000 
#
# Total GULP energy -297660.438796 kJ/mol
# GULP energy per Si atom -12402.518283 kJ/mol
# Density = 1.882922 g / cm^3
# Si number density = 18.872172 Si / 1000 Ang^3
#
#
#
# Elastic Constant Matrix: (Units=GPa)
#
#
# Indices 1 2 3 4 5 6 
#
# 1 92.5701 24.8689 26.9607 0.0000 15.8629 0.0000
# 2 24.8689 109.6412 32.7035 0.0000 9.9130 0.0000
# 3 26.9607 32.7035 84.5675 0.0000 19.2335 0.0000
# 4 0.0000 0.0000 0.0000 28.7382 0.0000 5.2136
# 5 15.8629 9.9130 19.2335 0.0000 36.6684 0.0000
# 6 0.0000 0.0000 0.0000 5.2136 0.0000 25.7210
#
#
#
# Elastic Compliance Matrix: (Units=1/GPa)
#
#
# Indices 1 2 3 4 5 6 
#
# 1 0.012641 -0.001789 -0.002503 0.000000 -0.003672 0.000000
# 2 -0.001789 0.010583 -0.003461 0.000000 -0.000272 0.000000
# 3 -0.002503 -0.003461 0.015331 0.000000 -0.006023 0.000000
# 4 0.000000 0.000000 0.000000 0.036125 0.000000 -0.007322
# 5 -0.003672 -0.000272 -0.006023 0.000000 0.032093 0.000000
# 6 0.000000 0.000000 0.000000 -0.007322 0.000000 0.040363
#
#
# Mechanical properties :
#
#
# Convention : Reuss Voigt Hill
#
# Bulk Modulus (GPa) = 43.38271 50.64946 47.01609
# Shear Modulus (GPa) = 29.35559 31.70859 30.53209
#
# Velocity S-wave (km/s) = 3.94826 4.10344 4.02660
# Velocity P-wave (km/s) = 6.61986 7.02477 6.82532
#
# Compressibility (1/GPa) = 0.02305066
#
# Stress axis : x y z
#
# Youngs Moduli (GPa) = 79.10462 94.48968 65.22715
#
# Poissons Ratio (x) = 0.16901 0.16328
# Poissons Ratio (y) = 0.14149 0.22572
# Poissons Ratio (z) = 0.19802 0.32699
#
# Static dielectric constant tensor:
#      x y z
#    x 3.810990 0.000000 -0.117430 
#    y 0.000000 3.382750 0.000000 
#    z -0.117430 0.000000 3.602110 
# 
# 
# High freq. dielectric constant tensor:
#      x y z
#    x 1.735550 0.000000 0.003680 
#    y 0.000000 1.720970 0.000000 
#    z 0.003680 0.000000 1.734770 
# 
# From -- ./inp_files/172306.got.cif
#   From: 2010.06.25/outbox.cif.g09.slc.cpg/sg12_87_cif.got.tgz:172306.got - 2010.06.28 00:19:55.
