data_PCOD8101675
_publ_section_title
;
Structure prediction by ZEFSAII (Michael W. Deem and Ramdas Pophale) SiO2 
 PCOD8101675
Probable space group: C 2/M
;
_chemical_formula_sum "Si O2"
_cell_formula_units_Z 40
_cell_length_a 24.915256
_cell_length_b 9.259368
_cell_length_c 19.085230
_cell_angle_alpha 90.000000
_cell_angle_beta 151.621474
_cell_angle_gamma 90.000000
_cell_volume 2092.699530
_symmetry_space_group_name_H-M "C 2/M"
_symmetry_group_IT_number 12
_symmetry_cell_setting 'monoclinic'
loop_
_space_group_symop_operation_xyz
x,y,z
-x,y,-z
-x,-y,-z
x,-y,z
1/2+x,1/2+y,z
1/2-x,1/2+y,-z
1/2-x,1/2-y,-z
1/2+x,1/2-y,z
loop_
_atom_site_type_symbol
_atom_site_label
_atom_site_fract_x
_atom_site_fract_y
_atom_site_fract_z
Si Si1 0.416819 0.330438 0.343280
Si Si2 0.454680 0.832298 0.622518
Si Si3 0.046443 0.332505 0.218472
Si Si4 0.175518 0.666954 0.123393
Si Si5 0.798525 0.169309 0.707485
O O1 0.500000 0.276629 0.500000
O O2 0.428046 0.500000 0.344185
O O3 0.448948 0.253579 0.307949
O O4 0.290372 0.283948 0.217741
O O5 0.457661 0.781531 0.706139
O O6 0.333795 0.796346 0.449939
O O7 0.483776 0.000000 0.650107
O O8 0.081420 0.500000 0.252387
O O9 0.140846 0.236954 0.289846
O O10 0.924518 0.303492 0.045369
O O11 0.181951 0.500000 0.153812
O O12 0.152239 0.759941 0.165765
O O13 0.823405 0.000000 0.737456
#
# Coordination Sequence:
#
# PCOD8101675 Si02
#       5
#     8   8   8   8   8
#     4  10  20  36  59  84 109 142 186 228 269 326
#     4  10  22  38  57  83 113 146 182 226 277 325
#     4  10  22  39  57  80 113 149 184 223 274 331
#     4  10  21  38  59  82 110 147 186 225 272 327
#     4  11  22  36  57  84 113 145 185 229 272 322
#
# _framework density 19.114068
#
# number of rings (size 3 to 8) (size 9 to 14) (size 15 to 20)
#    0.000    1.800    2.000    1.800    0.000    6.800 
#    0.000    0.000    0.000    0.000    0.000    0.000 
#    0.000    0.000    0.000    0.000    0.000    0.000 
#
# Total GULP energy -248133.148418 kJ/mol
# GULP energy per Si atom -12406.657421 kJ/mol
# Density = 1.907056 g / cm^3
# Si number density = 19.114068 Si / 1000 Ang^3
#
#
#
# Elastic Constant Matrix: (Units=GPa)
#
#
# Indices 1 2 3 4 5 6 
#
# 1 130.4188 54.1270 15.3556 0.0000 -6.1012 0.0000
# 2 54.1270 60.3950 23.4053 0.0000 -5.0575 0.0000
# 3 15.3556 23.4053 38.5152 0.0000 -10.4247 0.0000
# 4 0.0000 0.0000 0.0000 18.7427 0.0000 -0.6029
# 5 -6.1012 -5.0575 -10.4247 0.0000 30.1984 0.0000
# 6 0.0000 0.0000 0.0000 -0.6029 0.0000 43.4275
#
#
#
# Elastic Compliance Matrix: (Units=1/GPa)
#
#
# Indices 1 2 3 4 5 6 
#
# 1 0.012428 -0.012097 0.002788 0.000000 0.001447 0.000000
# 2 -0.012097 0.033462 -0.016167 0.000000 -0.002421 0.000000
# 3 0.002788 -0.016167 0.037610 0.000000 0.010839 0.000000
# 4 0.000000 0.000000 0.000000 0.053378 0.000000 0.000741
# 5 0.001447 -0.002421 0.010839 0.000000 0.036743 0.000000
# 6 0.000000 0.000000 0.000000 0.000741 0.000000 0.023037
#
#
# Mechanical properties :
#
#
# Convention : Reuss Voigt Hill
#
# Bulk Modulus (GPa) = 30.72328 46.12276 38.42302
# Shear Modulus (GPa) = 19.34545 27.56979 23.45762
#
# Velocity S-wave (km/s) = 3.18481 3.80199 3.50700
# Velocity P-wave (km/s) = 5.44358 6.59213 6.04519
#
# Compressibility (1/GPa) = 0.03254860
#
# Stress axis : x y z
#
# Youngs Moduli (GPa) = 80.46547 29.88470 26.58859
#
# Poissons Ratio (x) = 0.36152 -0.07414
# Poissons Ratio (y) = 0.97342 0.42985
# Poissons Ratio (z) = -0.22437 0.48314
#
# Static dielectric constant tensor:
#      x y z
#    x 3.524580 0.000000 0.016490 
#    y 0.000000 3.389490 0.000000 
#    z 0.016490 0.000000 3.533970 
# 
# 
# High freq. dielectric constant tensor:
#      x y z
#    x 1.753730 0.000000 0.000930 
#    y 0.000000 1.736620 0.000000 
#    z 0.000930 0.000000 1.747870 
# 
# From -- ./inp_files/162389.got.cif
#   From: 2010.06.25/outbox.cif.g09.slc.cpg/sg12_82_cif.got.tgz:162389.got - 2010.06.28 00:19:55.
