data_PCOD8101985
_publ_section_title
;
Structure prediction by ZEFSAII (Michael W. Deem and Ramdas Pophale) SiO2 
 PCOD8101985
Probable space group: C 2/M
;
_chemical_formula_sum "Si O2"
_cell_formula_units_Z 48
_cell_length_a 29.520337
_cell_length_b 8.829906
_cell_length_c 14.588785
_cell_angle_alpha 90.000000
_cell_angle_beta 38.430838
_cell_angle_gamma 90.000000
_cell_volume 2363.666535
_symmetry_space_group_name_H-M "C 2/M"
_symmetry_group_IT_number 12
_symmetry_cell_setting 'monoclinic'
loop_
_space_group_symop_operation_xyz
x,y,z
-x,y,-z
-x,-y,-z
x,-y,z
1/2+x,1/2+y,z
1/2-x,1/2+y,-z
1/2-x,1/2-y,-z
1/2+x,1/2-y,z
loop_
_atom_site_type_symbol
_atom_site_label
_atom_site_fract_x
_atom_site_fract_y
_atom_site_fract_z
Si Si1 0.776982 0.680090 0.862561
Si Si2 0.051795 0.178500 0.001128
Si Si3 0.446358 0.320522 0.324428
Si Si4 0.071868 0.821144 0.442329
Si Si5 0.797202 0.168994 0.499127
Si Si6 0.803792 0.328663 0.172253
O O1 0.778379 0.500000 0.867654
O O2 0.857665 0.738920 0.710677
O O3 0.717092 0.727748 0.881949
O O4 0.750000 0.750000 0.000000
O O5 0.017438 0.224409 0.154030
O O6 0.064773 0.000000 0.971886
O O7 0.128856 0.261962 0.876522
O O8 0.000000 0.234049 0.000000
O O9 0.437940 0.500000 0.342913
O O10 0.447102 0.257496 0.426364
O O11 0.376617 0.253849 0.380494
O O12 0.000000 0.779797 0.500000
O O13 0.088221 0.000000 0.415251
O O14 0.750000 0.250000 0.500000
O O15 0.764749 0.173154 0.652073
O O16 0.805101 0.000000 0.449466
O O17 0.821281 0.500000 0.112790
#
# Coordination Sequence:
#
# PCOD8101985 Si02
#       6
#     8   8   8   8   8   8
#     4  12  26  44  67  94 126 163 209 261 318 382
#     4  10  21  37  60  90 126 169 214 255 302 370
#     4   9  18  36  58  84 120 160 200 246 301 361
#     4  10  21  40  66  93 124 162 203 250 312 378
#     4  10  20  36  60  86 118 157 202 250 302 361
#     4  11  23  41  63  90 126 164 206 262 319 373
#
# _framework density 20.307434000000001
#
# number of rings (size 3 to 8) (size 9 to 14) (size 15 to 20)
#    0.000    1.667    1.667    3.000    2.333    3.333 
#    0.000    1.667    0.000    0.000    0.000    0.000 
#    0.000    0.000    0.000    0.000    0.000    0.000 
#
# Total GULP energy -297573.779052 kJ/mol
# GULP energy per Si atom -12398.907460 kJ/mol
# Density = 2.026121 g / cm^3
# Si number density = 20.307434 Si / 1000 Ang^3
#
#
#
# Elastic Constant Matrix: (Units=GPa)
#
#
# Indices 1 2 3 4 5 6 
#
# 1 115.8265 39.5979 17.4191 0.0000 -3.0126 0.0000
# 2 39.5979 87.2234 27.7290 0.0000 -2.5643 0.0000
# 3 17.4191 27.7290 76.9580 0.0001 -0.1919 0.0000
# 4 0.0000 0.0000 0.0001 29.4379 0.0001 -3.3254
# 5 -3.0126 -2.5643 -0.1919 0.0001 40.6076 0.0000
# 6 0.0000 0.0000 0.0000 -3.3254 0.0000 32.0789
#
#
#
# Elastic Compliance Matrix: (Units=1/GPa)
#
#
# Indices 1 2 3 4 5 6 
#
# 1 0.010265 -0.004413 -0.000732 0.000000 0.000479 0.000000
# 2 -0.004413 0.014871 -0.004358 0.000000 0.000591 0.000000
# 3 -0.000732 -0.004358 0.014729 0.000000 -0.000260 0.000000
# 4 0.000000 0.000000 0.000000 0.034372 0.000000 0.003563
# 5 0.000479 0.000591 -0.000260 0.000000 0.024698 0.000000
# 6 0.000000 0.000000 0.000000 0.003563 0.000000 0.031542
#
#
# Mechanical properties :
#
#
# Convention : Reuss Voigt Hill
#
# Bulk Modulus (GPa) = 47.94092 49.94443 48.94268
# Shear Modulus (GPa) = 31.96171 33.44236 32.70204
#
# Velocity S-wave (km/s) = 3.97153 4.06249 4.01727
# Velocity P-wave (km/s) = 6.68503 6.83027 6.75804
#
# Compressibility (1/GPa) = 0.02085901
#
# Stress axis : x y z
#
# Youngs Moduli (GPa) = 97.41898 67.24429 67.89164
#
# Poissons Ratio (x) = 0.29677 0.04970
# Poissons Ratio (y) = 0.42994 0.29586
# Poissons Ratio (z) = 0.07132 0.29304
#
# Static dielectric constant tensor:
#      x y z
#    x 3.929500 0.000000 0.350500 
#    y 0.000000 3.582950 0.000000 
#    z 0.350500 0.000000 4.709140 
# 
# 
# High freq. dielectric constant tensor:
#      x y z
#    x 1.809550 0.000000 -0.000550 
#    y 0.000000 1.766500 0.000000 
#    z -0.000550 0.000000 1.805700 
# 
# From -- ./inp_files/244737.got.cif
#   From: 2010.06.25/outbox.cif.g09.slc.cpg/sg12_123_cif.got.tgz:244737.got - 2010.06.28 00:19:55.
