data_PCOD8101975
_publ_section_title
;
Structure prediction by ZEFSAII (Michael W. Deem and Ramdas Pophale) SiO2 
 PCOD8101975
Probable space group: C 2/M
;
_chemical_formula_sum "Si O2"
_cell_formula_units_Z 64
_cell_length_a 8.922481
_cell_length_b 25.685369
_cell_length_c 15.222194
_cell_angle_alpha 90.000000
_cell_angle_beta 90.889809
_cell_angle_gamma 90.000000
_cell_volume 3488.159370
_symmetry_space_group_name_H-M "C 2/M"
_symmetry_group_IT_number 12
_symmetry_cell_setting 'monoclinic'
loop_
_space_group_symop_operation_xyz
x,y,z
-x,y,-z
-x,-y,-z
x,-y,z
1/2+x,1/2+y,z
1/2-x,1/2+y,-z
1/2-x,1/2-y,-z
1/2+x,1/2-y,z
loop_
_atom_site_type_symbol
_atom_site_label
_atom_site_fract_x
_atom_site_fract_y
_atom_site_fract_z
Si Si1 0.322048 0.805286 0.501599
Si Si2 0.025775 0.440295 0.603358
Si Si3 0.823355 0.191695 0.176641
Si Si4 0.183706 0.194016 0.177226
Si Si5 0.181002 0.692967 0.999501
Si Si6 0.529633 0.442052 0.602967
Si Si7 0.722395 0.874754 0.338482
Si Si8 0.280632 0.625263 0.657253
O O1 0.500000 0.802482 0.500000
O O2 0.250000 0.750000 0.500000
O O3 0.260480 0.830137 0.589733
O O4 0.258179 0.834111 0.417415
O O5 0.983489 0.500000 0.621704
O O6 0.194678 0.429166 0.635791
O O7 0.000000 0.426373 0.500000
O O8 0.945619 0.397415 0.665194
O O9 0.750059 0.248199 0.196326
O O10 0.751941 0.166793 0.087039
O O11 0.777579 0.149008 0.247897
O O12 0.003025 0.197912 0.171179
O O13 0.241973 0.154056 0.250916
O O14 0.254053 0.168190 0.089523
O O15 0.250000 0.750000 0.000000
O O16 0.000000 0.692580 0.000000
O O17 0.500000 0.438431 0.500000
O O18 0.492711 0.500000 0.637310
O O19 0.699831 0.428204 0.627156
O O20 0.449759 0.395042 0.654195
#
# Coordination Sequence:
#
# PCOD8101975 Si02
#       8
#     8   8   8   8   8   8   8   8
#     4  12  26  38  53  78 118 158 195 232 281 344
#     4  11  22  40  62  83 112 153 199 252 297 333
#     4  11  23  37  58  86 121 156 191 233 282 343
#     4  11  23  37  58  86 121 156 191 233 282 343
#     4  10  20  36  60  86 115 150 191 236 281 334
#     4  11  22  38  60  85 114 151 197 248 289 335
#     4  12  22  38  57  85 116 153 192 237 289 344
#     4  12  22  38  57  85 116 153 192 237 289 344
#
# _framework density 18.347784000000001
#
# number of rings (size 3 to 8) (size 9 to 14) (size 15 to 20)
#    0.000    0.750    5.000    4.875    5.250    4.000 
#    0.000    0.000    0.000    0.000    0.000    5.250 
#    0.000    0.000    0.000    0.000    0.000    0.000 
#
# Total GULP energy -396528.282417 kJ/mol
# GULP energy per Si atom -12391.508826 kJ/mol
# Density = 1.830602 g / cm^3
# Si number density = 18.347784 Si / 1000 Ang^3
#
#
#
# Elastic Constant Matrix: (Units=GPa)
#
#
# Indices 1 2 3 4 5 6 
#
# 1 90.7642 33.1243 36.0666 0.0000 -4.0803 0.0000
# 2 33.1243 102.8146 51.2022 0.0000 -3.2254 0.0000
# 3 36.0666 51.2022 118.7298 0.0000 -5.5969 0.0000
# 4 0.0000 0.0000 0.0000 18.8755 0.0000 -4.2356
# 5 -4.0803 -3.2254 -5.5969 0.0000 29.9979 0.0000
# 6 0.0000 0.0000 0.0000 -4.2356 0.0000 24.5517
#
#
#
# Elastic Compliance Matrix: (Units=1/GPa)
#
#
# Indices 1 2 3 4 5 6 
#
# 1 0.013189 -0.002861 -0.002727 0.000000 0.000978 0.000000
# 2 -0.002861 0.013010 -0.004736 0.000000 0.000126 0.000000
# 3 -0.002727 -0.004736 0.011351 0.000000 0.001238 0.000000
# 4 0.000000 0.000000 0.000000 0.055112 0.000000 0.009508
# 5 0.000978 0.000126 0.001238 0.000000 0.033713 0.000000
# 6 0.000000 0.000000 0.000000 0.009508 0.000000 0.042371
#
#
# Mechanical properties :
#
#
# Convention : Reuss Voigt Hill
#
# Bulk Modulus (GPa) = 59.15565 61.45498 60.30531
# Shear Modulus (GPa) = 25.63739 27.47939 26.55839
#
# Velocity S-wave (km/s) = 3.74210 3.87421 3.80873
# Velocity P-wave (km/s) = 7.14020 7.31982 7.23057
#
# Compressibility (1/GPa) = 0.01690456
#
# Stress axis : x y z
#
# Youngs Moduli (GPa) = 75.82087 76.86255 88.09470
#
# Poissons Ratio (x) = 0.21987 0.24021
# Poissons Ratio (y) = 0.21689 0.41719
# Poissons Ratio (z) = 0.20674 0.36400
#
# Static dielectric constant tensor:
#      x y z
#    x 3.901570 0.000000 0.243670 
#    y 0.000000 3.258600 0.000000 
#    z 0.243670 0.000000 3.969940 
# 
# 
# High freq. dielectric constant tensor:
#      x y z
#    x 1.737780 0.000000 -0.003490 
#    y 0.000000 1.694840 0.000000 
#    z -0.003490 0.000000 1.701770 
# 
# From -- ./inp_files/199793.got.cif
#   From: 2010.06.25/outbox.cif.g09.slc.cpg/sg12_100_cif.got.tgz:199793.got - 2010.06.28 00:19:55.
