data_PCOD8101516
_publ_section_title
;
Structure prediction by ZEFSAII (Michael W. Deem and Ramdas Pophale) SiO2 
 PCOD8101516
Probable space group: C 2/M
;
_chemical_formula_sum "Si O2"
_cell_formula_units_Z 64
_cell_length_a 18.330073
_cell_length_b 8.785309
_cell_length_c 20.321248
_cell_angle_alpha 90.000000
_cell_angle_beta 89.523209
_cell_angle_gamma 90.000000
_cell_volume 3272.326087
_symmetry_space_group_name_H-M "C 2/M"
_symmetry_group_IT_number 12
_symmetry_cell_setting 'monoclinic'
loop_
_space_group_symop_operation_xyz
x,y,z
-x,y,-z
-x,-y,-z
x,-y,z
1/2+x,1/2+y,z
1/2-x,1/2+y,-z
1/2-x,1/2-y,-z
1/2+x,1/2-y,z
loop_
_atom_site_type_symbol
_atom_site_label
_atom_site_fract_x
_atom_site_fract_y
_atom_site_fract_z
Si Si1 0.418507 0.180441 0.506363
Si Si2 0.919991 0.324541 0.888452
Si Si3 0.568620 0.176517 0.735048
Si Si4 0.910536 0.672869 0.117471
Si Si5 0.324615 0.820954 0.383517
Si Si6 0.916482 0.820657 0.749063
Si Si7 0.828498 0.177845 0.004229
Si Si8 0.669444 0.179790 0.365875
O O1 0.500000 0.249718 0.500000
O O2 0.369910 0.237753 0.445916
O O3 0.382481 0.235576 0.574455
O O4 0.422835 0.000000 0.503711
O O5 0.896792 0.500000 0.887392
O O6 0.897862 0.252242 0.819335
O O7 0.879476 0.241434 0.947143
O O8 0.005328 0.304856 0.901527
O O9 0.602181 0.214556 0.806094
O O10 0.629026 0.218688 0.681456
O O11 0.495770 0.271957 0.721849
O O12 0.545189 0.000000 0.731581
O O13 0.886045 0.500000 0.102934
O O14 0.862122 0.786233 0.075191
O O15 0.251490 0.724176 0.382625
O O16 0.306631 0.000000 0.387642
O O17 0.854493 0.765796 0.699614
O O18 0.913085 0.000000 0.756422
O O19 0.821226 0.000000 0.995297
O O20 0.750000 0.250000 0.000000
O O21 0.663535 0.000000 0.355246
#
# Coordination Sequence:
#
# PCOD8101516 Si02
#       8
#     8   8   8   8   8   8   8   8
#     4   9  18  34  58  83 108 146 194 240 286 339
#     4  10  21  40  64  87 114 148 187 234 287 342
#     4   9  19  37  61  85 112 148 187 231 283 338
#     4   9  19  37  60  85 113 146 186 233 286 342
#     4  10  20  36  58  84 115 150 191 237 286 339
#     4  11  22  37  59  86 115 147 188 235 280 335
#     4  12  25  39  57  83 117 155 195 238 285 337
#     4  11  22  36  55  81 116 154 191 233 286 344
#
# _framework density 19.557953999999999
#
# number of rings (size 3 to 8) (size 9 to 14) (size 15 to 20)
#    0.000    1.875    0.000    5.250    0.000    7.500 
#    0.000    4.375    0.000    2.625    0.000    0.000 
#    0.000    0.000    0.000    0.000    0.000    0.000 
#
# Total GULP energy -396945.539459 kJ/mol
# GULP energy per Si atom -12404.548108 kJ/mol
# Density = 1.951344 g / cm^3
# Si number density = 19.557954 Si / 1000 Ang^3
#
#
#
# Elastic Constant Matrix: (Units=GPa)
#
#
# Indices 1 2 3 4 5 6 
#
# 1 78.1312 31.8549 42.4964 0.0000 26.0022 0.0000
# 2 31.8549 102.7293 38.5238 0.0000 12.0907 0.0000
# 3 42.4964 38.5238 105.7703 0.0000 21.6240 0.0000
# 4 0.0000 0.0000 0.0000 23.4353 0.0000 4.8388
# 5 26.0022 12.0907 21.6240 0.0000 24.6986 0.0000
# 6 0.0000 0.0000 0.0000 4.8388 0.0000 34.3743
#
#
#
# Elastic Compliance Matrix: (Units=1/GPa)
#
#
# Indices 1 2 3 4 5 6 
#
# 1 0.022515 -0.003276 -0.004062 0.000000 -0.018544 0.000000
# 2 -0.003276 0.011863 -0.003072 0.000000 0.000331 0.000000
# 3 -0.004062 -0.003072 0.013427 0.000000 -0.005975 0.000000
# 4 0.000000 0.000000 0.000000 0.043948 0.000000 -0.006186
# 5 -0.018544 0.000331 -0.005975 0.000000 0.065080 0.000000
# 6 0.000000 0.000000 0.000000 -0.006186 0.000000 0.029962
#
#
# Mechanical properties :
#
#
# Convention : Reuss Voigt Hill
#
# Bulk Modulus (GPa) = 37.05726 56.93122 46.99424
# Shear Modulus (GPa) = 23.08277 28.08535 25.58406
#
# Velocity S-wave (km/s) = 3.43917 3.79358 3.62071
# Velocity P-wave (km/s) = 5.89568 6.95417 6.44669
#
# Compressibility (1/GPa) = 0.02698526
#
# Stress axis : x y z
#
# Youngs Moduli (GPa) = 44.41410 84.29349 74.47639
#
# Poissons Ratio (x) = 0.27614 0.30251
# Poissons Ratio (y) = 0.14550 0.22882
# Poissons Ratio (z) = 0.18040 0.25898
#
# Static dielectric constant tensor:
#      x y z
#    x 3.550830 0.000000 -0.019340 
#    y 0.000000 3.453210 0.000000 
#    z -0.019340 0.000000 3.789460 
# 
# 
# High freq. dielectric constant tensor:
#      x y z
#    x 1.763320 0.000000 0.001410 
#    y 0.000000 1.750290 0.000000 
#    z 0.001410 0.000000 1.779220 
# 
# From -- ./inp_files/314180.got.cif
#   From: 2010.06.25/outbox.cif.g09.slc.cpg/sg12_158_cif.got.tgz:314180.got - 2010.06.28 00:19:55.
