data_PCOD8101741
_publ_section_title
;
Structure prediction by ZEFSAII (Michael W. Deem and Ramdas Pophale) SiO2 
 PCOD8101741
Probable space group: C 2/M
;
_chemical_formula_sum "Si O2"
_cell_formula_units_Z 56
_cell_length_a 20.725532
_cell_length_b 18.356945
_cell_length_c 9.810619
_cell_angle_alpha 90.000000
_cell_angle_beta 127.549264
_cell_angle_gamma 90.000000
_cell_volume 2959.254878
_symmetry_space_group_name_H-M "C 2/M"
_symmetry_group_IT_number 12
_symmetry_cell_setting 'monoclinic'
loop_
_space_group_symop_operation_xyz
x,y,z
-x,y,-z
-x,-y,-z
x,-y,z
1/2+x,1/2+y,z
1/2-x,1/2+y,-z
1/2-x,1/2-y,-z
1/2+x,1/2-y,z
loop_
_atom_site_type_symbol
_atom_site_label
_atom_site_fract_x
_atom_site_fract_y
_atom_site_fract_z
Si Si1 0.074167 0.810512 0.002640
Si Si2 0.304534 0.801945 0.743238
Si Si3 0.678180 0.182438 0.541107
Si Si4 0.749732 0.581839 0.875465
Si Si5 0.028258 0.224383 0.380533
Si Si6 0.775403 0.914367 0.851169
Si Si7 0.581480 0.421694 0.518472
O O1 0.112676 0.743349 0.135127
O O2 0.138891 0.875181 0.068313
O O3 0.000000 0.839782 0.000000
O O4 0.046872 0.778308 0.820731
O O5 0.298230 0.834664 0.583988
O O6 0.228004 0.749402 0.670808
O O7 0.304599 0.866636 0.852395
O O8 0.583203 0.203965 0.427615
O O9 0.702841 0.110388 0.656426
O O10 0.782773 0.500000 0.897747
O O11 0.655241 0.587612 0.717146
O O12 0.757125 0.606354 0.041213
O O13 0.078791 0.148650 0.415789
O O14 0.000000 0.226081 0.500000
O O15 0.790647 0.000000 0.854811
O O16 0.500000 0.423283 0.500000
O O17 0.589745 0.500000 0.449840
#
# Coordination Sequence:
#
# PCOD8101741 Si02
#       7
#     8   8   8   8   8   8   8
#     4  11  23  38  58  84 121 156 190 241 294 351
#     4  10  21  38  56  81 115 155 197 238 288 346
#     4  10  21  37  57  81 119 152 195 242 285 347
#     4  10  20  36  59  85 114 153 196 236 283 345
#     4  11  21  34  57  89 113 151 197 240 291 336
#     4  10  23  39  59  88 120 155 194 241 294 348
#     4   9  17  30  50  80 119 150 181 229 279 338
#
# _framework density 18.923681999999999
#
# number of rings (size 3 to 8) (size 9 to 14) (size 15 to 20)
#    0.000    1.857    2.857    1.714    2.000    3.714 
#    0.000    1.429    0.000    1.714    0.000    0.000 
#    0.000    0.000    0.000    0.000    0.000    0.000 
#
# Total GULP energy -347110.915264 kJ/mol
# GULP energy per Si atom -12396.818402 kJ/mol
# Density = 1.888061 g / cm^3
# Si number density = 18.923682 Si / 1000 Ang^3
#
#
#
# Elastic Constant Matrix: (Units=GPa)
#
#
# Indices 1 2 3 4 5 6 
#
# 1 62.2398 51.9360 23.4407 0.0000 -6.8474 0.0000
# 2 51.9360 96.8095 46.8225 0.0000 -6.1383 0.0000
# 3 23.4407 46.8225 105.6832 0.0000 -5.6298 0.0000
# 4 0.0000 0.0000 0.0000 32.4279 0.0000 0.5439
# 5 -6.8474 -6.1383 -5.6298 0.0000 30.2553 0.0000
# 6 0.0000 0.0000 0.0000 0.5439 0.0000 22.6320
#
#
#
# Elastic Compliance Matrix: (Units=1/GPa)
#
#
# Indices 1 2 3 4 5 6 
#
# 1 0.029493 -0.015940 0.000711 0.000000 0.003573 0.000000
# 2 -0.015940 0.021838 -0.006157 0.000000 -0.000323 0.000000
# 3 0.000711 -0.006157 0.012094 0.000000 0.001162 0.000000
# 4 0.000000 0.000000 0.000000 0.030850 0.000000 -0.000741
# 5 0.003573 -0.000323 0.001162 0.000000 0.034012 0.000000
# 6 0.000000 0.000000 0.000000 -0.000741 0.000000 0.044203
#
#
# Mechanical properties :
#
#
# Convention : Reuss Voigt Hill
#
# Bulk Modulus (GPa) = 48.41717 56.57009 52.49363
# Shear Modulus (GPa) = 22.50762 26.56525 24.53644
#
# Velocity S-wave (km/s) = 3.45249 3.75081 3.60474
# Velocity P-wave (km/s) = 6.44469 6.97974 6.71754
#
# Compressibility (1/GPa) = 0.02065383
#
# Stress axis : x y z
#
# Youngs Moduli (GPa) = 33.90626 45.79131 82.68287
#
# Poissons Ratio (x) = 0.72989 -0.05876
# Poissons Ratio (y) = 0.54045 0.50909
# Poissons Ratio (z) = -0.02410 0.28194
#
# Static dielectric constant tensor:
#      x y z
#    x 3.161750 0.000000 0.037360 
#    y 0.000000 3.673430 0.000000 
#    z 0.037360 0.000000 3.608950 
# 
# 
# High freq. dielectric constant tensor:
#      x y z
#    x 1.714320 0.000000 -0.002220 
#    y 0.000000 1.724800 0.000000 
#    z -0.002220 0.000000 1.742150 
# 
# From -- ./inp_files/88055.got.cif
#   From: 2010.06.25/outbox.cif.g09.slc.cpg/sg12_45_cif.got.tgz:88055.got - 2010.06.28 00:19:55.
