data_PCOD8101560
_publ_section_title
;
Structure prediction by ZEFSAII (Michael W. Deem and Ramdas Pophale) SiO2 
 PCOD8101560
Probable space group: C 2/M
;
_chemical_formula_sum "Si O2"
_cell_formula_units_Z 64
_cell_length_a 22.139800
_cell_length_b 9.099688
_cell_length_c 23.896684
_cell_angle_alpha 90.000000
_cell_angle_beta 133.678720
_cell_angle_gamma 90.000000
_cell_volume 3481.853402
_symmetry_space_group_name_H-M "C 2/M"
_symmetry_group_IT_number 12
_symmetry_cell_setting 'monoclinic'
loop_
_space_group_symop_operation_xyz
x,y,z
-x,y,-z
-x,-y,-z
x,-y,z
1/2+x,1/2+y,z
1/2-x,1/2+y,-z
1/2-x,1/2-y,-z
1/2+x,1/2-y,z
loop_
_atom_site_type_symbol
_atom_site_label
_atom_site_fract_x
_atom_site_fract_y
_atom_site_fract_z
Si Si1 0.779914 0.829489 0.856579
Si Si2 0.524979 0.670538 0.278787
Si Si3 0.817498 0.174243 0.005707
Si Si4 0.335847 0.332293 0.540919
Si Si5 0.069477 0.663139 0.085277
Si Si6 0.983109 0.334608 0.146105
Si Si7 0.408641 0.826795 0.287585
Si Si8 0.482570 0.672252 0.554206
O O1 0.845471 0.752787 0.858125
O O2 0.688886 0.789973 0.775599
O O3 0.797173 0.000000 0.864436
O O4 0.796627 0.773025 0.929862
O O5 0.506397 0.500000 0.255326
O O6 0.607056 0.691435 0.368409
O O7 0.537595 0.758503 0.229460
O O8 0.445930 0.742448 0.258554
O O9 0.906132 0.231487 0.082442
O O10 0.813731 0.000000 0.009869
O O11 0.750000 0.250000 0.000000
O O12 0.310197 0.500000 0.515834
O O13 0.250000 0.250000 0.500000
O O14 0.390126 0.281531 0.520023
O O15 0.087078 0.500000 0.072710
O O16 0.042143 0.656569 0.131156
O O17 0.000000 0.737915 0.000000
O O18 0.954431 0.500000 0.145185
O O19 0.446860 0.765578 0.369426
O O20 0.426561 0.000000 0.293906
O O21 0.500000 0.705032 0.500000
O O22 0.495080 0.500000 0.575842
#
# Coordination Sequence:
#
# PCOD8101560 Si02
#       8
#     8   8   8   8   8   8   8   8
#     4  10  22  37  54  78 109 143 182 226 276 331
#     4  10  21  38  59  84 113 149 187 226 279 337
#     4  11  22  35  54  80 108 143 183 227 278 330
#     4   9  19  36  59  86 115 149 188 229 281 340
#     4  10  21  38  57  77 105 145 189 231 276 329
#     4  11  22  37  56  80 109 142 186 234 278 329
#     4  10  20  36  58  86 116 145 183 233 282 331
#     4   9  19  38  61  85 116 153 193 235 281 342
#
# _framework density 18.381015999999999
#
# number of rings (size 3 to 8) (size 9 to 14) (size 15 to 20)
#    0.000    2.000    1.250    3.000    0.000    6.500 
#    2.250    0.000    0.000    0.000    0.000    0.000 
#    0.000    0.000    0.000    0.000    0.000    0.000 
#
# Total GULP energy -396716.352277 kJ/mol
# GULP energy per Si atom -12397.386009 kJ/mol
# Density = 1.833918 g / cm^3
# Si number density = 18.381016 Si / 1000 Ang^3
#
#
#
# Elastic Constant Matrix: (Units=GPa)
#
#
# Indices 1 2 3 4 5 6 
#
# 1 118.3358 49.8864 58.8993 0.0000 6.4664 0.0000
# 2 49.8864 73.7396 48.4328 0.0000 4.4368 0.0000
# 3 58.8993 48.4328 89.9641 0.0000 -1.4781 0.0000
# 4 0.0000 0.0000 0.0000 32.2416 0.0000 1.2127
# 5 6.4664 4.4368 -1.4781 0.0000 32.9810 0.0000
# 6 0.0000 0.0000 0.0000 1.2127 0.0000 33.8486
#
#
#
# Elastic Compliance Matrix: (Units=1/GPa)
#
#
# Indices 1 2 3 4 5 6 
#
# 1 0.013903 -0.005046 -0.006424 0.000000 -0.002335 0.000000
# 2 -0.005046 0.023183 -0.009219 0.000000 -0.002543 0.000000
# 3 -0.006424 -0.009219 0.020341 0.000000 0.003411 0.000000
# 4 0.000000 0.000000 0.000000 0.031058 0.000000 -0.001113
# 5 -0.002335 -0.002543 0.003411 0.000000 0.031273 0.000000
# 6 0.000000 0.000000 0.000000 -0.001113 0.000000 0.029583
#
#
# Mechanical properties :
#
#
# Convention : Reuss Voigt Hill
#
# Bulk Modulus (GPa) = 62.31078 66.27518 64.29298
# Shear Modulus (GPa) = 25.50149 28.13563 26.81856
#
# Velocity S-wave (km/s) = 3.72880 3.91665 3.82388
# Velocity P-wave (km/s) = 7.24650 7.52251 7.38579
#
# Compressibility (1/GPa) = 0.01604859
#
# Stress axis : x y z
#
# Youngs Moduli (GPa) = 71.92897 43.13545 49.16281
#
# Poissons Ratio (x) = 0.21764 0.31583
# Poissons Ratio (y) = 0.36292 0.45324
# Poissons Ratio (z) = 0.46208 0.39767
#
# Static dielectric constant tensor:
#      x y z
#    x 3.401920 0.000000 -0.108650 
#    y 0.000000 3.589840 0.000000 
#    z -0.108650 0.000000 3.374010 
# 
# 
# High freq. dielectric constant tensor:
#      x y z
#    x 1.715350 0.000000 -0.003020 
#    y 0.000000 1.720120 0.000000 
#    z -0.003020 0.000000 1.709280 
# 
# From -- ./inp_files/346112.got.cif
#   From: 2010.06.25/outbox.cif.g09.slc.cpg/sg12_174_cif.got.tgz:346112.got - 2010.06.28 00:19:55.
