data_PCOD8101427
_publ_section_title
;
Structure prediction by ZEFSAII (Michael W. Deem and Ramdas Pophale) SiO2 
 PCOD8101427
Probable space group: C 2/M
;
_chemical_formula_sum "Si O2"
_cell_formula_units_Z 64
_cell_length_a 29.665151
_cell_length_b 9.548052
_cell_length_c 23.571799
_cell_angle_alpha 90.000000
_cell_angle_beta 29.285040
_cell_angle_gamma 90.000000
_cell_volume 3265.880814
_symmetry_space_group_name_H-M "C 2/M"
_symmetry_group_IT_number 12
_symmetry_cell_setting 'monoclinic'
loop_
_space_group_symop_operation_xyz
x,y,z
-x,y,-z
-x,-y,-z
x,-y,z
1/2+x,1/2+y,z
1/2-x,1/2+y,-z
1/2-x,1/2-y,-z
1/2+x,1/2-y,z
loop_
_atom_site_type_symbol
_atom_site_label
_atom_site_fract_x
_atom_site_fract_y
_atom_site_fract_z
Si Si1 0.757171 0.835810 0.227427
Si Si2 0.085874 0.662897 0.624494
Si Si3 0.248847 0.345323 0.947238
Si Si4 0.877601 0.664687 0.015721
Si Si5 0.570532 0.847209 0.373253
Si Si6 0.959850 0.843644 0.691769
Si Si7 0.586138 0.161906 0.755366
Si Si8 0.258692 0.662952 0.357043
O O1 0.667089 0.788518 0.291212
O O2 0.739502 0.799626 0.312689
O O3 0.777556 0.000000 0.197646
O O4 0.844477 0.748961 0.107783
O O5 0.060027 0.500000 0.644545
O O6 0.106415 0.696178 0.667374
O O7 0.171805 0.707359 0.490941
O O8 0.999317 0.758822 0.702072
O O9 0.213614 0.500000 0.003184
O O10 0.350790 0.352194 0.811785
O O11 0.250000 0.250000 0.000000
O O12 0.182008 0.282820 0.972610
O O13 0.862753 0.500000 0.042988
O O14 0.982714 0.701677 0.886613
O O15 0.500000 0.872467 0.500000
O O16 0.517851 0.740968 0.389651
O O17 0.587203 0.000000 0.325551
O O18 0.002806 0.000000 0.642928
O O19 0.652270 0.253130 0.721338
O O20 0.606031 0.000000 0.746010
O O21 0.279783 0.500000 0.342337
#
# Coordination Sequence:
#
# PCOD8101427 Si02
#       8
#     8   8   8   8   8   8   8   8
#     4  10  21  37  58  85 115 153 199 241 289 347
#     4  10  21  40  63  86 118 156 193 240 298 359
#     4  10  21  36  55  81 115 152 191 233 283 340
#     4  10  21  39  58  81 119 157 193 240 290 347
#     4  10  20  36  58  82 113 154 197 236 281 346
#     4  11  22  35  55  87 119 149 188 234 286 340
#     4  10  22  39  62  88 113 152 199 242 298 356
#     4  10  22  40  62  87 116 150 193 249 301 348
#
# _framework density 19.596551000000002
#
# number of rings (size 3 to 8) (size 9 to 14) (size 15 to 20)
#    0.000    1.875    1.250    2.250    0.000    7.250 
#    0.000    3.750    0.000    0.000    0.000    0.000 
#    0.000    0.000    0.000    0.000    0.000    0.000 
#
# Total GULP energy -396823.804404 kJ/mol
# GULP energy per Si atom -12400.743888 kJ/mol
# Density = 1.955195 g / cm^3
# Si number density = 19.596551 Si / 1000 Ang^3
#
#
#
# Elastic Constant Matrix: (Units=GPa)
#
#
# Indices 1 2 3 4 5 6 
#
# 1 77.5745 41.3985 18.1474 -0.0002 -1.5665 0.0001
# 2 41.3985 71.4440 24.8364 -0.0050 0.7784 0.0047
# 3 18.1474 24.8364 83.3564 -0.0057 7.1417 0.0022
# 4 -0.0002 -0.0050 -0.0057 30.7402 0.0025 -0.2466
# 5 -1.5665 0.7784 7.1417 0.0025 35.5288 -0.0013
# 6 0.0001 0.0047 0.0022 -0.2466 -0.0013 34.7223
#
#
#
# Elastic Compliance Matrix: (Units=1/GPa)
#
#
# Indices 1 2 3 4 5 6 
#
# 1 0.018784 -0.010529 -0.001061 -0.000002 0.001272 0.000001
# 2 -0.010529 0.021529 -0.004113 0.000003 -0.000109 -0.000003
# 3 -0.001061 -0.004113 0.013685 0.000002 -0.002708 0.000000
# 4 -0.000002 0.000003 0.000002 0.032533 -0.000003 0.000231
# 5 0.001272 -0.000109 -0.002708 -0.000003 0.028749 0.000001
# 6 0.000001 -0.000003 0.000000 0.000231 0.000001 0.028802
#
#
# Mechanical properties :
#
#
# Convention : Reuss Voigt Hill
#
# Bulk Modulus (GPa) = 44.26497 44.57105 44.41801
# Shear Modulus (GPa) = 27.31958 30.06443 28.69200
#
# Velocity S-wave (km/s) = 3.73782 3.92110 3.83055
# Velocity P-wave (km/s) = 6.42383 6.57980 6.50228
#
# Compressibility (1/GPa) = 0.02259123
#
# Stress axis : x y z
#
# Youngs Moduli (GPa) = 53.23717 46.44834 73.07178
#
# Poissons Ratio (x) = 0.48907 0.07754
# Poissons Ratio (y) = 0.56055 0.30055
# Poissons Ratio (z) = 0.05649 0.19104
#
# Static dielectric constant tensor:
#      x y z
#    x 3.510600 -0.000010 -0.053790 
#    y -0.000010 3.671380 0.000030 
#    z -0.053790 0.000030 3.533050 
# 
# 
# High freq. dielectric constant tensor:
#      x y z
#    x 1.764740 0.000000 0.000710 
#    y 0.000000 1.760500 0.000000 
#    z 0.000710 0.000000 1.765330 
# 
# From -- ./inp_files/249756.got.cif
#   From: 2010.06.25/outbox.cif.g09.slc.cpg/sg12_125_cif.got.tgz:249756.got - 2010.06.28 00:19:55.
