data_PCOD8101513
_publ_section_title
;
Structure prediction by ZEFSAII (Michael W. Deem and Ramdas Pophale) SiO2 
 PCOD8101513
Probable space group: C 2/M
;
_chemical_formula_sum "Si O2"
_cell_formula_units_Z 48
_cell_length_a 18.025462
_cell_length_b 14.276327
_cell_length_c 9.405286
_cell_angle_alpha 90.000000
_cell_angle_beta 83.016106
_cell_angle_gamma 90.000000
_cell_volume 2402.373784
_symmetry_space_group_name_H-M "C 2/M"
_symmetry_group_IT_number 12
_symmetry_cell_setting 'monoclinic'
loop_
_space_group_symop_operation_xyz
x,y,z
-x,y,-z
-x,-y,-z
x,-y,z
1/2+x,1/2+y,z
1/2-x,1/2+y,-z
1/2-x,1/2-y,-z
1/2+x,1/2-y,z
loop_
_atom_site_type_symbol
_atom_site_label
_atom_site_fract_x
_atom_site_fract_y
_atom_site_fract_z
Si Si1 0.997629 0.744318 0.336969
Si Si2 0.225086 0.153242 0.938675
Si Si3 0.062549 0.891429 0.866009
Si Si4 0.161632 0.296001 0.309269
Si Si5 0.231634 0.900084 0.240395
Si Si6 0.630083 0.106860 0.605926
O O1 0.966932 0.834347 0.261820
O O2 0.946430 0.653699 0.326801
O O3 0.000000 0.775933 0.500000
O O4 0.078121 0.707184 0.264978
O O5 0.141065 0.152385 0.898099
O O6 0.284300 0.136938 0.797282
O O7 0.250000 0.250000 0.000000
O O8 0.230931 0.083196 0.069744
O O9 0.074394 0.000000 0.821042
O O10 0.000000 0.881125 0.000000
O O11 0.184125 0.186595 0.307727
O O12 0.165794 0.336921 0.466104
O O13 0.316148 0.885105 0.271588
O O14 0.201136 0.000000 0.310199
O O15 0.614609 0.000000 0.563745
#
# Coordination Sequence:
#
# PCOD8101513 Si02
#       6
#     8   8   8   8   8   8
#     4  10  22  39  59  83 115 154 192 236 288 340
#     4  10  20  36  58  84 116 150 190 234 276 333
#     4  11  23  39  60  87 120 156 191 231 287 348
#     4  10  21  37  59  85 112 149 193 237 285 338
#     4  10  20  36  58  84 115 147 184 234 289 342
#     4  10  22  40  60  82 113 152 193 238 287 340
#
# _framework density 19.980238
#
# number of rings (size 3 to 8) (size 9 to 14) (size 15 to 20)
#    0.000    1.833    0.000    5.000    0.000    8.000 
#    0.000    5.833    0.000    2.500    0.000    0.000 
#    0.000    0.000    0.000    0.000    0.000    0.000 
#
# Total GULP energy -297434.222132 kJ/mol
# GULP energy per Si atom -12393.092589 kJ/mol
# Density = 1.993476 g / cm^3
# Si number density = 19.980238 Si / 1000 Ang^3
#
#
#
# Elastic Constant Matrix: (Units=GPa)
#
#
# Indices 1 2 3 4 5 6 
#
# 1 149.1878 38.7268 50.8540 0.0000 -2.3133 0.0000
# 2 38.7268 101.4416 28.2326 0.0000 -8.4864 0.0000
# 3 50.8540 28.2326 66.2141 0.0000 12.3632 0.0000
# 4 0.0000 0.0000 0.0000 21.8344 0.0000 -2.6795
# 5 -2.3133 -8.4864 12.3632 0.0000 35.0242 0.0000
# 6 0.0000 0.0000 0.0000 -2.6795 0.0000 24.5510
#
#
#
# Elastic Compliance Matrix: (Units=1/GPa)
#
#
# Indices 1 2 3 4 5 6 
#
# 1 0.009604 -0.001387 -0.007323 0.000000 0.002883 0.000000
# 2 -0.001387 0.012159 -0.004980 0.000000 0.004613 0.000000
# 3 -0.007323 -0.004980 0.024800 0.000000 -0.010445 0.000000
# 4 0.000000 0.000000 0.000000 0.046421 0.000000 0.005066
# 5 0.002883 0.004613 -0.010445 0.000000 0.033547 0.000000
# 6 0.000000 0.000000 0.000000 0.005066 0.000000 0.041284
#
#
# Mechanical properties :
#
#
# Convention : Reuss Voigt Hill
#
# Bulk Modulus (GPa) = 52.13007 61.38558 56.75783
# Shear Modulus (GPa) = 24.80262 29.55059 27.17660
#
# Velocity S-wave (km/s) = 3.52711 3.84994 3.69205
# Velocity P-wave (km/s) = 6.53719 7.11003 6.82962
#
# Compressibility (1/GPa) = 0.01918278
#
# Stress axis : x y z
#
# Youngs Moduli (GPa) = 104.12405 82.24022 40.32180
#
# Poissons Ratio (x) = 0.11408 0.29527
# Poissons Ratio (y) = 0.14444 0.20082
# Poissons Ratio (z) = 0.76249 0.40960
#
# Static dielectric constant tensor:
#      x y z
#    x 3.876750 0.000000 -0.055620 
#    y 0.000000 4.000630 0.000000 
#    z -0.055620 0.000000 4.188440 
# 
# 
# High freq. dielectric constant tensor:
#      x y z
#    x 1.790180 0.000000 0.011580 
#    y 0.000000 1.786680 0.000000 
#    z 0.011580 0.000000 1.775580 
# 
# From -- ./inp_files/73647.got.cif
#   From: 2010.06.25/outbox.cif.g09.slc.cpg/sg12_37_cif.got.tgz:73647.got - 2010.06.28 00:19:55.
