data_PCOD8101316
_publ_section_title
;
Structure prediction by ZEFSAII (Michael W. Deem and Ramdas Pophale) SiO2 
 PCOD8101316
Probable space group: C 2/M
;
_chemical_formula_sum "Si O2"
_cell_formula_units_Z 56
_cell_length_a 17.853419
_cell_length_b 9.019736
_cell_length_c 22.312738
_cell_angle_alpha 90.000000
_cell_angle_beta 53.664748
_cell_angle_gamma 90.000000
_cell_volume 2894.463503
_symmetry_space_group_name_H-M "C 2/M"
_symmetry_group_IT_number 12
_symmetry_cell_setting 'monoclinic'
loop_
_space_group_symop_operation_xyz
x,y,z
-x,y,-z
-x,-y,-z
x,-y,z
1/2+x,1/2+y,z
1/2-x,1/2+y,-z
1/2-x,1/2-y,-z
1/2+x,1/2-y,z
loop_
_atom_site_type_symbol
_atom_site_label
_atom_site_fract_x
_atom_site_fract_y
_atom_site_fract_z
Si Si1 0.990866 0.174899 0.573611
Si Si2 0.270439 0.323788 0.863076
Si Si3 0.580042 0.829592 0.010298
Si Si4 0.294855 0.323779 0.717504
Si Si5 0.447330 0.675488 0.853016
Si Si6 0.843115 0.329297 0.436184
Si Si7 0.375786 0.829589 0.281193
O O1 0.069317 0.255360 0.574093
O O2 0.000000 0.218169 0.500000
O O3 0.891656 0.233962 0.644208
O O4 0.002467 0.000000 0.577721
O O5 0.268141 0.500000 0.860596
O O6 0.175145 0.264735 0.937437
O O7 0.281817 0.259292 0.790643
O O8 0.354918 0.266020 0.863672
O O9 0.592412 0.000000 0.024048
O O10 0.500000 0.812041 0.000000
O O11 0.550274 0.735088 0.081157
O O12 0.295930 0.500000 0.717164
O O13 0.210105 0.266637 0.716900
O O14 0.449840 0.500000 0.853277
O O15 0.534667 0.732092 0.774506
O O16 0.838290 0.500000 0.457725
O O17 0.750000 0.250000 0.500000
O O18 0.850490 0.311639 0.361928
O O19 0.396805 0.000000 0.254171
#
# Coordination Sequence:
#
# PCOD8101316 Si02
#       7
#     8   8   8   8   8   8   8
#     4  10  20  36  59  85 114 150 190 232 285 345
#     4   9  18  32  52  79 107 139 180 224 273 326
#     4  10  20  36  58  79 103 142 189 230 270 327
#     4   9  17  33  57  80 105 141 187 233 272 324
#     4  11  22  35  54  82 114 143 175 225 285 335
#     4  11  23  38  58  85 117 152 192 237 282 332
#     4  10  21  38  59  82 109 146 190 229 270 328
#
# _framework density 19.347282
#
# number of rings (size 3 to 8) (size 9 to 14) (size 15 to 20)
#    0.000    2.000    0.000    3.857    0.000    7.429 
#    0.000    1.429    0.000    4.286    0.000    0.000 
#    0.000    0.000    0.000    0.000    0.000    0.000 
#
# Total GULP energy -347302.334472 kJ/mol
# GULP energy per Si atom -12403.654803 kJ/mol
# Density = 1.930325 g / cm^3
# Si number density = 19.347282 Si / 1000 Ang^3
#
#
#
# Elastic Constant Matrix: (Units=GPa)
#
#
# Indices 1 2 3 4 5 6 
#
# 1 119.9064 38.3937 31.1013 -0.0001 -14.3976 0.0001
# 2 38.3937 49.3728 30.7128 -0.0001 -1.8455 0.0003
# 3 31.1013 30.7128 102.1399 0.0000 -14.1594 0.0000
# 4 -0.0001 -0.0001 0.0000 12.9970 0.0000 -7.2752
# 5 -14.3976 -1.8455 -14.1594 0.0000 43.6354 0.0000
# 6 0.0001 0.0003 0.0000 -7.2752 0.0000 28.1798
#
#
#
# Elastic Compliance Matrix: (Units=1/GPa)
#
#
# Indices 1 2 3 4 5 6 
#
# 1 0.011621 -0.008607 -0.000491 0.000000 0.003311 0.000000
# 2 -0.008607 0.031376 -0.007354 0.000000 -0.003899 0.000000
# 3 -0.000491 -0.007354 0.012655 0.000000 0.003633 0.000000
# 4 0.000000 0.000000 0.000000 0.089938 0.000000 0.023220
# 5 0.003311 -0.003899 0.003633 0.000000 0.025024 0.000000
# 6 0.000000 0.000000 0.000000 0.023220 0.000000 0.041481
#
#
# Mechanical properties :
#
#
# Convention : Reuss Voigt Hill
#
# Bulk Modulus (GPa) = 43.96297 52.42609 48.19453
# Shear Modulus (GPa) = 19.79541 28.37653 24.08597
#
# Velocity S-wave (km/s) = 3.20216 3.83390 3.53218
# Velocity P-wave (km/s) = 6.03690 6.83773 6.44976
#
# Compressibility (1/GPa) = 0.02274642
#
# Stress axis : x y z
#
# Youngs Moduli (GPa) = 86.05204 31.87107 79.01885
#
# Poissons Ratio (x) = 0.27432 0.03883
# Poissons Ratio (y) = 0.74068 0.58113
# Poissons Ratio (z) = 0.04228 0.23439
#
# Static dielectric constant tensor:
#      x y z
#    x 3.721680 0.000000 0.017430 
#    y 0.000000 3.002360 0.000000 
#    z 0.017430 0.000000 3.664240 
# 
# 
# High freq. dielectric constant tensor:
#      x y z
#    x 1.772840 0.000000 -0.001620 
#    y 0.000000 1.719260 0.000000 
#    z -0.001620 0.000000 1.772740 
# 
# From -- ./inp_files/275081.got.cif
#   From: 2010.06.25/outbox.cif.g09.slc.cpg/sg12_138_cif.got.tgz:275081.got - 2010.06.28 00:19:55.
