data_PCOD8101720
_publ_section_title
;
Structure prediction by ZEFSAII (Michael W. Deem and Ramdas Pophale) SiO2 
 PCOD8101720
Probable space group: C 2/M
;
_chemical_formula_sum "Si O2"
_cell_formula_units_Z 64
_cell_length_a 23.729210
_cell_length_b 9.037739
_cell_length_c 15.185096
_cell_angle_alpha 90.000000
_cell_angle_beta 85.714491
_cell_angle_gamma 90.000000
_cell_volume 3247.466331
_symmetry_space_group_name_H-M "C 2/M"
_symmetry_group_IT_number 12
_symmetry_cell_setting 'monoclinic'
loop_
_space_group_symop_operation_xyz
x,y,z
-x,y,-z
-x,-y,-z
x,-y,z
1/2+x,1/2+y,z
1/2-x,1/2+y,-z
1/2-x,1/2-y,-z
1/2+x,1/2-y,z
loop_
_atom_site_type_symbol
_atom_site_label
_atom_site_fract_x
_atom_site_fract_y
_atom_site_fract_z
Si Si1 0.347732 0.674244 0.351997
Si Si2 0.260584 0.671848 0.700806
Si Si3 0.719134 0.827272 0.128518
Si Si4 0.836590 0.173124 0.023501
Si Si5 0.963105 0.671182 0.585486
Si Si6 0.550463 0.170768 0.931319
Si Si7 0.046069 0.668341 0.730503
Si Si8 0.353476 0.670719 0.550268
O O1 0.336687 0.500000 0.347018
O O2 0.300596 0.757762 0.302221
O O3 0.406751 0.713885 0.300875
O O4 0.346855 0.732759 0.452364
O O5 0.254254 0.500000 0.724340
O O6 0.292803 0.751960 0.776599
O O7 0.295107 0.699035 0.607414
O O8 0.783987 0.795414 0.094193
O O9 0.706114 0.000000 0.135897
O O10 0.674687 0.756409 0.066426
O O11 0.893338 0.233860 0.061049
O O12 0.843440 0.000000 0.003858
O O13 0.952260 0.500000 0.568855
O O14 0.902892 0.748547 0.596706
O O15 0.000000 0.736694 0.500000
O O16 0.992063 0.701057 0.675986
O O17 0.528961 0.191840 0.833876
O O18 0.564847 0.000000 0.949999
O O19 0.500000 0.227575 0.000000
O O20 0.067684 0.500000 0.711762
O O21 0.369882 0.500000 0.544940
#
# Coordination Sequence:
#
# PCOD8101720 Si02
#       8
#     8   8   8   8   8   8   8   8
#     4  11  22  37  58  84 114 150 195 240 287 344
#     4  11  23  38  56  83 119 154 191 235 289 346
#     4  10  21  38  61  88 116 150 191 235 287 345
#     4  10  21  38  61  87 116 149 190 238 289 343
#     4  10  20  36  59  85 113 147 194 243 288 342
#     4  10  22  39  58  83 117 154 194 239 289 347
#     4  10  21  38  60  85 113 151 194 239 291 344
#     4  10  23  39  56  82 116 154 192 238 292 344
#
# _framework density 19.707671000000001
#
# number of rings (size 3 to 8) (size 9 to 14) (size 15 to 20)
#    0.000    1.750    1.250    2.625    0.000    7.500 
#    0.000    1.250    0.000    0.000    0.000    0.000 
#    0.000    0.000    0.000    0.000    0.000    0.000 
#
# Total GULP energy -396972.072162 kJ/mol
# GULP energy per Si atom -12405.377255 kJ/mol
# Density = 1.966282 g / cm^3
# Si number density = 19.707671 Si / 1000 Ang^3
#
#
#
# Elastic Constant Matrix: (Units=GPa)
#
#
# Indices 1 2 3 4 5 6 
#
# 1 50.5909 27.7935 20.6368 0.0000 16.0355 0.0000
# 2 27.7935 74.9252 38.7125 0.0000 6.7090 0.0000
# 3 20.6368 38.7125 126.8011 0.0000 12.4632 0.0000
# 4 0.0000 0.0000 0.0000 30.3094 0.0000 3.6752
# 5 16.0355 6.7090 12.4632 0.0000 30.2276 0.0000
# 6 0.0000 0.0000 0.0000 3.6752 0.0000 35.7148
#
#
#
# Elastic Compliance Matrix: (Units=1/GPa)
#
#
# Indices 1 2 3 4 5 6 
#
# 1 0.029376 -0.009395 -0.000610 0.000000 -0.013247 0.000000
# 2 -0.009395 0.018925 -0.004508 0.000000 0.002643 0.000000
# 3 -0.000610 -0.004508 0.009622 0.000000 -0.002643 0.000000
# 4 0.000000 0.000000 0.000000 0.033410 0.000000 -0.003438
# 5 -0.013247 0.002643 -0.002643 0.000000 0.040613 0.000000
# 6 0.000000 0.000000 0.000000 -0.003438 0.000000 0.028353
#
#
# Mechanical properties :
#
#
# Convention : Reuss Voigt Hill
#
# Bulk Modulus (GPa) = 34.60946 47.40030 41.00488
# Shear Modulus (GPa) = 25.13092 30.26198 27.69645
#
# Velocity S-wave (km/s) = 3.57485 3.92285 3.75289
# Velocity P-wave (km/s) = 5.88548 6.67999 6.29528
#
# Compressibility (1/GPa) = 0.02889383
#
# Stress axis : x y z
#
# Youngs Moduli (GPa) = 34.04165 52.84118 103.92979
#
# Poissons Ratio (x) = 0.49647 0.06344
# Poissons Ratio (y) = 0.31984 0.46855
# Poissons Ratio (z) = 0.02078 0.23823
#
# Static dielectric constant tensor:
#      x y z
#    x 3.400270 0.000000 0.071980 
#    y 0.000000 3.559920 0.000000 
#    z 0.071980 0.000000 3.746930 
# 
# 
# High freq. dielectric constant tensor:
#      x y z
#    x 1.760130 0.000000 0.008880 
#    y 0.000000 1.768590 0.000000 
#    z 0.008880 0.000000 1.779770 
# 
# From -- ./inp_files/238698.got.cif
#   From: 2010.06.25/outbox.cif.g09.slc.cpg/sg12_120_cif.got.tgz:238698.got - 2010.06.28 00:19:55.
