data_PCOD8101757
_publ_section_title
;
Structure prediction by ZEFSAII (Michael W. Deem and Ramdas Pophale) SiO2 
 PCOD8101757
Probable space group: C 2/M
;
_chemical_formula_sum "Si O2"
_cell_formula_units_Z 56
_cell_length_a 26.764411
_cell_length_b 9.045852
_cell_length_c 18.396765
_cell_angle_alpha 90.000000
_cell_angle_beta 37.612135
_cell_angle_gamma 90.000000
_cell_volume 2718.323984
_symmetry_space_group_name_H-M "C 2/M"
_symmetry_group_IT_number 12
_symmetry_cell_setting 'monoclinic'
loop_
_space_group_symop_operation_xyz
x,y,z
-x,y,-z
-x,-y,-z
x,-y,z
1/2+x,1/2+y,z
1/2-x,1/2+y,-z
1/2-x,1/2-y,-z
1/2+x,1/2-y,z
loop_
_atom_site_type_symbol
_atom_site_label
_atom_site_fract_x
_atom_site_fract_y
_atom_site_fract_z
Si Si1 0.223735 0.175603 0.107264
Si Si2 0.591497 0.673908 0.374450
Si Si3 0.879928 0.834479 0.165977
Si Si4 0.328653 0.831415 0.437412
Si Si5 0.868235 0.833831 0.011177
Si Si6 0.696853 0.829954 0.372916
Si Si7 0.475294 0.174176 0.172015
O O1 0.131971 0.211711 0.247200
O O2 0.234283 0.000000 0.086783
O O3 0.250000 0.250000 0.000000
O O4 0.285855 0.240589 0.095319
O O5 0.500000 0.738269 0.500000
O O6 0.587928 0.500000 0.387221
O O7 0.653444 0.733808 0.362643
O O8 0.788460 0.772551 0.283988
O O9 0.947265 0.728818 0.124611
O O10 0.889047 0.000000 0.188123
O O11 0.895040 0.838301 0.063354
O O12 0.250000 0.750000 0.500000
O O13 0.350535 0.811620 0.496880
O O14 0.406560 0.769406 0.306112
O O15 0.313048 0.000000 0.435444
O O16 0.943726 0.749155 0.887278
O O17 0.857344 0.000000 0.992061
O O18 0.700430 0.000000 0.341370
O O19 0.489374 0.000000 0.153564
#
# Coordination Sequence:
#
# PCOD8101757 Si02
#       7
#     8   8   8   8   8   8   8
#     4  11  24  43  68  94 125 161 203 255 311 372
#     4  10  23  43  66  94 124 155 199 253 311 371
#     4  10  20  36  59  85 116 156 202 244 292 353
#     4  10  21  36  55  82 118 157 200 244 293 353
#     4  11  23  40  61  86 119 159 204 250 302 359
#     4  10  20  37  61  87 116 154 199 244 293 354
#     4  11  23  36  55  88 125 161 204 249 298 356
#
# _framework density 20.600929000000001
#
# number of rings (size 3 to 8) (size 9 to 14) (size 15 to 20)
#    0.000    1.571    2.857    1.714    0.000    6.571 
#    0.000    2.857    0.000    0.000    0.000    0.000 
#    0.000    0.000    0.000    0.000    0.000    0.000 
#
# Total GULP energy -346967.916667 kJ/mol
# GULP energy per Si atom -12391.711310 kJ/mol
# Density = 2.055404 g / cm^3
# Si number density = 20.600929 Si / 1000 Ang^3
#
#
#
# Elastic Constant Matrix: (Units=GPa)
#
#
# Indices 1 2 3 4 5 6 
#
# 1 54.0954 23.5178 39.4639 -0.0019 -9.3159 0.0050
# 2 23.5178 71.4510 49.7717 0.0104 -8.2889 -0.0043
# 3 39.4639 49.7717 145.2624 -0.0012 -14.5778 0.0016
# 4 -0.0019 0.0104 -0.0012 26.8919 0.0020 -1.6407
# 5 -9.3159 -8.2889 -14.5778 0.0020 31.3488 -0.0037
# 6 0.0050 -0.0043 0.0016 -1.6407 -0.0037 35.0939
#
#
#
# Elastic Compliance Matrix: (Units=1/GPa)
#
#
# Indices 1 2 3 4 5 6 
#
# 1 0.024524 -0.004269 -0.004806 0.000003 0.003924 -0.000003
# 2 -0.004269 0.019250 -0.005300 -0.000008 0.001357 0.000003
# 3 -0.004806 -0.005300 0.010198 0.000002 0.001913 0.000000
# 4 0.000003 -0.000008 0.000002 0.037292 -0.000002 0.001744
# 5 0.003924 0.001357 0.001913 -0.000002 0.034313 0.000003
# 6 -0.000003 0.000003 0.000000 0.001744 0.000003 0.028577
#
#
# Mechanical properties :
#
#
# Convention : Reuss Voigt Hill
#
# Bulk Modulus (GPa) = 39.64816 55.14618 47.39717
# Shear Modulus (GPa) = 26.13565 29.20392 27.66979
#
# Velocity S-wave (km/s) = 3.56569 3.76919 3.66885
# Velocity P-wave (km/s) = 6.01995 6.76530 6.40348
#
# Compressibility (1/GPa) = 0.02522185
#
# Stress axis : x y z
#
# Youngs Moduli (GPa) = 40.77710 51.94861 98.06282
#
# Poissons Ratio (x) = 0.22176 0.47128
# Poissons Ratio (y) = 0.17407 0.51971
# Poissons Ratio (z) = 0.19597 0.27531
#
# Static dielectric constant tensor:
#      x y z
#    x 3.534420 -0.000010 -0.084110 
#    y -0.000010 3.775480 0.000030 
#    z -0.084110 0.000030 4.353250 
# 
# 
# High freq. dielectric constant tensor:
#      x y z
#    x 1.787900 0.000000 -0.003450 
#    y 0.000000 1.800810 0.000000 
#    z -0.003450 0.000000 1.828450 
# 
# From -- ./inp_files/292383.got.cif
#   From: 2010.06.25/outbox.cif.g09.slc.cpg/sg12_147_cif.got.tgz:292383.got - 2010.06.28 00:19:55.
