data_PCOD8101133
_publ_section_title
;
Structure prediction by ZEFSAII (Michael W. Deem and Ramdas Pophale) SiO2 
 PCOD8101133
Probable space group: C 2/M
;
_chemical_formula_sum "Si O2"
_cell_formula_units_Z 40
_cell_length_a 26.883178
_cell_length_b 8.599844
_cell_length_c 11.500311
_cell_angle_alpha 90.000000
_cell_angle_beta 126.639712
_cell_angle_gamma 90.000000
_cell_volume 2133.407759
_symmetry_space_group_name_H-M "C 2/M"
_symmetry_group_IT_number 12
_symmetry_cell_setting 'monoclinic'
loop_
_space_group_symop_operation_xyz
x,y,z
-x,y,-z
-x,-y,-z
x,-y,z
1/2+x,1/2+y,z
1/2-x,1/2+y,-z
1/2-x,1/2-y,-z
1/2+x,1/2-y,z
loop_
_atom_site_type_symbol
_atom_site_label
_atom_site_fract_x
_atom_site_fract_y
_atom_site_fract_z
Si Si1 0.801724 0.182900 0.488396
Si Si2 0.442641 0.819004 0.056711
Si Si3 0.928213 0.181001 0.792155
Si Si4 0.344292 0.680970 0.079093
Si Si5 0.785204 0.681990 0.212966
O O1 0.750000 0.250000 0.500000
O O2 0.868270 0.223531 0.634233
O O3 0.797412 0.268162 0.360416
O O4 0.791735 0.000000 0.458712
O O5 0.514144 0.776040 0.179882
O O6 0.403093 0.775619 0.114571
O O7 0.437233 0.000000 0.022119
O O8 0.416053 0.725710 0.909082
O O9 0.944107 0.000000 0.807585
O O10 0.359428 0.500000 0.092305
O O11 0.333158 0.727556 0.197154
O O12 0.284804 0.727387 0.918933
O O13 0.796444 0.500000 0.212655
#
# Coordination Sequence:
#
# PCOD8101133 Si02
#       5
#     8   8   8   8   8
#     4  11  23  37  56  81 110 144 178 218 268 319
#     4  11  21  34  56  83 108 139 180 225 269 312
#     4  10  21  37  55  78 109 144 181 219 265 320
#     4  10  20  36  57  80 109 144 179 218 266 319
#     4  10  21  36  56  82 110 141 179 222 266 315
#
# _framework density 18.749347
#
# number of rings (size 3 to 8) (size 9 to 14) (size 15 to 20)
#    0.000    1.600    0.000    6.600    0.000   10.400 
#    0.000    1.000    0.000    6.000    0.000    0.000 
#    0.000    0.000    0.000    0.000    0.000    0.000 
#
# Total GULP energy -248114.160534 kJ/mol
# GULP energy per Si atom -12405.708027 kJ/mol
# Density = 1.870667 g / cm^3
# Si number density = 18.749347 Si / 1000 Ang^3
#
#
#
# Elastic Constant Matrix: (Units=GPa)
#
#
# Indices 1 2 3 4 5 6 
#
# 1 130.2679 30.1787 44.1252 0.0000 -6.3139 0.0000
# 2 30.1787 62.0504 25.6317 0.0000 8.6705 0.0000
# 3 44.1252 25.6317 95.4521 0.0000 -8.3408 0.0000
# 4 0.0000 0.0000 0.0000 29.9196 0.0000 -3.5161
# 5 -6.3139 8.6705 -8.3408 0.0000 19.5301 0.0000
# 6 0.0000 0.0000 0.0000 -3.5161 0.0000 37.7794
#
#
#
# Elastic Compliance Matrix: (Units=1/GPa)
#
#
# Indices 1 2 3 4 5 6 
#
# 1 0.009847 -0.003983 -0.003168 0.000000 0.003599 0.000000
# 2 -0.003983 0.022088 -0.005255 0.000000 -0.013338 0.000000
# 3 -0.003168 -0.005255 0.013988 0.000000 0.007283 0.000000
# 4 0.000000 0.000000 0.000000 0.033792 0.000000 0.003145
# 5 0.003599 -0.013338 0.007283 0.000000 0.061398 0.000000
# 6 0.000000 0.000000 0.000000 0.003145 0.000000 0.026762
#
#
# Mechanical properties :
#
#
# Convention : Reuss Voigt Hill
#
# Bulk Modulus (GPa) = 47.37062 54.18240 50.77651
# Shear Modulus (GPa) = 25.03430 29.96814 27.50122
#
# Velocity S-wave (km/s) = 3.65802 4.00228 3.83401
# Velocity P-wave (km/s) = 6.56974 7.09357 6.83667
#
# Compressibility (1/GPa) = 0.02111013
#
# Stress axis : x y z
#
# Youngs Moduli (GPa) = 101.55628 45.27356 71.48744
#
# Poissons Ratio (x) = 0.18034 0.22646
# Poissons Ratio (y) = 0.40454 0.37569
# Poissons Ratio (z) = 0.32171 0.23793
#
# Static dielectric constant tensor:
#      x y z
#    x 3.478020 0.000000 0.029950 
#    y 0.000000 3.564400 0.000000 
#    z 0.029950 0.000000 3.378170 
# 
# 
# High freq. dielectric constant tensor:
#      x y z
#    x 1.737580 0.000000 -0.000380 
#    y 0.000000 1.745900 0.000000 
#    z -0.000380 0.000000 1.714530 
# 
# From -- ./inp_files/180302.got.cif
#   From: 2010.06.25/outbox.cif.g09.slc.cpg/sg12_91_cif.got.tgz:180302.got - 2010.06.28 00:19:55.
