data_PCOD8101226
_publ_section_title
;
Structure prediction by ZEFSAII (Michael W. Deem and Ramdas Pophale) SiO2 
 PCOD8101226
Probable space group: C 2/M
;
_chemical_formula_sum "Si O2"
_cell_formula_units_Z 64
_cell_length_a 20.254106
_cell_length_b 8.935230
_cell_length_c 33.115773
_cell_angle_alpha 90.000000
_cell_angle_beta 146.332363
_cell_angle_gamma 90.000000
_cell_volume 3322.438053
_symmetry_space_group_name_H-M "C 2/M"
_symmetry_group_IT_number 12
_symmetry_cell_setting 'monoclinic'
loop_
_space_group_symop_operation_xyz
x,y,z
-x,y,-z
-x,-y,-z
x,-y,z
1/2+x,1/2+y,z
1/2-x,1/2+y,-z
1/2-x,1/2-y,-z
1/2+x,1/2-y,z
loop_
_atom_site_type_symbol
_atom_site_label
_atom_site_fract_x
_atom_site_fract_y
_atom_site_fract_z
Si Si1 0.017766 0.668412 0.056364
Si Si2 0.360238 0.174240 0.666118
Si Si3 0.241481 0.324096 0.808425
Si Si4 0.134599 0.326756 0.424860
Si Si5 0.230409 0.323696 0.032887
Si Si6 0.605307 0.177105 0.660914
Si Si7 0.129191 0.323011 0.582881
Si Si8 0.902069 0.822190 0.191979
O O1 0.050411 0.500000 0.087415
O O2 0.120380 0.783931 0.119848
O O3 0.897987 0.727583 0.016250
O O4 0.000000 0.668002 0.000000
O O5 0.387292 0.203023 0.633203
O O6 0.231284 0.241975 0.609651
O O7 0.465001 0.255838 0.744335
O O8 0.360773 0.000000 0.677573
O O9 0.221887 0.500000 0.805489
O O10 0.200380 0.273259 0.742890
O O11 0.166015 0.237993 0.803507
O O12 0.148930 0.500000 0.441396
O O13 0.250000 0.250000 0.500000
O O14 0.023160 0.257078 0.392194
O O15 0.235564 0.500000 0.030391
O O16 0.331001 0.271022 0.115793
O O17 0.250000 0.250000 0.000000
O O18 0.641369 0.235785 0.635103
O O19 0.594781 0.000000 0.654254
O O20 0.148323 0.500000 0.588954
O O21 0.000000 0.276959 0.500000
O O22 0.908676 0.000000 0.198733
#
# Coordination Sequence:
#
# PCOD8101226 Si02
#       8
#     8   8   8   8   8   8   8   8
#     4  10  20  39  61  84 118 157 199 244 294 350
#     4  11  23  39  60  88 122 156 196 249 303 351
#     4  11  21  36  60  90 121 153 196 251 302 347
#     4  10  20  36  57  83 114 149 191 242 292 343
#     4  10  23  41  62  88 122 160 198 248 297 351
#     4   9  19  37  57  81 117 152 189 241 293 342
#     4  10  21  39  63  86 116 161 205 242 292 361
#     4  11  22  40  63  87 119 160 201 241 295 361
#
# _framework density 19.262962999999999
#
# number of rings (size 3 to 8) (size 9 to 14) (size 15 to 20)
#    0.000    1.750    2.500    1.875    0.000    5.000 
#    0.000    5.625    0.000    0.000    0.000    0.000 
#    0.000    0.000    0.000    0.000    0.000    0.000 
#
# Total GULP energy -396850.889888 kJ/mol
# GULP energy per Si atom -12401.590309 kJ/mol
# Density = 1.921912 g / cm^3
# Si number density = 19.262963 Si / 1000 Ang^3
#
#
#
# Elastic Constant Matrix: (Units=GPa)
#
#
# Indices 1 2 3 4 5 6 
#
# 1 84.0621 33.5593 24.5869 -0.0001 8.0829 0.0000
# 2 33.5593 57.8989 43.5370 -0.0002 1.9625 0.0004
# 3 24.5869 43.5370 119.5636 0.0001 8.7839 0.0000
# 4 -0.0001 -0.0002 0.0001 27.8127 0.0000 1.2694
# 5 8.0829 1.9625 8.7839 0.0000 38.7263 -0.0001
# 6 0.0000 0.0004 0.0000 1.2694 -0.0001 30.8489
#
#
#
# Elastic Compliance Matrix: (Units=1/GPa)
#
#
# Indices 1 2 3 4 5 6 
#
# 1 0.015793 -0.009328 0.000362 0.000000 -0.002906 0.000000
# 2 -0.009328 0.029316 -0.008940 0.000000 0.002489 0.000000
# 3 0.000362 -0.008940 0.011712 0.000000 -0.002279 0.000000
# 4 0.000000 0.000000 0.000000 0.036022 0.000000 -0.001482
# 5 -0.002906 0.002489 -0.002279 0.000000 0.026820 0.000000
# 6 0.000000 0.000000 0.000000 -0.001482 0.000000 0.032477
#
#
# Mechanical properties :
#
#
# Convention : Reuss Voigt Hill
#
# Bulk Modulus (GPa) = 47.59489 51.65456 49.62473
# Shear Modulus (GPa) = 25.64703 30.13367 27.89035
#
# Velocity S-wave (km/s) = 3.65282 3.95945 3.80922
# Velocity P-wave (km/s) = 6.52322 6.91207 6.72046
#
# Compressibility (1/GPa) = 0.02101066
#
# Stress axis : x y z
#
# Youngs Moduli (GPa) = 63.31772 34.11107 85.38374
#
# Poissons Ratio (x) = 0.31819 -0.03095
# Poissons Ratio (y) = 0.59064 0.76329
# Poissons Ratio (z) = -0.02295 0.30494
#
# Static dielectric constant tensor:
#      x y z
#    x 3.674090 0.000000 -0.038430 
#    y 0.000000 3.408450 0.000000 
#    z -0.038430 0.000000 3.676660 
# 
# 
# High freq. dielectric constant tensor:
#      x y z
#    x 1.755230 0.000000 0.003600 
#    y 0.000000 1.735160 0.000000 
#    z 0.003600 0.000000 1.764560 
# 
# From -- ./inp_files/378340.got.cif
#   From: 2010.06.25/outbox.cif.g09.slc.cpg/sg12_190_cif.got.tgz:378340.got - 2010.06.28 00:19:55.
