data_PCOD8101197
_publ_section_title
;
Structure prediction by ZEFSAII (Michael W. Deem and Ramdas Pophale) SiO2 
 PCOD8101197
Probable space group: C 2/M
;
_chemical_formula_sum "Si O2"
_cell_formula_units_Z 48
_cell_length_a 15.551915
_cell_length_b 17.642108
_cell_length_c 18.089607
_cell_angle_alpha 90.000000
_cell_angle_beta 30.237108
_cell_angle_gamma 90.000000
_cell_volume 2499.376062
_symmetry_space_group_name_H-M "C 2/M"
_symmetry_group_IT_number 12
_symmetry_cell_setting 'monoclinic'
loop_
_space_group_symop_operation_xyz
x,y,z
-x,y,-z
-x,-y,-z
x,-y,z
1/2+x,1/2+y,z
1/2-x,1/2+y,-z
1/2-x,1/2-y,-z
1/2+x,1/2-y,z
loop_
_atom_site_type_symbol
_atom_site_label
_atom_site_fract_x
_atom_site_fract_y
_atom_site_fract_z
Si Si1 0.328895 0.668720 0.427209
Si Si2 0.185899 0.414143 0.395751
Si Si3 0.667206 0.589219 0.418664
Si Si4 0.322689 0.329089 0.919241
Si Si5 0.965454 0.167572 0.107356
Si Si6 0.012437 0.348099 0.906465
O O1 0.250000 0.750000 0.500000
O O2 0.206602 0.624214 0.460796
O O3 0.330659 0.624302 0.502123
O O4 0.521899 0.678886 0.254167
O O5 0.255401 0.500000 0.350138
O O6 0.283199 0.364560 0.263313
O O7 0.000000 0.413341 0.500000
O O8 0.500000 0.619321 0.500000
O O9 0.660813 0.500000 0.432990
O O10 0.833602 0.611279 0.248838
O O11 0.394915 0.368899 0.939995
O O12 0.250000 0.250000 0.000000
O O13 0.165907 0.374504 0.999139
O O14 0.961459 0.258111 0.117236
O O15 0.000000 0.138894 0.000000
O O16 0.000000 0.375788 0.000000
#
# Coordination Sequence:
#
# PCOD8101197 Si02
#       6
#     8   8   8   8   8   8
#     4  11  22  38  63  87 114 152 195 245 292 342
#     4  10  22  38  55  80 116 152 185 227 283 342
#     4  11  24  40  58  85 120 156 195 239 294 359
#     4   9  18  34  54  82 113 141 184 237 289 339
#     4   9  19  34  55  80 108 143 186 233 276 331
#     4  10  20  36  57  82 112 148 192 241 288 341
#
# _framework density 19.204792999999999
#
# number of rings (size 3 to 8) (size 9 to 14) (size 15 to 20)
#    0.000    2.000    0.000    4.500    0.000    8.667 
#    0.000    4.167    0.000    0.000    0.000    0.000 
#    0.000    0.000    0.000    0.000    0.000    0.000 
#
# Total GULP energy -297489.713724 kJ/mol
# GULP energy per Si atom -12395.404738 kJ/mol
# Density = 1.916108 g / cm^3
# Si number density = 19.204793 Si / 1000 Ang^3
#
#
#
# Elastic Constant Matrix: (Units=GPa)
#
#
# Indices 1 2 3 4 5 6 
#
# 1 157.8635 46.8739 82.0219 -0.7078 15.8595 0.1528
# 2 46.8739 56.9230 35.1667 -5.8202 6.4707 1.3246
# 3 82.0219 35.1667 139.6218 -3.7216 8.1850 0.8378
# 4 -0.7078 -5.8202 -3.7216 2515.9513 0.4927 -574.1113
# 5 15.8595 6.4707 8.1850 0.4927 42.6368 -0.1124
# 6 0.1528 1.3246 0.8378 -574.1113 -0.1124 159.3993
#
#
#
# Elastic Compliance Matrix: (Units=1/GPa)
#
#
# Indices 1 2 3 4 5 6 
#
# 1 0.010685 -0.005627 -0.004731 -0.000016 -0.002212 0.000001
# 2 -0.005627 0.023974 -0.002671 0.000050 -0.001033 0.000000
# 3 -0.004731 -0.002671 0.010607 0.000009 0.000129 0.000002
# 4 -0.000016 0.000050 0.000009 0.002231 -0.000008 0.008037
# 5 -0.002212 -0.001033 0.000129 -0.000008 0.024409 -0.000001
# 6 0.000001 0.000000 0.000002 0.008037 -0.000001 0.035219
#
#
# Mechanical properties :
#
#
# Convention : Reuss Voigt Hill
#
# Bulk Modulus (GPa) = 52.05883 75.83705 63.94794
# Shear Modulus (GPa) = 35.82039 556.28718 296.05379
#
# Velocity S-wave (km/s) = 4.32346 17.03788 12.42943
# Velocity P-wave (km/s) = 7.21728 20.65495 15.47120
#
# Compressibility (1/GPa) = 0.01920904
#
# Stress axis : x y z
#
# Youngs Moduli (GPa) = 93.58483 41.71260 94.27935
#
# Poissons Ratio (x) = 0.23470 0.44602
# Poissons Ratio (y) = 0.52657 0.25182
# Poissons Ratio (z) = 0.44274 0.11141
#
# Static dielectric constant tensor:
#      x y z
#    x 4.246580 -0.000150 -0.154870 
#    y -0.000150 3.483770 0.000050 
#    z -0.154870 0.000050 3.691560 
# 
# 
# High freq. dielectric constant tensor:
#      x y z
#    x 1.773230 0.000000 0.000220 
#    y 0.000000 1.728030 0.000000 
#    z 0.000220 0.000000 1.755960 
# 
# From -- ./inp_files/89730.got.cif
#   From: 2010.06.25/outbox.cif.g09.slc.cpg/sg12_45_cif.got.tgz:89730.got - 2010.06.28 00:19:55.
