data_PCOD8101708
_publ_section_title
;
Structure prediction by ZEFSAII (Michael W. Deem and Ramdas Pophale) SiO2 
 PCOD8101708
Probable space group: C 2/M
;
_chemical_formula_sum "Si O2"
_cell_formula_units_Z 48
_cell_length_a 9.409193
_cell_length_b 21.456584
_cell_length_c 13.060629
_cell_angle_alpha 90.000000
_cell_angle_beta 67.988919
_cell_angle_gamma 90.000000
_cell_volume 2444.606527
_symmetry_space_group_name_H-M "C 2/M"
_symmetry_group_IT_number 12
_symmetry_cell_setting 'monoclinic'
loop_
_space_group_symop_operation_xyz
x,y,z
-x,y,-z
-x,-y,-z
x,-y,z
1/2+x,1/2+y,z
1/2-x,1/2+y,-z
1/2-x,1/2-y,-z
1/2+x,1/2-y,z
loop_
_atom_site_type_symbol
_atom_site_label
_atom_site_fract_x
_atom_site_fract_y
_atom_site_fract_z
Si Si1 0.949863 0.569473 0.398163
Si Si2 0.658287 0.763116 0.421076
Si Si3 0.175731 0.069132 0.971391
Si Si4 0.352265 0.376137 0.600926
Si Si5 0.926981 0.072350 0.789602
Si Si6 0.247295 0.870563 0.751638
O O1 0.901836 0.500000 0.377073
O O2 0.802817 0.613987 0.422080
O O3 0.000000 0.571771 0.500000
O O4 0.098542 0.589964 0.296789
O O5 0.500000 0.796210 0.500000
O O6 0.750000 0.750000 0.500000
O O7 0.623731 0.696492 0.379235
O O8 0.735695 0.803624 0.309422
O O9 0.183897 0.094342 0.086651
O O10 0.257329 0.000000 0.934898
O O11 0.228966 0.125147 0.880589
O O12 0.000000 0.055767 0.000000
O O13 0.500000 0.402075 0.500000
O O14 0.335279 0.412212 0.711780
O O15 0.096785 0.101507 0.739300
O O16 0.956156 0.000000 0.793064
#
# Coordination Sequence:
#
# PCOD8101708 Si02
#       6
#     8   8   8   8   8   8
#     4  11  22  34  52  81 111 138 176 227 278 327
#     4  11  22  37  55  77 108 146 185 224 268 322
#     4   8  16  32  55  82 109 140 180 223 270 325
#     4  11  23  38  55  78 110 149 186 221 272 333
#     4  10  20  36  59  85 111 140 179 228 277 327
#     4  11  19  34  58  81 106 143 185 225 268 320
#
# _framework density 19.635062000000001
#
# number of rings (size 3 to 8) (size 9 to 14) (size 15 to 20)
#    0.000    1.667    0.000    8.500    0.000    2.667 
#    0.000    1.667    0.000    5.000    0.000    0.000 
#    0.000    0.000    0.000    0.000    0.000    0.000 
#
# Total GULP energy -297313.435269 kJ/mol
# GULP energy per Si atom -12388.059803 kJ/mol
# Density = 1.959037 g / cm^3
# Si number density = 19.635062 Si / 1000 Ang^3
#
#
#
# Elastic Constant Matrix: (Units=GPa)
#
#
# Indices 1 2 3 4 5 6 
#
# 1 88.8979 20.9576 42.5603 0.0000 -3.2004 0.0000
# 2 20.9576 79.3876 54.9376 0.0000 -4.4048 0.0000
# 3 42.5603 54.9376 145.0134 0.0000 6.9817 0.0000
# 4 0.0000 0.0000 0.0000 34.6471 0.0000 0.2637
# 5 -3.2004 -4.4048 6.9817 0.0000 27.5613 0.0000
# 6 0.0000 0.0000 0.0000 0.2637 0.0000 26.6719
#
#
#
# Elastic Compliance Matrix: (Units=1/GPa)
#
#
# Indices 1 2 3 4 5 6 
#
# 1 0.013301 -0.000814 -0.003709 0.000000 0.002354 0.000000
# 2 -0.000814 0.017671 -0.006668 0.000000 0.004419 0.000000
# 3 -0.003709 -0.006668 0.010713 0.000000 -0.004210 0.000000
# 4 0.000000 0.000000 0.000000 0.028865 0.000000 -0.000285
# 5 0.002354 0.004419 -0.004210 0.000000 0.038329 0.000000
# 6 0.000000 0.000000 0.000000 -0.000285 0.000000 0.037495
#
#
# Mechanical properties :
#
#
# Convention : Reuss Voigt Hill
#
# Bulk Modulus (GPa) = 51.80544 61.13442 56.46993
# Shear Modulus (GPa) = 28.54021 30.76564 29.65292
#
# Velocity S-wave (km/s) = 3.81666 3.96267 3.89035
# Velocity P-wave (km/s) = 6.77229 7.22080 7.00014
#
# Compressibility (1/GPa) = 0.01930299
#
# Stress axis : x y z
#
# Youngs Moduli (GPa) = 75.18187 56.58917 93.34163
#
# Poissons Ratio (x) = 0.04608 0.34616
# Poissons Ratio (y) = 0.06123 0.62244
# Poissons Ratio (z) = 0.27882 0.37736
#
# Static dielectric constant tensor:
#      x y z
#    x 3.452760 0.000000 0.064650 
#    y 0.000000 3.682430 0.000000 
#    z 0.064650 0.000000 2.926900 
# 
# 
# High freq. dielectric constant tensor:
#      x y z
#    x 1.754890 0.000000 0.002440 
#    y 0.000000 1.755800 0.000000 
#    z 0.002440 0.000000 1.769360 
# 
# From -- ./inp_files/122409.got.cif
#   From: 2010.06.25/outbox.cif.g09.slc.cpg/sg12_62_cif.got.tgz:122409.got - 2010.06.28 00:19:55.
