data_PCOD8101154
_publ_section_title
;
Structure prediction by ZEFSAII (Michael W. Deem and Ramdas Pophale) SiO2 
 PCOD8101154
Probable space group: C 2/M
;
_chemical_formula_sum "Si O2"
_cell_formula_units_Z 60
_cell_length_a 15.812494
_cell_length_b 24.462729
_cell_length_c 9.120324
_cell_angle_alpha 90.000000
_cell_angle_beta 116.917402
_cell_angle_gamma 90.000000
_cell_volume 3145.682349
_symmetry_space_group_name_H-M "C 2/M"
_symmetry_group_IT_number 12
_symmetry_cell_setting 'monoclinic'
loop_
_space_group_symop_operation_xyz
x,y,z
-x,y,-z
-x,-y,-z
x,-y,z
1/2+x,1/2+y,z
1/2-x,1/2+y,-z
1/2-x,1/2-y,-z
1/2+x,1/2-y,z
loop_
_atom_site_type_symbol
_atom_site_label
_atom_site_fract_x
_atom_site_fract_y
_atom_site_fract_z
Si Si1 0.666699 0.062561 0.783491
Si Si2 0.102445 0.828100 0.047620
Si Si3 0.303101 0.601460 0.652140
Si Si4 0.000000 0.623975 0.500000
Si Si5 0.842908 0.306416 0.522746
Si Si6 0.275668 0.767204 0.759755
Si Si7 0.394444 0.562469 0.434534
Si Si8 0.212580 0.128608 0.885828
O O1 0.734141 0.063007 0.693715
O O2 0.564597 0.086782 0.656723
O O3 0.653969 0.000000 0.826274
O O4 0.710042 0.099132 0.948633
O O5 0.115752 0.874231 0.181002
O O6 0.180400 0.780715 0.108793
O O7 0.117379 0.856408 0.901464
O O8 0.000000 0.802778 0.000000
O O9 0.244714 0.651640 0.538554
O O10 0.355541 0.567046 0.568796
O O11 0.938884 0.663312 0.555670
O O12 0.820355 0.256850 0.391253
O O13 0.852025 0.282598 0.693452
O O14 0.257824 0.817371 0.852596
O O15 0.500000 0.588515 0.500000
O O16 0.400012 0.500000 0.391144
O O17 0.317925 0.589616 0.268786
#
# Coordination Sequence:
#
# PCOD8101154 Si02
#       8
#     8   8   8   4   8   8   8   8
#     4  10  21  38  62  85 114 158 199 242 292 344
#     4  10  21  34  54  83 114 148 188 231 285 344
#     4   9  18  37  57  78 111 149 189 230 289 347
#     4  10  21  38  62  88 118 148 203 248 282 348
#     4   9  19  36  57  85 111 152 189 236 284 344
#     4  10  20  36  57  80 118 153 188 229 291 354
#     4  11  22  36  58  85 112 146 193 242 290 345
#     4  11  22  38  58  83 120 152 190 242 293 345
#
# _framework density 19.073764000000001
#
# number of rings (size 3 to 8) (size 9 to 14) (size 15 to 20)
#    0.000    2.000    1.333    3.000    0.000    2.133 
#    1.200    0.000    0.000    7.200    0.000    0.000 
#    0.000    0.000    0.000    0.000    0.000    0.000 
#
# Total GULP energy -371957.662063 kJ/mol
# GULP energy per Si atom -12398.588735 kJ/mol
# Density = 1.903035 g / cm^3
# Si number density = 19.073764 Si / 1000 Ang^3
#
#
#
# Elastic Constant Matrix: (Units=GPa)
#
#
# Indices 1 2 3 4 5 6 
#
# 1 103.6646 37.0980 44.0197 0.0000 -2.2319 0.0000
# 2 37.0980 101.9011 41.6909 0.0000 -3.9330 0.0000
# 3 44.0197 41.6909 95.9296 0.0000 -6.3287 0.0000
# 4 0.0000 0.0000 0.0000 26.6152 0.0000 -4.9277
# 5 -2.2319 -3.9330 -6.3287 0.0000 23.2385 0.0000
# 6 0.0000 0.0000 0.0000 -4.9277 0.0000 25.9739
#
#
#
# Elastic Compliance Matrix: (Units=1/GPa)
#
#
# Indices 1 2 3 4 5 6 
#
# 1 0.012567 -0.002702 -0.004626 0.000000 -0.000510 0.000000
# 2 -0.002702 0.012525 -0.004156 0.000000 0.000729 0.000000
# 3 -0.004626 -0.004156 0.014539 0.000000 0.002812 0.000000
# 4 0.000000 0.000000 0.000000 0.038940 0.000000 0.007388
# 5 -0.000510 0.000729 0.002812 0.000000 0.043872 0.000000
# 6 0.000000 0.000000 0.000000 0.007388 0.000000 0.039902
#
#
# Mechanical properties :
#
#
# Convention : Reuss Voigt Hill
#
# Bulk Modulus (GPa) = 60.01096 60.79027 60.40061
# Shear Modulus (GPa) = 26.19630 27.07798 26.63714
#
# Velocity S-wave (km/s) = 3.70999 3.77191 3.74108
# Velocity P-wave (km/s) = 7.06278 7.13513 7.09905
#
# Compressibility (1/GPa) = 0.01666362
#
# Stress axis : x y z
#
# Youngs Moduli (GPa) = 79.57450 79.83734 68.78280
#
# Poissons Ratio (x) = 0.21573 0.31818
# Poissons Ratio (y) = 0.21502 0.28583
# Poissons Ratio (z) = 0.36810 0.33177
#
# Static dielectric constant tensor:
#      x y z
#    x 3.317950 0.000000 -0.053250 
#    y 0.000000 3.480450 0.000000 
#    z -0.053250 0.000000 3.470050 
# 
# 
# High freq. dielectric constant tensor:
#      x y z
#    x 1.731030 0.000000 -0.008650 
#    y 0.000000 1.747220 0.000000 
#    z -0.008650 0.000000 1.742150 
# 
# From -- ./inp_files/65920.got.cif
#   From: 2010.06.25/outbox.cif.g09.slc.cpg/sg12_33_cif.got.tgz:65920.got - 2010.06.28 00:19:55.
