data_PCOD8101344
_publ_section_title
;
Structure prediction by ZEFSAII (Michael W. Deem and Ramdas Pophale) SiO2 
 PCOD8101344
Probable space group: C 2/M
;
_chemical_formula_sum "Si O2"
_cell_formula_units_Z 56
_cell_length_a 12.640569
_cell_length_b 13.236785
_cell_length_c 19.008642
_cell_angle_alpha 90.000000
_cell_angle_beta 114.241404
_cell_angle_gamma 90.000000
_cell_volume 2900.087381
_symmetry_space_group_name_H-M "C 2/M"
_symmetry_group_IT_number 12
_symmetry_cell_setting 'monoclinic'
loop_
_space_group_symop_operation_xyz
x,y,z
-x,y,-z
-x,-y,-z
x,-y,z
1/2+x,1/2+y,z
1/2-x,1/2+y,-z
1/2-x,1/2-y,-z
1/2+x,1/2-y,z
loop_
_atom_site_type_symbol
_atom_site_label
_atom_site_fract_x
_atom_site_fract_y
_atom_site_fract_z
Si Si1 0.718110 0.620043 0.566785
Si Si2 0.124984 0.882800 0.295867
Si Si3 0.973818 0.616617 0.106481
Si Si4 0.316328 0.116507 0.932219
Si Si5 0.095026 0.788889 0.816011
Si Si6 0.916135 0.243697 0.576234
Si Si7 0.668623 0.251984 0.680220
O O1 0.705891 0.500000 0.557515
O O2 0.834978 0.657237 0.559474
O O3 0.610662 0.677240 0.500182
O O4 0.719601 0.653438 0.649198
O O5 0.102995 0.829792 0.363588
O O6 0.243392 0.841432 0.294575
O O7 0.016196 0.862913 0.214244
O O8 0.140882 0.000000 0.313622
O O9 0.983280 0.500000 0.131321
O O10 0.949622 0.679454 0.170579
O O11 0.092758 0.654624 0.102288
O O12 0.868566 0.633257 0.023609
O O13 0.193760 0.173269 0.896071
O O14 0.292211 0.000000 0.911338
O O15 0.151113 0.786926 0.754701
O O16 0.047876 0.283453 0.611658
#
# Coordination Sequence:
#
# PCOD8101344 Si02
#       7
#     8   8   8   8   8   8   8
#     4  10  20  36  58  81 106 138 178 222 263 308
#     4  10  21  36  52  74 105 140 177 218 263 310
#     4   9  19  35  55  79 106 137 175 216 263 318
#     4   9  18  34  56  80 104 135 176 220 263 312
#     4  11  20  34  53  78 108 140 174 217 265 312
#     4   9  20  37  55  79 107 137 178 221 262 310
#     4  10  22  35  50  77 108 139 176 214 259 316
#
# _framework density 19.309761999999999
#
# number of rings (size 3 to 8) (size 9 to 14) (size 15 to 20)
#    0.000    2.286    0.000    3.429    0.000    5.143 
#    0.000    8.571    0.000    5.143    0.000    9.000 
#    0.000    0.000    0.000    0.000    0.000    0.000 
#
# Total GULP energy -347170.508313 kJ/mol
# GULP energy per Si atom -12398.946725 kJ/mol
# Density = 1.926581 g / cm^3
# Si number density = 19.309762 Si / 1000 Ang^3
#
#
#
# Elastic Constant Matrix: (Units=GPa)
#
#
# Indices 1 2 3 4 5 6 
#
# 1 96.1831 42.6264 24.9699 0.0000 19.2508 0.0000
# 2 42.6264 80.4386 28.1205 0.0000 -1.0124 0.0000
# 3 24.9699 28.1205 51.0899 0.0000 7.0910 0.0000
# 4 0.0000 0.0000 0.0000 23.8914 0.0000 1.0071
# 5 19.2508 -1.0124 7.0910 0.0000 39.9502 0.0000
# 6 0.0000 0.0000 0.0000 1.0071 0.0000 21.0494
#
#
#
# Elastic Compliance Matrix: (Units=1/GPa)
#
#
# Indices 1 2 3 4 5 6 
#
# 1 0.015931 -0.007645 -0.002549 0.000000 -0.007418 0.000000
# 2 -0.007645 0.019211 -0.007604 0.000000 0.005520 0.000000
# 3 -0.002549 -0.007604 0.025488 0.000000 -0.003489 0.000000
# 4 0.000000 0.000000 0.000000 0.041941 0.000000 -0.002007
# 5 -0.007418 0.005520 -0.003489 0.000000 0.029365 0.000000
# 6 0.000000 0.000000 0.000000 -0.002007 0.000000 0.047603
#
#
# Mechanical properties :
#
#
# Convention : Reuss Voigt Hill
#
# Bulk Modulus (GPa) = 39.94291 46.57168 43.25730
# Shear Modulus (GPa) = 22.37350 25.77785 24.07567
#
# Velocity S-wave (km/s) = 3.40761 3.65768 3.53486
# Velocity P-wave (km/s) = 6.01769 6.48141 6.25385
#
# Compressibility (1/GPa) = 0.02503573
#
# Stress axis : x y z
#
# Youngs Moduli (GPa) = 62.76987 52.05480 39.23347
#
# Poissons Ratio (x) = 0.39794 0.10001
# Poissons Ratio (y) = 0.47985 0.29832
# Poissons Ratio (z) = 0.16000 0.39580
#
# Static dielectric constant tensor:
#      x y z
#    x 3.734170 0.000000 0.231010 
#    y 0.000000 3.240440 0.000000 
#    z 0.231010 0.000000 3.556480 
# 
# 
# High freq. dielectric constant tensor:
#      x y z
#    x 1.759470 0.000000 0.011890 
#    y 0.000000 1.730110 0.000000 
#    z 0.011890 0.000000 1.754860 
# 
# From -- ./inp_files/304771.got.cif
#   From: 2010.06.25/outbox.cif.g09.slc.cpg/sg12_153_cif.got.tgz:304771.got - 2010.06.28 00:19:55.
