data_PCOD8101583
_publ_section_title
;
Structure prediction by ZEFSAII (Michael W. Deem and Ramdas Pophale) SiO2 
 PCOD8101583
Probable space group: C 2/M
;
_chemical_formula_sum "Si O2"
_cell_formula_units_Z 48
_cell_length_a 8.656381
_cell_length_b 23.151695
_cell_length_c 12.298784
_cell_angle_alpha 90.000000
_cell_angle_beta 67.403159
_cell_angle_gamma 90.000000
_cell_volume 2275.578901
_symmetry_space_group_name_H-M "C 2/M"
_symmetry_group_IT_number 12
_symmetry_cell_setting 'monoclinic'
loop_
_space_group_symop_operation_xyz
x,y,z
-x,y,-z
-x,-y,-z
x,-y,z
1/2+x,1/2+y,z
1/2-x,1/2+y,-z
1/2-x,1/2-y,-z
1/2+x,1/2-y,z
loop_
_atom_site_type_symbol
_atom_site_label
_atom_site_fract_x
_atom_site_fract_y
_atom_site_fract_z
Si Si1 0.683631 0.321571 0.572354
Si Si2 0.809716 0.779156 0.659645
Si Si3 0.555241 0.062772 0.200202
Si Si4 0.853023 0.935649 0.959313
Si Si5 0.821969 0.565256 0.603586
Si Si6 0.849650 0.646444 0.125664
O O1 0.793566 0.289193 0.636210
O O2 0.498678 0.296589 0.631590
O O3 0.757663 0.311033 0.431421
O O4 0.687465 0.390416 0.590522
O O5 0.705985 0.795012 0.797337
O O6 0.660382 0.082830 0.275581
O O7 0.408914 0.105948 0.208183
O O8 0.473671 0.000000 0.247174
O O9 0.678798 0.057207 0.066511
O O10 0.814039 0.885645 0.881377
O O11 0.899792 0.000000 0.898380
O O12 0.000000 0.914299 0.000000
O O13 0.753906 0.500000 0.606861
O O14 0.000000 0.573574 0.500000
O O15 0.000000 0.660771 0.000000
#
# Coordination Sequence:
#
# PCOD8101583 Si02
#       6
#     8   8   8   8   8   8
#     4  10  23  41  65  90 122 161 210 250 297 374
#     4  10  23  41  63  92 117 166 207 250 303 364
#     4   9  18  32  54  82 116 161 201 240 298 366
#     4   9  18  32  53  81 116 162 205 246 301 363
#     4  10  21  36  61  93 124 157 198 254 311 359
#     4  10  20  36  58  86 125 155 206 258 309 359
#
# _framework density 21.093533000000001
#
# number of rings (size 3 to 8) (size 9 to 14) (size 15 to 20)
#    0.000    2.333    0.000    1.500    9.333    2.000 
#    0.000    4.167    0.000    0.000    0.000    0.000 
#    0.000    0.000    0.000    0.000    0.000    0.000 
#
# Total GULP energy -297397.985966 kJ/mol
# GULP energy per Si atom -12391.582749 kJ/mol
# Density = 2.104552 g / cm^3
# Si number density = 21.093533 Si / 1000 Ang^3
#
#
#
# Elastic Constant Matrix: (Units=GPa)
#
#
# Indices 1 2 3 4 5 6 
#
# 1 86.8335 52.5368 10.4492 0.0000 3.2513 0.0000
# 2 52.5368 117.6263 39.9326 0.0000 12.7326 0.0000
# 3 10.4492 39.9326 85.9227 0.0000 2.2567 0.0000
# 4 0.0000 0.0000 0.0000 32.3897 0.0000 10.6550
# 5 3.2513 12.7326 2.2567 0.0000 21.5495 0.0000
# 6 0.0000 0.0000 0.0000 10.6550 0.0000 54.5985
#
#
#
# Elastic Compliance Matrix: (Units=1/GPa)
#
#
# Indices 1 2 3 4 5 6 
#
# 1 0.016060 -0.007979 0.001700 0.000000 0.002113 0.000000
# 2 -0.007979 0.014750 -0.005703 0.000000 -0.006914 0.000000
# 3 0.001700 -0.005703 0.014039 0.000000 0.001643 0.000000
# 4 0.000000 0.000000 0.000000 0.032992 0.000000 -0.006438
# 5 0.002113 -0.006914 0.001643 0.000000 0.049999 0.000000
# 6 0.000000 0.000000 0.000000 -0.006438 0.000000 0.019572
#
#
# Mechanical properties :
#
#
# Convention : Reuss Voigt Hill
#
# Bulk Modulus (GPa) = 47.88309 55.13553 51.50931
# Shear Modulus (GPa) = 28.03673 34.20514 31.12093
#
# Velocity S-wave (km/s) = 3.64972 4.03127 3.84523
# Velocity P-wave (km/s) = 6.36477 6.91835 6.64732
#
# Compressibility (1/GPa) = 0.02088420
#
# Stress axis : x y z
#
# Youngs Moduli (GPa) = 62.26629 67.79825 71.23014
#
# Poissons Ratio (x) = 0.54095 -0.12106
# Poissons Ratio (y) = 0.49681 0.40623
# Poissons Ratio (z) = -0.10582 0.38665
#
# Static dielectric constant tensor:
#      x y z
#    x 3.666660 0.000000 0.259980 
#    y 0.000000 3.880920 0.000000 
#    z 0.259980 0.000000 3.946300 
# 
# 
# High freq. dielectric constant tensor:
#      x y z
#    x 1.815130 0.000000 0.009630 
#    y 0.000000 1.816160 0.000000 
#    z 0.009630 0.000000 1.819530 
# 
# From -- ./inp_files/121882.got.cif
#   From: 2010.06.25/outbox.cif.g09.slc.cpg/sg12_61_cif.got.tgz:121882.got - 2010.06.28 00:19:55.
