data_PCOD8101812
_publ_section_title
;
Structure prediction by ZEFSAII (Michael W. Deem and Ramdas Pophale) SiO2 
 PCOD8101812
Probable space group: C 2/M
;
_chemical_formula_sum "Si O2"
_cell_formula_units_Z 64
_cell_length_a 15.439571
_cell_length_b 8.788232
_cell_length_c 28.589344
_cell_angle_alpha 90.000000
_cell_angle_beta 57.052516
_cell_angle_gamma 90.000000
_cell_volume 3255.296728
_symmetry_space_group_name_H-M "C 2/M"
_symmetry_group_IT_number 12
_symmetry_cell_setting 'monoclinic'
loop_
_space_group_symop_operation_xyz
x,y,z
-x,y,-z
-x,-y,-z
x,-y,z
1/2+x,1/2+y,z
1/2-x,1/2+y,-z
1/2-x,1/2-y,-z
1/2+x,1/2-y,z
loop_
_atom_site_type_symbol
_atom_site_label
_atom_site_fract_x
_atom_site_fract_y
_atom_site_fract_z
Si Si1 0.888051 0.819425 0.239175
Si Si2 0.164052 0.678106 0.057679
Si Si3 0.031278 0.319840 0.440364
Si Si4 0.485222 0.325667 0.057585
Si Si5 0.713152 0.324814 0.826156
Si Si6 0.620514 0.320775 0.166299
Si Si7 0.235624 0.818934 0.634309
Si Si8 0.834745 0.680741 0.441021
O O1 0.834675 0.758805 0.207644
O O2 0.825135 0.760239 0.302354
O O3 0.004762 0.757401 0.207108
O O4 0.890075 0.000000 0.237521
O O5 0.181834 0.500000 0.054299
O O6 0.175332 0.742696 0.106254
O O7 0.051674 0.717546 0.071066
O O8 0.250000 0.750000 0.000000
O O9 0.031509 0.500000 0.443559
O O10 0.948417 0.267621 0.425653
O O11 0.000000 0.251001 0.500000
O O12 0.146305 0.262121 0.394347
O O13 0.522219 0.500000 0.053434
O O14 0.367183 0.306798 0.107577
O O15 0.500000 0.272948 0.000000
O O16 0.745877 0.500000 0.810314
O O17 0.814257 0.225553 0.807244
O O18 0.620841 0.500000 0.158635
O O19 0.180566 0.743464 0.606281
O O20 0.230235 0.000000 0.629903
O O21 0.823530 0.500000 0.444872
O O22 0.750000 0.750000 0.500000
#
# Coordination Sequence:
#
# PCOD8101812 Si02
#       8
#     8   8   8   8   8   8   8   8
#     4   9  20  39  62  84 116 161 199 237 296 361
#     4  12  24  38  59  88 120 156 198 246 301 359
#     4   9  17  32  55  82 112 150 191 233 284 347
#     4  10  20  36  59  86 119 153 190 242 302 359
#     4  10  20  38  61  87 118 157 201 242 295 358
#     4  11  22  40  62  88 120 157 199 247 300 357
#     4  10  20  38  61  84 114 157 202 241 290 354
#     4  11  21  35  57  87 119 154 194 245 299 350
#
# _framework density 19.660267000000001
#
# number of rings (size 3 to 8) (size 9 to 14) (size 15 to 20)
#    0.000    1.750    2.500    2.625    0.000    2.750 
#    0.000    5.000    0.000    0.000    0.000    0.000 
#    0.000    0.000    0.000    0.000    0.000    0.000 
#
# Total GULP energy -396873.673166 kJ/mol
# GULP energy per Si atom -12402.302286 kJ/mol
# Density = 1.961552 g / cm^3
# Si number density = 19.660267 Si / 1000 Ang^3
#
#
#
# Elastic Constant Matrix: (Units=GPa)
#
#
# Indices 1 2 3 4 5 6 
#
# 1 176.3060 40.4006 77.1203 0.0000 1.9512 0.0000
# 2 40.4006 66.7539 31.3880 0.0000 -1.3357 -0.0001
# 3 77.1203 31.3880 149.4493 0.0000 3.5181 0.0000
# 4 0.0000 0.0000 0.0000 19.2508 0.0000 6.9107
# 5 1.9512 -1.3357 3.5181 0.0000 32.7471 0.0000
# 6 0.0000 -0.0001 0.0000 6.9107 0.0000 33.1982
#
#
#
# Elastic Compliance Matrix: (Units=1/GPa)
#
#
# Indices 1 2 3 4 5 6 
#
# 1 0.007890 -0.003182 -0.003398 0.000000 -0.000235 0.000000
# 2 -0.003182 0.017942 -0.002153 0.000000 0.001153 0.000000
# 3 -0.003398 -0.002153 0.008917 0.000000 -0.000843 0.000000
# 4 0.000000 0.000000 0.000000 0.056141 0.000000 -0.011687
# 5 -0.000235 0.001153 -0.000843 0.000000 0.030689 0.000000
# 6 0.000000 0.000000 0.000000 -0.011687 0.000000 0.032555
#
#
# Mechanical properties :
#
#
# Convention : Reuss Voigt Hill
#
# Bulk Modulus (GPa) = 57.86279 76.70300 67.28289
# Shear Modulus (GPa) = 28.19126 33.27924 30.73525
#
# Velocity S-wave (km/s) = 3.79082 4.11873 3.95817
# Velocity P-wave (km/s) = 6.97536 7.85605 7.42877
#
# Compressibility (1/GPa) = 0.01728226
#
# Stress axis : x y z
#
# Youngs Moduli (GPa) = 126.74351 55.73551 112.15087
#
# Poissons Ratio (x) = 0.17737 0.38104
# Poissons Ratio (y) = 0.40333 0.24149
# Poissons Ratio (z) = 0.43062 0.12001
#
# Static dielectric constant tensor:
#      x y z
#    x 3.923790 0.000000 -0.010470 
#    y 0.000000 3.403880 0.000000 
#    z -0.010470 0.000000 3.745070 
# 
# 
# High freq. dielectric constant tensor:
#      x y z
#    x 1.782540 0.000000 0.000420 
#    y 0.000000 1.736810 0.000000 
#    z 0.000420 0.000000 1.766520 
# 
# From -- ./inp_files/374978.got.cif
#   From: 2010.06.25/outbox.cif.g09.slc.cpg/sg12_188_cif.got.tgz:374978.got - 2010.06.28 00:19:55.
