data_PCOD8101885
_publ_section_title
;
Structure prediction by ZEFSAII (Michael W. Deem and Ramdas Pophale) SiO2 
 PCOD8101885
Probable space group: C 2/M
;
_chemical_formula_sum "Si O2"
_cell_formula_units_Z 40
_cell_length_a 23.011337
_cell_length_b 17.200157
_cell_length_c 14.185059
_cell_angle_alpha 90.000000
_cell_angle_beta 160.303582
_cell_angle_gamma 90.000000
_cell_volume 1892.266133
_symmetry_space_group_name_H-M "C 2/M"
_symmetry_group_IT_number 12
_symmetry_cell_setting 'monoclinic'
loop_
_space_group_symop_operation_xyz
x,y,z
-x,y,-z
-x,-y,-z
x,-y,z
1/2+x,1/2+y,z
1/2-x,1/2+y,-z
1/2-x,1/2-y,-z
1/2+x,1/2-y,z
loop_
_atom_site_type_symbol
_atom_site_label
_atom_site_fract_x
_atom_site_fract_y
_atom_site_fract_z
Si Si1 0.994552 0.721022 0.272488
Si Si2 0.939868 0.858403 0.761893
Si Si3 0.344311 0.680562 0.319162
Si Si4 0.330815 0.913116 0.790481
Si Si5 0.751967 0.091981 0.658220
O O1 0.055660 0.771370 0.274490
O O2 0.063935 0.756826 0.474801
O O3 0.065952 0.632444 0.380577
O O4 0.786351 0.720157 0.955050
O O5 0.835371 0.912983 0.530583
O O6 0.844461 0.861226 0.715668
O O7 0.133097 0.893059 0.072087
O O8 0.500000 0.637662 0.500000
O O9 0.218939 0.625515 0.187093
O O10 0.384865 0.000000 0.898616
O O11 0.500000 0.872698 0.000000
O O12 0.733251 0.000000 0.609515
#
# Coordination Sequence:
#
# PCOD8101885 Si02
#       5
#     8   8   8   8   8
#     4  11  22  41  61  89 122 166 217 261 313 378
#     4  10  20  36  59  88 128 170 207 254 317 382
#     4  11  24  41  64  89 122 169 215 262 311 379
#     4  10  21  38  62  92 128 162 204 262 325 376
#     4  11  21  35  61  95 131 165 211 263 317 377
#
# _framework density 21.138676
#
# number of rings (size 3 to 8) (size 9 to 14) (size 15 to 20)
#    0.000    1.400    2.000    4.800    0.000    4.400 
#    0.000    0.000    0.000    0.600    0.000    0.000 
#    0.000    0.000    0.000    0.000    0.000    0.000 
#
# Total GULP energy -247839.989809 kJ/mol
# GULP energy per Si atom -12391.999490 kJ/mol
# Density = 2.109056 g / cm^3
# Si number density = 21.138676 Si / 1000 Ang^3
#
#
#
# Elastic Constant Matrix: (Units=GPa)
#
#
# Indices 1 2 3 4 5 6 
#
# 1 74.7160 28.2166 55.1998 0.0000 21.5625 0.0000
# 2 28.2166 91.0787 47.6058 0.0000 12.6922 0.0000
# 3 55.1998 47.6058 160.6678 0.0000 -3.7208 0.0000
# 4 0.0000 0.0000 0.0000 23.3844 0.0000 -3.1938
# 5 21.5625 12.6922 -3.7208 0.0000 39.1784 0.0000
# 6 0.0000 0.0000 0.0000 -3.1938 0.0000 3.1376
#
#
#
# Elastic Compliance Matrix: (Units=1/GPa)
#
#
# Indices 1 2 3 4 5 6 
#
# 1 0.023694 -0.001249 -0.008081 0.000000 -0.013403 0.000000
# 2 -0.001249 0.013934 -0.003797 0.000000 -0.004187 0.000000
# 3 -0.008081 -0.003797 0.010279 0.000000 0.006653 0.000000
# 4 0.000000 0.000000 0.000000 0.049669 0.000000 0.050559
# 5 -0.013403 -0.004187 0.006653 0.000000 0.034889 0.000000
# 6 0.000000 0.000000 0.000000 0.050559 0.000000 0.370184
#
#
# Mechanical properties :
#
#
# Convention : Reuss Voigt Hill
#
# Bulk Modulus (GPa) = 46.17900 65.38965 55.78433
# Shear Modulus (GPa) = 9.32627 26.16941 17.74784
#
# Velocity S-wave (km/s) = 2.10274 3.52232 2.90071
# Velocity P-wave (km/s) = 5.27148 6.89515 6.13725
#
# Compressibility (1/GPa) = 0.02165486
#
# Stress axis : x y z
#
# Youngs Moduli (GPa) = 42.20543 71.76459 97.28330
#
# Poissons Ratio (x) = 0.08963 0.78611
# Poissons Ratio (y) = 0.05271 0.36935
# Poissons Ratio (z) = 0.34105 0.27246
#
# Static dielectric constant tensor:
#      x y z
#    x 3.691760 0.000000 -0.159930 
#    y 0.000000 3.528850 0.000000 
#    z -0.159930 0.000000 4.329350 
# 
# 
# High freq. dielectric constant tensor:
#      x y z
#    x 1.801850 0.000000 -0.018710 
#    y 0.000000 1.804700 0.000000 
#    z -0.018710 0.000000 1.859450 
# 
# From -- ./inp_files/241219.got.cif
#   From: 2010.06.25/outbox.cif.g09.slc.cpg/sg12_121_cif.got.tgz:241219.got - 2010.06.28 00:19:55.
