data_PCOD8101496
_publ_section_title
;
Structure prediction by ZEFSAII (Michael W. Deem and Ramdas Pophale) SiO2 
 PCOD8101496
Probable space group: C 2/M
;
_chemical_formula_sum "Si O2"
_cell_formula_units_Z 64
_cell_length_a 19.044664
_cell_length_b 11.384847
_cell_length_c 30.046694
_cell_angle_alpha 90.000000
_cell_angle_beta 32.606451
_cell_angle_gamma 90.000000
_cell_volume 3510.570470
_symmetry_space_group_name_H-M "C 2/M"
_symmetry_group_IT_number 12
_symmetry_cell_setting 'monoclinic'
loop_
_space_group_symop_operation_xyz
x,y,z
-x,y,-z
-x,-y,-z
x,-y,z
1/2+x,1/2+y,z
1/2-x,1/2+y,-z
1/2-x,1/2-y,-z
1/2+x,1/2-y,z
loop_
_atom_site_type_symbol
_atom_site_label
_atom_site_fract_x
_atom_site_fract_y
_atom_site_fract_z
Si Si1 0.218084 0.367925 0.075371
Si Si2 0.634672 0.773011 0.213028
Si Si3 0.883372 0.866177 0.322844
Si Si4 0.692909 0.138925 0.503498
Si Si5 0.396948 0.865273 0.090034
Si Si6 0.841466 0.138877 0.247524
Si Si7 0.052074 0.724623 0.086553
Si Si8 0.401895 0.867531 0.673328
O O1 0.272730 0.500000 0.046359
O O2 0.151793 0.343048 0.158156
O O3 0.111860 0.357198 0.092959
O O4 0.335277 0.277779 0.004761
O O5 0.507132 0.693495 0.279176
O O6 0.760449 0.697862 0.157631
O O7 0.611179 0.860291 0.266490
O O8 0.755958 0.854550 0.421314
O O9 0.848464 0.809240 0.293772
O O10 0.924917 0.000000 0.293806
O O11 0.750000 0.250000 0.500000
O O12 0.541672 0.174543 0.580984
O O13 0.710193 0.000000 0.512477
O O14 0.455121 0.852508 0.108414
O O15 0.371109 0.000000 0.092672
O O16 0.500000 0.811058 0.000000
O O17 0.716160 0.198020 0.289710
O O18 0.973221 0.169829 0.151148
O O19 0.831899 0.000000 0.253723
O O20 0.385509 0.000000 0.667795
#
# Coordination Sequence:
#
# PCOD8101496 Si02
#       8
#     8   8   8   8   8   8   8   8
#     4  11  24  37  55  82 110 147 190 233 281 336
#     4  12  20  37  57  82 114 142 189 234 280 337
#     4  10  21  36  58  85 112 147 190 235 284 338
#     4  10  20  37  60  89 119 152 190 238 295 348
#     4  11  23  38  56  80 110 148 191 237 282 332
#     4  10  20  36  58  84 113 145 186 233 279 333
#     4  11  21  40  56  77 111 151 186 231 278 338
#     4  10  21  35  58  86 114 146 183 233 288 339
#
# _framework density 18.230654000000001
#
# number of rings (size 3 to 8) (size 9 to 14) (size 15 to 20)
#    0.000    1.375    5.000    1.500    0.000    0.500 
#    0.000    3.125    0.000    0.000    0.000    0.875 
#    0.000    0.000    0.000    0.000    0.000    0.000 
#
# Total GULP energy -396615.350395 kJ/mol
# GULP energy per Si atom -12394.229700 kJ/mol
# Density = 1.818916 g / cm^3
# Si number density = 18.230654 Si / 1000 Ang^3
#
#
#
# Elastic Constant Matrix: (Units=GPa)
#
#
# Indices 1 2 3 4 5 6 
#
# 1 87.3562 11.8784 31.7684 0.0000 1.7438 0.0000
# 2 11.8784 46.9708 11.4475 0.0000 -6.0047 0.0000
# 3 31.7684 11.4475 111.7018 0.0002 -2.2135 -0.0001
# 4 0.0000 0.0000 0.0002 25.9966 0.0001 0.9581
# 5 1.7438 -6.0047 -2.2135 0.0001 26.0177 0.0000
# 6 0.0000 0.0000 -0.0001 0.9581 0.0000 17.4113
#
#
#
# Elastic Compliance Matrix: (Units=1/GPa)
#
#
# Indices 1 2 3 4 5 6 
#
# 1 0.013119 -0.002697 -0.003490 0.000000 -0.001799 0.000000
# 2 -0.002697 0.023020 -0.001486 0.000000 0.005367 0.000000
# 3 -0.003490 -0.001486 0.010112 0.000000 0.000751 0.000000
# 4 0.000000 0.000000 0.000000 0.038545 0.000000 -0.002121
# 5 -0.001799 0.005367 0.000751 0.000000 0.039859 0.000000
# 6 0.000000 0.000000 0.000000 -0.002121 0.000000 0.057551
#
#
# Mechanical properties :
#
#
# Convention : Reuss Voigt Hill
#
# Bulk Modulus (GPa) = 32.35689 39.57970 35.96829
# Shear Modulus (GPa) = 24.05534 26.61407 25.33470
#
# Velocity S-wave (km/s) = 3.63643 3.82495 3.73188
# Velocity P-wave (km/s) = 5.95136 6.42375 6.19206
#
# Compressibility (1/GPa) = 0.03090532
#
# Stress axis : x y z
#
# Youngs Moduli (GPa) = 76.22312 43.44022 98.88993
#
# Poissons Ratio (x) = 0.11716 0.34517
# Poissons Ratio (y) = 0.20558 0.14693
# Poissons Ratio (z) = 0.26605 0.06454
#
# Static dielectric constant tensor:
#      x y z
#    x 3.761030 0.000000 -0.150380 
#    y 0.000000 3.216290 0.000000 
#    z -0.150380 0.000000 3.618400 
# 
# 
# High freq. dielectric constant tensor:
#      x y z
#    x 1.714670 0.000000 -0.001160 
#    y 0.000000 1.687660 0.000000 
#    z -0.001160 0.000000 1.718570 
# 
# From -- ./inp_files/245992.got.cif
#   From: 2010.06.25/outbox.cif.g09.slc.cpg/sg12_123_cif.got.tgz:245992.got - 2010.06.28 00:19:55.
