data_PCOD8101922
_publ_section_title
;
Structure prediction by ZEFSAII (Michael W. Deem and Ramdas Pophale) SiO2 
 PCOD8101922
Probable space group: C 2/M
;
_chemical_formula_sum "Si O2"
_cell_formula_units_Z 40
_cell_length_a 8.933084
_cell_length_b 10.963255
_cell_length_c 27.187325
_cell_angle_alpha 90.000000
_cell_angle_beta 141.613763
_cell_angle_gamma 90.000000
_cell_volume 1653.372448
_symmetry_space_group_name_H-M "C 2/M"
_symmetry_group_IT_number 12
_symmetry_cell_setting 'monoclinic'
loop_
_space_group_symop_operation_xyz
x,y,z
-x,y,-z
-x,-y,-z
x,-y,z
1/2+x,1/2+y,z
1/2-x,1/2+y,-z
1/2-x,1/2-y,-z
1/2+x,1/2-y,z
loop_
_atom_site_type_symbol
_atom_site_label
_atom_site_fract_x
_atom_site_fract_y
_atom_site_fract_z
Si Si1 0.825515 0.219351 0.814283
Si Si2 0.218680 0.000000 0.431242
Si Si3 0.770713 0.500000 0.556566
Si Si4 0.313260 0.140963 0.711085
Si Si5 0.248210 0.757312 0.592871
Si Si6 0.336227 0.862100 0.915168
O O1 0.601224 0.136691 0.774445
O O2 0.748723 0.300163 0.747282
O O3 0.896669 0.302327 0.878677
O O4 0.055122 0.140179 0.857679
O O5 0.500000 0.000000 0.500000
O O6 0.201245 0.000000 0.483364
O O7 0.109257 0.872947 0.378760
O O8 0.500000 0.500000 0.500000
O O9 0.897399 0.376009 0.610094
O O10 0.195403 0.222422 0.637086
O O11 0.214738 0.000000 0.683095
O O12 0.000000 0.743586 0.500000
O O13 0.420033 0.000000 0.930390
O O14 0.500000 0.799684 0.000000
#
# Coordination Sequence:
#
# PCOD8101922 Si02
#       6
#     8   4   4   8   8   8
#     4  10  23  40  61  94 130 166 205 256 315 380
#     4  10  22  38  58  84 114 144 199 268 323 370
#     4  10  20  36  60  80 112 146 197 256 317 368
#     4  11  23  42  62  89 128 173 213 265 323 378
#     4  10  22  42  61  88 117 162 215 270 319 376
#     4  10  20  39  67  96 126 163 205 252 304 373
#
# _framework density 24.192978
#
# number of rings (size 3 to 8) (size 9 to 14) (size 15 to 20)
#    0.000    1.800    1.000    2.400    0.000    6.400 
#   10.800    0.000    0.000    9.600    0.000    0.000 
#    0.000    0.000    0.000    0.000    0.000    0.000 
#
# Total GULP energy -247824.156478 kJ/mol
# GULP energy per Si atom -12391.207824 kJ/mol
# Density = 2.413791 g / cm^3
# Si number density = 24.192978 Si / 1000 Ang^3
#
#
#
# Elastic Constant Matrix: (Units=GPa)
#
#
# Indices 1 2 3 4 5 6 
#
# 1 102.6643 47.7026 28.8609 0.0000 -31.6322 0.0000
# 2 47.7026 204.1826 49.1084 0.0000 -30.6093 0.0000
# 3 28.8609 49.1084 139.1695 -0.0001 -47.9454 0.0000
# 4 0.0000 0.0000 -0.0001 46.6348 0.0000 6.0780
# 5 -31.6322 -30.6093 -47.9454 0.0000 52.4917 0.0000
# 6 0.0000 0.0000 0.0000 6.0780 0.0000 37.2272
#
#
#
# Elastic Compliance Matrix: (Units=1/GPa)
#
#
# Indices 1 2 3 4 5 6 
#
# 1 0.012676 -0.002042 0.000457 0.000000 0.006866 0.000000
# 2 -0.002042 0.005834 -0.001294 0.000000 0.000989 0.000000
# 3 0.000457 -0.001294 0.010772 0.000000 0.009360 0.000000
# 4 0.000000 0.000000 0.000000 0.021909 0.000000 -0.003577
# 5 0.006866 0.000989 0.009360 0.000000 0.032314 0.000000
# 6 0.000000 0.000000 0.000000 -0.003577 0.000000 0.027446
#
#
# Mechanical properties :
#
#
# Convention : Reuss Voigt Hill
#
# Bulk Modulus (GPa) = 42.51103 77.48446 59.99775
# Shear Modulus (GPa) = 40.14387 48.62705 44.38546
#
# Velocity S-wave (km/s) = 4.07789 4.48813 4.28792
# Velocity P-wave (km/s) = 6.30730 7.67821 7.02627
#
# Compressibility (1/GPa) = 0.02352331
#
# Stress axis : x y z
#
# Youngs Moduli (GPa) = 78.88763 171.39989 92.83366
#
# Poissons Ratio (x) = 0.35004 -0.04243
# Poissons Ratio (y) = 0.16111 0.12017
# Poissons Ratio (z) = -0.03606 0.22187
#
# Static dielectric constant tensor:
#      x y z
#    x 4.519630 0.000000 -0.016090 
#    y 0.000000 4.840470 0.000000 
#    z -0.016090 0.000000 4.594580 
# 
# 
# High freq. dielectric constant tensor:
#      x y z
#    x 1.984210 0.000000 0.001160 
#    y 0.000000 1.965100 0.000000 
#    z 0.001160 0.000000 1.968300 
# 
# From -- ./inp_files/355626.got.cif
#   From: 2010.06.25/outbox.cif.g09.slc.cpg/sg12_178_cif.got.tgz:355626.got - 2010.06.28 00:19:55.
