data_PCOD8101581
_publ_section_title
;
Structure prediction by ZEFSAII (Michael W. Deem and Ramdas Pophale) SiO2 
 PCOD8101581
Probable space group: C 2/M
;
_chemical_formula_sum "Si O2"
_cell_formula_units_Z 64
_cell_length_a 28.515508
_cell_length_b 14.100455
_cell_length_c 20.351089
_cell_angle_alpha 90.000000
_cell_angle_beta 159.053695
_cell_angle_gamma 90.000000
_cell_volume 2925.292474
_symmetry_space_group_name_H-M "C 2/M"
_symmetry_group_IT_number 12
_symmetry_cell_setting 'monoclinic'
loop_
_space_group_symop_operation_xyz
x,y,z
-x,y,-z
-x,-y,-z
x,-y,z
1/2+x,1/2+y,z
1/2-x,1/2+y,-z
1/2-x,1/2-y,-z
1/2+x,1/2-y,z
loop_
_atom_site_type_symbol
_atom_site_label
_atom_site_fract_x
_atom_site_fract_y
_atom_site_fract_z
Si Si1 0.608940 0.798033 0.085759
Si Si2 0.910802 0.892252 0.320331
Si Si3 0.144708 0.101590 0.165798
Si Si4 0.499745 0.609203 0.211361
Si Si5 0.812841 0.734556 0.010997
Si Si6 0.284861 0.388583 0.600725
Si Si7 0.135726 0.892390 0.521885
Si Si8 0.996159 0.612439 0.806538
O O1 0.644230 0.687928 0.112976
O O2 0.740505 0.837946 0.289014
O O3 0.500000 0.801940 0.000000
O O4 0.562745 0.854345 0.961502
O O5 0.000000 0.888311 0.500000
O O6 0.998432 0.858581 0.373691
O O7 0.855296 0.000000 0.237590
O O8 0.795528 0.815302 0.177596
O O9 0.227280 0.135540 0.337999
O O10 0.199030 0.000000 0.208079
O O11 0.000000 0.079824 0.000000
O O12 0.455359 0.500000 0.145185
O O13 0.365878 0.666666 0.050529
O O14 0.577898 0.651589 0.250160
O O15 0.612908 0.619903 0.414757
O O16 0.934119 0.660219 0.165949
O O17 0.750000 0.750000 0.000000
O O18 0.294548 0.500000 0.602118
O O19 0.154664 0.352003 0.392947
O O20 0.161373 0.000000 0.576347
O O21 0.008032 0.500000 0.815969
#
# Coordination Sequence:
#
# PCOD8101581 Si02
#       8
#     8   8   8   8   8   8   8   8
#     4  11  23  37  62 100 133 174 215 269 332 400
#     4  10  21  41  65  88 121 165 214 268 324 387
#     4   9  20  38  59  86 125 173 218 256 304 382
#     4  10  22  39  63  93 128 171 218 271 328 391
#     4  12  25  40  65  95 126 173 225 275 322 387
#     4   9  20  40  65  92 127 171 213 265 333 400
#     4  10  20  36  58  86 124 168 212 263 325 390
#     4  11  25  43  65  98 136 170 214 278 345 395
#
# _framework density 21.878156000000001
#
# number of rings (size 3 to 8) (size 9 to 14) (size 15 to 20)
#    0.000    1.750    1.250    2.250    5.250    4.000 
#    0.000    0.000    0.000    1.125    0.000    0.000 
#    0.000    0.000    0.000    0.000    0.000    0.000 
#
# Total GULP energy -396491.192474 kJ/mol
# GULP energy per Si atom -12390.349765 kJ/mol
# Density = 2.182836 g / cm^3
# Si number density = 21.878156 Si / 1000 Ang^3
#
#
#
# Elastic Constant Matrix: (Units=GPa)
#
#
# Indices 1 2 3 4 5 6 
#
# 1 84.8219 37.8788 23.1433 0.0000 13.6495 -0.0001
# 2 37.8788 122.0372 51.5647 0.0000 21.0323 0.0000
# 3 23.1433 51.5647 110.6062 0.0000 13.7201 -0.0001
# 4 0.0000 0.0000 0.0000 57.6596 0.0000 -1.8416
# 5 13.6495 21.0323 13.7201 0.0000 29.4111 -0.0001
# 6 -0.0001 0.0000 -0.0001 -1.8416 -0.0001 39.3226
#
#
#
# Elastic Compliance Matrix: (Units=1/GPa)
#
#
# Indices 1 2 3 4 5 6 
#
# 1 0.014141 -0.003352 -0.000934 0.000000 -0.003730 0.000000
# 2 -0.003352 0.011873 -0.004218 0.000000 -0.004967 0.000000
# 3 -0.000934 -0.004218 0.011437 0.000000 -0.001886 0.000000
# 4 0.000000 0.000000 0.000000 0.017369 0.000000 0.000813
# 5 -0.003730 -0.004967 -0.001886 0.000000 0.040164 0.000000
# 6 0.000000 0.000000 0.000000 0.000813 0.000000 0.025469
#
#
# Mechanical properties :
#
#
# Convention : Reuss Voigt Hill
#
# Bulk Modulus (GPa) = 48.91272 60.29321 54.60297
# Shear Modulus (GPa) = 34.65646 38.93724 36.79685
#
# Velocity S-wave (km/s) = 3.98435 4.22326 4.10555
# Velocity P-wave (km/s) = 6.60092 7.16936 6.89100
#
# Compressibility (1/GPa) = 0.02044458
#
# Stress axis : x y z
#
# Youngs Moduli (GPa) = 70.71501 84.22643 87.43881
#
# Poissons Ratio (x) = 0.28232 0.08163
# Poissons Ratio (y) = 0.23703 0.36878
# Poissons Ratio (z) = 0.06601 0.35523
#
# Static dielectric constant tensor:
#      x y z
#    x 3.415990 0.000000 -0.069760 
#    y 0.000000 4.212010 0.000000 
#    z -0.069760 0.000000 4.061320 
# 
# 
# High freq. dielectric constant tensor:
#      x y z
#    x 1.844850 0.000000 -0.008160 
#    y 0.000000 1.869560 0.000000 
#    z -0.008160 0.000000 1.861340 
# 
# From -- ./inp_files/330385.got.cif
#   From: 2010.06.25/outbox.cif.g09.slc.cpg/sg12_166_cif.got.tgz:330385.got - 2010.06.28 00:19:55.
