data_PCOD8101800
_publ_section_title
;
Structure prediction by ZEFSAII (Michael W. Deem and Ramdas Pophale) SiO2 
 PCOD8101800
Probable space group: C 2/M
;
_chemical_formula_sum "Si O2"
_cell_formula_units_Z 64
_cell_length_a 18.484255
_cell_length_b 8.660399
_cell_length_c 31.801152
_cell_angle_alpha 90.000000
_cell_angle_beta 140.601309
_cell_angle_gamma 90.000000
_cell_volume 3231.171444
_symmetry_space_group_name_H-M "C 2/M"
_symmetry_group_IT_number 12
_symmetry_cell_setting 'monoclinic'
loop_
_space_group_symop_operation_xyz
x,y,z
-x,y,-z
-x,-y,-z
x,-y,z
1/2+x,1/2+y,z
1/2-x,1/2+y,-z
1/2-x,1/2-y,-z
1/2+x,1/2-y,z
loop_
_atom_site_type_symbol
_atom_site_label
_atom_site_fract_x
_atom_site_fract_y
_atom_site_fract_z
Si Si1 0.462851 0.822362 0.773990
Si Si2 0.250309 0.677593 0.632832
Si Si3 0.416642 0.674670 0.837484
Si Si4 0.054346 0.181430 0.598466
Si Si5 0.841506 0.177918 0.186477
Si Si6 0.349387 0.175288 0.276199
Si Si7 0.080135 0.680470 0.073639
Si Si8 0.687429 0.820405 0.512354
O O1 0.368530 0.722367 0.707613
O O2 0.471647 0.782873 0.827066
O O3 0.587330 0.786517 0.812141
O O4 0.431208 0.000000 0.753677
O O5 0.224200 0.500000 0.632020
O O6 0.145157 0.776581 0.603334
O O7 0.264088 0.701490 0.588740
O O8 0.458498 0.500000 0.849851
O O9 0.282076 0.689224 0.770968
O O10 0.457460 0.730150 0.901461
O O11 0.077564 0.270776 0.651838
O O12 0.928631 0.231802 0.528436
O O13 0.059536 0.000000 0.608953
O O14 0.878460 0.212898 0.250721
O O15 0.709732 0.220565 0.119879
O O16 0.867026 0.000000 0.187950
O O17 0.381818 0.000000 0.278735
O O18 0.065168 0.500000 0.075728
O O19 0.000000 0.738092 0.000000
O O20 0.750000 0.750000 0.500000
O O21 0.662905 0.000000 0.492508
#
# Coordination Sequence:
#
# PCOD8101800 Si02
#       8
#     8   8   8   8   8   8   8   8
#     4  12  24  38  60  89 123 159 200 250 304 360
#     4  11  24  43  64  87 117 157 202 250 306 363
#     4  10  20  36  60  89 122 157 198 246 295 350
#     4  12  24  39  63  90 119 155 200 247 303 367
#     4  10  21  37  59  87 124 159 197 246 300 355
#     4  10  20  36  59  86 117 154 198 246 295 353
#     4   9  19  38  64  92 123 161 203 246 294 353
#     4  11  26  45  64  86 119 157 201 254 309 367
#
# _framework density 19.807058000000001
#
# number of rings (size 3 to 8) (size 9 to 14) (size 15 to 20)
#    0.000    1.375    1.250    4.500    1.750    5.250 
#    0.000    0.625    0.000    0.000    0.000    0.000 
#    0.000    0.000    0.000    0.000    0.000    0.000 
#
# Total GULP energy -396964.153686 kJ/mol
# GULP energy per Si atom -12405.129803 kJ/mol
# Density = 1.976198 g / cm^3
# Si number density = 19.807058 Si / 1000 Ang^3
#
#
#
# Elastic Constant Matrix: (Units=GPa)
#
#
# Indices 1 2 3 4 5 6 
#
# 1 104.8132 33.6503 41.3529 0.0000 -6.4885 0.0000
# 2 33.6503 78.2299 26.1500 0.0000 -4.3976 -0.0001
# 3 41.3529 26.1500 102.0067 0.0000 -17.6613 0.0000
# 4 0.0000 0.0000 0.0000 26.5673 0.0000 -2.6745
# 5 -6.4885 -4.3976 -17.6613 0.0000 21.4902 0.0000
# 6 0.0000 -0.0001 0.0000 -2.6745 0.0000 37.9915
#
#
#
# Elastic Compliance Matrix: (Units=1/GPa)
#
#
# Indices 1 2 3 4 5 6 
#
# 1 0.012407 -0.003997 -0.004078 0.000000 -0.000424 0.000000
# 2 -0.003997 0.015269 -0.002287 0.000000 0.000038 0.000000
# 3 -0.004078 -0.002287 0.013698 0.000000 0.009558 0.000000
# 4 0.000000 0.000000 0.000000 0.037909 0.000000 0.002669
# 5 -0.000424 0.000038 0.009558 0.000000 0.054268 0.000000
# 6 0.000000 0.000000 0.000000 0.002669 0.000000 0.026510
#
#
# Mechanical properties :
#
#
# Convention : Reuss Voigt Hill
#
# Bulk Modulus (GPa) = 48.43101 54.15068 51.29084
# Shear Modulus (GPa) = 26.64274 29.46956 28.05615
#
# Velocity S-wave (km/s) = 3.67156 3.86143 3.76769
# Velocity P-wave (km/s) = 6.51753 6.87599 6.69916
#
# Compressibility (1/GPa) = 0.02064793
#
# Stress axis : x y z
#
# Youngs Moduli (GPa) = 80.59987 65.49227 73.00445
#
# Poissons Ratio (x) = 0.26180 0.29774
# Poissons Ratio (y) = 0.32219 0.16698
# Poissons Ratio (z) = 0.32871 0.14980
#
# Static dielectric constant tensor:
#      x y z
#    x 3.629140 0.000000 -0.078610 
#    y 0.000000 3.682510 0.000000 
#    z -0.078610 0.000000 3.535740 
# 
# 
# High freq. dielectric constant tensor:
#      x y z
#    x 1.773480 0.000000 -0.011440 
#    y 0.000000 1.783900 0.000000 
#    z -0.011440 0.000000 1.763700 
# 
# From -- ./inp_files/378533.got.cif
#   From: 2010.06.25/outbox.cif.g09.slc.cpg/sg12_190_cif.got.tgz:378533.got - 2010.06.28 00:19:55.
