data_PCOD8101046
_publ_section_title
;
Structure prediction by ZEFSAII (Michael W. Deem and Ramdas Pophale) SiO2 
 PCOD8101046
Probable space group: C 2/M
;
_chemical_formula_sum "Si O2"
_cell_formula_units_Z 56
_cell_length_a 13.968407
_cell_length_b 14.334905
_cell_length_c 18.124063
_cell_angle_alpha 90.000000
_cell_angle_beta 51.455765
_cell_angle_gamma 90.000000
_cell_volume 2838.407303
_symmetry_space_group_name_H-M "C 2/M"
_symmetry_group_IT_number 12
_symmetry_cell_setting 'monoclinic'
loop_
_space_group_symop_operation_xyz
x,y,z
-x,y,-z
-x,-y,-z
x,-y,z
1/2+x,1/2+y,z
1/2-x,1/2+y,-z
1/2-x,1/2-y,-z
1/2+x,1/2-y,z
loop_
_atom_site_type_symbol
_atom_site_label
_atom_site_fract_x
_atom_site_fract_y
_atom_site_fract_z
Si Si1 0.518459 0.393187 0.911496
Si Si2 0.124524 0.393834 0.908478
Si Si3 0.205551 0.392658 0.707985
Si Si4 0.043444 0.255639 0.703858
Si Si5 0.416642 0.248318 0.610545
Si Si6 0.202370 0.888465 0.703224
Si Si7 0.830081 0.803750 0.903106
O O1 0.541242 0.500000 0.916879
O O2 0.640315 0.356858 0.811081
O O3 0.401560 0.382508 0.914840
O O4 0.500000 0.341843 0.000000
O O5 0.128917 0.500000 0.933023
O O6 0.123812 0.384625 0.820823
O O7 0.245401 0.346724 0.881450
O O8 0.000000 0.346937 0.000000
O O9 0.232593 0.500000 0.674502
O O10 0.333170 0.339826 0.659311
O O11 0.129663 0.344504 0.678778
O O12 0.004598 0.261561 0.638148
O O13 0.926499 0.262040 0.814359
O O14 0.120041 0.159444 0.678816
O O15 0.500000 0.262186 0.500000
O O16 0.338243 0.153365 0.638761
O O17 0.204931 0.000000 0.689868
O O18 0.750000 0.750000 0.000000
#
# Coordination Sequence:
#
# PCOD8101046 Si02
#       7
#     8   8   8   8   8   8   8
#     4   9  19  35  54  80 115 152 193 238 282 346
#     4  10  20  36  56  83 119 158 200 244 291 356
#     4  10  22  41  63  88 123 160 199 253 305 355
#     4  10  22  40  60  89 121 154 201 253 297 355
#     4  11  24  42  63  89 121 157 201 254 306 359
#     4   9  21  40  62  88 120 159 199 244 303 360
#     4  11  21  31  56  85 115 159 194 235 292 357
#
# _framework density 19.729374
#
# number of rings (size 3 to 8) (size 9 to 14) (size 15 to 20)
#    0.000    2.000    1.429    1.286    2.000    6.286 
#    0.000    2.143    0.000    0.000    0.000    0.000 
#    0.000    0.000    0.000    0.000    0.000    0.000 
#
# Total GULP energy -347152.440424 kJ/mol
# GULP energy per Si atom -12398.301444 kJ/mol
# Density = 1.968447 g / cm^3
# Si number density = 19.729374 Si / 1000 Ang^3
#
#
#
# Elastic Constant Matrix: (Units=GPa)
#
#
# Indices 1 2 3 4 5 6 
#
# 1 127.7687 42.7764 33.6676 0.0000 13.6784 0.0000
# 2 42.7764 109.7285 24.5644 0.0000 -2.1215 0.0000
# 3 33.6676 24.5644 97.3623 0.0000 5.0785 0.0000
# 4 0.0000 0.0000 0.0000 18.8664 0.0000 -4.8886
# 5 13.6784 -2.1215 5.0785 0.0000 28.7438 0.0000
# 6 0.0000 0.0000 0.0000 -4.8886 0.0000 21.1520
#
#
#
# Elastic Compliance Matrix: (Units=1/GPa)
#
#
# Indices 1 2 3 4 5 6 
#
# 1 0.010124 -0.003506 -0.002374 0.000000 -0.004657 0.000000
# 2 -0.003506 0.010911 -0.001685 0.000000 0.002771 0.000000
# 3 -0.002374 -0.001685 0.011571 0.000000 -0.001039 0.000000
# 4 0.000000 0.000000 0.000000 0.056381 0.000000 0.013031
# 5 -0.004657 0.002771 -0.001039 0.000000 0.037395 0.000000
# 6 0.000000 0.000000 0.000000 0.013031 0.000000 0.050288
#
#
# Mechanical properties :
#
#
# Convention : Reuss Voigt Hill
#
# Bulk Modulus (GPa) = 57.21582 59.65292 58.43437
# Shear Modulus (GPa) = 25.30055 29.34252 27.32153
#
# Velocity S-wave (km/s) = 3.58492 3.86067 3.72535
# Velocity P-wave (km/s) = 6.79697 7.08338 6.94165
#
# Compressibility (1/GPa) = 0.01747768
#
# Stress axis : x y z
#
# Youngs Moduli (GPa) = 98.77212 91.65215 86.42249
#
# Poissons Ratio (x) = 0.32129 0.20513
# Poissons Ratio (y) = 0.34625 0.14563
# Poissons Ratio (z) = 0.23444 0.15445
#
# Static dielectric constant tensor:
#      x y z
#    x 3.798850 0.000000 -0.061350 
#    y 0.000000 3.550350 0.000000 
#    z -0.061350 0.000000 3.650630 
# 
# 
# High freq. dielectric constant tensor:
#      x y z
#    x 1.773330 0.000000 -0.003410 
#    y 0.000000 1.763500 0.000000 
#    z -0.003410 0.000000 1.764860 
# 
# From -- ./inp_files/205007.got.cif
#   From: 2010.06.25/outbox.cif.g09.slc.cpg/sg12_103_cif.got.tgz:205007.got - 2010.06.28 00:19:55.
