data_PCOD8101036
_publ_section_title
;
Structure prediction by ZEFSAII (Michael W. Deem and Ramdas Pophale) SiO2 
 PCOD8101036
Probable space group: C 2/M
;
_chemical_formula_sum "Si O2"
_cell_formula_units_Z 40
_cell_length_a 28.395278
_cell_length_b 12.409672
_cell_length_c 8.062861
_cell_angle_alpha 90.000000
_cell_angle_beta 45.015557
_cell_angle_gamma 90.000000
_cell_volume 2009.548493
_symmetry_space_group_name_H-M "C 2/M"
_symmetry_group_IT_number 12
_symmetry_cell_setting 'monoclinic'
loop_
_space_group_symop_operation_xyz
x,y,z
-x,y,-z
-x,-y,-z
x,-y,z
1/2+x,1/2+y,z
1/2-x,1/2+y,-z
1/2-x,1/2-y,-z
1/2+x,1/2-y,z
loop_
_atom_site_type_symbol
_atom_site_label
_atom_site_fract_x
_atom_site_fract_y
_atom_site_fract_z
Si Si1 0.809225 0.877518 0.923583
Si Si2 0.923811 0.500000 0.236965
Si Si3 0.236149 0.799770 0.301326
Si Si4 0.074844 0.500000 0.375849
Si Si5 0.143715 0.304317 0.774280
Si Si6 0.923269 0.730712 0.739583
O O1 0.780811 0.878652 0.807557
O O2 0.881053 0.818792 0.743730
O O3 0.816720 0.000000 0.966190
O O4 0.758989 0.817131 0.173397
O O5 0.917093 0.500000 0.449140
O O6 0.888755 0.396403 0.252177
O O7 0.000000 0.500000 0.000000
O O8 0.171300 0.785549 0.578755
O O9 0.295528 0.849476 0.264001
O O10 0.106330 0.611042 0.228504
O O11 0.000000 0.500000 0.500000
O O12 0.087623 0.252421 0.035557
O O13 0.000000 0.744027 0.500000
#
# Coordination Sequence:
#
# PCOD8101036 Si02
#       6
#     8   4   8   4   8   8
#     4  10  21  38  61  87 117 159 203 249 295 363
#     4  12  22  32  56  90 118 154 195 242 314 357
#     4   9  21  40  56  85 116 157 208 246 300 344
#     4  10  20  36  56  82 120 156 194 234 287 365
#     4  10  21  37  57  85 118 155 198 253 293 355
#     4  10  20  38  60  87 123 159 200 243 301 358
#
# _framework density 19.904968
#
# number of rings (size 3 to 8) (size 9 to 14) (size 15 to 20)
#    0.000    2.000    0.000    4.200    2.800    0.400 
#   10.800    1.000    0.000    1.200    0.000    0.000 
#    0.000    0.000    0.000    0.000    0.000    0.000 
#
# Total GULP energy -247935.122665 kJ/mol
# GULP energy per Si atom -12396.756133 kJ/mol
# Density = 1.985966 g / cm^3
# Si number density = 19.904968 Si / 1000 Ang^3
#
#
#
# Elastic Constant Matrix: (Units=GPa)
#
#
# Indices 1 2 3 4 5 6 
#
# 1 109.4861 31.5830 32.5093 0.0000 12.4341 0.0000
# 2 31.5830 101.0946 20.1943 0.0000 -5.9828 0.0000
# 3 32.5093 20.1943 144.7765 0.0000 1.4876 0.0000
# 4 0.0000 0.0000 0.0000 12.1702 0.0000 22.9780
# 5 12.4341 -5.9828 1.4876 0.0000 31.6408 0.0000
# 6 0.0000 0.0000 0.0000 22.9780 0.0000 -62.8928
#
#
#
# Elastic Compliance Matrix: (Units=1/GPa)
#
#
# Indices 1 2 3 4 5 6 
#
# 1 0.011281 -0.003419 -0.002005 0.000000 -0.004986 0.000000
# 2 -0.003419 0.011338 -0.000850 0.000000 0.003527 0.000000
# 3 -0.002005 -0.000850 0.007473 0.000000 0.000276 0.000000
# 4 0.000000 0.000000 0.000000 0.048626 0.000000 0.017766
# 5 -0.004986 0.003527 0.000276 0.000000 0.034218 0.000000
# 6 0.000000 0.000000 0.000000 0.017766 0.000000 -0.009409
#
#
# Mechanical properties :
#
#
# Convention : Reuss Voigt Hill
#
# Bulk Modulus (GPa) = 56.99713 58.21450 57.60581
# Shear Modulus (GPa) = 41.00926 14.25501 27.63214
#
# Velocity S-wave (km/s) = 4.54392 2.67901 3.72990
# Velocity P-wave (km/s) = 7.49843 6.23531 6.89585
#
# Compressibility (1/GPa) = 0.01754474
#
# Stress axis : x y z
#
# Youngs Moduli (GPa) = 88.64166 88.19591 133.81185
#
# Poissons Ratio (x) = 0.30154 0.26831
# Poissons Ratio (y) = 0.30306 0.11375
# Poissons Ratio (z) = 0.17773 0.07497
#
# Static dielectric constant tensor:
#      x y z
#    x 3.774770 0.000000 0.136120 
#    y 0.000000 3.523010 0.000000 
#    z 0.136120 0.000000 3.804610 
# 
# 
# High freq. dielectric constant tensor:
#      x y z
#    x 1.783420 0.000000 0.010710 
#    y 0.000000 1.746710 0.000000 
#    z 0.010710 0.000000 1.788040 
# 
# From -- ./inp_files/102356.got.cif
#   From: 2010.06.25/outbox.cif.g09.slc.cpg/sg12_52_cif.got.tgz:102356.got - 2010.06.28 00:19:55.
