data_PCOD8101627
_publ_section_title
;
Structure prediction by ZEFSAII (Michael W. Deem and Ramdas Pophale) SiO2 
 PCOD8101627
Probable space group: C 2/M
;
_chemical_formula_sum "Si O2"
_cell_formula_units_Z 48
_cell_length_a 12.015288
_cell_length_b 18.187359
_cell_length_c 11.667200
_cell_angle_alpha 90.000000
_cell_angle_beta 90.158096
_cell_angle_gamma 90.000000
_cell_volume 2549.580999
_symmetry_space_group_name_H-M "C 2/M"
_symmetry_group_IT_number 12
_symmetry_cell_setting 'monoclinic'
loop_
_space_group_symop_operation_xyz
x,y,z
-x,y,-z
-x,-y,-z
x,-y,z
1/2+x,1/2+y,z
1/2-x,1/2+y,-z
1/2-x,1/2-y,-z
1/2+x,1/2-y,z
loop_
_atom_site_type_symbol
_atom_site_label
_atom_site_fract_x
_atom_site_fract_y
_atom_site_fract_z
Si Si1 0.383763 0.583876 0.135333
Si Si2 0.803396 0.680127 0.270459
Si Si3 0.476738 0.804520 0.874640
Si Si4 0.630845 0.084626 0.513096
Si Si5 0.116408 0.142226 0.108563
Si Si6 0.784487 0.338708 0.712068
O O1 0.345937 0.500000 0.136289
O O2 0.517180 0.588993 0.149368
O O3 0.327017 0.625111 0.240262
O O4 0.342625 0.621042 0.017780
O O5 0.833854 0.629151 0.375689
O O6 0.720360 0.632394 0.192339
O O7 0.739641 0.753080 0.313379
O O8 0.910909 0.702235 0.197638
O O9 0.427021 0.724805 0.897417
O O10 0.386117 0.850815 0.802071
O O11 0.500000 0.841256 0.000000
O O12 0.500000 0.090868 0.500000
O O13 0.689278 0.120949 0.405175
O O14 0.668857 0.000000 0.524601
#
# Coordination Sequence:
#
# PCOD8101627 Si02
#       6
#     8   8   8   8   8   8
#     4  11  21  37  59  87 129 163 191 233 298 367
#     4  11  22  39  64  89 117 155 201 255 291 347
#     4  11  19  35  61  91 122 148 198 251 292 346
#     4  11  24  43  62  82 117 160 200 249 305 353
#     4  10  20  36  58  90 122 158 194 235 295 355
#     4  11  22  39  63  91 115 156 206 246 296 344
#
# _framework density 18.826623999999999
#
# number of rings (size 3 to 8) (size 9 to 14) (size 15 to 20)
#    0.000    1.167    5.000    3.000    0.000    4.000 
#    0.000    0.833    0.000    4.500    0.000    0.000 
#    0.000    0.000    0.000    0.000    0.000    0.000 
#
# Total GULP energy -297664.406591 kJ/mol
# GULP energy per Si atom -12402.683608 kJ/mol
# Density = 1.878377 g / cm^3
# Si number density = 18.826624 Si / 1000 Ang^3
#
#
#
# Elastic Constant Matrix: (Units=GPa)
#
#
# Indices 1 2 3 4 5 6 
#
# 1 68.4534 23.5157 34.0719 0.0000 3.2925 0.0000
# 2 23.5157 93.9981 44.2857 0.0000 2.1399 0.0000
# 3 34.0719 44.2857 95.0225 0.0000 -3.7182 0.0000
# 4 0.0000 0.0000 0.0000 1070.2186 0.0000 73.5930
# 5 3.2925 2.1399 -3.7182 0.0000 35.0697 0.0000
# 6 0.0000 0.0000 0.0000 73.5930 0.0000 25.4375
#
#
#
# Elastic Compliance Matrix: (Units=1/GPa)
#
#
# Indices 1 2 3 4 5 6 
#
# 1 0.018206 -0.001778 -0.005786 0.000000 -0.002214 0.000000
# 2 -0.001778 0.013886 -0.005885 0.000000 -0.001304 0.000000
# 3 -0.005786 -0.005885 0.015440 0.000000 0.002539 0.000000
# 4 0.000000 0.000000 0.000000 0.001166 0.000000 -0.003375
# 5 -0.002214 -0.001304 0.002539 0.000000 0.029071 0.000000
# 6 0.000000 0.000000 0.000000 -0.003375 0.000000 0.049075
#
#
# Mechanical properties :
#
#
# Convention : Reuss Voigt Hill
#
# Bulk Modulus (GPa) = 48.46397 51.24671 49.85534
# Shear Modulus (GPa) = 31.12927 236.51854 133.82390
#
# Velocity S-wave (km/s) = 4.07070 11.22063 8.44018
# Velocity P-wave (km/s) = 6.92042 13.96959 11.02365
#
# Compressibility (1/GPa) = 0.02063388
#
# Stress axis : x y z
#
# Youngs Moduli (GPa) = 54.92789 72.01684 64.76491
#
# Poissons Ratio (x) = 0.12806 0.37472
# Poissons Ratio (y) = 0.09768 0.38113
# Poissons Ratio (z) = 0.31780 0.42381
#
# Static dielectric constant tensor:
#      x y z
#    x 3.651700 0.000000 0.131850 
#    y 0.000000 3.389060 0.000000 
#    z 0.131850 0.000000 3.530320 
# 
# 
# High freq. dielectric constant tensor:
#      x y z
#    x 1.739940 0.000000 -0.003960 
#    y 0.000000 1.723410 0.000000 
#    z -0.003960 0.000000 1.734410 
# 
# From -- ./inp_files/131066.got.cif
#   From: 2010.06.25/outbox.cif.g09.slc.cpg/sg12_66_cif.got.tgz:131066.got - 2010.06.28 00:19:55.
