data_PCOD8101563
_publ_section_title
;
Structure prediction by ZEFSAII (Michael W. Deem and Ramdas Pophale) SiO2 
 PCOD8101563
Probable space group: C 2/M
;
_chemical_formula_sum "Si O2"
_cell_formula_units_Z 56
_cell_length_a 18.721514
_cell_length_b 8.962020
_cell_length_c 23.916939
_cell_angle_alpha 90.000000
_cell_angle_beta 46.266023
_cell_angle_gamma 90.000000
_cell_volume 2899.511100
_symmetry_space_group_name_H-M "C 2/M"
_symmetry_group_IT_number 12
_symmetry_cell_setting 'monoclinic'
loop_
_space_group_symop_operation_xyz
x,y,z
-x,y,-z
-x,-y,-z
x,-y,z
1/2+x,1/2+y,z
1/2-x,1/2+y,-z
1/2-x,1/2-y,-z
1/2+x,1/2-y,z
loop_
_atom_site_type_symbol
_atom_site_label
_atom_site_fract_x
_atom_site_fract_y
_atom_site_fract_z
Si Si1 0.929066 0.677531 0.206113
Si Si2 0.711695 0.677179 0.350844
Si Si3 0.454671 0.675171 0.645486
Si Si4 0.321361 0.675031 0.506361
Si Si5 0.755394 0.167537 0.939128
Si Si6 0.470579 0.167820 0.958605
Si Si7 0.920824 0.323028 0.781697
O O1 0.933931 0.500000 0.202019
O O2 0.816204 0.734966 0.269592
O O3 0.983259 0.745977 0.121739
O O4 0.987995 0.732599 0.229112
O O5 0.709045 0.500000 0.354664
O O6 0.621864 0.733283 0.360427
O O7 0.701202 0.739134 0.419575
O O8 0.439913 0.500000 0.664576
O O9 0.564918 0.713122 0.566654
O O10 0.434589 0.764282 0.712337
O O11 0.300774 0.500000 0.514540
O O12 0.250000 0.750000 0.500000
O O13 0.819758 0.258340 0.860380
O O14 0.797551 0.000000 0.923782
O O15 0.750000 0.250000 0.000000
O O16 0.645934 0.163175 0.975709
O O17 0.514490 0.000000 0.935815
O O18 0.500000 0.253129 0.000000
O O19 0.913165 0.500000 0.785088
#
# Coordination Sequence:
#
# PCOD8101563 Si02
#       7
#     8   8   8   8   8   8   8
#     4   9  17  31  51  77 106 142 186 227 270 324
#     4   9  18  33  56  82 111 145 185 232 278 325
#     4  10  21  36  57  85 112 142 185 234 279 325
#     4  10  20  36  58  86 116 147 184 227 276 333
#     4  11  21  36  58  83 111 146 188 234 283 330
#     4   9  18  31  51  79 108 139 184 233 269 317
#     4  11  22  37  56  81 114 147 186 229 279 339
#
# _framework density 19.313599
#
# number of rings (size 3 to 8) (size 9 to 14) (size 15 to 20)
#    0.000    2.143    1.429    2.143    2.000    3.429 
#    0.000    0.714    0.000    6.857    0.000    0.000 
#    0.000    0.000    0.000    0.000    0.000    0.000 
#
# Total GULP energy -347124.598989 kJ/mol
# GULP energy per Si atom -12397.307107 kJ/mol
# Density = 1.926964 g / cm^3
# Si number density = 19.313599 Si / 1000 Ang^3
#
#
#
# Elastic Constant Matrix: (Units=GPa)
#
#
# Indices 1 2 3 4 5 6 
#
# 1 171.2640 37.2420 86.6896 0.0000 11.9663 0.0001
# 2 37.2420 42.0869 39.9817 0.0001 3.1370 0.0000
# 3 86.6896 39.9817 151.4393 0.0000 2.5183 -0.0001
# 4 0.0000 0.0001 0.0000 26.5329 0.0000 3.9782
# 5 11.9663 3.1370 2.5183 0.0000 39.5457 0.0000
# 6 0.0001 0.0000 -0.0001 3.9782 0.0000 22.9322
#
#
#
# Elastic Compliance Matrix: (Units=1/GPa)
#
#
# Indices 1 2 3 4 5 6 
#
# 1 0.008861 -0.003868 -0.004016 0.000000 -0.002119 0.000000
# 2 -0.003868 0.033559 -0.006628 0.000000 -0.001070 0.000000
# 3 -0.004016 -0.006628 0.010634 0.000000 0.001064 0.000000
# 4 0.000000 0.000000 0.000000 0.038695 0.000000 -0.006713
# 5 -0.002119 -0.001070 0.001064 0.000000 0.025945 0.000000
# 6 0.000000 0.000000 0.000000 -0.006713 0.000000 0.044771
#
#
# Mechanical properties :
#
#
# Convention : Reuss Voigt Hill
#
# Bulk Modulus (GPa) = 41.61346 76.95742 59.28544
# Shear Modulus (GPa) = 25.06259 31.19396 28.12827
#
# Velocity S-wave (km/s) = 3.60622 4.02323 3.82042
# Velocity P-wave (km/s) = 6.23961 7.84312 7.08686
#
# Compressibility (1/GPa) = 0.02403069
#
# Stress axis : x y z
#
# Youngs Moduli (GPa) = 112.85689 29.79806 94.03494
#
# Poissons Ratio (x) = 0.11525 0.37763
# Poissons Ratio (y) = 0.43651 0.62328
# Poissons Ratio (z) = 0.45322 0.19751
#
# Static dielectric constant tensor:
#      x y z
#    x 3.616760 0.000000 0.054370 
#    y 0.000000 3.271090 0.000000 
#    z 0.054370 0.000000 3.683810 
# 
# 
# High freq. dielectric constant tensor:
#      x y z
#    x 1.766810 0.000000 0.001830 
#    y 0.000000 1.703080 0.000000 
#    z 0.001830 0.000000 1.770260 
# 
# From -- ./inp_files/342296.got.cif
#   From: 2010.06.25/outbox.cif.g09.slc.cpg/sg12_172_cif.got.tgz:342296.got - 2010.06.28 00:19:55.
