data_PCOD8101448
_publ_section_title
;
Structure prediction by ZEFSAII (Michael W. Deem and Ramdas Pophale) SiO2 
 PCOD8101448
Probable space group: C 2/M
;
_chemical_formula_sum "Si O2"
_cell_formula_units_Z 56
_cell_length_a 17.995842
_cell_length_b 10.406014
_cell_length_c 18.058986
_cell_angle_alpha 90.000000
_cell_angle_beta 126.903103
_cell_angle_gamma 90.000000
_cell_volume 2704.276178
_symmetry_space_group_name_H-M "C 2/M"
_symmetry_group_IT_number 12
_symmetry_cell_setting 'monoclinic'
loop_
_space_group_symop_operation_xyz
x,y,z
-x,y,-z
-x,-y,-z
x,-y,z
1/2+x,1/2+y,z
1/2-x,1/2+y,-z
1/2-x,1/2-y,-z
1/2+x,1/2-y,z
loop_
_atom_site_type_symbol
_atom_site_label
_atom_site_fract_x
_atom_site_fract_y
_atom_site_fract_z
Si Si1 0.101503 0.351576 0.526437
Si Si2 0.121147 0.646188 0.808653
Si Si3 0.417330 0.850018 0.655910
Si Si4 0.789439 0.723715 0.835197
Si Si5 0.540606 0.363776 0.104423
Si Si6 0.250185 0.855817 0.657529
Si Si7 0.594534 0.142217 0.953940
O O1 0.134069 0.500000 0.558271
O O2 0.103153 0.315602 0.441054
O O3 0.168229 0.248826 0.605452
O O4 0.000000 0.332719 0.500000
O O5 0.123053 0.500000 0.779988
O O6 0.189074 0.729522 0.799877
O O7 0.154893 0.651526 0.914699
O O8 0.017908 0.706930 0.738612
O O9 0.335264 0.796914 0.659684
O O10 0.422624 0.000000 0.673249
O O11 0.849431 0.841031 0.837887
O O12 0.777620 0.625490 0.760186
O O13 0.842474 0.661391 0.936499
O O14 0.525578 0.500000 0.139117
O O15 0.489200 0.242041 0.109067
O O16 0.500000 0.382672 0.000000
O O17 0.221615 0.000000 0.612120
O O18 0.549248 0.000000 0.932321
#
# Coordination Sequence:
#
# PCOD8101448 Si02
#       7
#     8   8   8   8   8   8   8
#     4  10  21  39  64  90 115 147 191 239 285 338
#     4  10  20  36  58  83 112 150 194 240 290 340
#     4   9  19  37  59  84 115 150 190 236 286 341
#     4  11  21  34  55  83 117 153 193 238 285 340
#     4   9  19  34  53  78 108 145 190 237 283 333
#     4  11  23  38  59  87 120 155 189 231 285 343
#     4  10  21  37  58  82 112 153 196 238 288 345
#
# _framework density 20.707944000000001
#
# number of rings (size 3 to 8) (size 9 to 14) (size 15 to 20)
#    0.000    2.000    0.000    3.429    0.000    7.429 
#    0.000    1.429    0.000    2.571    0.000    0.000 
#    0.000    0.000    0.000    0.000    0.000    0.000 
#
# Total GULP energy -346962.990389 kJ/mol
# GULP energy per Si atom -12391.535371 kJ/mol
# Density = 2.066081 g / cm^3
# Si number density = 20.707944 Si / 1000 Ang^3
#
#
#
# Elastic Constant Matrix: (Units=GPa)
#
#
# Indices 1 2 3 4 5 6 
#
# 1 133.5735 53.5979 42.0549 0.0000 2.8420 0.0000
# 2 53.5979 120.6759 30.0941 0.0000 11.1809 0.0000
# 3 42.0549 30.0941 87.8483 0.0000 -3.0496 0.0000
# 4 0.0000 0.0000 0.0000 34.1899 0.0000 0.3668
# 5 2.8420 11.1809 -3.0496 0.0000 36.6569 0.0000
# 6 0.0000 0.0000 0.0000 0.3668 0.0000 29.2366
#
#
#
# Elastic Compliance Matrix: (Units=1/GPa)
#
#
# Indices 1 2 3 4 5 6 
#
# 1 0.010048 -0.003569 -0.003587 0.000000 0.000011 0.000000
# 2 -0.003569 0.010677 -0.002058 0.000000 -0.003151 0.000000
# 3 -0.003587 -0.002058 0.013877 0.000000 0.002060 0.000000
# 4 0.000000 0.000000 0.000000 0.029252 0.000000 -0.000367
# 5 0.000011 -0.003151 0.002060 0.000000 0.028412 0.000000
# 6 0.000000 0.000000 0.000000 -0.000367 0.000000 0.034208
#
#
# Mechanical properties :
#
#
# Convention : Reuss Voigt Hill
#
# Bulk Modulus (GPa) = 61.83201 65.95461 63.89331
# Shear Modulus (GPa) = 33.26797 34.44008 33.85403
#
# Velocity S-wave (km/s) = 4.01250 4.08258 4.04769
# Velocity P-wave (km/s) = 7.16874 7.35815 7.26406
#
# Compressibility (1/GPa) = 0.01617285
#
# Stress axis : x y z
#
# Youngs Moduli (GPa) = 99.52402 93.65739 72.06108
#
# Poissons Ratio (x) = 0.33429 0.25848
# Poissons Ratio (y) = 0.35522 0.14833
# Poissons Ratio (z) = 0.35699 0.19278
#
# Static dielectric constant tensor:
#      x y z
#    x 3.842880 0.000000 -0.078210 
#    y 0.000000 4.005600 0.000000 
#    z -0.078210 0.000000 3.803370 
# 
# 
# High freq. dielectric constant tensor:
#      x y z
#    x 1.814340 0.000000 -0.008150 
#    y 0.000000 1.793900 0.000000 
#    z -0.008150 0.000000 1.805200 
# 
# From -- ./inp_files/277081.got.cif
#   From: 2010.06.25/outbox.cif.g09.slc.cpg/sg12_139_cif.got.tgz:277081.got - 2010.06.28 00:19:55.
