data_PCOD8101902
_publ_section_title
;
Structure prediction by ZEFSAII (Michael W. Deem and Ramdas Pophale) SiO2 
 PCOD8101902
Probable space group: C 2/M
;
_chemical_formula_sum "Si O2"
_cell_formula_units_Z 64
_cell_length_a 18.616680
_cell_length_b 14.628353
_cell_length_c 17.085237
_cell_angle_alpha 90.000000
_cell_angle_beta 138.020106
_cell_angle_gamma 90.000000
_cell_volume 3112.148060
_symmetry_space_group_name_H-M "C 2/M"
_symmetry_group_IT_number 12
_symmetry_cell_setting 'monoclinic'
loop_
_space_group_symop_operation_xyz
x,y,z
-x,y,-z
-x,-y,-z
x,-y,z
1/2+x,1/2+y,z
1/2-x,1/2+y,-z
1/2-x,1/2-y,-z
1/2+x,1/2-y,z
loop_
_atom_site_type_symbol
_atom_site_label
_atom_site_fract_x
_atom_site_fract_y
_atom_site_fract_z
Si Si1 0.787084 0.777315 0.205574
Si Si2 0.079551 0.248439 0.132543
Si Si3 0.724964 0.393055 0.527396
Si Si4 0.837209 0.896843 0.106044
Si Si5 0.666164 0.897995 0.836624
Si Si6 0.377659 0.598667 0.398601
Si Si7 0.916918 0.107518 0.731235
Si Si8 0.958731 0.394063 0.770294
O O1 0.681501 0.788074 0.171006
O O2 0.776360 0.825167 0.112397
O O3 0.823121 0.672034 0.226446
O O4 0.875339 0.832940 0.324170
O O5 0.108437 0.161398 0.209569
O O6 0.032835 0.331718 0.145958
O O7 0.000000 0.215599 0.000000
O O8 0.701600 0.500000 0.506976
O O9 0.669661 0.353486 0.561298
O O10 0.666509 0.354023 0.402142
O O11 0.852131 0.370427 0.632724
O O12 0.961593 0.869573 0.196449
O O13 0.828329 0.000000 0.132883
O O14 0.776503 0.891069 0.974444
O O15 0.562694 0.871139 0.803504
O O16 0.652298 0.000000 0.791009
O O17 0.500000 0.573982 0.500000
O O18 0.317572 0.500000 0.336036
O O19 0.901935 0.000000 0.735571
O O20 0.957739 0.500000 0.795741
#
# Coordination Sequence:
#
# PCOD8101902 Si02
#       8
#     8   8   8   8   8   8   8   8
#     4  12  22  36  57  88 122 154 193 247 301 362
#     4  12  25  38  58  92 126 158 195 246 307 361
#     4   9  18  37  62  86 114 151 199 244 295 356
#     4  10  20  37  62  88 115 153 207 258 301 352
#     4  10  22  39  59  83 117 167 210 243 286 350
#     4  10  20  36  59  90 122 147 184 247 312 358
#     4  10  22  41  64  88 116 159 206 251 298 353
#     4  10  21  40  61  85 119 160 201 244 293 360
#
# _framework density 20.564574
#
# number of rings (size 3 to 8) (size 9 to 14) (size 15 to 20)
#    0.000    1.625    1.250    3.750    0.000    4.000 
#    2.250    0.000    0.000    0.375    0.000    0.000 
#    0.000    0.000    0.000    0.000    0.000    0.000 
#
# Total GULP energy -396740.348748 kJ/mol
# GULP energy per Si atom -12398.135898 kJ/mol
# Density = 2.051777 g / cm^3
# Si number density = 20.564574 Si / 1000 Ang^3
#
#
#
# Elastic Constant Matrix: (Units=GPa)
#
#
# Indices 1 2 3 4 5 6 
#
# 1 43.0051 11.6892 24.5564 0.0000 1.5452 0.0000
# 2 11.6892 90.5978 34.2894 0.0000 -19.9396 0.0000
# 3 24.5564 34.2894 114.9820 0.0000 -5.4208 0.0000
# 4 0.0000 0.0000 0.0000 44.5110 0.0000 -14.0443
# 5 1.5452 -19.9396 -5.4208 0.0000 31.9155 0.0000
# 6 0.0000 0.0000 0.0000 -14.0443 0.0000 25.5661
#
#
#
# Elastic Compliance Matrix: (Units=1/GPa)
#
#
# Indices 1 2 3 4 5 6 
#
# 1 0.027008 -0.002296 -0.005255 0.000000 -0.003634 0.000000
# 2 -0.002296 0.014528 -0.003437 0.000000 0.008604 0.000000
# 3 -0.005255 -0.003437 0.010842 0.000000 -0.000051 0.000000
# 4 0.000000 0.000000 0.000000 0.027177 0.000000 0.014929
# 5 -0.003634 0.008604 -0.000051 0.000000 0.036876 0.000000
# 6 0.000000 0.000000 0.000000 0.014929 0.000000 0.047315
#
#
# Mechanical properties :
#
#
# Convention : Reuss Voigt Hill
#
# Bulk Modulus (GPa) = 32.89049 43.29499 38.09274
# Shear Modulus (GPa) = 25.52905 32.26851 28.89878
#
# Velocity S-wave (km/s) = 3.52719 3.96552 3.75276
# Velocity P-wave (km/s) = 5.71109 6.48584 6.11075
#
# Compressibility (1/GPa) = 0.03040393
#
# Stress axis : x y z
#
# Youngs Moduli (GPa) = 37.02578 68.83054 92.23639
#
# Poissons Ratio (x) = 0.15802 0.48468
# Poissons Ratio (y) = 0.08500 0.31698
# Poissons Ratio (z) = 0.19456 0.23655
#
# Static dielectric constant tensor:
#      x y z
#    x 3.620220 0.000000 0.126520 
#    y 0.000000 3.774060 0.000000 
#    z 0.126520 0.000000 4.412100 
# 
# 
# High freq. dielectric constant tensor:
#      x y z
#    x 1.800530 0.000000 0.009740 
#    y 0.000000 1.807330 0.000000 
#    z 0.009740 0.000000 1.795960 
# 
# From -- ./inp_files/225735.got.cif
#   From: 2010.06.25/outbox.cif.g09.slc.cpg/sg12_113_cif.got.tgz:225735.got - 2010.06.28 00:19:55.
