data_PCOD8101239
_publ_section_title
;
Structure prediction by ZEFSAII (Michael W. Deem and Ramdas Pophale) SiO2 
 PCOD8101239
Probable space group: C 2/M
;
_chemical_formula_sum "Si O2"
_cell_formula_units_Z 56
_cell_length_a 30.328490
_cell_length_b 8.430768
_cell_length_c 19.488300
_cell_angle_alpha 90.000000
_cell_angle_beta 143.679575
_cell_angle_gamma 90.000000
_cell_volume 2951.439867
_symmetry_space_group_name_H-M "C 2/M"
_symmetry_group_IT_number 12
_symmetry_cell_setting 'monoclinic'
loop_
_space_group_symop_operation_xyz
x,y,z
-x,y,-z
-x,-y,-z
x,-y,z
1/2+x,1/2+y,z
1/2-x,1/2+y,-z
1/2-x,1/2-y,-z
1/2+x,1/2-y,z
loop_
_atom_site_type_symbol
_atom_site_label
_atom_site_fract_x
_atom_site_fract_y
_atom_site_fract_z
Si Si1 0.695544 0.318067 0.251182
Si Si2 0.556763 0.815130 0.012519
Si Si3 0.578275 0.174235 0.635478
Si Si4 0.676326 0.815622 0.373432
Si Si5 0.989215 0.311515 0.649661
Si Si6 0.021263 0.815096 0.216607
Si Si7 0.152329 0.817608 0.605721
O O1 0.690122 0.500000 0.267657
O O2 0.679096 0.206987 0.295499
O O3 0.776346 0.287323 0.321599
O O4 0.633849 0.279976 0.116387
O O5 0.522570 0.782227 0.895625
O O6 0.573441 0.000000 0.041455
O O7 0.500000 0.755812 0.000000
O O8 0.500000 0.159485 0.500000
O O9 0.559672 0.234288 0.689221
O O10 0.631186 0.292574 0.659451
O O11 0.616181 0.000000 0.684703
O O12 0.750000 0.750000 0.500000
O O13 0.608699 0.720167 0.322094
O O14 0.666118 0.000000 0.377724
O O15 0.977361 0.500000 0.636674
O O16 0.009521 0.242169 0.748931
O O17 0.913794 0.232505 0.527594
O O18 0.006211 0.000000 0.187554
O O19 0.171813 0.000000 0.617788
#
# Coordination Sequence:
#
# PCOD8101239 Si02
#       7
#     8   8   8   8   8   8   8
#     4  12  24  39  59  82 111 147 189 234 278 332
#     4  11  23  41  63  83 108 145 190 237 280 330
#     4   8  16  32  54  80 112 150 188 227 276 334
#     4  12  24  39  56  80 113 148 184 227 281 335
#     4  10  20  36  57  83 117 153 189 231 281 335
#     4  12  24  38  58  84 113 147 188 232 278 333
#     4  11  21  34  55  85 119 151 187 231 282 338
#
# _framework density 18.973790000000001
#
# number of rings (size 3 to 8) (size 9 to 14) (size 15 to 20)
#    0.000    1.143    1.429    7.714    0.000    3.714 
#    0.000    0.000    0.000    0.857    0.000    0.000 
#    0.000    0.000    0.000    0.000    0.000    0.000 
#
# Total GULP energy -347306.719395 kJ/mol
# GULP energy per Si atom -12403.811407 kJ/mol
# Density = 1.893060 g / cm^3
# Si number density = 18.973790 Si / 1000 Ang^3
#
#
#
# Elastic Constant Matrix: (Units=GPa)
#
#
# Indices 1 2 3 4 5 6 
#
# 1 98.6898 19.1651 18.8724 0.0000 -25.4389 0.0000
# 2 19.1651 83.6288 13.6718 0.0000 -1.5345 0.0000
# 3 18.8724 13.6718 67.7699 0.0000 -18.5578 0.0000
# 4 0.0000 0.0000 0.0000 29.4594 0.0000 -1.3741
# 5 -25.4389 -1.5345 -18.5578 0.0000 20.4689 0.0000
# 6 0.0000 0.0000 0.0000 -1.3741 0.0000 29.5044
#
#
#
# Elastic Compliance Matrix: (Units=1/GPa)
#
#
# Indices 1 2 3 4 5 6 
#
# 1 0.015978 -0.003624 0.002188 0.000000 0.021570 0.000000
# 2 -0.003624 0.013236 -0.003489 0.000000 -0.006674 0.000000
# 3 0.002188 -0.003489 0.020650 0.000000 0.021180 0.000000
# 4 0.000000 0.000000 0.000000 0.034019 0.000000 0.001584
# 5 0.021570 -0.006674 0.021180 0.000000 0.094364 0.000000
# 6 0.000000 0.000000 0.000000 0.001584 0.000000 0.033967
#
#
# Mechanical properties :
#
#
# Convention : Reuss Voigt Hill
#
# Bulk Modulus (GPa) = 24.99029 39.27856 32.13442
# Shear Modulus (GPa) = 21.24034 29.11181 25.17607
#
# Velocity S-wave (km/s) = 3.34946 3.92129 3.64660
# Velocity P-wave (km/s) = 5.30642 6.42249 5.89094
#
# Compressibility (1/GPa) = 0.04001555
#
# Stress axis : x y z
#
# Youngs Moduli (GPa) = 62.58618 75.55212 48.42578
#
# Poissons Ratio (x) = 0.27377 -0.10596
# Poissons Ratio (y) = 0.22679 0.16894
# Poissons Ratio (z) = -0.13694 0.26358
#
# Static dielectric constant tensor:
#      x y z
#    x 3.802620 0.000000 -0.123590 
#    y 0.000000 3.531220 0.000000 
#    z -0.123590 0.000000 3.321430 
# 
# 
# High freq. dielectric constant tensor:
#      x y z
#    x 1.742550 0.000000 -0.008340 
#    y 0.000000 1.750140 0.000000 
#    z -0.008340 0.000000 1.712540 
# 
# From -- ./inp_files/292591.got.cif
#   From: 2010.06.25/outbox.cif.g09.slc.cpg/sg12_147_cif.got.tgz:292591.got - 2010.06.28 00:19:55.
