data_PCOD8101871
_publ_section_title
;
Structure prediction by ZEFSAII (Michael W. Deem and Ramdas Pophale) SiO2 
 PCOD8101871
Probable space group: C 2/M
;
_chemical_formula_sum "Si O2"
_cell_formula_units_Z 64
_cell_length_a 16.090826
_cell_length_b 8.707034
_cell_length_c 27.165819
_cell_angle_alpha 90.000000
_cell_angle_beta 53.654033
_cell_angle_gamma 90.000000
_cell_volume 3065.572703
_symmetry_space_group_name_H-M "C 2/M"
_symmetry_group_IT_number 12
_symmetry_cell_setting 'monoclinic'
loop_
_space_group_symop_operation_xyz
x,y,z
-x,y,-z
-x,-y,-z
x,-y,z
1/2+x,1/2+y,z
1/2-x,1/2+y,-z
1/2-x,1/2-y,-z
1/2+x,1/2-y,z
loop_
_atom_site_type_symbol
_atom_site_label
_atom_site_fract_x
_atom_site_fract_y
_atom_site_fract_z
Si Si1 0.638595 0.826678 0.266525
Si Si2 0.070030 0.817306 0.930340
Si Si3 0.477192 0.681413 0.860514
Si Si4 0.802375 0.318964 0.861197
Si Si5 0.092722 0.324131 0.504369
Si Si6 0.276725 0.177114 0.382649
Si Si7 0.452978 0.322741 0.377740
Si Si8 0.673219 0.673516 0.733195
O O1 0.637637 0.774813 0.210083
O O2 0.571757 0.713030 0.323903
O O3 0.756562 0.819223 0.242917
O O4 0.595935 0.000000 0.287502
O O5 0.185781 0.752425 0.899041
O O6 0.017644 0.752434 0.898616
O O7 0.075480 0.000000 0.924944
O O8 0.000000 0.760861 0.000000
O O9 0.466199 0.500000 0.868106
O O10 0.365607 0.749192 0.884978
O O11 0.559571 0.727893 0.789316
O O12 0.797841 0.500000 0.870071
O O13 0.099366 0.500000 0.520097
O O14 0.197555 0.281629 0.440368
O O15 0.074475 0.213669 0.556571
O O16 0.000000 0.297699 0.500000
O O17 0.389363 0.214420 0.363572
O O18 0.277166 0.215911 0.324911
O O19 0.247665 0.000000 0.400215
O O20 0.428623 0.500000 0.376306
O O21 0.669912 0.500000 0.713120
#
# Coordination Sequence:
#
# PCOD8101871 Si02
#       8
#     8   8   8   8   8   8   8   8
#     4  10  20  37  60  85 117 155 197 244 299 361
#     4   9  18  36  61  87 119 162 207 246 295 363
#     4  10  20  36  59  88 120 159 203 251 302 359
#     4  10  20  36  59  88 120 159 203 251 302 359
#     4  11  24  43  64  85 113 151 192 237 296 359
#     4  12  25  40  59  85 117 152 194 244 297 354
#     4  12  25  40  59  85 117 152 194 244 297 354
#     4  10  20  37  60  85 117 155 197 244 299 361
#
# _framework density 20.877013999999999
#
# number of rings (size 3 to 8) (size 9 to 14) (size 15 to 20)
#    0.000    1.500    1.250    4.500    0.000    8.000 
#    0.000    0.625    0.000    0.750    0.000    0.000 
#    0.000    0.000    0.000    0.000    0.000    0.000 
#
# Total GULP energy -396896.028765 kJ/mol
# GULP energy per Si atom -12403.000899 kJ/mol
# Density = 2.082950 g / cm^3
# Si number density = 20.877014 Si / 1000 Ang^3
#
#
#
# Elastic Constant Matrix: (Units=GPa)
#
#
# Indices 1 2 3 4 5 6 
#
# 1 133.5022 28.4105 56.4333 0.0000 -3.0936 0.0003
# 2 28.4105 49.2714 23.2284 0.0000 4.0623 0.0010
# 3 56.4333 23.2284 115.6357 0.0000 1.6660 0.0000
# 4 0.0000 0.0000 0.0000 16.2784 0.0000 -1.7698
# 5 -3.0936 4.0623 1.6660 0.0000 28.8124 0.0000
# 6 0.0003 0.0010 0.0000 -1.7698 0.0000 34.2917
#
#
#
# Elastic Compliance Matrix: (Units=1/GPa)
#
#
# Indices 1 2 3 4 5 6 
#
# 1 0.010160 -0.004048 -0.004173 0.000000 0.001903 0.000000
# 2 -0.004048 0.024277 -0.002848 0.000000 -0.003693 -0.000001
# 3 -0.004173 -0.002848 0.011266 0.000000 -0.000698 0.000000
# 4 0.000000 0.000000 0.000000 0.061778 0.000000 0.003188
# 5 0.001903 -0.003693 -0.000698 0.000000 0.035473 0.000000
# 6 0.000000 -0.000001 0.000000 0.003188 0.000000 0.029326
#
#
# Mechanical properties :
#
#
# Convention : Reuss Voigt Hill
#
# Bulk Modulus (GPa) = 42.43381 57.17263 49.80322
# Shear Modulus (GPa) = 24.71917 28.56563 26.64240
#
# Velocity S-wave (km/s) = 3.44472 3.70304 3.57621
# Velocity P-wave (km/s) = 6.01591 6.76227 6.39998
#
# Compressibility (1/GPa) = 0.02356611
#
# Stress axis : x y z
#
# Youngs Moduli (GPa) = 98.42638 41.19129 88.76041
#
# Poissons Ratio (x) = 0.16675 0.37036
# Poissons Ratio (y) = 0.39844 0.25278
# Poissons Ratio (z) = 0.41069 0.11731
#
# Static dielectric constant tensor:
#      x y z
#    x 3.937750 0.000000 -0.035570 
#    y 0.000000 3.470950 0.000000 
#    z -0.035570 0.000000 3.667540 
# 
# 
# High freq. dielectric constant tensor:
#      x y z
#    x 1.831070 0.000000 -0.002000 
#    y 0.000000 1.791020 0.000000 
#    z -0.002000 0.000000 1.818740 
# 
# From -- ./inp_files/375398.got.cif
#   From: 2010.06.25/outbox.cif.g09.slc.cpg/sg12_188_cif.got.tgz:375398.got - 2010.06.28 00:19:55.
