data_PCOD8101788
_publ_section_title
;
Structure prediction by ZEFSAII (Michael W. Deem and Ramdas Pophale) SiO2 
 PCOD8101788
Probable space group: C 2/M
;
_chemical_formula_sum "Si O2"
_cell_formula_units_Z 56
_cell_length_a 8.719208
_cell_length_b 18.011849
_cell_length_c 28.257344
_cell_angle_alpha 90.000000
_cell_angle_beta 140.481683
_cell_angle_gamma 90.000000
_cell_volume 2823.875670
_symmetry_space_group_name_H-M "C 2/M"
_symmetry_group_IT_number 12
_symmetry_cell_setting 'monoclinic'
loop_
_space_group_symop_operation_xyz
x,y,z
-x,y,-z
-x,-y,-z
x,-y,z
1/2+x,1/2+y,z
1/2-x,1/2+y,-z
1/2-x,1/2-y,-z
1/2+x,1/2-y,z
loop_
_atom_site_type_symbol
_atom_site_label
_atom_site_fract_x
_atom_site_fract_y
_atom_site_fract_z
Si Si1 0.892088 0.329763 0.784658
Si Si2 0.872670 0.085048 0.921332
Si Si3 0.326841 0.911587 0.500001
Si Si4 0.550344 0.911854 0.650639
Si Si5 0.968799 0.170237 0.215341
Si Si6 0.702849 0.588146 0.650639
Si Si7 0.766019 0.085047 0.078670
O O1 0.149702 0.361600 0.860108
O O2 0.918677 0.250000 0.767472
O O3 0.733953 0.323712 0.793582
O O4 0.762306 0.383377 0.716745
O O5 0.059391 0.096259 0.923757
O O6 0.782165 0.000000 0.902655
O O7 0.000000 0.109147 0.000000
O O8 0.500000 0.880714 0.500000
O O9 0.420664 0.881328 0.572617
O O10 0.057581 0.881330 0.427385
O O11 0.326956 0.000000 0.500003
O O12 0.401827 0.882920 0.660731
O O13 0.821424 0.883380 0.716748
O O14 0.559181 0.000000 0.652158
O O15 0.849165 0.138402 0.139891
O O16 0.701617 0.500000 0.652163
O O17 0.768920 0.000000 0.097352
O O18 0.500000 0.109141 0.000000
#
# Coordination Sequence:
#
# PCOD8101788 Si02
#       7
#     8   8   8   8   8   8   8
#     4  12  25  40  58  82 115 153 193 235 283 338
#     4  10  21  39  63  90 118 148 186 232 281 334
#     4   9  17  31  54  85 116 147 188 235 281 331
#     4  10  20  36  59  86 116 150 189 234 284 337
#     4  12  25  40  58  82 115 153 193 235 283 338
#     4  10  20  36  59  86 116 150 189 234 284 337
#     4  10  21  39  63  90 118 148 186 232 281 334
#
# _framework density 19.830901000000001
#
# number of rings (size 3 to 8) (size 9 to 14) (size 15 to 20)
#    0.000    1.571    0.000    5.571    0.000    9.143 
#    0.000    3.571    0.000    0.000    0.000    0.000 
#    0.000    0.000    0.000    0.000    0.000    0.000 
#
# Total GULP energy -347343.788667 kJ/mol
# GULP energy per Si atom -12405.135310 kJ/mol
# Density = 1.978577 g / cm^3
# Si number density = 19.830901 Si / 1000 Ang^3
#
#
#
# Elastic Constant Matrix: (Units=GPa)
#
#
# Indices 1 2 3 4 5 6 
#
# 1 103.3310 26.0143 45.7815 -0.0001 1.3584 0.0001
# 2 26.0143 31.8498 24.3443 -0.0061 -0.0885 -0.0015
# 3 45.7815 24.3443 133.3242 -0.0075 0.1529 -0.0027
# 4 -0.0001 -0.0061 -0.0075 -9.2840 -0.0054 -1.9557
# 5 1.3584 -0.0885 0.1529 -0.0054 42.1183 -0.0013
# 6 0.0001 -0.0015 -0.0027 -1.9557 -0.0013 29.2080
#
#
#
# Elastic Compliance Matrix: (Units=1/GPa)
#
#
# Indices 1 2 3 4 5 6 
#
# 1 0.013125 -0.008457 -0.002962 0.000008 -0.000430 0.000000
# 2 -0.008457 0.041940 -0.004754 -0.000024 0.000378 0.000000
# 3 -0.002962 -0.004754 0.009386 -0.000005 0.000051 0.000000
# 4 0.000008 -0.000024 -0.000005 -0.106214 -0.000014 -0.007112
# 5 -0.000430 0.000378 0.000051 -0.000014 0.023757 0.000000
# 6 0.000000 0.000000 0.000000 -0.007112 0.000000 0.033761
#
#
# Mechanical properties :
#
#
# Convention : Reuss Voigt Hill
#
# Bulk Modulus (GPa) = 31.14950 51.19834 41.17392
# Shear Modulus (GPa) = 85.02898 23.89943 54.46420
#
# Velocity S-wave (km/s) = 6.55516 3.47531 5.24633
# Velocity P-wave (km/s) = 8.54606 6.47898 7.58328
#
# Compressibility (1/GPa) = 0.03210324
#
# Stress axis : x y z
#
# Youngs Moduli (GPa) = 76.19121 23.84346 106.54464
#
# Poissons Ratio (x) = 0.20165 0.31560
# Poissons Ratio (y) = 0.64437 0.50655
# Poissons Ratio (z) = 0.22569 0.11336
#
# Static dielectric constant tensor:
#      x y z
#    x 3.851460 0.000000 -0.005190 
#    y 0.000000 3.407890 0.000000 
#    z -0.005190 0.000000 3.749510 
# 
# 
# High freq. dielectric constant tensor:
#      x y z
#    x 1.793570 0.000000 -0.000120 
#    y 0.000000 1.749250 0.000000 
#    z -0.000120 0.000000 1.791330 
# 
# From -- ./inp_files/257132.got.cif
#   From: 2010.06.25/outbox.cif.g09.slc.cpg/sg12_129_cif.got.tgz:257132.got - 2010.06.28 00:19:55.
