data_PCOD8101403
_publ_section_title
;
Structure prediction by ZEFSAII (Michael W. Deem and Ramdas Pophale) SiO2 
 PCOD8101403
Probable space group: C 2/M
;
_chemical_formula_sum "Si O2"
_cell_formula_units_Z 48
_cell_length_a 17.928897
_cell_length_b 8.793395
_cell_length_c 15.566361
_cell_angle_alpha 90.000000
_cell_angle_beta 90.181307
_cell_angle_gamma 90.000000
_cell_volume 2454.115949
_symmetry_space_group_name_H-M "C 2/M"
_symmetry_group_IT_number 12
_symmetry_cell_setting 'monoclinic'
loop_
_space_group_symop_operation_xyz
x,y,z
-x,y,-z
-x,-y,-z
x,-y,z
1/2+x,1/2+y,z
1/2-x,1/2+y,-z
1/2-x,1/2-y,-z
1/2+x,1/2-y,z
loop_
_atom_site_type_symbol
_atom_site_label
_atom_site_fract_x
_atom_site_fract_y
_atom_site_fract_z
Si Si1 0.710947 0.680288 0.917585
Si Si2 0.792675 0.678500 0.420974
Si Si3 0.787699 0.180236 0.753268
Si Si4 0.547902 0.676379 0.584659
Si Si5 0.457309 0.680538 0.748329
Si Si6 0.958795 0.181017 0.084136
O O1 0.714557 0.500000 0.923972
O O2 0.751062 0.734974 0.832408
O O3 0.625925 0.739035 0.915161
O O4 0.750000 0.750000 0.000000
O O5 0.785851 0.500000 0.430439
O O6 0.750000 0.750000 0.500000
O O7 0.754902 0.732649 0.332422
O O8 0.878003 0.726455 0.422139
O O9 0.872541 0.238313 0.745835
O O10 0.783222 0.000000 0.768355
O O11 0.500000 0.702433 0.500000
O O12 0.569386 0.500000 0.596578
O O13 0.500384 0.739637 0.664499
O O14 0.457945 0.500000 0.748977
O O15 0.498595 0.746510 0.832455
O O16 0.961650 0.000000 0.084712
O O17 0.000000 0.245601 0.000000
#
# Coordination Sequence:
#
# PCOD8101403 Si02
#       6
#     8   8   8   8   8   8
#     4  11  22  36  57  84 113 146 185 232 284 338
#     4  11  23  38  58  85 118 154 192 237 290 347
#     4  10  21  38  59  83 112 147 187 232 283 338
#     4  10  20  36  58  82 110 147 192 237 282 338
#     4   9  17  32  55  79 104 139 184 230 274 327
#     4   9  17  30  51  77 102 134 179 225 266 317
#
# _framework density 19.558976999999999
#
# number of rings (size 3 to 8) (size 9 to 14) (size 15 to 20)
#    0.000    2.000    0.000    4.000    0.000    8.333 
#    0.000    0.833    0.000   11.000    0.000    0.000 
#    0.000    0.000    0.000    0.000    0.000    0.000 
#
# Total GULP energy -297675.956417 kJ/mol
# GULP energy per Si atom -12403.164851 kJ/mol
# Density = 1.951446 g / cm^3
# Si number density = 19.558977 Si / 1000 Ang^3
#
#
#
# Elastic Constant Matrix: (Units=GPa)
#
#
# Indices 1 2 3 4 5 6 
#
# 1 156.6566 29.7662 80.8930 0.0000 -12.3113 0.0000
# 2 29.7662 37.4709 39.3439 0.0000 0.2020 0.0000
# 3 80.8930 39.3439 187.8591 0.0000 -11.1030 0.0000
# 4 0.0000 0.0000 0.0000 20.5318 0.0000 -7.1895
# 5 -12.3113 0.2020 -11.1030 0.0000 44.8699 0.0000
# 6 0.0000 0.0000 0.0000 -7.1895 0.0000 27.6570
#
#
#
# Elastic Compliance Matrix: (Units=1/GPa)
#
#
# Indices 1 2 3 4 5 6 
#
# 1 0.008734 -0.003980 -0.002826 0.000000 0.001715 0.000000
# 2 -0.003980 0.036194 -0.006029 0.000000 -0.002747 0.000000
# 3 -0.002826 -0.006029 0.007873 0.000000 0.001200 0.000000
# 4 0.000000 0.000000 0.000000 0.053582 0.000000 0.013929
# 5 0.001715 -0.002747 0.001200 0.000000 0.023067 0.000000
# 6 0.000000 0.000000 0.000000 0.013929 0.000000 0.039778
#
#
# Mechanical properties :
#
#
# Convention : Reuss Voigt Hill
#
# Bulk Modulus (GPa) = 36.85695 75.77698 56.31697
# Shear Modulus (GPa) = 24.51690 34.07730 29.29710
#
# Velocity S-wave (km/s) = 3.54430 4.17860 3.87445
# Velocity P-wave (km/s) = 5.96945 7.88085 6.99078
#
# Compressibility (1/GPa) = 0.02713192
#
# Stress axis : x y z
#
# Youngs Moduli (GPa) = 114.50069 27.62894 127.00840
#
# Poissons Ratio (x) = 0.10996 0.35890
# Poissons Ratio (y) = 0.45571 0.76570
# Poissons Ratio (z) = 0.32356 0.16657
#
# Static dielectric constant tensor:
#      x y z
#    x 3.781930 0.000000 -0.033390 
#    y 0.000000 3.215480 0.000000 
#    z -0.033390 0.000000 3.895210 
# 
# 
# High freq. dielectric constant tensor:
#      x y z
#    x 1.782330 0.000000 -0.000120 
#    y 0.000000 1.724380 0.000000 
#    z -0.000120 0.000000 1.785210 
# 
# From -- ./inp_files/221578.got.cif
#   From: 2010.06.25/outbox.cif.g09.slc.cpg/sg12_111_cif.got.tgz:221578.got - 2010.06.28 00:19:55.
