data_PCOD8101799
_publ_section_title
;
Structure prediction by ZEFSAII (Michael W. Deem and Ramdas Pophale) SiO2 
 PCOD8101799
Probable space group: C 2/M
;
_chemical_formula_sum "Si O2"
_cell_formula_units_Z 40
_cell_length_a 8.585517
_cell_length_b 10.550532
_cell_length_c 19.853493
_cell_angle_alpha 90.000000
_cell_angle_beta 97.150759
_cell_angle_gamma 90.000000
_cell_volume 1784.376981
_symmetry_space_group_name_H-M "C 2/M"
_symmetry_group_IT_number 12
_symmetry_cell_setting 'monoclinic'
loop_
_space_group_symop_operation_xyz
x,y,z
-x,y,-z
-x,-y,-z
x,-y,z
1/2+x,1/2+y,z
1/2-x,1/2+y,-z
1/2-x,1/2-y,-z
1/2+x,1/2-y,z
loop_
_atom_site_type_symbol
_atom_site_label
_atom_site_fract_x
_atom_site_fract_y
_atom_site_fract_z
Si Si1 0.570161 0.641059 0.863108
Si Si2 0.953951 0.141461 0.569363
Si Si3 0.743416 0.275411 0.659299
Si Si4 0.540750 0.141241 0.750346
Si Si5 0.633300 0.797045 0.049439
O O1 0.519554 0.500000 0.835227
O O2 0.552641 0.748326 0.805897
O O3 0.456654 0.680623 0.918469
O O4 0.756077 0.627560 0.892443
O O5 0.099642 0.136000 0.629255
O O6 0.000000 0.203944 0.500000
O O7 0.813820 0.220106 0.594400
O O8 0.892434 0.000000 0.553207
O O9 0.677242 0.162568 0.702798
O O10 0.870178 0.356964 0.706749
O O11 0.564310 0.000000 0.783022
O O12 0.500000 0.876708 0.000000
O O13 0.750000 0.750000 0.000000
#
# Coordination Sequence:
#
# PCOD8101799 Si02
#       5
#     8   8   8   8   8
#     4  11  24  41  64  94 125 158 202 253 302 356
#     4  10  20  36  59  86 117 154 197 247 303 361
#     4  10  22  38  59  86 119 156 202 251 300 356
#     4  11  24  41  61  87 122 163 205 249 301 360
#     4   9  21  41  63  91 123 157 194 243 300 357
#
# _framework density 22.416789000000001
#
# number of rings (size 3 to 8) (size 9 to 14) (size 15 to 20)
#    0.000    1.800    0.000    3.000    0.000   13.600 
#    0.000    6.000    0.000    9.600    0.000    0.000 
#    0.000    0.000    0.000    0.000    0.000    0.000 
#
# Total GULP energy -247792.797074 kJ/mol
# GULP energy per Si atom -12389.639854 kJ/mol
# Density = 2.236577 g / cm^3
# Si number density = 22.416789 Si / 1000 Ang^3
#
#
#
# Elastic Constant Matrix: (Units=GPa)
#
#
# Indices 1 2 3 4 5 6 
#
# 1 101.2803 20.9504 26.9628 0.0000 -9.3459 0.0000
# 2 20.9504 142.1825 45.1877 0.0000 -10.7545 0.0000
# 3 26.9628 45.1877 106.2873 0.0000 -10.5149 0.0000
# 4 0.0000 0.0000 0.0000 -180.7523 0.0000 -89.2028
# 5 -9.3459 -10.7545 -10.5149 0.0000 32.3589 0.0000
# 6 0.0000 0.0000 0.0000 -89.2028 0.0000 -29.1887
#
#
#
# Elastic Compliance Matrix: (Units=1/GPa)
#
#
# Indices 1 2 3 4 5 6 
#
# 1 0.010814 -0.000724 -0.002222 0.000000 0.002161 0.000000
# 2 -0.000724 0.008265 -0.003181 0.000000 0.001504 0.000000
# 3 -0.002222 -0.003181 0.011527 0.000000 0.002047 0.000000
# 4 0.000000 0.000000 0.000000 0.010886 0.000000 -0.033269
# 5 0.002161 0.001504 0.002047 0.000000 0.032692 0.000000
# 6 0.000000 0.000000 0.000000 -0.033269 0.000000 0.067414
#
#
# Mechanical properties :
#
#
# Convention : Reuss Voigt Hill
#
# Bulk Modulus (GPa) = 54.48996 59.55021 57.02009
# Shear Modulus (GPa) = 31.25583 -18.40646 6.42469
#
# Velocity S-wave (km/s) = 3.73809 -2.86860 1.69477
# Velocity P-wave (km/s) = 6.55679 3.95612 5.41491
#
# Compressibility (1/GPa) = 0.01835200
#
# Stress axis : x y z
#
# Youngs Moduli (GPa) = 92.47094 120.99661 86.75231
#
# Poissons Ratio (x) = 0.08759 0.19275
# Poissons Ratio (y) = 0.06694 0.27598
# Poissons Ratio (z) = 0.20545 0.38492
#
# Static dielectric constant tensor:
#      x y z
#    x 4.967270 0.000000 0.449690 
#    y 0.000000 3.653860 0.000000 
#    z 0.449690 0.000000 4.523190 
# 
# 
# High freq. dielectric constant tensor:
#      x y z
#    x 1.902950 0.000000 -0.003090 
#    y 0.000000 1.852370 0.000000 
#    z -0.003090 0.000000 1.891290 
# 
# From -- ./inp_files/254689.got.cif
#   From: 2010.06.25/outbox.cif.g09.slc.cpg/sg12_128_cif.got.tgz:254689.got - 2010.06.28 00:19:55.
