data_PCOD8101899
_publ_section_title
;
Structure prediction by ZEFSAII (Michael W. Deem and Ramdas Pophale) SiO2 
 PCOD8101899
Probable space group: C 2/M
;
_chemical_formula_sum "Si O2"
_cell_formula_units_Z 56
_cell_length_a 13.812830
_cell_length_b 18.138668
_cell_length_c 11.684216
_cell_angle_alpha 90.000000
_cell_angle_beta 59.897249
_cell_angle_gamma 90.000000
_cell_volume 2532.606240
_symmetry_space_group_name_H-M "C 2/M"
_symmetry_group_IT_number 12
_symmetry_cell_setting 'monoclinic'
loop_
_space_group_symop_operation_xyz
x,y,z
-x,y,-z
-x,-y,-z
x,-y,z
1/2+x,1/2+y,z
1/2-x,1/2+y,-z
1/2-x,1/2-y,-z
1/2+x,1/2-y,z
loop_
_atom_site_type_symbol
_atom_site_label
_atom_site_fract_x
_atom_site_fract_y
_atom_site_fract_z
Si Si1 0.763398 0.086145 0.625811
Si Si2 0.423098 0.806337 0.234079
Si Si3 0.605412 0.720936 0.518671
Si Si4 0.668071 0.415755 0.156844
Si Si5 0.043095 0.085784 0.847272
Si Si6 0.675958 0.180544 0.073951
Si Si7 0.264089 0.305976 0.262861
O O1 0.634337 0.114475 0.703649
O O2 0.836756 0.139794 0.501169
O O3 0.817759 0.097687 0.718032
O O4 0.767885 0.000000 0.584782
O O5 0.429899 0.751479 0.338135
O O6 0.547017 0.816827 0.112220
O O7 0.347209 0.763468 0.183812
O O8 0.500000 0.712831 0.500000
O O9 0.692227 0.780426 0.414813
O O10 0.660996 0.500000 0.127565
O O11 0.550439 0.380408 0.184261
O O12 0.773535 0.388289 0.022307
O O13 0.161440 0.123298 0.750853
O O14 0.063662 0.000000 0.815433
O O15 0.000000 0.103713 0.000000
O O16 0.682485 0.172445 0.207429
O O17 0.750000 0.250000 0.000000
#
# Coordination Sequence:
#
# PCOD8101899 Si02
#       7
#     8   8   8   8   8   8   8
#     4  10  23  44  68  95 126 166 212 259 320 383
#     4  11  25  42  63  92 127 167 208 267 318 371
#     4  11  23  44  67  90 127 164 212 270 319 366
#     4  10  22  39  61  94 129 163 208 259 310 374
#     4  10  20  36  59  89 127 164 202 252 311 370
#     4  12  23  36  60  92 124 162 210 254 308 378
#     4  11  22  37  61  88 120 165 209 252 316 375
#
# _framework density 22.111611
#
# number of rings (size 3 to 8) (size 9 to 14) (size 15 to 20)
#    0.000    1.286    2.857    4.286    2.000    2.571 
#    0.000    4.286    0.000    0.857    0.000    0.000 
#    0.000    0.000    0.000    0.000    0.000    0.000 
#
# Total GULP energy -347159.078719 kJ/mol
# GULP energy per Si atom -12398.538526 kJ/mol
# Density = 2.206128 g / cm^3
# Si number density = 22.111611 Si / 1000 Ang^3
#
#
#
# Elastic Constant Matrix: (Units=GPa)
#
#
# Indices 1 2 3 4 5 6 
#
# 1 99.3194 29.2303 3.9203 0.0000 -29.4906 0.0000
# 2 29.2303 103.9858 25.8144 0.0000 -11.2654 0.0000
# 3 3.9203 25.8144 39.2144 0.0000 -10.6871 0.0000
# 4 0.0000 0.0000 0.0000 29.1814 0.0000 -1.2454
# 5 -29.4906 -11.2654 -10.6871 0.0000 38.7957 0.0000
# 6 0.0000 0.0000 0.0000 -1.2454 0.0000 30.5718
#
#
#
# Elastic Compliance Matrix: (Units=1/GPa)
#
#
# Indices 1 2 3 4 5 6 
#
# 1 0.014257 -0.003841 0.004057 0.000000 0.010840 0.000000
# 2 -0.003841 0.012596 -0.008332 0.000000 -0.001557 0.000000
# 3 0.004057 -0.008332 0.033258 0.000000 0.009826 0.000000
# 4 0.000000 0.000000 0.000000 0.034328 0.000000 0.001398
# 5 0.010840 -0.001557 0.009826 0.000000 0.036271 0.000000
# 6 0.000000 0.000000 0.000000 0.001398 0.000000 0.032767
#
#
# Mechanical properties :
#
#
# Convention : Reuss Voigt Hill
#
# Bulk Modulus (GPa) = 22.78920 40.04995 31.41958
# Shear Modulus (GPa) = 25.72868 31.94676 28.83772
#
# Velocity S-wave (km/s) = 3.41483 3.80517 3.61527
# Velocity P-wave (km/s) = 5.08694 6.12027 5.62737
#
# Compressibility (1/GPa) = 0.04388043
#
# Stress axis : x y z
#
# Youngs Moduli (GPa) = 70.13894 79.38993 30.06775
#
# Poissons Ratio (x) = 0.30490 -0.12199
# Poissons Ratio (y) = 0.26937 0.25053
# Poissons Ratio (z) = -0.28456 0.66150
#
# Static dielectric constant tensor:
#      x y z
#    x 4.434010 0.000000 0.018160 
#    y 0.000000 4.182050 0.000000 
#    z 0.018160 0.000000 4.391570 
# 
# 
# High freq. dielectric constant tensor:
#      x y z
#    x 1.886480 0.000000 0.003970 
#    y 0.000000 1.861910 0.000000 
#    z 0.003970 0.000000 1.862630 
# 
# From -- ./inp_files/146030.got.cif
#   From: 2010.06.25/outbox.cif.g09.slc.cpg/sg12_74_cif.got.tgz:146030.got - 2010.06.28 00:19:55.
