data_PCOD8101032
_publ_section_title
;
Structure prediction by ZEFSAII (Michael W. Deem and Ramdas Pophale) SiO2 
 PCOD8101032
Probable space group: C 2/M
;
_chemical_formula_sum "Si O2"
_cell_formula_units_Z 64
_cell_length_a 29.417752
_cell_length_b 9.097468
_cell_length_c 25.875246
_cell_angle_alpha 90.000000
_cell_angle_beta 150.135811
_cell_angle_gamma 90.000000
_cell_volume 3448.232914
_symmetry_space_group_name_H-M "C 2/M"
_symmetry_group_IT_number 12
_symmetry_cell_setting 'monoclinic'
loop_
_space_group_symop_operation_xyz
x,y,z
-x,y,-z
-x,-y,-z
x,-y,z
1/2+x,1/2+y,z
1/2-x,1/2+y,-z
1/2-x,1/2-y,-z
1/2+x,1/2-y,z
loop_
_atom_site_type_symbol
_atom_site_label
_atom_site_fract_x
_atom_site_fract_y
_atom_site_fract_z
Si Si1 0.252169 0.826035 0.175278
Si Si2 0.264253 0.172804 0.303044
Si Si3 0.926075 0.671312 0.281703
Si Si4 0.152555 0.327243 0.907139
Si Si5 0.392191 0.329865 0.505291
Si Si6 0.615810 0.668268 0.238805
Si Si7 0.736399 0.831069 0.433617
Si Si8 0.911106 0.828772 0.055863
O O1 0.253669 0.762983 0.234878
O O2 0.341421 0.774461 0.232711
O O3 0.245853 0.000000 0.171278
O O4 0.163691 0.766012 0.057770
O O5 0.351264 0.250079 0.414750
O O6 0.170401 0.210822 0.240585
O O7 0.284185 0.000000 0.322393
O O8 0.946452 0.500000 0.310580
O O9 0.904600 0.704847 0.200924
O O10 0.011382 0.763714 0.384581
O O11 0.168563 0.500000 0.930599
O O12 0.093712 0.261853 0.895928
O O13 0.250000 0.250000 0.000000
O O14 0.403893 0.500000 0.503309
O O15 0.325908 0.304212 0.488061
O O16 0.636232 0.500000 0.273886
O O17 0.647873 0.767755 0.317851
O O18 0.508637 0.695206 0.124613
O O19 0.750000 0.750000 0.500000
O O20 0.717604 0.000000 0.426542
O O21 0.893614 0.000000 0.051624
#
# Coordination Sequence:
#
# PCOD8101032 Si02
#       8
#     8   8   8   8   8   8   8   8
#     4   9  18  35  58  82 109 144 185 227 272 321
#     4   9  18  36  60  82 108 144 185 227 273 326
#     4  10  21  37  56  80 110 146 186 224 269 327
#     4  11  22  37  57  81 112 149 186 226 276 327
#     4  10  22  38  55  79 110 143 180 227 280 325
#     4   9  19  34  55  83 111 142 180 225 274 321
#     4  10  21  36  54  76 106 143 182 226 275 328
#     4  10  20  36  56  82 117 148 182 227 271 325
#
# _framework density 18.560231000000002
#
# number of rings (size 3 to 8) (size 9 to 14) (size 15 to 20)
#    0.000    2.250    1.250    1.125    1.750    4.000 
#    0.000    6.250    0.000    0.000    0.000    4.375 
#    0.000    0.000    0.000    0.000    0.000    0.000 
#
# Total GULP energy -396878.617778 kJ/mol
# GULP energy per Si atom -12402.456806 kJ/mol
# Density = 1.851799 g / cm^3
# Si number density = 18.560231 Si / 1000 Ang^3
#
#
#
# Elastic Constant Matrix: (Units=GPa)
#
#
# Indices 1 2 3 4 5 6 
#
# 1 100.2403 50.0530 84.6209 0.0000 -17.7713 0.0000
# 2 50.0530 71.3909 61.3241 0.0000 -5.6594 0.0000
# 3 84.6209 61.3241 150.4598 0.0000 -2.0927 0.0000
# 4 0.0000 0.0000 0.0000 27.1314 0.0000 0.5612
# 5 -17.7713 -5.6594 -2.0927 0.0000 37.8303 0.0000
# 6 0.0000 0.0000 0.0000 0.5612 0.0000 25.9826
#
#
#
# Elastic Compliance Matrix: (Units=1/GPa)
#
#
# Indices 1 2 3 4 5 6 
#
# 1 0.024149 -0.007096 -0.010555 0.000000 0.009699 0.000000
# 2 -0.007096 0.023926 -0.005762 0.000000 -0.000073 0.000000
# 3 -0.010555 -0.005762 0.014861 0.000000 -0.004998 0.000000
# 4 0.000000 0.000000 0.000000 0.036874 0.000000 -0.000796
# 5 0.009699 -0.000073 -0.004998 0.000000 0.030703 0.000000
# 6 0.000000 0.000000 0.000000 -0.000796 0.000000 0.038505
#
#
# Mechanical properties :
#
#
# Convention : Reuss Voigt Hill
#
# Bulk Modulus (GPa) = 62.06821 79.34301 70.70561
# Shear Modulus (GPa) = 22.60275 26.59504 24.59889
#
# Velocity S-wave (km/s) = 3.49349 3.78948 3.64449
# Velocity P-wave (km/s) = 7.05597 7.87328 7.47581
#
# Compressibility (1/GPa) = 0.01611131
#
# Stress axis : x y z
#
# Youngs Moduli (GPa) = 41.41043 41.79549 67.28901
#
# Poissons Ratio (x) = 0.29657 0.71020
# Poissons Ratio (y) = 0.29384 0.38772
# Poissons Ratio (z) = 0.43707 0.24083
#
# Static dielectric constant tensor:
#      x y z
#    x 3.655360 0.000000 -0.103090 
#    y 0.000000 3.355810 0.000000 
#    z -0.103090 0.000000 3.649020 
# 
# 
# High freq. dielectric constant tensor:
#      x y z
#    x 1.724300 0.000000 0.000300 
#    y 0.000000 1.707310 0.000000 
#    z 0.000300 0.000000 1.727070 
# 
# From -- ./inp_files/249163.got.cif
#   From: 2010.06.25/outbox.cif.g09.slc.cpg/sg12_125_cif.got.tgz:249163.got - 2010.06.28 00:19:55.
