data_PCOD8101512
_publ_section_title
;
Structure prediction by ZEFSAII (Michael W. Deem and Ramdas Pophale) SiO2 
 PCOD8101512
Probable space group: C 2/M
;
_chemical_formula_sum "Si O2"
_cell_formula_units_Z 40
_cell_length_a 21.050597
_cell_length_b 19.009003
_cell_length_c 12.449771
_cell_angle_alpha 90.000000
_cell_angle_beta 24.458423
_cell_angle_gamma 90.000000
_cell_volume 2062.623127
_symmetry_space_group_name_H-M "C 2/M"
_symmetry_group_IT_number 12
_symmetry_cell_setting 'monoclinic'
loop_
_space_group_symop_operation_xyz
x,y,z
-x,y,-z
-x,-y,-z
x,-y,z
1/2+x,1/2+y,z
1/2-x,1/2+y,-z
1/2-x,1/2-y,-z
1/2+x,1/2-y,z
loop_
_atom_site_type_symbol
_atom_site_label
_atom_site_fract_x
_atom_site_fract_y
_atom_site_fract_z
Si Si1 0.450796 0.417521 0.953921
Si Si2 0.941844 0.305062 0.753642
Si Si3 0.242755 0.696702 0.172742
Si Si4 0.478229 0.917584 0.862425
Si Si5 0.735507 0.917671 0.623576
O O1 0.408864 0.500000 0.006472
O O2 0.590372 0.393466 0.661740
O O3 0.500000 0.400489 0.000000
O O4 0.307196 0.371452 0.136112
O O5 0.818654 0.322454 0.850970
O O6 0.100473 0.272932 0.461903
O O7 0.875336 0.254603 0.949856
O O8 0.975511 0.380718 0.752298
O O9 0.322056 0.899068 0.168382
O O10 0.493457 0.000000 0.817152
O O11 0.621805 0.885965 0.708471
O O12 0.722727 0.000000 0.624299
#
# Coordination Sequence:
#
# PCOD8101512 Si02
#       5
#     8   8   8   8   8
#     4  10  20  36  58  84 115 145 181 233 281 327
#     4  10  22  40  58  78 111 150 185 232 273 327
#     4  10  23  40  57  80 111 149 188 224 282 330
#     4   9  17  33  58  84 110 144 185 228 275 325
#     4   8  16  31  53  83 115 143 173 220 280 329
#
# _framework density 19.392783000000001
#
# number of rings (size 3 to 8) (size 9 to 14) (size 15 to 20)
#    0.000    2.600    0.000    2.400    2.800    3.200 
#    3.600    4.000    0.000    3.600    0.000    0.000 
#    0.000    0.000    0.000    0.000    0.000    0.000 
#
# Total GULP energy -247887.981043 kJ/mol
# GULP energy per Si atom -12394.399052 kJ/mol
# Density = 1.934864 g / cm^3
# Si number density = 19.392783 Si / 1000 Ang^3
#
#
#
# Elastic Constant Matrix: (Units=GPa)
#
#
# Indices 1 2 3 4 5 6 
#
# 1 67.5511 42.1901 28.9784 -0.0006 4.9134 0.0005
# 2 42.1901 69.8069 36.4610 0.0003 0.2844 0.0004
# 3 28.9784 36.4610 116.6177 -0.0024 3.2537 0.0019
# 4 -0.0006 0.0003 -0.0024 28.4311 0.0026 0.7522
# 5 4.9134 0.2844 3.2537 0.0026 24.8736 -0.0011
# 6 0.0005 0.0004 0.0019 0.7522 -0.0011 31.0874
#
#
#
# Elastic Compliance Matrix: (Units=1/GPa)
#
#
# Indices 1 2 3 4 5 6 
#
# 1 0.024550 -0.013981 -0.001604 0.000001 -0.004480 0.000000
# 2 -0.013981 0.025090 -0.004456 -0.000001 0.003058 0.000000
# 3 -0.001604 -0.004456 0.010394 0.000001 -0.000992 -0.000001
# 4 0.000001 -0.000001 0.000001 0.035195 -0.000004 -0.000852
# 5 -0.004480 0.003058 -0.000992 -0.000004 0.041183 0.000002
# 6 0.000000 0.000000 -0.000001 -0.000852 0.000002 0.032188
#
#
# Mechanical properties :
#
#
# Convention : Reuss Voigt Hill
#
# Bulk Modulus (GPa) = 50.11991 52.13719 51.12855
# Shear Modulus (GPa) = 23.21979 26.63483 24.92731
#
# Velocity S-wave (km/s) = 3.46402 3.71002 3.58912
# Velocity P-wave (km/s) = 6.47302 6.73019 6.60286
#
# Compressibility (1/GPa) = 0.01995215
#
# Stress axis : x y z
#
# Youngs Moduli (GPa) = 40.73335 39.85630 96.20601
#
# Poissons Ratio (x) = 0.55725 0.15432
# Poissons Ratio (y) = 0.56951 0.42865
# Poissons Ratio (z) = 0.06534 0.17758
#
# Static dielectric constant tensor:
#      x y z
#    x 3.354090 0.000000 0.062540 
#    y 0.000000 3.159560 0.000010 
#    z 0.062540 0.000010 4.418250 
# 
# 
# High freq. dielectric constant tensor:
#      x y z
#    x 1.743820 0.000000 0.010040 
#    y 0.000000 1.723770 0.000000 
#    z 0.010040 0.000000 1.775280 
# 
# From -- ./inp_files/159400.got.cif
#   From: 2010.06.25/outbox.cif.g09.slc.cpg/sg12_80_cif.got.tgz:159400.got - 2010.06.28 00:19:55.
