data_PCOD8101276
_publ_section_title
;
Structure prediction by ZEFSAII (Michael W. Deem and Ramdas Pophale) SiO2 
 PCOD8101276
Probable space group: C 2/M
;
_chemical_formula_sum "Si O2"
_cell_formula_units_Z 48
_cell_length_a 14.038631
_cell_length_b 13.485057
_cell_length_c 23.417163
_cell_angle_alpha 90.000000
_cell_angle_beta 35.536475
_cell_angle_gamma 90.000000
_cell_volume 2576.636798
_symmetry_space_group_name_H-M "C 2/M"
_symmetry_group_IT_number 12
_symmetry_cell_setting 'monoclinic'
loop_
_space_group_symop_operation_xyz
x,y,z
-x,y,-z
-x,-y,-z
x,-y,z
1/2+x,1/2+y,z
1/2-x,1/2+y,-z
1/2-x,1/2-y,-z
1/2+x,1/2-y,z
loop_
_atom_site_type_symbol
_atom_site_label
_atom_site_fract_x
_atom_site_fract_y
_atom_site_fract_z
Si Si1 0.347854 0.000000 0.507251
Si Si2 0.758870 0.708555 0.729339
Si Si3 0.535330 0.245248 0.046372
Si Si4 0.852164 0.615341 0.294693
Si Si5 0.817766 0.612551 0.931199
Si Si6 0.373024 0.173789 0.415033
Si Si7 0.229672 0.500000 0.333878
O O1 0.309803 0.090143 0.486579
O O2 0.536422 0.000000 0.431924
O O3 0.222071 0.000000 0.622650
O O4 0.634527 0.725833 0.841418
O O5 0.753674 0.802813 0.688564
O O6 0.708132 0.602399 0.725664
O O7 0.938421 0.703955 0.668693
O O8 0.628127 0.158829 0.034994
O O9 0.500000 0.206491 0.000000
O O10 0.653546 0.340072 0.986031
O O11 0.793456 0.500000 0.312908
O O12 0.838009 0.643932 0.367311
O O13 0.041021 0.625407 0.184639
O O14 0.776013 0.500000 0.964707
O O15 0.250000 0.250000 0.500000
#
# Coordination Sequence:
#
# PCOD8101276 Si02
#       7
#     4   8   8   8   8   8   4
#     4   9  18  34  52  77 102 143 186 228 285 327
#     4  10  22  37  58  85 114 155 193 237 295 339
#     4  10  20  36  57  85 117 147 192 238 279 345
#     4  10  20  39  60  84 120 154 189 240 290 346
#     4   9  20  36  57  84 117 153 188 230 291 343
#     4  11  21  36  58  83 113 148 197 238 285 345
#     4   9  18  34  55  76 112 141 186 239 281 342
#
# _framework density 18.628934999999998
#
# number of rings (size 3 to 8) (size 9 to 14) (size 15 to 20)
#    0.000    2.167    0.833    2.000    1.167    2.667 
#    1.500    0.833    0.000    0.000    0.000    0.000 
#    0.000    0.000    0.000    0.000    0.000    0.000 
#
# Total GULP energy -297373.382137 kJ/mol
# GULP energy per Si atom -12390.557589 kJ/mol
# Density = 1.858653 g / cm^3
# Si number density = 18.628935 Si / 1000 Ang^3
#
#
#
# Elastic Constant Matrix: (Units=GPa)
#
#
# Indices 1 2 3 4 5 6 
#
# 1 64.4471 22.4054 20.7433 0.0001 24.3248 0.0000
# 2 22.4054 118.6277 19.7676 -0.0002 7.8862 0.0001
# 3 20.7433 19.7676 59.8430 -0.0013 19.5873 0.0006
# 4 0.0001 -0.0002 -0.0013 22.6122 0.0001 8.8645
# 5 24.3248 7.8862 19.5873 0.0001 37.5310 0.0000
# 6 0.0000 0.0001 0.0006 8.8645 0.0000 16.8829
#
#
#
# Elastic Compliance Matrix: (Units=1/GPa)
#
#
# Indices 1 2 3 4 5 6 
#
# 1 0.022011 -0.002899 -0.002656 0.000000 -0.012271 0.000000
# 2 -0.002899 0.009308 -0.002466 0.000000 0.001210 0.000000
# 3 -0.002656 -0.002466 0.021361 0.000002 -0.008909 -0.000002
# 4 0.000000 0.000000 0.000002 0.055686 -0.000001 -0.029238
# 5 -0.012271 0.001210 -0.008909 -0.000001 0.038993 0.000001
# 6 0.000000 0.000000 -0.000002 -0.029238 0.000001 0.074583
#
#
# Mechanical properties :
#
#
# Convention : Reuss Voigt Hill
#
# Bulk Modulus (GPa) = 27.29319 40.97226 34.13272
# Shear Modulus (GPa) = 19.98435 27.40533 23.69484
#
# Velocity S-wave (km/s) = 3.27885 3.83967 3.57029
# Velocity P-wave (km/s) = 5.38677 6.45748 5.94627
#
# Compressibility (1/GPa) = 0.03663918
#
# Stress axis : x y z
#
# Youngs Moduli (GPa) = 45.43278 107.43785 46.81324
#
# Poissons Ratio (x) = 0.31145 0.12432
# Poissons Ratio (y) = 0.13171 0.11543
# Poissons Ratio (z) = 0.12065 0.26492
#
# Static dielectric constant tensor:
#      x y z
#    x 3.332840 0.000000 0.038500 
#    y 0.000000 3.622950 0.000000 
#    z 0.038500 0.000000 3.162650 
# 
# 
# High freq. dielectric constant tensor:
#      x y z
#    x 1.716950 0.000000 0.014870 
#    y 0.000000 1.736570 0.000000 
#    z 0.014870 0.000000 1.727440 
# 
# From -- ./inp_files/212880.got.cif
#   From: 2010.06.25/outbox.cif.g09.slc.cpg/sg12_107_cif.got.tgz:212880.got - 2010.06.28 00:19:55.
