data_PCOD8101572
_publ_section_title
;
Structure prediction by ZEFSAII (Michael W. Deem and Ramdas Pophale) SiO2 
 PCOD8101572
Probable space group: C 2/M
;
_chemical_formula_sum "Si O2"
_cell_formula_units_Z 64
_cell_length_a 30.674723
_cell_length_b 8.783488
_cell_length_c 25.411153
_cell_angle_alpha 90.000000
_cell_angle_beta 152.331530
_cell_angle_gamma 90.000000
_cell_volume 3179.229775
_symmetry_space_group_name_H-M "C 2/M"
_symmetry_group_IT_number 12
_symmetry_cell_setting 'monoclinic'
loop_
_space_group_symop_operation_xyz
x,y,z
-x,y,-z
-x,-y,-z
x,-y,z
1/2+x,1/2+y,z
1/2-x,1/2+y,-z
1/2-x,1/2-y,-z
1/2+x,1/2-y,z
loop_
_atom_site_type_symbol
_atom_site_label
_atom_site_fract_x
_atom_site_fract_y
_atom_site_fract_z
Si Si1 0.492531 0.320474 0.722591
Si Si2 0.767289 0.824738 0.285677
Si Si3 0.896277 0.319599 0.247005
Si Si4 0.458418 0.819967 0.509949
Si Si5 0.975734 0.323945 0.132432
Si Si6 0.272788 0.179643 0.874099
Si Si7 0.336798 0.826600 0.724422
Si Si8 0.203787 0.678824 0.501742
O O1 0.486888 0.500000 0.710438
O O2 0.581504 0.255830 0.785508
O O3 0.503753 0.279158 0.795413
O O4 0.398878 0.247079 0.598296
O O5 0.853918 0.740698 0.405914
O O6 0.744350 0.758137 0.203446
O O7 0.677912 0.802076 0.228693
O O8 0.794506 0.000000 0.309083
O O9 0.895114 0.500000 0.239783
O O10 0.794998 0.264480 0.157876
O O11 0.975148 0.261869 0.372252
O O12 0.500000 0.755058 0.500000
O O13 0.455039 0.000000 0.505599
O O14 0.975611 0.500000 0.149967
O O15 0.055304 0.291533 0.173855
O O16 0.878097 0.275828 0.002097
O O17 0.255878 0.000000 0.859691
O O18 0.268520 0.713010 0.620738
O O19 0.311101 0.000000 0.680920
O O20 0.193843 0.500000 0.482932
O O21 0.250000 0.750000 0.500000
#
# Coordination Sequence:
#
# PCOD8101572 Si02
#       8
#     8   8   8   8   8   8   8   8
#     4  12  25  41  63  91 122 156 199 250 303 361
#     4  10  21  36  59  91 123 156 197 245 299 355
#     4  11  23  40  63  89 120 159 200 247 303 363
#     4  10  20  36  58  86 118 155 195 237 295 360
#     4  10  22  41  63  85 118 161 206 251 297 354
#     4  10  22  40  61  88 120 158 204 253 299 352
#     4  10  21  38  61  90 123 161 201 245 298 356
#     4  12  23  38  62  92 125 161 198 243 299 359
#
# _framework density 20.130662999999998
#
# number of rings (size 3 to 8) (size 9 to 14) (size 15 to 20)
#    0.000    1.375    2.500    3.375    0.000    5.250 
#    0.000    2.500    0.000    0.000    0.000    3.500 
#    0.000    0.000    0.000    0.000    0.000    0.000 
#
# Total GULP energy -396955.473659 kJ/mol
# GULP energy per Si atom -12404.858552 kJ/mol
# Density = 2.008484 g / cm^3
# Si number density = 20.130663 Si / 1000 Ang^3
#
#
#
# Elastic Constant Matrix: (Units=GPa)
#
#
# Indices 1 2 3 4 5 6 
#
# 1 138.4167 35.9737 33.2308 0.0000 25.3680 0.0000
# 2 35.9737 81.7621 31.9061 0.0000 12.6868 0.0000
# 3 33.2308 31.9061 101.9133 0.0000 27.0520 0.0000
# 4 0.0000 0.0000 0.0000 25.6416 0.0000 2.8360
# 5 25.3680 12.6868 27.0520 0.0000 23.1707 0.0000
# 6 0.0000 0.0000 0.0000 2.8360 0.0000 25.8997
#
#
#
# Elastic Compliance Matrix: (Units=1/GPa)
#
#
# Indices 1 2 3 4 5 6 
#
# 1 0.009607 -0.002883 0.000207 0.000000 -0.009181 0.000000
# 2 -0.002883 0.015017 -0.003502 0.000000 -0.000978 0.000000
# 3 0.000207 -0.003502 0.015059 0.000000 -0.015891 0.000000
# 4 0.000000 0.000000 0.000000 0.039477 0.000000 -0.004323
# 5 -0.009181 -0.000978 -0.015891 0.000000 0.072298 0.000000
# 6 0.000000 0.000000 0.000000 -0.004323 0.000000 0.039084
#
#
# Mechanical properties :
#
#
# Convention : Reuss Voigt Hill
#
# Bulk Modulus (GPa) = 36.59285 58.25702 47.42493
# Shear Modulus (GPa) = 23.58409 29.67449 26.62929
#
# Velocity S-wave (km/s) = 3.42651 3.84356 3.64101
# Velocity P-wave (km/s) = 5.81994 6.97850 6.42539
#
# Compressibility (1/GPa) = 0.02732774
#
# Stress axis : x y z
#
# Youngs Moduli (GPa) = 104.09353 66.58975 66.40443
#
# Poissons Ratio (x) = 0.19198 -0.01376
# Poissons Ratio (y) = 0.30010 0.23254
# Poissons Ratio (z) = -0.02156 0.23319
#
# Static dielectric constant tensor:
#      x y z
#    x 3.860800 0.000000 0.034870 
#    y 0.000000 3.558760 0.000000 
#    z 0.034870 0.000000 3.638990 
# 
# 
# High freq. dielectric constant tensor:
#      x y z
#    x 1.804210 0.000000 0.005000 
#    y 0.000000 1.778330 0.000000 
#    z 0.005000 0.000000 1.776060 
# 
# From -- ./inp_files/353439.got.cif
#   From: 2010.06.25/outbox.cif.g09.slc.cpg/sg12_177_cif.got.tgz:353439.got - 2010.06.28 00:19:55.
