data_PCOD8101490
_publ_section_title
;
Structure prediction by ZEFSAII (Michael W. Deem and Ramdas Pophale) SiO2 
 PCOD8101490
Probable space group: C 2/M
;
_chemical_formula_sum "Si O2"
_cell_formula_units_Z 56
_cell_length_a 18.520961
_cell_length_b 9.209263
_cell_length_c 27.078163
_cell_angle_alpha 90.000000
_cell_angle_beta 38.987950
_cell_angle_gamma 90.000000
_cell_volume 2905.805748
_symmetry_space_group_name_H-M "C 2/M"
_symmetry_group_IT_number 12
_symmetry_cell_setting 'monoclinic'
loop_
_space_group_symop_operation_xyz
x,y,z
-x,y,-z
-x,-y,-z
x,-y,z
1/2+x,1/2+y,z
1/2-x,1/2+y,-z
1/2-x,1/2-y,-z
1/2+x,1/2-y,z
loop_
_atom_site_type_symbol
_atom_site_label
_atom_site_fract_x
_atom_site_fract_y
_atom_site_fract_z
Si Si1 0.100298 0.328255 0.983953
Si Si2 0.367543 0.339193 0.559944
Si Si3 0.646051 0.171051 0.530040
Si Si4 0.665720 0.832010 0.148307
Si Si5 0.760178 0.671357 0.273524
Si Si6 0.981001 0.672181 0.865725
Si Si7 0.090784 0.667048 0.295772
O O1 0.116770 0.500000 0.972843
O O2 0.071308 0.274847 0.054648
O O3 0.217556 0.254501 0.905020
O O4 0.000000 0.278565 0.000000
O O5 0.500000 0.353745 0.500000
O O6 0.321179 0.500000 0.568542
O O7 0.349327 0.216841 0.529121
O O8 0.301881 0.283397 0.643098
O O9 0.750000 0.250000 0.500000
O O10 0.528736 0.224701 0.618220
O O11 0.661072 0.000000 0.526864
O O12 0.595974 0.767257 0.138537
O O13 0.587056 0.812565 0.238655
O O14 0.696545 0.000000 0.123032
O O15 0.756895 0.500000 0.266396
O O16 0.696629 0.743334 0.261197
O O17 0.889665 0.731851 0.207302
O O18 0.984433 0.500000 0.860804
O O19 0.109032 0.500000 0.300766
#
# Coordination Sequence:
#
# PCOD8101490 Si02
#       7
#     8   8   8   8   8   8   8
#     4  10  20  36  58  84 112 142 181 228 277 330
#     4  10  20  36  59  87 114 146 190 237 283 339
#     4  11  24  39  58  82 114 153 193 239 288 338
#     4  10  21  37  57  81 111 147 185 224 274 333
#     4  10  20  36  61  84 110 149 190 230 276 338
#     4   9  19  35  57  83 110 146 185 224 276 334
#     4  10  22  38  56  80 112 148 186 234 283 332
#
# _framework density 19.271761999999999
#
# number of rings (size 3 to 8) (size 9 to 14) (size 15 to 20)
#    0.000    2.000    1.429    1.714    2.000    3.429 
#    0.000    1.429    0.000    0.000    0.000    0.000 
#    0.000    0.000    0.000    0.000    0.000    0.000 
#
# Total GULP energy -347266.305006 kJ/mol
# GULP energy per Si atom -12402.368036 kJ/mol
# Density = 1.922790 g / cm^3
# Si number density = 19.271762 Si / 1000 Ang^3
#
#
#
# Elastic Constant Matrix: (Units=GPa)
#
#
# Indices 1 2 3 4 5 6 
#
# 1 140.0010 38.0172 42.8971 0.0000 0.0028 0.0001
# 2 38.0172 40.2180 22.4718 0.0000 -1.5136 -0.0001
# 3 42.8971 22.4718 93.3754 0.0000 2.6266 0.0001
# 4 0.0000 0.0000 0.0000 36.1198 0.0000 -5.1477
# 5 0.0028 -1.5136 2.6266 0.0000 38.0335 0.0000
# 6 0.0001 -0.0001 0.0001 -5.1477 0.0000 34.7246
#
#
#
# Elastic Compliance Matrix: (Units=1/GPa)
#
#
# Indices 1 2 3 4 5 6 
#
# 1 0.010178 -0.008105 -0.002721 0.000000 -0.000135 0.000000
# 2 -0.008105 0.035283 -0.004816 0.000000 0.001737 0.000000
# 3 -0.002721 -0.004816 0.013150 0.000000 -0.001100 0.000000
# 4 0.000000 0.000000 0.000000 0.028283 0.000000 0.004193
# 5 -0.000135 0.001737 -0.001100 0.000000 0.026438 0.000000
# 6 0.000000 0.000000 0.000000 0.004193 0.000000 0.029420
#
#
# Mechanical properties :
#
#
# Convention : Reuss Voigt Hill
#
# Bulk Modulus (GPa) = 36.59765 53.37407 44.98586
# Shear Modulus (GPa) = 27.30086 33.12279 30.21183
#
# Velocity S-wave (km/s) = 3.76789 4.15024 3.96368
# Velocity P-wave (km/s) = 6.16124 7.12191 6.65892
#
# Compressibility (1/GPa) = 0.02732416
#
# Stress axis : x y z
#
# Youngs Moduli (GPa) = 98.25518 28.34243 76.04761
#
# Poissons Ratio (x) = 0.22972 0.20694
# Poissons Ratio (y) = 0.79638 0.36628
# Poissons Ratio (z) = 0.26737 0.13651
#
# Static dielectric constant tensor:
#      x y z
#    x 3.568760 0.000000 -0.010410 
#    y 0.000000 4.111590 0.000000 
#    z -0.010410 0.000000 3.634580 
# 
# 
# High freq. dielectric constant tensor:
#      x y z
#    x 1.758410 0.000000 0.003300 
#    y 0.000000 1.725650 0.000000 
#    z 0.003300 0.000000 1.764140 
# 
# From -- ./inp_files/363001.got.cif
#   From: 2010.06.25/outbox.cif.g09.slc.cpg/sg12_182_cif.got.tgz:363001.got - 2010.06.28 00:19:55.
