data_PCOD8101400
_publ_section_title
;
Structure prediction by ZEFSAII (Michael W. Deem and Ramdas Pophale) SiO2 
 PCOD8101400
Probable space group: C 2/M
;
_chemical_formula_sum "Si O2"
_cell_formula_units_Z 64
_cell_length_a 32.193370
_cell_length_b 10.166415
_cell_length_c 10.179171
_cell_angle_alpha 90.000000
_cell_angle_beta 85.856211
_cell_angle_gamma 90.000000
_cell_volume 3322.843499
_symmetry_space_group_name_H-M "C 2/M"
_symmetry_group_IT_number 12
_symmetry_cell_setting 'monoclinic'
loop_
_space_group_symop_operation_xyz
x,y,z
-x,y,-z
-x,-y,-z
x,-y,z
1/2+x,1/2+y,z
1/2-x,1/2+y,-z
1/2-x,1/2-y,-z
1/2+x,1/2-y,z
loop_
_atom_site_type_symbol
_atom_site_label
_atom_site_fract_x
_atom_site_fract_y
_atom_site_fract_z
Si Si1 0.391460 0.858995 0.492481
Si Si2 0.912112 0.851537 0.273796
Si Si3 0.839083 0.344697 0.887330
Si Si4 0.787704 0.139196 0.384803
Si Si5 0.570623 0.149527 0.240458
Si Si6 0.502359 0.652016 0.152805
Si Si7 0.665835 0.347465 0.873613
Si Si8 0.694816 0.191964 0.381067
O O1 0.393891 0.743401 0.388248
O O2 0.419951 0.821604 0.609600
O O3 0.344316 0.886368 0.551831
O O4 0.406139 0.000000 0.429235
O O5 0.883006 0.841730 0.152072
O O6 0.958328 0.807903 0.225150
O O7 0.912177 0.000000 0.329334
O O8 0.827470 0.500000 0.909193
O O9 0.888362 0.329674 0.856338
O O10 0.814071 0.282072 0.770116
O O11 0.825029 0.253944 0.011358
O O12 0.807071 0.214906 0.254538
O O13 0.738317 0.116544 0.384067
O O14 0.799848 0.180979 0.528654
O O15 0.810589 0.000000 0.365752
O O16 0.536457 0.254091 0.207113
O O17 0.554202 0.000000 0.225720
O O18 0.513752 0.500000 0.179561
O O19 0.500000 0.678480 0.000000
O O20 0.677988 0.500000 0.908039
#
# Coordination Sequence:
#
# PCOD8101400 Si02
#       8
#     8   8   8   8   8   8   8   8
#     4  10  20  36  58  82 110 146 184 226 278 336
#     4  10  21  37  56  81 113 145 181 231 282 331
#     4  10  21  38  58  83 116 153 190 234 285 340
#     4  10  20  36  59  85 114 148 192 240 285 335
#     4   9  20  37  56  80 111 145 185 230 277 330
#     4  10  21  37  57  79 107 144 185 226 276 333
#     4  10  21  38  57  83 116 151 190 237 285 338
#     4  10  20  37  59  83 114 151 190 234 284 335
#
# _framework density 19.260611000000001
#
# number of rings (size 3 to 8) (size 9 to 14) (size 15 to 20)
#    0.000    2.125    1.250    2.625    0.000    4.750 
#    0.000    5.625    0.000    0.000    0.000    0.000 
#    0.000    0.000    0.000    0.000    0.000    0.000 
#
# Total GULP energy -396459.416922 kJ/mol
# GULP energy per Si atom -12389.356779 kJ/mol
# Density = 1.921677 g / cm^3
# Si number density = 19.260611 Si / 1000 Ang^3
#
#
#
# Elastic Constant Matrix: (Units=GPa)
#
#
# Indices 1 2 3 4 5 6 
#
# 1 94.6088 45.9565 42.6382 0.0000 13.9973 0.0000
# 2 45.9565 99.0361 79.4580 0.0000 7.2330 0.0000
# 3 42.6382 79.4580 132.7410 0.0000 5.9472 0.0000
# 4 0.0000 0.0000 0.0000 12.5777 0.0000 18.1066
# 5 13.9973 7.2330 5.9472 0.0000 25.5628 0.0000
# 6 0.0000 0.0000 0.0000 18.1066 0.0000 59.7758
#
#
#
# Elastic Compliance Matrix: (Units=1/GPa)
#
#
# Indices 1 2 3 4 5 6 
#
# 1 0.014644 -0.005370 -0.001211 0.000000 -0.006217 0.000000
# 2 -0.005370 0.021600 -0.011179 0.000000 -0.000571 0.000000
# 3 -0.001211 -0.011179 0.014595 0.000000 0.000431 0.000000
# 4 0.000000 0.000000 0.000000 0.140982 0.000000 -0.042704
# 5 -0.006217 -0.000571 0.000431 0.000000 0.042585 0.000000
# 6 0.000000 0.000000 0.000000 -0.042704 0.000000 0.029665
#
#
# Mechanical properties :
#
#
# Convention : Reuss Voigt Hill
#
# Bulk Modulus (GPa) = 65.27828 73.61012 69.44420
# Shear Modulus (GPa) = 16.40979 30.13882 23.27431
#
# Velocity S-wave (km/s) = 2.92205 3.96003 3.47996
# Velocity P-wave (km/s) = 6.73425 7.69481 7.23050
#
# Compressibility (1/GPa) = 0.01531903
#
# Stress axis : x y z
#
# Youngs Moduli (GPa) = 68.28848 46.29637 68.51653
#
# Poissons Ratio (x) = 0.24859 0.08298
# Poissons Ratio (y) = 0.36668 0.76597
# Poissons Ratio (z) = 0.08270 0.51756
#
# Static dielectric constant tensor:
#      x y z
#    x 3.587930 0.000000 -0.027810 
#    y 0.000000 3.426210 0.000000 
#    z -0.027810 0.000000 3.448400 
# 
# 
# High freq. dielectric constant tensor:
#      x y z
#    x 1.754330 0.000000 -0.001520 
#    y 0.000000 1.745960 0.000000 
#    z -0.001520 0.000000 1.744860 
# 
# From -- ./inp_files/110486.got.cif
#   From: 2010.06.25/outbox.cif.g09.slc.cpg/sg12_56_cif.got.tgz:110486.got - 2010.06.28 00:19:55.
