data_PCOD8101963
_publ_section_title
;
Structure prediction by ZEFSAII (Michael W. Deem and Ramdas Pophale) SiO2 
 PCOD8101963
Probable space group: C 2/M
;
_chemical_formula_sum "Si O2"
_cell_formula_units_Z 40
_cell_length_a 31.112045
_cell_length_b 8.941755
_cell_length_c 22.237682
_cell_angle_alpha 90.000000
_cell_angle_beta 18.874254
_cell_angle_gamma 90.000000
_cell_volume 2001.265616
_symmetry_space_group_name_H-M "C 2/M"
_symmetry_group_IT_number 12
_symmetry_cell_setting 'monoclinic'
loop_
_space_group_symop_operation_xyz
x,y,z
-x,y,-z
-x,-y,-z
x,-y,z
1/2+x,1/2+y,z
1/2-x,1/2+y,-z
1/2-x,1/2-y,-z
1/2+x,1/2-y,z
loop_
_atom_site_type_symbol
_atom_site_label
_atom_site_fract_x
_atom_site_fract_y
_atom_site_fract_z
Si Si1 0.448081 0.827635 0.736282
Si Si2 0.163930 0.328367 0.664493
Si Si3 0.776977 0.826658 0.058773
Si Si4 0.857196 0.328791 0.068981
Si Si5 0.747077 0.324381 0.676013
O O1 0.361572 0.795280 0.791511
O O2 0.598106 0.783876 0.522455
O O3 0.434304 0.000000 0.774547
O O4 0.399610 0.726885 0.855608
O O5 0.208081 0.500000 0.610825
O O6 0.250000 0.250000 0.500000
O O7 0.184919 0.251453 0.700320
O O8 0.011088 0.313993 0.847705
O O9 0.770302 0.736436 0.129586
O O10 0.797428 0.000000 0.046466
O O11 0.816266 0.500000 0.134373
O O12 0.830367 0.235436 0.164097
O O13 0.724314 0.500000 0.700824
#
# Coordination Sequence:
#
# PCOD8101963 Si02
#       5
#     8   8   8   8   8
#     4   9  20  38  58  84 117 149 185 234 285 329
#     4  11  24  41  61  85 114 148 187 233 282 333
#     4  10  20  36  60  86 113 149 192 233 276 333
#     4  11  24  40  57  82 118 152 185 232 285 333
#     4  11  23  39  60  85 115 150 188 232 282 336
#
# _framework density 19.987352000000001
#
# number of rings (size 3 to 8) (size 9 to 14) (size 15 to 20)
#    0.000    1.600    0.000    4.200    0.000   13.600 
#    0.000    4.000    0.000    0.000    0.000    0.000 
#    0.000    0.000    0.000    0.000    0.000    0.000 
#
# Total GULP energy -248136.631059 kJ/mol
# GULP energy per Si atom -12406.831553 kJ/mol
# Density = 1.994186 g / cm^3
# Si number density = 19.987352 Si / 1000 Ang^3
#
#
#
# Elastic Constant Matrix: (Units=GPa)
#
#
# Indices 1 2 3 4 5 6 
#
# 1 117.4168 43.2431 11.5681 -0.0001 8.7507 0.0000
# 2 43.2431 102.8003 24.5930 -0.0019 -2.6872 0.0000
# 3 11.5681 24.5930 49.4003 -0.0014 0.8606 -0.0001
# 4 -0.0001 -0.0019 -0.0014 34.6155 -0.0005 4.3874
# 5 8.7507 -2.6872 0.8606 -0.0005 26.9275 -0.0002
# 6 0.0000 0.0000 -0.0001 4.3874 -0.0002 41.8967
#
#
#
# Elastic Compliance Matrix: (Units=1/GPa)
#
#
# Indices 1 2 3 4 5 6 
#
# 1 0.010462 -0.004463 -0.000161 0.000000 -0.003840 0.000000
# 2 -0.004463 0.012991 -0.005473 0.000001 0.002922 0.000000
# 3 -0.000161 -0.005473 0.023027 0.000001 -0.001230 0.000000
# 4 0.000000 0.000001 0.000001 0.029277 0.000001 -0.003066
# 5 -0.003840 0.002922 -0.001230 0.000001 0.038716 0.000000
# 6 0.000000 0.000000 0.000000 -0.003066 0.000000 0.024189
#
#
# Mechanical properties :
#
#
# Convention : Reuss Voigt Hill
#
# Bulk Modulus (GPa) = 38.04404 47.60286 42.82345
# Shear Modulus (GPa) = 29.82980 33.36882 31.59931
#
# Velocity S-wave (km/s) = 3.86739 4.09038 3.98045
# Velocity P-wave (km/s) = 6.24641 6.79533 6.52664
#
# Compressibility (1/GPa) = 0.02628533
#
# Stress axis : x y z
#
# Youngs Moduli (GPa) = 95.58089 76.97917 43.42806
#
# Poissons Ratio (x) = 0.34354 0.00701
# Poissons Ratio (y) = 0.42656 0.23768
# Poissons Ratio (z) = 0.01542 0.42130
#
# Static dielectric constant tensor:
#      x y z
#    x 3.497370 0.000000 -0.135510 
#    y 0.000000 3.795990 0.000000 
#    z -0.135510 0.000000 3.599040 
# 
# 
# High freq. dielectric constant tensor:
#      x y z
#    x 1.792840 0.000000 -0.003070 
#    y 0.000000 1.793370 0.000000 
#    z -0.003070 0.000000 1.778890 
# 
# From -- ./inp_files/151624.got.cif
#   From: 2010.06.25/outbox.cif.g09.slc.cpg/sg12_76_cif.got.tgz:151624.got - 2010.06.28 00:19:55.
