data_PCOD8101906
_publ_section_title
;
Structure prediction by ZEFSAII (Michael W. Deem and Ramdas Pophale) SiO2 
 PCOD8101906
Probable space group: C 2/M
;
_chemical_formula_sum "Si O2"
_cell_formula_units_Z 64
_cell_length_a 18.878112
_cell_length_b 13.989817
_cell_length_c 24.853631
_cell_angle_alpha 90.000000
_cell_angle_beta 27.968166
_cell_angle_gamma 90.000000
_cell_volume 3078.333084
_symmetry_space_group_name_H-M "C 2/M"
_symmetry_group_IT_number 12
_symmetry_cell_setting 'monoclinic'
loop_
_space_group_symop_operation_xyz
x,y,z
-x,y,-z
-x,-y,-z
x,-y,z
1/2+x,1/2+y,z
1/2-x,1/2+y,-z
1/2-x,1/2-y,-z
1/2+x,1/2-y,z
loop_
_atom_site_type_symbol
_atom_site_label
_atom_site_fract_x
_atom_site_fract_y
_atom_site_fract_z
Si Si1 0.649929 0.106193 0.646453
Si Si2 0.960820 0.287616 0.607213
Si Si3 0.746125 0.771668 0.349136
Si Si4 0.876171 0.607398 0.757645
Si Si5 0.883716 0.827669 0.415286
Si Si6 0.629992 0.390956 0.170207
Si Si7 0.487070 0.610285 0.866119
Si Si8 0.878377 0.239315 0.036595
O O1 0.672128 0.177490 0.682014
O O2 0.510642 0.150505 0.704947
O O3 0.798250 0.092702 0.508868
O O4 0.611948 0.000000 0.694247
O O5 0.839657 0.242957 0.648025
O O6 0.911528 0.385363 0.670092
O O7 0.122990 0.310516 0.473360
O O8 0.973753 0.210310 0.646196
O O9 0.851138 0.861514 0.266576
O O10 0.855974 0.500000 0.788995
O O11 0.718325 0.656735 0.872176
O O12 0.750000 0.750000 0.500000
O O13 0.963123 0.862670 0.306798
O O14 0.661477 0.500000 0.166304
O O15 0.627714 0.381554 0.106996
O O16 0.772572 0.329137 0.093783
O O17 0.490325 0.500000 0.885587
O O18 0.450560 0.690367 0.935286
O O19 0.000000 0.271752 0.000000
#
# Coordination Sequence:
#
# PCOD8101906 Si02
#       8
#     8   8   8   8   8   8   8   8
#     4  10  21  37  62  96 127 165 207 249 308 382
#     4  10  20  36  59  90 127 164 201 251 316 372
#     4  10  22  38  59  89 130 166 201 253 319 375
#     4  11  22  38  65  95 122 158 210 263 315 379
#     4  11  18  36  65  94 129 166 204 255 310 371
#     4  11  24  42  66  95 126 167 215 262 313 374
#     4  11  25  42  65  92 122 163 212 262 319 379
#     4  12  25  44  67  88 125 167 214 266 318 368
#
# _framework density 20.790472999999999
#
# number of rings (size 3 to 8) (size 9 to 14) (size 15 to 20)
#    0.000    1.250    2.500    4.125    0.000    3.250 
#    0.000    8.750    0.000    0.000    0.000    0.000 
#    0.000    0.000    0.000    0.000    0.000    0.000 
#
# Total GULP energy -396509.652309 kJ/mol
# GULP energy per Si atom -12390.926635 kJ/mol
# Density = 2.074315 g / cm^3
# Si number density = 20.790473 Si / 1000 Ang^3
#
#
#
# Elastic Constant Matrix: (Units=GPa)
#
#
# Indices 1 2 3 4 5 6 
#
# 1 121.3676 46.6721 44.2455 0.0019 -2.6422 0.0008
# 2 46.6721 92.8369 42.6282 0.0031 6.0996 -0.0021
# 3 44.2455 42.6282 85.4814 0.0195 0.5068 -0.0072
# 4 0.0019 0.0031 0.0195 21.6175 -0.0037 -0.5687
# 5 -2.6422 6.0996 0.5068 -0.0037 24.7140 0.0010
# 6 0.0008 -0.0021 -0.0072 -0.5687 0.0010 22.4806
#
#
#
# Elastic Compliance Matrix: (Units=1/GPa)
#
#
# Indices 1 2 3 4 5 6 
#
# 1 0.011235 -0.004048 -0.003810 0.000003 0.002278 -0.000002
# 2 -0.004048 0.015705 -0.005711 0.000003 -0.004192 0.000000
# 3 -0.003810 -0.005711 0.016515 -0.000013 0.000664 0.000005
# 4 0.000003 0.000003 -0.000013 0.046290 0.000007 0.001171
# 5 0.002278 -0.004192 0.000664 0.000007 0.041727 -0.000002
# 6 -0.000002 0.000000 0.000005 0.001171 -0.000002 0.044513
#
#
# Mechanical properties :
#
#
# Convention : Reuss Voigt Hill
#
# Bulk Modulus (GPa) = 61.29328 62.97528 62.13428
# Shear Modulus (GPa) = 23.97379 24.83843 24.40611
#
# Velocity S-wave (km/s) = 3.39944 3.46020 3.42995
# Velocity P-wave (km/s) = 6.70475 6.80589 6.75551
#
# Compressibility (1/GPa) = 0.01631500
#
# Stress axis : x y z
#
# Youngs Moduli (GPa) = 89.00963 63.67501 60.55233
#
# Poissons Ratio (x) = 0.25778 0.23069
# Poissons Ratio (y) = 0.36035 0.34584
# Poissons Ratio (z) = 0.33911 0.36367
#
# Static dielectric constant tensor:
#      x y z
#    x 4.206580 0.000000 0.154880 
#    y 0.000000 3.664800 0.000020 
#    z 0.154880 0.000020 3.896310 
# 
# 
# High freq. dielectric constant tensor:
#      x y z
#    x 1.820690 0.000000 0.001370 
#    y 0.000000 1.801200 0.000000 
#    z 0.001370 0.000000 1.814940 
# 
# From -- ./inp_files/344028.got.cif
#   From: 2010.06.25/outbox.cif.g09.slc.cpg/sg12_173_cif.got.tgz:344028.got - 2010.06.28 00:19:55.
