data_PCOD8101317
_publ_section_title
;
Structure prediction by ZEFSAII (Michael W. Deem and Ramdas Pophale) SiO2 
 PCOD8101317
Probable space group: C 2/M
;
_chemical_formula_sum "Si O2"
_cell_formula_units_Z 56
_cell_length_a 20.487489
_cell_length_b 9.110912
_cell_length_c 22.765035
_cell_angle_alpha 90.000000
_cell_angle_beta 46.986597
_cell_angle_gamma 90.000000
_cell_volume 3107.074111
_symmetry_space_group_name_H-M "C 2/M"
_symmetry_group_IT_number 12
_symmetry_cell_setting 'monoclinic'
loop_
_space_group_symop_operation_xyz
x,y,z
-x,y,-z
-x,-y,-z
x,-y,z
1/2+x,1/2+y,z
1/2-x,1/2+y,-z
1/2-x,1/2-y,-z
1/2+x,1/2-y,z
loop_
_atom_site_type_symbol
_atom_site_label
_atom_site_fract_x
_atom_site_fract_y
_atom_site_fract_z
Si Si1 0.113750 0.671549 0.189479
Si Si2 0.073334 0.338022 0.505640
Si Si3 0.441988 0.827569 0.906772
Si Si4 0.549105 0.326395 0.338879
Si Si5 0.808572 0.328829 0.668186
Si Si6 0.180951 0.170514 0.925366
Si Si7 0.380435 0.330359 0.167223
O O1 0.098866 0.500000 0.210722
O O2 0.085769 0.717513 0.141544
O O3 0.051549 0.763644 0.271617
O O4 0.216013 0.716541 0.137343
O O5 0.082759 0.500000 0.528282
O O6 0.165187 0.292185 0.415821
O O7 0.000000 0.341378 0.500000
O O8 0.044314 0.224021 0.573728
O O9 0.540081 0.768980 0.859137
O O10 0.442124 0.000000 0.915577
O O11 0.369867 0.761934 0.994781
O O12 0.551778 0.500000 0.336058
O O13 0.634103 0.266712 0.321983
O O14 0.828063 0.500000 0.670830
O O15 0.704893 0.292536 0.740191
O O16 0.139959 0.208729 0.887505
O O17 0.169776 0.000000 0.947410
O O18 0.407698 0.500000 0.156502
#
# Coordination Sequence:
#
# PCOD8101317 Si02
#       7
#     8   8   8   8   8   8   8
#     4  10  21  39  57  74 104 145 183 216 259 320
#     4   8  15  28  49  74 104 140 175 211 255 313
#     4  11  24  37  53  79 110 140 173 222 273 314
#     4  11  20  29  49  81 111 136 169 221 271 307
#     4   9  17  33  54  76 104 143 182 212 253 314
#     4  10  20  37  60  78  99 138 184 223 260 312
#     4  10  20  36  58  79 105 142 181 217 257 313
#
# _framework density 18.023388000000001
#
# number of rings (size 3 to 8) (size 9 to 14) (size 15 to 20)
#    0.000    2.143    1.429    3.429    0.000    7.143 
#    0.000    0.000    0.000    0.857    0.000    0.000 
#    0.000    0.000    0.000    0.000    0.000    0.000 
#
# Total GULP energy -347207.629512 kJ/mol
# GULP energy per Si atom -12400.272483 kJ/mol
# Density = 1.798237 g / cm^3
# Si number density = 18.023388 Si / 1000 Ang^3
#
#
#
# Elastic Constant Matrix: (Units=GPa)
#
#
# Indices 1 2 3 4 5 6 
#
# 1 152.4079 108.8054 130.4460 -0.0001 186.8763 -0.0001
# 2 108.8054 145.3581 148.6980 -0.0001 146.0882 -0.0001
# 3 130.4460 148.6980 256.1000 -0.0001 199.5670 -0.0002
# 4 -0.0001 -0.0001 -0.0001 24.9879 -0.0001 4.8155
# 5 186.8763 146.0882 199.5670 -0.0001 347.4844 -0.0006
# 6 -0.0001 -0.0001 -0.0002 4.8155 -0.0006 19.3204
#
#
#
# Elastic Compliance Matrix: (Units=1/GPa)
#
#
# Indices 1 2 3 4 5 6 
#
# 1 0.024383 -0.008830 0.000060 0.000000 -0.009435 0.000000
# 2 -0.008830 0.021626 -0.008461 0.000000 0.000516 0.000000
# 3 0.000060 -0.008461 0.010933 0.000000 -0.002754 0.000000
# 4 0.000000 0.000000 0.000000 0.042039 0.000000 -0.010478
# 5 -0.009435 0.000516 -0.002754 0.000000 0.009317 0.000000
# 6 0.000000 0.000000 0.000000 -0.010478 0.000000 0.054370
#
#
# Mechanical properties :
#
#
# Convention : Reuss Voigt Hill
#
# Bulk Modulus (GPa) = 44.48629 147.75165 96.11897
# Shear Modulus (GPa) = 24.43502 89.41963 56.92732
#
# Velocity S-wave (km/s) = 3.68603 7.05130 5.62617
# Velocity P-wave (km/s) = 6.54614 12.18401 9.78013
#
# Compressibility (1/GPa) = 0.02247884
#
# Stress axis : x y z
#
# Youngs Moduli (GPa) = 41.01183 46.24087 91.46439
#
# Poissons Ratio (x) = 0.40831 -0.00546
# Poissons Ratio (y) = 0.36214 0.77391
# Poissons Ratio (z) = -0.00245 0.39126
#
# Static dielectric constant tensor:
#      x y z
#    x 3.072480 0.000000 -0.058510 
#    y 0.000000 3.239890 0.000000 
#    z -0.058510 0.000000 3.801460 
# 
# 
# High freq. dielectric constant tensor:
#      x y z
#    x 1.663230 0.000000 -0.002880 
#    y 0.000000 1.691700 0.000000 
#    z -0.002880 0.000000 1.720880 
# 
# From -- ./inp_files/281692.got.cif
#   From: 2010.06.25/outbox.cif.g09.slc.cpg/sg12_141_cif.got.tgz:281692.got - 2010.06.28 00:19:55.
