data_PCOD8101729
_publ_section_title
;
Structure prediction by ZEFSAII (Michael W. Deem and Ramdas Pophale) SiO2 
 PCOD8101729
Probable space group: C 2/M
;
_chemical_formula_sum "Si O2"
_cell_formula_units_Z 56
_cell_length_a 29.324414
_cell_length_b 8.499991
_cell_length_c 20.387399
_cell_angle_alpha 90.000000
_cell_angle_beta 32.807183
_cell_angle_gamma 90.000000
_cell_volume 2753.337951
_symmetry_space_group_name_H-M "C 2/M"
_symmetry_group_IT_number 12
_symmetry_cell_setting 'monoclinic'
loop_
_space_group_symop_operation_xyz
x,y,z
-x,y,-z
-x,-y,-z
x,-y,z
1/2+x,1/2+y,z
1/2-x,1/2+y,-z
1/2-x,1/2-y,-z
1/2+x,1/2-y,z
loop_
_atom_site_type_symbol
_atom_site_label
_atom_site_fract_x
_atom_site_fract_y
_atom_site_fract_z
Si Si1 0.368971 0.318186 0.431147
Si Si2 0.240700 0.685514 0.799954
Si Si3 0.714899 0.318620 0.691302
Si Si4 0.420477 0.315729 0.638399
Si Si5 0.534767 0.184693 0.280475
Si Si6 0.082242 0.316349 0.762038
Si Si7 0.403442 0.814260 0.931710
O O1 0.375439 0.500000 0.403813
O O2 0.282874 0.290136 0.573476
O O3 0.445139 0.272385 0.387584
O O4 0.369668 0.214533 0.364547
O O5 0.229791 0.500000 0.801000
O O6 0.211841 0.779497 0.771393
O O7 0.336620 0.728528 0.700402
O O8 0.181333 0.746966 0.931147
O O9 0.738119 0.500000 0.652883
O O10 0.623839 0.280995 0.770702
O O11 0.500000 0.256964 0.500000
O O12 0.426436 0.500000 0.645743
O O13 0.416793 0.226098 0.711772
O O14 0.591254 0.243645 0.150334
O O15 0.517293 0.000000 0.296882
O O16 0.087531 0.500000 0.772281
O O17 0.986068 0.256263 0.871352
O O18 0.403632 0.000000 0.931707
#
# Coordination Sequence:
#
# PCOD8101729 Si02
#       7
#     8   8   8   8   8   8   8
#     4  11  21  36  58  85 115 147 186 231 282 336
#     4  10  21  39  59  79 110 152 194 234 279 334
#     4  12  24  37  54  82 116 149 188 233 284 334
#     4  10  21  36  56  84 115 147 187 234 284 336
#     4  10  20  36  59  85 114 148 186 231 283 336
#     4  10  20  37  59  83 112 148 189 232 282 337
#     4   8  18  37  59  82 109 146 191 233 277 334
#
# _framework density 20.338949
#
# number of rings (size 3 to 8) (size 9 to 14) (size 15 to 20)
#    0.000    1.857    0.000    5.571    0.000    3.143 
#    0.000    7.143    0.000    0.000    0.000    0.000 
#    0.000    0.000    0.000    0.000    0.000    0.000 
#
# Total GULP energy -347298.572139 kJ/mol
# GULP energy per Si atom -12403.520434 kJ/mol
# Density = 2.029266 g / cm^3
# Si number density = 20.338949 Si / 1000 Ang^3
#
#
#
# Elastic Constant Matrix: (Units=GPa)
#
#
# Indices 1 2 3 4 5 6 
#
# 1 127.8876 25.1388 49.2495 -0.0027 9.8611 -0.0012
# 2 25.1388 61.0454 16.6078 -0.0376 0.2019 0.0105
# 3 49.2495 16.6078 131.8203 -0.0235 1.3476 0.0035
# 4 -0.0027 -0.0376 -0.0235 20.3226 0.0121 3.5287
# 5 9.8611 0.2019 1.3476 0.0121 17.8962 -0.0030
# 6 -0.0012 0.0105 0.0035 3.5287 -0.0030 34.8592
#
#
#
# Elastic Compliance Matrix: (Units=1/GPa)
#
#
# Indices 1 2 3 4 5 6 
#
# 1 0.010150 -0.003257 -0.003328 -0.000006 -0.005306 0.000002
# 2 -0.003257 0.018008 -0.001069 0.000032 0.001672 -0.000009
# 3 -0.003328 -0.001069 0.008952 0.000007 0.001172 -0.000001
# 4 -0.000006 0.000032 0.000007 0.050087 -0.000033 -0.005070
# 5 -0.005306 0.001672 0.001172 -0.000033 0.058694 0.000008
# 6 0.000002 -0.000009 -0.000001 -0.005070 0.000008 0.029200
#
#
# Mechanical properties :
#
#
# Convention : Reuss Voigt Hill
#
# Bulk Modulus (GPa) = 45.86588 55.86062 50.86325
# Shear Modulus (GPa) = 25.29520 29.93275 27.61397
#
# Velocity S-wave (km/s) = 3.53041 3.84043 3.68868
# Velocity P-wave (km/s) = 6.26244 6.86948 6.57297
#
# Compressibility (1/GPa) = 0.02180270
#
# Stress axis : x y z
#
# Youngs Moduli (GPa) = 98.52048 55.53135 111.70648
#
# Poissons Ratio (x) = 0.18087 0.37172
# Poissons Ratio (y) = 0.32089 0.11941
# Poissons Ratio (z) = 0.32784 0.05936
#
# Static dielectric constant tensor:
#      x y z
#    x 3.707600 -0.000020 -0.015500 
#    y -0.000020 3.470670 0.000040 
#    z -0.015500 0.000040 3.857300 
# 
# 
# High freq. dielectric constant tensor:
#      x y z
#    x 1.800040 0.000000 0.000240 
#    y 0.000000 1.780800 0.000000 
#    z 0.000240 0.000000 1.791640 
# 
# From -- ./inp_files/329508.got.cif
#   From: 2010.06.25/outbox.cif.g09.slc.cpg/sg12_165_cif.got.tgz:329508.got - 2010.06.28 00:19:55.
