data_PCOD8101161
_publ_section_title
;
Structure prediction by ZEFSAII (Michael W. Deem and Ramdas Pophale) SiO2 
 PCOD8101161
Probable space group: C 2/M
;
_chemical_formula_sum "Si O2"
_cell_formula_units_Z 56
_cell_length_a 27.285054
_cell_length_b 8.629060
_cell_length_c 13.687833
_cell_angle_alpha 90.000000
_cell_angle_beta 119.744459
_cell_angle_gamma 90.000000
_cell_volume 2798.119094
_symmetry_space_group_name_H-M "C 2/M"
_symmetry_group_IT_number 12
_symmetry_cell_setting 'monoclinic'
loop_
_space_group_symop_operation_xyz
x,y,z
-x,y,-z
-x,-y,-z
x,-y,z
1/2+x,1/2+y,z
1/2-x,1/2+y,-z
1/2-x,1/2-y,-z
1/2+x,1/2-y,z
loop_
_atom_site_type_symbol
_atom_site_label
_atom_site_fract_x
_atom_site_fract_y
_atom_site_fract_z
Si Si1 0.047649 0.815846 0.974393
Si Si2 0.237120 0.682759 0.882408
Si Si3 0.018150 0.818365 0.727998
Si Si4 0.691441 0.318240 0.407366
Si Si5 0.386428 0.818947 0.307778
Si Si6 0.167011 0.815143 0.167374
Si Si7 0.598244 0.179589 0.451188
O O1 0.034543 0.760026 0.852100
O O2 0.048628 0.000000 0.980239
O O3 0.108102 0.748814 0.067450
O O4 0.000000 0.749352 0.000000
O O5 0.242121 0.500000 0.892781
O O6 0.175453 0.734170 0.786640
O O7 0.282546 0.748815 0.850336
O O8 0.250000 0.750000 0.000000
O O9 0.069787 0.785544 0.707465
O O10 0.964998 0.720661 0.640553
O O11 0.003411 0.000000 0.712211
O O12 0.698915 0.500000 0.407764
O O13 0.750000 0.250000 0.500000
O O14 0.675932 0.250649 0.285443
O O15 0.641742 0.279715 0.432432
O O16 0.392917 0.779573 0.427419
O O17 0.397658 0.000000 0.297891
O O18 0.166059 0.000000 0.166573
O O19 0.610155 0.000000 0.442631
#
# Coordination Sequence:
#
# PCOD8101161 Si02
#       7
#     8   8   8   8   8   8   8
#     4   9  17  31  53  81 111 143 182 228 279 335
#     4  10  20  36  57  81 110 146 189 232 277 331
#     4  11  22  36  59  88 113 142 186 238 284 329
#     4  11  22  38  61  87 115 149 190 234 280 330
#     4  10  22  39  57  78 111 154 191 227 280 344
#     4   9  18  34  56  80 110 150 190 226 272 336
#     4  11  23  40  60  82 113 153 191 228 278 337
#
# _framework density 20.013442999999999
#
# number of rings (size 3 to 8) (size 9 to 14) (size 15 to 20)
#    0.000    1.857    0.000    4.286    0.000    9.143 
#    0.000    2.857    0.000   11.143    0.000    0.000 
#    0.000    0.000    0.000    0.000    0.000    0.000 
#
# Total GULP energy -347316.908010 kJ/mol
# GULP energy per Si atom -12404.175286 kJ/mol
# Density = 1.996789 g / cm^3
# Si number density = 20.013443 Si / 1000 Ang^3
#
#
#
# Elastic Constant Matrix: (Units=GPa)
#
#
# Indices 1 2 3 4 5 6 
#
# 1 156.6749 16.3396 77.9912 0.0000 5.5503 0.0000
# 2 16.3396 26.8447 28.6465 0.0000 -2.0445 0.0000
# 3 77.9912 28.6465 190.2729 0.0000 7.4184 0.0000
# 4 0.0000 0.0000 0.0000 26.6902 0.0000 -4.2835
# 5 5.5503 -2.0445 7.4184 0.0000 44.7084 0.0000
# 6 0.0000 0.0000 0.0000 -4.2835 0.0000 25.3702
#
#
#
# Elastic Compliance Matrix: (Units=1/GPa)
#
#
# Indices 1 2 3 4 5 6 
#
# 1 0.008094 -0.001733 -0.003034 0.000000 -0.000581 0.000000
# 2 -0.001733 0.045200 -0.006224 0.000000 0.003315 0.000000
# 3 -0.003034 -0.006224 0.007481 0.000000 -0.001149 0.000000
# 4 0.000000 0.000000 0.000000 0.038510 0.000000 0.006502
# 5 -0.000581 0.003315 -0.001149 0.000000 0.022782 0.000000
# 6 0.000000 0.000000 0.000000 0.006502 0.000000 0.040514
#
#
# Mechanical properties :
#
#
# Convention : Reuss Voigt Hill
#
# Bulk Modulus (GPa) = 25.77773 68.86079 47.31926
# Shear Modulus (GPa) = 25.31700 36.07477 30.69588
#
# Velocity S-wave (km/s) = 3.56054 4.25022 3.92058
# Velocity P-wave (km/s) = 5.45999 7.65296 6.64753
#
# Compressibility (1/GPa) = 0.03879317
#
# Stress axis : x y z
#
# Youngs Moduli (GPa) = 123.54251 22.12373 133.66886
#
# Poissons Ratio (x) = 0.03834 0.40558
# Poissons Ratio (y) = 0.21412 0.83195
# Poissons Ratio (z) = 0.37486 0.13770
#
# Static dielectric constant tensor:
#      x y z
#    x 3.599770 0.000000 0.104540 
#    y 0.000000 3.306920 0.000000 
#    z 0.104540 0.000000 3.889130 
# 
# 
# High freq. dielectric constant tensor:
#      x y z
#    x 1.800390 0.000000 0.001420 
#    y 0.000000 1.749910 0.000000 
#    z 0.001420 0.000000 1.802520 
# 
# From -- ./inp_files/181113.got.cif
#   From: 2010.06.25/outbox.cif.g09.slc.cpg/sg12_91_cif.got.tgz:181113.got - 2010.06.28 00:19:55.
