data_PCOD8101545
_publ_section_title
;
Structure prediction by ZEFSAII (Michael W. Deem and Ramdas Pophale) SiO2 
 PCOD8101545
Probable space group: C 2/M
;
_chemical_formula_sum "Si O2"
_cell_formula_units_Z 56
_cell_length_a 27.867016
_cell_length_b 8.893350
_cell_length_c 10.572235
_cell_angle_alpha 90.000000
_cell_angle_beta 105.480620
_cell_angle_gamma 90.000000
_cell_volume 2525.072705
_symmetry_space_group_name_H-M "C 2/M"
_symmetry_group_IT_number 12
_symmetry_cell_setting 'monoclinic'
loop_
_space_group_symop_operation_xyz
x,y,z
-x,y,-z
-x,-y,-z
x,-y,z
1/2+x,1/2+y,z
1/2-x,1/2+y,-z
1/2-x,1/2-y,-z
1/2+x,1/2-y,z
loop_
_atom_site_type_symbol
_atom_site_label
_atom_site_fract_x
_atom_site_fract_y
_atom_site_fract_z
Si Si1 0.865851 0.675233 0.740752
Si Si2 0.906261 0.173468 0.528348
Si Si3 0.110390 0.326020 0.725614
Si Si4 0.543648 0.668471 0.113409
Si Si5 0.511271 0.666140 0.663141
Si Si6 0.763136 0.176795 0.644044
Si Si7 0.215940 0.673189 0.871332
O O1 0.854746 0.500000 0.749500
O O2 0.886991 0.709710 0.617471
O O3 0.907344 0.729511 0.870955
O O4 0.816610 0.769715 0.729986
O O5 0.876207 0.219330 0.382907
O O6 0.965716 0.202257 0.527851
O O7 0.895914 0.000000 0.559814
O O8 0.109216 0.500000 0.684476
O O9 0.054785 0.281841 0.734066
O O10 0.156482 0.298336 0.855525
O O11 0.555113 0.500000 0.070932
O O12 0.527933 0.661456 0.248315
O O13 0.500000 0.742788 0.000000
O O14 0.534840 0.500000 0.658540
O O15 0.750000 0.250000 0.500000
O O16 0.726726 0.224438 0.733717
O O17 0.762727 0.000000 0.620250
O O18 0.229435 0.500000 0.893523
O O19 0.250000 0.750000 0.000000
#
# Coordination Sequence:
#
# PCOD8101545 Si02
#       7
#     8   8   8   8   8   8   8
#     4  11  22  36  57  87 120 152 191 244 304 360
#     4  10  20  36  58  85 117 153 194 237 286 353
#     4  11  22  36  56  84 116 149 190 242 297 352
#     4   9  19  37  58  80 111 151 194 238 285 347
#     4   9  19  34  53  81 114 149 190 230 278 349
#     4  11  23  42  67  94 123 160 208 259 311 368
#     4  10  25  45  63  87 121 160 206 256 304 361
#
# _framework density 22.177576999999999
#
# number of rings (size 3 to 8) (size 9 to 14) (size 15 to 20)
#    0.000    1.857    0.000    4.714    0.000    9.429 
#    0.000    4.286    0.000    0.000    0.000    0.000 
#    0.000    0.000    0.000    0.000    0.000    0.000 
#
# Total GULP energy -346976.722337 kJ/mol
# GULP energy per Si atom -12392.025798 kJ/mol
# Density = 2.212710 g / cm^3
# Si number density = 22.177577 Si / 1000 Ang^3
#
#
#
# Elastic Constant Matrix: (Units=GPa)
#
#
# Indices 1 2 3 4 5 6 
#
# 1 103.2297 42.5883 31.0260 0.0000 27.7504 0.0000
# 2 42.5883 88.4839 44.5366 0.0000 12.6488 0.0000
# 3 31.0260 44.5366 89.0600 0.0000 31.9807 0.0000
# 4 0.0000 0.0000 0.0000 35.5058 0.0000 7.0803
# 5 27.7504 12.6488 31.9807 0.0000 35.5850 0.0000
# 6 0.0000 0.0000 0.0000 7.0803 0.0000 33.3326
#
#
#
# Elastic Compliance Matrix: (Units=1/GPa)
#
#
# Indices 1 2 3 4 5 6 
#
# 1 0.014739 -0.006586 0.002134 0.000000 -0.011071 0.000000
# 2 -0.006586 0.018152 -0.009317 0.000000 0.007057 0.000000
# 3 0.002134 -0.009317 0.021487 0.000000 -0.017663 0.000000
# 4 0.000000 0.000000 0.000000 0.029410 0.000000 -0.006247
# 5 -0.011071 0.007057 -0.017663 0.000000 0.050101 0.000000
# 6 0.000000 0.000000 0.000000 -0.006247 0.000000 0.031328
#
#
# Mechanical properties :
#
#
# Convention : Reuss Voigt Hill
#
# Bulk Modulus (GPa) = 37.25722 57.45281 47.35502
# Shear Modulus (GPa) = 24.78927 31.72619 28.25773
#
# Velocity S-wave (km/s) = 3.34692 3.78637 3.57341
# Velocity P-wave (km/s) = 5.63665 6.71398 6.19876
#
# Compressibility (1/GPa) = 0.02684043
#
# Stress axis : x y z
#
# Youngs Moduli (GPa) = 67.84843 55.09024 46.54015
#
# Poissons Ratio (x) = 0.36280 -0.09933
# Poissons Ratio (y) = 0.44682 0.43363
# Poissons Ratio (z) = -0.14480 0.51329
#
# Static dielectric constant tensor:
#      x y z
#    x 4.471030 0.000000 0.088450 
#    y 0.000000 3.804690 0.000000 
#    z 0.088450 0.000000 4.097070 
# 
# 
# High freq. dielectric constant tensor:
#      x y z
#    x 1.885000 0.000000 0.015200 
#    y 0.000000 1.858800 0.000000 
#    z 0.015200 0.000000 1.875870 
# 
# From -- ./inp_files/181081.got.cif
#   From: 2010.06.25/outbox.cif.g09.slc.cpg/sg12_91_cif.got.tgz:181081.got - 2010.06.28 00:19:55.
