data_PCOD8101665
_publ_section_title
;
Structure prediction by ZEFSAII (Michael W. Deem and Ramdas Pophale) SiO2 
 PCOD8101665
Probable space group: C 2/M
;
_chemical_formula_sum "Si O2"
_cell_formula_units_Z 64
_cell_length_a 32.155743
_cell_length_b 9.213721
_cell_length_c 18.584160
_cell_angle_alpha 90.000000
_cell_angle_beta 35.086092
_cell_angle_gamma 90.000000
_cell_volume 3164.887786
_symmetry_space_group_name_H-M "C 2/M"
_symmetry_group_IT_number 12
_symmetry_cell_setting 'monoclinic'
loop_
_space_group_symop_operation_xyz
x,y,z
-x,y,-z
-x,-y,-z
x,-y,z
1/2+x,1/2+y,z
1/2-x,1/2+y,-z
1/2-x,1/2-y,-z
1/2+x,1/2-y,z
loop_
_atom_site_type_symbol
_atom_site_label
_atom_site_fract_x
_atom_site_fract_y
_atom_site_fract_z
Si Si1 0.542939 0.332495 0.865526
Si Si2 0.785788 0.828515 0.800865
Si Si3 0.540634 0.166991 0.593798
Si Si4 0.711981 0.669519 0.619869
Si Si5 0.580124 0.664140 0.301495
Si Si6 0.339719 0.667635 0.961357
Si Si7 0.464724 0.169696 0.850829
Si Si8 0.795364 0.328681 0.644816
O O1 0.533754 0.500000 0.854898
O O2 0.627721 0.291697 0.750646
O O3 0.509617 0.225796 0.854515
O O4 0.500000 0.303692 0.000000
O O5 0.869354 0.791384 0.702515
O O6 0.762714 0.759424 0.757706
O O7 0.772407 0.000000 0.820321
O O8 0.735793 0.753492 0.931766
O O9 0.493205 0.243480 0.598784
O O10 0.511293 0.201420 0.714186
O O11 0.622169 0.223723 0.479041
O O12 0.537020 0.000000 0.579560
O O13 0.722924 0.500000 0.590387
O O14 0.750000 0.750000 0.500000
O O15 0.752487 0.719165 0.634775
O O16 0.553990 0.500000 0.346070
O O17 0.627597 0.687195 0.163377
O O18 0.328176 0.500000 0.998112
O O19 0.390543 0.740965 0.949972
O O20 0.447531 0.000000 0.884590
O O21 0.788170 0.500000 0.669076
#
# Coordination Sequence:
#
# PCOD8101665 Si02
#       8
#     8   8   8   8   8   8   8   8
#     4  10  22  38  58  87 120 156 197 242 298 362
#     4  11  23  37  54  83 118 150 189 241 290 340
#     4   9  19  36  58  82 111 146 193 240 281 341
#     4  10  22  41  64  88 118 157 202 249 297 359
#     4   9  20  37  57  82 113 149 191 236 290 345
#     4  10  20  36  59  83 112 154 194 232 283 350
#     4  10  20  36  59  87 115 146 187 240 291 340
#     4  10  22  39  58  83 114 154 194 233 289 350
#
# _framework density 20.221886000000001
#
# number of rings (size 3 to 8) (size 9 to 14) (size 15 to 20)
#    0.000    2.125    0.000    2.250    1.750    5.250 
#    0.000    2.500    0.000    0.000    0.000    0.000 
#    0.000    0.000    0.000    0.000    0.000    0.000 
#
# Total GULP energy -396836.403162 kJ/mol
# GULP energy per Si atom -12401.137599 kJ/mol
# Density = 2.017586 g / cm^3
# Si number density = 20.221886 Si / 1000 Ang^3
#
#
#
# Elastic Constant Matrix: (Units=GPa)
#
#
# Indices 1 2 3 4 5 6 
#
# 1 116.4869 42.0442 23.2679 -0.0099 -4.0978 0.0014
# 2 42.0442 72.2063 25.9454 -0.0069 -1.1928 0.0066
# 3 23.2679 25.9454 73.1499 -0.0124 -14.9847 0.0071
# 4 -0.0099 -0.0069 -0.0124 24.7020 0.0123 -2.7492
# 5 -4.0978 -1.1928 -14.9847 0.0123 23.8151 -0.0068
# 6 0.0014 0.0066 0.0071 -2.7492 -0.0068 38.0300
#
#
#
# Elastic Compliance Matrix: (Units=1/GPa)
#
#
# Indices 1 2 3 4 5 6 
#
# 1 0.011008 -0.005958 -0.001218 0.000002 0.000829 0.000001
# 2 -0.005958 0.019306 -0.005699 0.000002 -0.003644 -0.000003
# 3 -0.001218 -0.005699 0.018342 0.000002 0.011046 0.000000
# 4 0.000002 0.000002 0.000002 0.040811 -0.000019 0.002950
# 5 0.000829 -0.003644 0.011046 -0.000019 0.048901 0.000006
# 6 0.000001 -0.000003 0.000000 0.002950 0.000006 0.026508
#
#
# Mechanical properties :
#
#
# Convention : Reuss Voigt Hill
#
# Bulk Modulus (GPa) = 43.65795 49.37310 46.51553
# Shear Modulus (GPa) = 25.21924 28.68179 26.95052
#
# Velocity S-wave (km/s) = 3.53530 3.77019 3.65463
# Velocity P-wave (km/s) = 6.18876 6.58947 6.39226
#
# Compressibility (1/GPa) = 0.02290534
#
# Stress axis : x y z
#
# Youngs Moduli (GPa) = 90.84589 51.79729 54.51913
#
# Poissons Ratio (x) = 0.30861 0.06642
# Poissons Ratio (y) = 0.54127 0.31070
# Poissons Ratio (z) = 0.11068 0.29519
#
# Static dielectric constant tensor:
#      x y z
#    x 3.785860 -0.000010 -0.217990 
#    y -0.000010 3.601520 0.000010 
#    z -0.217990 0.000010 3.824940 
# 
# 
# High freq. dielectric constant tensor:
#      x y z
#    x 1.797170 0.000000 -0.007760 
#    y 0.000000 1.785900 0.000000 
#    z -0.007760 0.000000 1.794890 
# 
# From -- ./inp_files/295627.got.cif
#   From: 2010.06.25/outbox.cif.g09.slc.cpg/sg12_148_cif.got.tgz:295627.got - 2010.06.28 00:19:55.
