data_PCOD8101635
_publ_section_title
;
Structure prediction by ZEFSAII (Michael W. Deem and Ramdas Pophale) SiO2 
 PCOD8101635
Probable space group: C 2/M
;
_chemical_formula_sum "Si O2"
_cell_formula_units_Z 64
_cell_length_a 12.300141
_cell_length_b 13.690451
_cell_length_c 19.713267
_cell_angle_alpha 90.000000
_cell_angle_beta 101.165739
_cell_angle_gamma 90.000000
_cell_volume 3256.768908
_symmetry_space_group_name_H-M "C 2/M"
_symmetry_group_IT_number 12
_symmetry_cell_setting 'monoclinic'
loop_
_space_group_symop_operation_xyz
x,y,z
-x,y,-z
-x,-y,-z
x,-y,z
1/2+x,1/2+y,z
1/2-x,1/2+y,-z
1/2-x,1/2-y,-z
1/2+x,1/2-y,z
loop_
_atom_site_type_symbol
_atom_site_label
_atom_site_fract_x
_atom_site_fract_y
_atom_site_fract_z
Si Si1 0.909899 0.386931 0.840367
Si Si2 0.369487 0.606950 0.403043
Si Si3 0.197409 0.606477 0.654395
Si Si4 0.755747 0.887641 0.058187
Si Si5 0.284267 0.140979 0.497285
Si Si6 0.184500 0.288984 0.302248
Si Si7 0.917527 0.278964 0.050134
Si Si8 0.980782 0.292451 0.596407
O O1 0.937437 0.500000 0.830110
O O2 0.806239 0.376111 0.877937
O O3 0.882516 0.332972 0.767643
O O4 0.018694 0.335331 0.882943
O O5 0.422209 0.500000 0.390961
O O6 0.295541 0.584519 0.460796
O O7 0.286653 0.639951 0.333080
O O8 0.463553 0.690767 0.424651
O O9 0.212149 0.500000 0.689149
O O10 0.235115 0.601884 0.580281
O O11 0.267434 0.681456 0.708928
O O12 0.069823 0.636942 0.640986
O O13 0.865153 0.820575 0.073381
O O14 0.789812 0.000000 0.049544
O O15 0.676424 0.853012 0.987669
O O16 0.250000 0.250000 0.500000
O O17 0.416400 0.144350 0.530617
O O18 0.107021 0.267768 0.356565
O O19 0.000000 0.248617 0.000000
#
# Coordination Sequence:
#
# PCOD8101635 Si02
#       8
#     8   8   8   8   8   8   8   8
#     4  10  20  36  59  81 106 148 190 223 263 314
#     4  10  21  36  56  79 102 134 174 219 271 330
#     4  11  23  37  56  77 102 138 177 218 275 333
#     4   9  18  34  57  85 118 150 183 222 266 314
#     4  11  19  37  55  76 107 132 166 222 277 328
#     4  10  22  39  55  73 110 139 178 226 267 313
#     4   9  18  33  56  89 120 147 182 224 266 310
#     4  10  21  36  56  75 104 134 171 223 270 324
#
# _framework density 19.651378000000001
#
# number of rings (size 3 to 8) (size 9 to 14) (size 15 to 20)
#    0.000    2.000    3.750    1.500    0.000    7.750 
#    0.000    1.250    0.000    3.000    0.000    0.000 
#    0.000    0.000    0.000    0.000    0.000    0.000 
#
# Total GULP energy -396579.227992 kJ/mol
# GULP energy per Si atom -12393.100875 kJ/mol
# Density = 1.960665 g / cm^3
# Si number density = 19.651378 Si / 1000 Ang^3
#
#
#
# Elastic Constant Matrix: (Units=GPa)
#
#
# Indices 1 2 3 4 5 6 
#
# 1 68.3574 44.6852 21.4601 0.0000 8.4281 0.0000
# 2 44.6852 162.3248 28.2696 0.0000 9.5325 0.0000
# 3 21.4601 28.2696 72.7361 0.0000 18.2396 0.0000
# 4 0.0000 0.0000 0.0000 17.4740 0.0000 -4.1748
# 5 8.4281 9.5325 18.2396 0.0000 15.8303 0.0000
# 6 0.0000 0.0000 0.0000 -4.1748 0.0000 19.1552
#
#
#
# Elastic Compliance Matrix: (Units=1/GPa)
#
#
# Indices 1 2 3 4 5 6 
#
# 1 0.018954 -0.004485 -0.002807 0.000000 -0.004157 0.000000
# 2 -0.004485 0.007692 -0.001552 0.000000 -0.000456 0.000000
# 3 -0.002807 -0.001552 0.020491 0.000000 -0.021181 0.000000
# 4 0.000000 0.000000 0.000000 0.060371 0.000000 0.013158
# 5 -0.004157 -0.000456 -0.021181 0.000000 0.090062 0.000000
# 6 0.000000 0.000000 0.000000 0.013158 0.000000 0.055073
#
#
# Mechanical properties :
#
#
# Convention : Reuss Voigt Hill
#
# Bulk Modulus (GPa) = 33.95589 54.69425 44.32507
# Shear Modulus (GPa) = 17.84768 24.42546 21.13657
#
# Velocity S-wave (km/s) = 3.01693 3.52936 3.28316
# Velocity P-wave (km/s) = 5.42701 6.67092 6.08086
#
# Compressibility (1/GPa) = 0.02944997
#
# Stress axis : x y z
#
# Youngs Moduli (GPa) = 52.75803 130.00217 48.80162
#
# Poissons Ratio (x) = 0.58305 0.13698
# Poissons Ratio (y) = 0.23661 0.07575
# Poissons Ratio (z) = 0.14809 0.20178
#
# Static dielectric constant tensor:
#      x y z
#    x 3.528590 0.000000 0.221140 
#    y 0.000000 3.617400 0.000000 
#    z 0.221140 0.000000 2.965080 
# 
# 
# High freq. dielectric constant tensor:
#      x y z
#    x 1.767540 0.000000 0.007890 
#    y 0.000000 1.774860 0.000000 
#    z 0.007890 0.000000 1.736170 
# 
# From -- ./inp_files/305449.got.cif
#   From: 2010.06.25/outbox.cif.g09.slc.cpg/sg12_153_cif.got.tgz:305449.got - 2010.06.28 00:19:55.
