data_PCOD8101956
_publ_section_title
;
Structure prediction by ZEFSAII (Michael W. Deem and Ramdas Pophale) SiO2 
 PCOD8101956
Probable space group: C 2/M
;
_chemical_formula_sum "Si O2"
_cell_formula_units_Z 48
_cell_length_a 18.774286
_cell_length_b 8.653569
_cell_length_c 31.635311
_cell_angle_alpha 90.000000
_cell_angle_beta 151.807715
_cell_angle_gamma 90.000000
_cell_volume 2428.120240
_symmetry_space_group_name_H-M "C 2/M"
_symmetry_group_IT_number 12
_symmetry_cell_setting 'monoclinic'
loop_
_space_group_symop_operation_xyz
x,y,z
-x,y,-z
-x,-y,-z
x,-y,z
1/2+x,1/2+y,z
1/2-x,1/2+y,-z
1/2-x,1/2-y,-z
1/2+x,1/2-y,z
loop_
_atom_site_type_symbol
_atom_site_label
_atom_site_fract_x
_atom_site_fract_y
_atom_site_fract_z
Si Si1 0.086847 0.817988 0.103899
Si Si2 0.651531 0.820784 0.391366
Si Si3 0.022693 0.680011 0.233987
Si Si4 0.709683 0.818386 0.085504
Si Si5 0.975970 0.821421 0.594474
Si Si6 0.715644 0.320090 0.261919
O O1 0.198089 0.750377 0.126546
O O2 0.151953 0.770634 0.183122
O O3 0.079838 0.000000 0.093994
O O4 0.919728 0.749773 0.012254
O O5 0.607647 0.772057 0.321297
O O6 0.551089 0.721032 0.370799
O O7 0.827696 0.783611 0.489574
O O8 0.617838 0.000000 0.383099
O O9 0.982731 0.500000 0.212832
O O10 0.130711 0.719010 0.251944
O O11 0.869413 0.775875 0.148826
O O12 0.688648 0.000000 0.076787
O O13 0.107820 0.718414 0.643643
O O14 0.021719 0.000000 0.615423
O O15 0.689935 0.500000 0.257743
#
# Coordination Sequence:
#
# PCOD8101956 Si02
#       6
#     8   8   8   8   8   8
#     4  10  21  39  61  83 111 148 187 227 275 330
#     4   9  20  38  59  84 112 146 188 230 274 328
#     4  11  23  39  58  80 113 153 188 226 276 333
#     4  11  22  37  60  88 114 141 183 234 278 327
#     4  10  20  36  60  86 112 145 186 231 278 328
#     4  11  24  39  56  82 115 149 187 230 276 330
#
# _framework density 19.768378999999999
#
# number of rings (size 3 to 8) (size 9 to 14) (size 15 to 20)
#    0.000    1.667    0.000    5.500    0.000   10.000 
#    0.000    3.333    0.000    0.000    0.000    0.000 
#    0.000    0.000    0.000    0.000    0.000    0.000 
#
# Total GULP energy -297759.556693 kJ/mol
# GULP energy per Si atom -12406.648196 kJ/mol
# Density = 1.972339 g / cm^3
# Si number density = 19.768379 Si / 1000 Ang^3
#
#
#
# Elastic Constant Matrix: (Units=GPa)
#
#
# Indices 1 2 3 4 5 6 
#
# 1 87.0742 25.8904 45.1593 0.0001 18.3857 -0.0004
# 2 25.8904 79.3643 31.0900 0.0001 2.2807 -0.0001
# 3 45.1593 31.0900 83.4358 0.0003 17.9391 -0.0001
# 4 0.0001 0.0001 0.0003 30.8267 -0.0001 5.3123
# 5 18.3857 2.2807 17.9391 -0.0001 21.7621 0.0001
# 6 -0.0004 -0.0001 -0.0001 5.3123 0.0001 36.2428
#
#
#
# Elastic Compliance Matrix: (Units=1/GPa)
#
#
# Indices 1 2 3 4 5 6 
#
# 1 0.017684 -0.002969 -0.006466 0.000000 -0.009299 0.000000
# 2 -0.002969 0.015492 -0.005294 0.000000 0.005249 0.000000
# 3 -0.006466 -0.005294 0.019646 0.000000 -0.010177 0.000000
# 4 0.000000 0.000000 0.000000 0.033280 0.000000 -0.004878
# 5 -0.009299 0.005249 -0.010177 0.000000 0.061647 0.000000
# 6 0.000000 0.000000 0.000000 -0.004878 0.000000 0.028307
#
#
# Mechanical properties :
#
#
# Convention : Reuss Voigt Hill
#
# Bulk Modulus (GPa) = 42.80116 50.46153 46.63134
# Shear Modulus (GPa) = 23.44106 27.61529 25.52817
#
# Velocity S-wave (km/s) = 3.44726 3.74162 3.59745
# Velocity P-wave (km/s) = 6.12724 6.65193 6.39497
#
# Compressibility (1/GPa) = 0.02336385
#
# Stress axis : x y z
#
# Youngs Moduli (GPa) = 56.54787 64.55062 50.90170
#
# Poissons Ratio (x) = 0.19164 0.32912
# Poissons Ratio (y) = 0.16788 0.26948
# Poissons Ratio (z) = 0.36563 0.34174
#
# Static dielectric constant tensor:
#      x y z
#    x 3.474950 0.000000 -0.018610 
#    y 0.000000 3.613010 0.000000 
#    z -0.018610 0.000000 3.753890 
# 
# 
# High freq. dielectric constant tensor:
#      x y z
#    x 1.764860 0.000000 0.005090 
#    y 0.000000 1.780320 0.000000 
#    z 0.005090 0.000000 1.781930 
# 
# From -- ./inp_files/295368.got.cif
#   From: 2010.06.25/outbox.cif.g09.slc.cpg/sg12_148_cif.got.tgz:295368.got - 2010.06.28 00:19:55.
