data_PCOD8101485
_publ_section_title
;
Structure prediction by ZEFSAII (Michael W. Deem and Ramdas Pophale) SiO2 
 PCOD8101485
Probable space group: C 2/M
;
_chemical_formula_sum "Si O2"
_cell_formula_units_Z 52
_cell_length_a 20.318462
_cell_length_b 26.117023
_cell_length_c 6.765206
_cell_angle_alpha 90.000000
_cell_angle_beta 132.306106
_cell_angle_gamma 90.000000
_cell_volume 2655.024730
_symmetry_space_group_name_H-M "C 2/M"
_symmetry_group_IT_number 12
_symmetry_cell_setting 'monoclinic'
loop_
_space_group_symop_operation_xyz
x,y,z
-x,y,-z
-x,-y,-z
x,-y,z
1/2+x,1/2+y,z
1/2-x,1/2+y,-z
1/2-x,1/2-y,-z
1/2+x,1/2-y,z
loop_
_atom_site_type_symbol
_atom_site_label
_atom_site_fract_x
_atom_site_fract_y
_atom_site_fract_z
Si Si1 0.419091 0.718135 0.463121
Si Si2 0.603978 0.120204 0.185751
Si Si3 0.143588 0.858357 0.987182
Si Si4 0.089553 0.556692 0.790007
Si Si5 0.725579 0.056287 0.723664
Si Si6 0.000000 0.830270 0.000000
Si Si7 0.298935 0.212326 0.452340
O O1 0.500000 0.743525 0.500000
O O2 0.341999 0.759912 0.345858
O O3 0.445370 0.705287 0.740518
O O4 0.391280 0.666560 0.288236
O O5 0.663042 0.084882 0.443699
O O6 0.628637 0.179568 0.275496
O O7 0.500000 0.110480 0.000000
O O8 0.622759 0.101298 0.002789
O O9 0.181524 0.915286 0.037220
O O10 0.224563 0.824082 0.218576
O O11 0.067495 0.863237 0.001823
O O12 0.071443 0.500000 0.850475
O O13 0.171963 0.550866 0.814406
O O14 0.000000 0.575582 0.500000
O O15 0.749852 0.000000 0.689518
O O16 0.250000 0.250000 0.500000
#
# Coordination Sequence:
#
# PCOD8101485 Si02
#       7
#     8   8   8   8   8   4   8
#     4  10  22  40  62  85 118 160 201 244 304 358
#     4  11  23  37  57  88 121 159 198 246 294 348
#     4  10  22  39  62  88 115 159 200 246 302 353
#     4  10  20  36  58  83 117 160 197 236 290 351
#     4  10  22  39  59  89 122 155 198 243 296 360
#     4  10  20  40  63  86 116 150 197 254 300 354
#     4  11  23  39  59  85 125 158 200 250 291 352
#
# _framework density 19.585505000000001
#
# number of rings (size 3 to 8) (size 9 to 14) (size 15 to 20)
#    0.000    1.692    3.077    0.923    3.231    0.615 
#    5.538    0.385    0.000    4.154    0.000    0.000 
#    0.000    0.000    0.000    0.000    0.000    0.000 
#
# Total GULP energy -322215.331299 kJ/mol
# GULP energy per Si atom -12392.897358 kJ/mol
# Density = 1.954093 g / cm^3
# Si number density = 19.585505 Si / 1000 Ang^3
#
#
#
# Elastic Constant Matrix: (Units=GPa)
#
#
# Indices 1 2 3 4 5 6 
#
# 1 118.5781 55.3618 30.3926 0.0000 3.3493 0.0000
# 2 55.3618 116.7100 41.2520 0.0000 -0.5848 0.0000
# 3 30.3926 41.2520 96.0584 0.0000 -6.7202 0.0000
# 4 0.0000 0.0000 0.0000 27.3471 0.0000 1.2054
# 5 3.3493 -0.5848 -6.7202 0.0000 29.9666 0.0000
# 6 0.0000 0.0000 0.0000 1.2054 0.0000 22.1854
#
#
#
# Elastic Compliance Matrix: (Units=1/GPa)
#
#
# Indices 1 2 3 4 5 6 
#
# 1 0.011087 -0.004699 -0.001608 0.000000 -0.001692 0.000000
# 2 -0.004699 0.012112 -0.003720 0.000000 -0.000073 0.000000
# 3 -0.001608 -0.003720 0.012724 0.000000 0.002961 0.000000
# 4 0.000000 0.000000 0.000000 0.036655 0.000000 -0.001992
# 5 -0.001692 -0.000073 0.002961 0.000000 0.034222 0.000000
# 6 0.000000 0.000000 0.000000 -0.001992 0.000000 0.045183
#
#
# Mechanical properties :
#
#
# Convention : Reuss Voigt Hill
#
# Bulk Modulus (GPa) = 63.01820 65.03992 64.02906
# Shear Modulus (GPa) = 28.19666 29.52250 28.85958
#
# Velocity S-wave (km/s) = 3.79841 3.88669 3.84281
# Velocity P-wave (km/s) = 7.17517 7.30904 7.24242
#
# Compressibility (1/GPa) = 0.01586843
#
# Stress axis : x y z
#
# Youngs Moduli (GPa) = 90.19367 82.56466 78.59385
#
# Poissons Ratio (x) = 0.38800 0.12640
# Poissons Ratio (y) = 0.42385 0.29233
# Poissons Ratio (z) = 0.14505 0.30710
#
# Static dielectric constant tensor:
#      x y z
#    x 3.471260 0.000000 0.025300 
#    y 0.000000 -0.536680 0.000000 
#    z 0.025300 0.000000 3.654680 
# 
# 
# High freq. dielectric constant tensor:
#      x y z
#    x 1.769020 0.000000 0.002700 
#    y 0.000000 1.749900 0.000000 
#    z 0.002700 0.000000 1.763680 
# 
# From -- ./inp_files/17741.got.cif
#   From: 2010.06.25/outbox.cif.g09.slc.cpg/sg12_9_cif.got.tgz:17741.got - 2010.06.28 00:19:55.
