data_PCOD8101807
_publ_section_title
;
Structure prediction by ZEFSAII (Michael W. Deem and Ramdas Pophale) SiO2 
 PCOD8101807
Probable space group: C 2/M
;
_chemical_formula_sum "Si O2"
_cell_formula_units_Z 44
_cell_length_a 10.782429
_cell_length_b 14.568073
_cell_length_c 19.578996
_cell_angle_alpha 90.000000
_cell_angle_beta 136.292386
_cell_angle_gamma 90.000000
_cell_volume 2125.072031
_symmetry_space_group_name_H-M "C 2/M"
_symmetry_group_IT_number 12
_symmetry_cell_setting 'monoclinic'
loop_
_space_group_symop_operation_xyz
x,y,z
-x,y,-z
-x,-y,-z
x,-y,z
1/2+x,1/2+y,z
1/2-x,1/2+y,-z
1/2-x,1/2-y,-z
1/2+x,1/2-y,z
loop_
_atom_site_type_symbol
_atom_site_label
_atom_site_fract_x
_atom_site_fract_y
_atom_site_fract_z
Si Si1 0.650056 0.723778 0.192551
Si Si2 0.152500 0.099138 0.713922
Si Si3 0.625465 0.896851 0.635922
Si Si4 0.661623 0.601530 0.878969
Si Si5 0.745507 0.657266 0.455512
Si Si6 0.000000 0.700658 0.000000
O O1 0.710462 0.819734 0.253193
O O2 0.812536 0.651267 0.268770
O O3 0.474498 0.681169 0.155651
O O4 0.610858 0.736129 0.096757
O O5 0.156094 0.094566 0.796210
O O6 0.948548 0.114169 0.607333
O O7 0.216060 0.000000 0.709527
O O8 0.713321 0.835232 0.609635
O O9 0.409926 0.904350 0.549085
O O10 0.704549 0.000000 0.662346
O O11 0.621624 0.500000 0.894783
O O12 0.857921 0.635084 0.982600
O O13 0.750000 0.750000 0.500000
#
# Coordination Sequence:
#
# PCOD8101807 Si02
#       6
#     8   8   8   8   8   4
#     4  11  21  37  60  90 119 154 200 243 297 341
#     4  10  20  36  59  86 118 156 199 241 287 349
#     4  11  22  37  61  89 119 157 203 241 283 351
#     4  10  20  38  63  86 113 152 198 245 293 356
#     4  11  20  35  59  91 118 150 191 245 292 342
#     4  10  23  38  59  88 120 152 195 250 299 350
#
# _framework density 20.705179999999999
#
# number of rings (size 3 to 8) (size 9 to 14) (size 15 to 20)
#    0.000    1.455    3.636    3.545    0.000    0.727 
#    0.000    1.818    0.000   17.455    0.000    0.000 
#    0.000    0.000    0.000    0.000    0.000    0.000 
#
# Total GULP energy -272537.885481 kJ/mol
# GULP energy per Si atom -12388.085704 kJ/mol
# Density = 2.065805 g / cm^3
# Si number density = 20.705180 Si / 1000 Ang^3
#
#
#
# Elastic Constant Matrix: (Units=GPa)
#
#
# Indices 1 2 3 4 5 6 
#
# 1 47.3019 59.9085 27.7234 0.0000 20.9605 0.0000
# 2 59.9085 175.3825 62.0130 0.0000 5.6739 0.0000
# 3 27.7234 62.0130 137.0271 0.0000 14.7603 0.0000
# 4 0.0000 0.0000 0.0000 -63.5267 0.0000 38.0906
# 5 20.9605 5.6739 14.7603 0.0000 33.4152 0.0000
# 6 0.0000 0.0000 0.0000 38.0906 0.0000 22.5361
#
#
#
# Elastic Compliance Matrix: (Units=1/GPa)
#
#
# Indices 1 2 3 4 5 6 
#
# 1 0.062720 -0.020410 0.000433 0.000000 -0.036068 0.000000
# 2 -0.020410 0.013432 -0.003237 0.000000 0.011952 0.000000
# 3 0.000433 -0.003237 0.009077 0.000000 -0.003731 0.000000
# 4 0.000000 0.000000 0.000000 -0.007818 0.000000 0.013214
# 5 -0.036068 0.011952 -0.003731 0.000000 0.052170 0.000000
# 6 0.000000 0.000000 0.000000 0.013214 0.000000 0.022039
#
#
# Mechanical properties :
#
#
# Convention : Reuss Voigt Hill
#
# Bulk Modulus (GPa) = 25.77349 73.22237 49.49793
# Shear Modulus (GPa) = 23.69887 12.48935 18.09411
#
# Velocity S-wave (km/s) = 3.38684 2.45868 2.95938
# Velocity P-wave (km/s) = 5.26964 6.59554 5.96952
#
# Compressibility (1/GPa) = 0.03879956
#
# Stress axis : x y z
#
# Youngs Moduli (GPa) = 15.94391 74.45161 110.16893
#
# Poissons Ratio (x) = 1.51959 -0.04766
# Poissons Ratio (y) = 0.32542 0.35657
# Poissons Ratio (z) = -0.00690 0.24097
#
# Static dielectric constant tensor:
#      x y z
#    x 3.473620 0.000000 0.279010 
#    y 0.000000 4.398650 0.000000 
#    z 0.279010 0.000000 4.204530 
# 
# 
# High freq. dielectric constant tensor:
#      x y z
#    x 1.753310 0.000000 0.026080 
#    y 0.000000 1.818040 0.000000 
#    z 0.026080 0.000000 1.833560 
# 
# From -- ./inp_files/335734.got.cif
#   From: 2010.06.25/outbox.cif.g09.slc.cpg/sg12_168_cif.got.tgz:335734.got - 2010.06.28 00:19:55.
