data_PCOD8101503
_publ_section_title
;
Structure prediction by ZEFSAII (Michael W. Deem and Ramdas Pophale) SiO2 
 PCOD8101503
Probable space group: C 2/M
;
_chemical_formula_sum "Si O2"
_cell_formula_units_Z 48
_cell_length_a 20.432483
_cell_length_b 8.779103
_cell_length_c 26.549130
_cell_angle_alpha 90.000000
_cell_angle_beta 30.168842
_cell_angle_gamma 90.000000
_cell_volume 2393.319894
_symmetry_space_group_name_H-M "C 2/M"
_symmetry_group_IT_number 12
_symmetry_cell_setting 'monoclinic'
loop_
_space_group_symop_operation_xyz
x,y,z
-x,y,-z
-x,-y,-z
x,-y,z
1/2+x,1/2+y,z
1/2-x,1/2+y,-z
1/2-x,1/2-y,-z
1/2+x,1/2-y,z
loop_
_atom_site_type_symbol
_atom_site_label
_atom_site_fract_x
_atom_site_fract_y
_atom_site_fract_z
Si Si1 0.384299 0.177956 0.894264
Si Si2 0.625855 0.821932 0.214993
Si Si3 0.870701 0.819552 0.215721
Si Si4 0.872413 0.681210 0.558013
Si Si5 0.860162 0.321556 0.115194
Si Si6 0.873753 0.680168 0.443725
O O1 0.410792 0.214213 0.818220
O O2 0.495358 0.248124 0.855076
O O3 0.379147 0.000000 0.908461
O O4 0.250000 0.250000 0.000000
O O5 0.752866 0.727355 0.145805
O O6 0.505100 0.765375 0.328937
O O7 0.655223 0.000000 0.203561
O O8 0.755936 0.759111 0.328288
O O9 0.836177 0.769406 0.182421
O O10 0.882942 0.000000 0.209314
O O11 0.875915 0.500000 0.556765
O O12 0.874488 0.742907 0.499928
O O13 0.000000 0.748683 0.500000
O O14 0.849924 0.500000 0.132960
O O15 0.000000 0.276886 0.000000
O O16 0.862277 0.500000 0.449245
O O17 0.750000 0.750000 0.500000
#
# Coordination Sequence:
#
# PCOD8101503 Si02
#       6
#     8   8   8   8   8   8
#     4  11  23  39  59  85 117 151 191 237 285 337
#     4  10  22  39  60  85 114 151 192 235 283 337
#     4  11  22  37  60  87 116 152 191 231 281 339
#     4   9  18  34  57  83 111 146 187 228 272 329
#     4  11  24  40  59  84 114 149 191 239 287 337
#     4  10  20  36  58  84 114 147 185 229 278 333
#
# _framework density 20.055824000000001
#
# number of rings (size 3 to 8) (size 9 to 14) (size 15 to 20)
#    0.000    1.667    0.000    4.500    0.000    8.667 
#    0.000    0.833    0.000    3.500    0.000    0.000 
#    0.000    0.000    0.000    0.000    0.000    0.000 
#
# Total GULP energy -297731.878252 kJ/mol
# GULP energy per Si atom -12405.494927 kJ/mol
# Density = 2.001018 g / cm^3
# Si number density = 20.055824 Si / 1000 Ang^3
#
#
#
# Elastic Constant Matrix: (Units=GPa)
#
#
# Indices 1 2 3 4 5 6 
#
# 1 102.8470 23.9880 20.9005 0.0017 -4.7843 -0.0028
# 2 23.9880 55.1420 29.7734 0.0038 -0.1809 -0.0081
# 3 20.9005 29.7734 113.9514 0.0017 -1.1049 -0.0004
# 4 0.0017 0.0038 0.0017 26.4285 -0.0002 -3.9481
# 5 -4.7843 -0.1809 -1.1049 -0.0002 46.6228 0.0004
# 6 -0.0028 -0.0081 -0.0004 -3.9481 0.0004 37.3684
#
#
#
# Elastic Compliance Matrix: (Units=1/GPa)
#
#
# Indices 1 2 3 4 5 6 
#
# 1 0.010952 -0.004287 -0.000878 0.000000 0.001086 0.000000
# 2 -0.004287 0.022792 -0.005173 -0.000002 -0.000474 0.000004
# 3 -0.000878 -0.005173 0.010290 0.000000 0.000134 -0.000001
# 4 0.000000 -0.000002 0.000000 0.038445 0.000000 0.004062
# 5 0.001086 -0.000474 0.000134 0.000000 0.021562 0.000000
# 6 0.000000 0.000004 -0.000001 0.004062 0.000000 0.027190
#
#
# Mechanical properties :
#
#
# Convention : Reuss Voigt Hill
#
# Bulk Modulus (GPa) = 42.81395 46.80712 44.81053
# Shear Modulus (GPa) = 31.31044 35.23586 33.27315
#
# Velocity S-wave (km/s) = 3.95544 4.19607 4.07753
# Velocity P-wave (km/s) = 6.50034 6.84581 6.67531
#
# Compressibility (1/GPa) = 0.02335688
#
# Stress axis : x y z
#
# Youngs Moduli (GPa) = 91.30752 43.87600 97.18408
#
# Poissons Ratio (x) = 0.18808 0.08535
# Poissons Ratio (y) = 0.39140 0.50277
# Poissons Ratio (z) = 0.08019 0.22699
#
# Static dielectric constant tensor:
#      x y z
#    x -2.708700 0.005110 -5.118880 
#    y 0.005110 3.464870 0.004090 
#    z -5.118880 0.004090 -0.284160 
# 
# 
# High freq. dielectric constant tensor:
#      x y z
#    x 1.800500 0.000000 0.001400 
#    y 0.000000 1.766170 0.000000 
#    z 0.001400 0.000000 1.801570 
# 
# From -- ./inp_files/319542.got.cif
#   From: 2010.06.25/outbox.cif.g09.slc.cpg/sg12_160_cif.got.tgz:319542.got - 2010.06.28 00:19:55.
