data_PCOD8101343
_publ_section_title
;
Structure prediction by ZEFSAII (Michael W. Deem and Ramdas Pophale) SiO2 
 PCOD8101343
Probable space group: C 2/M
;
_chemical_formula_sum "Si O2"
_cell_formula_units_Z 56
_cell_length_a 31.376511
_cell_length_b 9.861350
_cell_length_c 21.728708
_cell_angle_alpha 90.000000
_cell_angle_beta 26.056998
_cell_angle_gamma 90.000000
_cell_volume 2953.259290
_symmetry_space_group_name_H-M "C 2/M"
_symmetry_group_IT_number 12
_symmetry_cell_setting 'monoclinic'
loop_
_space_group_symop_operation_xyz
x,y,z
-x,y,-z
-x,-y,-z
x,-y,z
1/2+x,1/2+y,z
1/2-x,1/2+y,-z
1/2-x,1/2-y,-z
1/2+x,1/2-y,z
loop_
_atom_site_type_symbol
_atom_site_label
_atom_site_fract_x
_atom_site_fract_y
_atom_site_fract_z
Si Si1 0.953644 0.654178 0.999070
Si Si2 0.013069 0.344844 0.644487
Si Si3 0.432536 0.650092 0.529595
Si Si4 0.851763 0.651066 0.315718
Si Si5 0.274997 0.161454 0.154587
Si Si6 0.189122 0.658769 0.031896
Si Si7 0.800281 0.655191 0.520081
O O1 0.927167 0.500000 0.052071
O O2 0.033797 0.661222 0.842166
O O3 0.857319 0.722380 0.094289
O O4 0.000000 0.726133 0.000000
O O5 0.012146 0.500000 0.622954
O O6 0.008005 0.247544 0.592629
O O7 0.113934 0.307364 0.545631
O O8 0.924390 0.319054 0.806000
O O9 0.500000 0.634514 0.500000
O O10 0.417989 0.500000 0.518873
O O11 0.328474 0.711579 0.685181
O O12 0.813366 0.500000 0.351741
O O13 0.837871 0.692159 0.403892
O O14 0.793191 0.750639 0.345553
O O15 0.282639 0.000000 0.143670
O O16 0.290915 0.211293 0.063572
O O17 0.218012 0.500000 0.002014
O O18 0.250000 0.750000 0.000000
O O19 0.767873 0.500000 0.568495
#
# Coordination Sequence:
#
# PCOD8101343 Si02
#       7
#     8   8   8   8   8   8   8
#     4   9  17  28  47  76 104 131 172 218 255 300
#     4  10  21  35  54  78 106 141 177 213 260 322
#     4  10  21  36  55  80 109 139 174 221 272 317
#     4   9  17  30  50  74 100 130 170 216 256 296
#     4   9  18  33  53  77 109 143 175 220 273 316
#     4  10  20  36  58  81 106 138 177 221 271 319
#     4   9  18  32  49  72 103 136 168 206 257 310
#
# _framework density 18.9621
#
# number of rings (size 3 to 8) (size 9 to 14) (size 15 to 20)
#    0.000    2.571    0.000    1.714    2.000    6.000 
#    0.000    0.714    0.000    3.857    0.000    0.000 
#    0.000    0.000    0.000    0.000    0.000    0.000 
#
# Total GULP energy -347055.480291 kJ/mol
# GULP energy per Si atom -12394.838582 kJ/mol
# Density = 1.891894 g / cm^3
# Si number density = 18.962100 Si / 1000 Ang^3
#
#
#
# Elastic Constant Matrix: (Units=GPa)
#
#
# Indices 1 2 3 4 5 6 
#
# 1 89.5109 24.3833 21.2498 0.0040 -8.3875 -0.0014
# 2 24.3833 46.5797 19.2581 -0.0003 -0.3490 0.0009
# 3 21.2498 19.2581 80.5420 0.0021 -3.4979 -0.0010
# 4 0.0040 -0.0003 0.0021 23.3253 -0.0001 -2.0074
# 5 -8.3875 -0.3490 -3.4979 -0.0001 31.8120 -0.0002
# 6 -0.0014 0.0009 -0.0010 -2.0074 -0.0002 21.1967
#
#
#
# Elastic Compliance Matrix: (Units=1/GPa)
#
#
# Indices 1 2 3 4 5 6 
#
# 1 0.013669 -0.006324 -0.001950 -0.000002 0.003320 0.000001
# 2 -0.006324 0.026754 -0.004811 0.000002 -0.001903 -0.000002
# 3 -0.001950 -0.004811 0.014124 -0.000001 0.000986 0.000001
# 4 -0.000002 0.000002 -0.000001 0.043224 0.000000 0.004094
# 5 0.003320 -0.001903 0.000986 0.000000 0.032398 0.000001
# 6 0.000001 -0.000002 0.000001 0.004094 0.000001 0.047565
#
#
# Mechanical properties :
#
#
# Convention : Reuss Voigt Hill
#
# Bulk Modulus (GPa) = 35.24141 38.49055 36.86598
# Shear Modulus (GPa) = 23.43439 25.38289 24.40864
#
# Velocity S-wave (km/s) = 3.51929 3.66267 3.59169
# Velocity P-wave (km/s) = 5.92785 6.18301 6.05677
#
# Compressibility (1/GPa) = 0.02837571
#
# Stress axis : x y z
#
# Youngs Moduli (GPa) = 73.16066 37.37761 70.80367
#
# Poissons Ratio (x) = 0.23638 0.13806
# Poissons Ratio (y) = 0.46267 0.34065
# Poissons Ratio (z) = 0.14266 0.17983
#
# Static dielectric constant tensor:
#      x y z
#    x 3.564750 0.000000 -0.113280 
#    y 0.000000 3.236410 0.000000 
#    z -0.113280 0.000000 3.617800 
# 
# 
# High freq. dielectric constant tensor:
#      x y z
#    x 1.742010 0.000000 -0.006120 
#    y 0.000000 1.696140 0.000000 
#    z -0.006120 0.000000 1.745610 
# 
# From -- ./inp_files/329564.got.cif
#   From: 2010.06.25/outbox.cif.g09.slc.cpg/sg12_165_cif.got.tgz:329564.got - 2010.06.28 00:19:55.
