data_PCOD8101957
_publ_section_title
;
Structure prediction by ZEFSAII (Michael W. Deem and Ramdas Pophale) SiO2 
 PCOD8101957
Probable space group: C 2/M
;
_chemical_formula_sum "Si O2"
_cell_formula_units_Z 48
_cell_length_a 24.886318
_cell_length_b 8.960518
_cell_length_c 12.306003
_cell_angle_alpha 90.000000
_cell_angle_beta 108.895208
_cell_angle_gamma 90.000000
_cell_volume 2596.292002
_symmetry_space_group_name_H-M "C 2/M"
_symmetry_group_IT_number 12
_symmetry_cell_setting 'monoclinic'
loop_
_space_group_symop_operation_xyz
x,y,z
-x,y,-z
-x,-y,-z
x,-y,z
1/2+x,1/2+y,z
1/2-x,1/2+y,-z
1/2-x,1/2-y,-z
1/2+x,1/2-y,z
loop_
_atom_site_type_symbol
_atom_site_label
_atom_site_fract_x
_atom_site_fract_y
_atom_site_fract_z
Si Si1 0.123269 0.670560 0.271644
Si Si2 0.804750 0.826164 0.253015
Si Si3 0.802875 0.671817 0.478319
Si Si4 0.111420 0.827538 0.883151
Si Si5 0.500562 0.175093 0.877275
Si Si6 0.309906 0.676463 0.870109
O O1 0.130869 0.500000 0.235455
O O2 0.142059 0.686063 0.408802
O O3 0.057958 0.720544 0.219657
O O4 0.162404 0.777945 0.225785
O O5 0.818332 0.750169 0.376159
O O6 0.859131 0.799465 0.212952
O O7 0.750876 0.754230 0.158052
O O8 0.792213 0.000000 0.263514
O O9 0.787010 0.500000 0.445883
O O10 0.750000 0.750000 0.500000
O O11 0.051331 0.745594 0.841860
O O12 0.099771 0.000000 0.896969
O O13 0.150910 0.764816 0.005994
O O14 0.510455 0.000000 0.884798
O O15 0.500000 0.237948 0.000000
O O16 0.301132 0.500000 0.868742
#
# Coordination Sequence:
#
# PCOD8101957 Si02
#       6
#     8   8   8   8   8   8
#     4  10  21  37  57  85 117 147 184 234 286 336
#     4  11  23  39  57  81 118 155 191 235 287 340
#     4  11  22  37  59  85 115 150 192 235 283 337
#     4  10  23  39  56  84 118 153 189 235 289 340
#     4  10  20  36  60  86 112 149 191 231 283 343
#     4  11  21  34  57  87 116 147 188 233 288 346
#
# _framework density 18.487905000000001
#
# number of rings (size 3 to 8) (size 9 to 14) (size 15 to 20)
#    0.000    1.500    3.333    2.000    0.000    3.667 
#    0.000    0.833    0.000    5.000    0.000    0.000 
#    0.000    0.000    0.000    0.000    0.000    0.000 
#
# Total GULP energy -297719.836914 kJ/mol
# GULP energy per Si atom -12404.993205 kJ/mol
# Density = 1.844583 g / cm^3
# Si number density = 18.487905 Si / 1000 Ang^3
#
#
#
# Elastic Constant Matrix: (Units=GPa)
#
#
# Indices 1 2 3 4 5 6 
#
# 1 116.2430 46.7013 37.7384 0.0000 9.6341 0.0000
# 2 46.7013 80.4853 29.4471 0.0000 -0.6205 0.0000
# 3 37.7384 29.4471 89.2444 0.0000 5.3399 0.0000
# 4 0.0000 0.0000 0.0000 28.4522 0.0000 -1.8410
# 5 9.6341 -0.6205 5.3399 0.0000 32.6718 0.0000
# 6 0.0000 0.0000 0.0000 -1.8410 0.0000 32.9504
#
#
#
# Elastic Compliance Matrix: (Units=1/GPa)
#
#
# Indices 1 2 3 4 5 6 
#
# 1 0.012277 -0.006051 -0.003001 0.000000 -0.003245 0.000000
# 2 -0.006051 0.017148 -0.003258 0.000000 0.002642 0.000000
# 3 -0.003001 -0.003258 0.013633 0.000000 -0.001405 0.000000
# 4 0.000000 0.000000 0.000000 0.035274 0.000000 0.001971
# 5 -0.003245 0.002642 -0.001405 0.000000 0.031844 0.000000
# 6 0.000000 0.000000 0.000000 0.001971 0.000000 0.030459
#
#
# Mechanical properties :
#
#
# Convention : Reuss Voigt Hill
#
# Bulk Modulus (GPa) = 54.23141 57.08295 55.65718
# Shear Modulus (GPa) = 29.17176 30.28728 29.72952
#
# Velocity S-wave (km/s) = 3.97657 4.05189 4.01440
# Velocity P-wave (km/s) = 7.10502 7.26865 7.18730
#
# Compressibility (1/GPa) = 0.01843950
#
# Stress axis : x y z
#
# Youngs Moduli (GPa) = 81.45555 58.31693 73.35111
#
# Poissons Ratio (x) = 0.35285 0.22011
# Poissons Ratio (y) = 0.49285 0.23895
# Poissons Ratio (z) = 0.24443 0.18997
#
# Static dielectric constant tensor:
#      x y z
#    x 3.341700 0.000000 0.122930 
#    y 0.000000 3.436660 0.000000 
#    z 0.122930 0.000000 3.543590 
# 
# 
# High freq. dielectric constant tensor:
#      x y z
#    x 1.712950 0.000000 0.006070 
#    y 0.000000 1.722090 0.000000 
#    z 0.006070 0.000000 1.719270 
# 
# From -- ./inp_files/172067.got.cif
#   From: 2010.06.25/outbox.cif.g09.slc.cpg/sg12_87_cif.got.tgz:172067.got - 2010.06.28 00:19:55.
