data_PCOD8101141
_publ_section_title
;
Structure prediction by ZEFSAII (Michael W. Deem and Ramdas Pophale) SiO2 
 PCOD8101141
Probable space group: C 2/M
;
_chemical_formula_sum "Si O2"
_cell_formula_units_Z 48
_cell_length_a 23.037990
_cell_length_b 9.384003
_cell_length_c 12.254554
_cell_angle_alpha 90.000000
_cell_angle_beta 70.537884
_cell_angle_gamma 90.000000
_cell_volume 2497.919080
_symmetry_space_group_name_H-M "C 2/M"
_symmetry_group_IT_number 12
_symmetry_cell_setting 'monoclinic'
loop_
_space_group_symop_operation_xyz
x,y,z
-x,y,-z
-x,-y,-z
x,-y,z
1/2+x,1/2+y,z
1/2-x,1/2+y,-z
1/2-x,1/2-y,-z
1/2+x,1/2-y,z
loop_
_atom_site_type_symbol
_atom_site_label
_atom_site_fract_x
_atom_site_fract_y
_atom_site_fract_z
Si Si1 0.299032 0.335068 0.709272
Si Si2 0.320221 0.664241 0.241244
Si Si3 0.635009 0.663780 0.551891
Si Si4 0.931907 0.165022 0.030876
Si Si5 0.090763 0.837310 0.202137
Si Si6 0.486512 0.166712 0.383762
O O1 0.281642 0.500000 0.708824
O O2 0.237308 0.248656 0.771364
O O3 0.330383 0.280669 0.577571
O O4 0.343966 0.305728 0.782591
O O5 0.312418 0.500000 0.211578
O O6 0.320762 0.681123 0.371635
O O7 0.383195 0.727842 0.148950
O O8 0.613952 0.500000 0.549705
O O9 0.576157 0.759411 0.612448
O O10 0.940326 0.000000 0.053667
O O11 0.902893 0.189949 0.930198
O O12 0.000000 0.237297 0.000000
O O13 0.040940 0.728764 0.277829
O O14 0.069923 0.000000 0.239763
O O15 0.500000 0.202661 0.500000
O O16 0.481040 0.000000 0.364691
#
# Coordination Sequence:
#
# PCOD8101141 Si02
#       6
#     8   8   8   8   8   8
#     4  10  21  35  53  80 111 145 185 226 273 323
#     4  10  21  36  57  82 108 144 187 226 269 320
#     4  10  20  36  57  80 109 148 187 222 267 327
#     4   9  18  35  58  82 106 138 184 229 266 317
#     4  10  20  36  58  80 109 148 186 223 266 324
#     4  11  22  34  53  84 115 140 174 226 281 322
#
# _framework density 19.215993000000001
#
# number of rings (size 3 to 8) (size 9 to 14) (size 15 to 20)
#    0.000    2.000    1.667    2.000    0.000    6.000 
#    0.000    0.833    0.000    2.000    0.000    0.000 
#    0.000    0.000    0.000    0.000    0.000    0.000 
#
# Total GULP energy -297656.620267 kJ/mol
# GULP energy per Si atom -12402.359178 kJ/mol
# Density = 1.917226 g / cm^3
# Si number density = 19.215993 Si / 1000 Ang^3
#
#
#
# Elastic Constant Matrix: (Units=GPa)
#
#
# Indices 1 2 3 4 5 6 
#
# 1 134.6415 39.8887 50.4701 0.0000 -5.6581 0.0000
# 2 39.8887 45.7701 17.9819 0.0000 -5.3657 0.0000
# 3 50.4701 17.9819 97.0522 0.0000 1.7400 0.0000
# 4 0.0000 0.0000 0.0000 21.4374 0.0000 -2.4988
# 5 -5.6581 -5.3657 1.7400 0.0000 29.0911 0.0000
# 6 0.0000 0.0000 0.0000 -2.4988 0.0000 39.9287
#
#
#
# Elastic Compliance Matrix: (Units=1/GPa)
#
#
# Indices 1 2 3 4 5 6 
#
# 1 0.011600 -0.008211 -0.004529 0.000000 0.001013 0.000000
# 2 -0.008211 0.030011 -0.001362 0.000000 0.004020 0.000000
# 3 -0.004529 -0.001362 0.012946 0.000000 -0.001906 0.000000
# 4 0.000000 0.000000 0.000000 0.046990 0.000000 0.002941
# 5 0.001013 0.004020 -0.001906 0.000000 0.035427 0.000000
# 6 0.000000 0.000000 0.000000 0.002941 0.000000 0.025229
#
#
# Mechanical properties :
#
#
# Convention : Reuss Voigt Hill
#
# Bulk Modulus (GPa) = 37.94929 54.90505 46.42717
# Shear Modulus (GPa) = 25.10135 29.36630 27.23383
#
# Velocity S-wave (km/s) = 3.61816 3.91349 3.76872
# Velocity P-wave (km/s) = 6.10299 7.00394 6.56893
#
# Compressibility (1/GPa) = 0.02635095
#
# Stress axis : x y z
#
# Youngs Moduli (GPa) = 86.20584 33.32102 77.24614
#
# Poissons Ratio (x) = 0.27361 0.34986
# Poissons Ratio (y) = 0.70788 0.10524
# Poissons Ratio (z) = 0.39044 0.04539
#
# Static dielectric constant tensor:
#      x y z
#    x 3.564860 0.000000 0.053500 
#    y 0.000000 3.279460 0.000000 
#    z 0.053500 0.000000 3.589300 
# 
# 
# High freq. dielectric constant tensor:
#      x y z
#    x 1.753950 0.000000 0.004460 
#    y 0.000000 1.720110 0.000000 
#    z 0.004460 0.000000 1.751740 
# 
# From -- ./inp_files/172204.got.cif
#   From: 2010.06.25/outbox.cif.g09.slc.cpg/sg12_87_cif.got.tgz:172204.got - 2010.06.28 00:19:55.
