data_PCOD8101421
_publ_section_title
;
Structure prediction by ZEFSAII (Michael W. Deem and Ramdas Pophale) SiO2 
 PCOD8101421
Probable space group: C 2/M
;
_chemical_formula_sum "Si O2"
_cell_formula_units_Z 56
_cell_length_a 18.131236
_cell_length_b 8.733415
_cell_length_c 28.812590
_cell_angle_alpha 90.000000
_cell_angle_beta 38.726154
_cell_angle_gamma 90.000000
_cell_volume 2854.235086
_symmetry_space_group_name_H-M "C 2/M"
_symmetry_group_IT_number 12
_symmetry_cell_setting 'monoclinic'
loop_
_space_group_symop_operation_xyz
x,y,z
-x,y,-z
-x,-y,-z
x,-y,z
1/2+x,1/2+y,z
1/2-x,1/2+y,-z
1/2-x,1/2-y,-z
1/2+x,1/2-y,z
loop_
_atom_site_type_symbol
_atom_site_label
_atom_site_fract_x
_atom_site_fract_y
_atom_site_fract_z
Si Si1 0.219937 0.319157 0.657447
Si Si2 0.953643 0.682054 0.071529
Si Si3 0.377363 0.180354 0.930476
Si Si4 0.688853 0.321744 0.217728
Si Si5 0.384173 0.177894 0.653142
Si Si6 0.420617 0.331933 0.493834
Si Si7 0.971071 0.177188 0.791934
O O1 0.196365 0.500000 0.671887
O O2 0.289801 0.272305 0.669544
O O3 0.292886 0.275509 0.574834
O O4 0.099586 0.227275 0.712282
O O5 0.955609 0.500000 0.068751
O O6 0.821394 0.739267 0.145723
O O7 0.037033 0.744800 0.071437
O O8 0.000000 0.749727 0.000000
O O9 0.432021 0.223071 0.854558
O O10 0.366168 0.000000 0.939939
O O11 0.250000 0.250000 0.000000
O O12 0.685850 0.500000 0.233181
O O13 0.627999 0.222523 0.287441
O O14 0.620221 0.290857 0.204113
O O15 0.519136 0.215355 0.571769
O O16 0.360030 0.000000 0.657493
O O17 0.500000 0.346490 0.500000
O O18 0.410453 0.500000 0.475287
O O19 0.971924 0.000000 0.805845
#
# Coordination Sequence:
#
# PCOD8101421 Si02
#       7
#     8   8   8   8   8   8   8
#     4  10  20  36  58  82 112 150 188 229 282 343
#     4   9  18  35  59  83 106 140 185 225 269 329
#     4  11  22  37  60  86 114 149 187 232 285 339
#     4  10  21  38  58  79 110 151 190 231 284 343
#     4  11  21  33  55  85 114 144 186 239 285 332
#     4   8  16  32  54  79 108 145 187 229 279 340
#     4  11  23  38  58  84 113 147 190 239 286 335
#
# _framework density 19.619968
#
# number of rings (size 3 to 8) (size 9 to 14) (size 15 to 20)
#    0.000    2.000    0.000    5.143    0.000    7.714 
#    0.000    1.429    0.000    3.000    0.000    0.000 
#    0.000    0.000    0.000    0.000    0.000    0.000 
#
# Total GULP energy -347237.824346 kJ/mol
# GULP energy per Si atom -12401.350870 kJ/mol
# Density = 1.957531 g / cm^3
# Si number density = 19.619968 Si / 1000 Ang^3
#
#
#
# Elastic Constant Matrix: (Units=GPa)
#
#
# Indices 1 2 3 4 5 6 
#
# 1 107.2489 33.2761 61.6619 0.0001 -6.1376 -0.0007
# 2 33.2761 50.6894 28.2208 -0.0003 5.0052 0.0004
# 3 61.6619 28.2208 149.5977 -0.0001 -2.7918 0.0003
# 4 0.0001 -0.0003 -0.0001 30.0064 0.0001 -1.9393
# 5 -6.1376 5.0052 -2.7918 0.0001 33.2546 -0.0003
# 6 -0.0007 0.0004 0.0003 -1.9393 -0.0003 25.5807
#
#
#
# Elastic Compliance Matrix: (Units=1/GPa)
#
#
# Indices 1 2 3 4 5 6 
#
# 1 0.014343 -0.007253 -0.004481 0.000000 0.003363 0.000001
# 2 -0.007253 0.026168 -0.002048 0.000000 -0.005449 -0.000001
# 3 -0.004481 -0.002048 0.008922 0.000000 0.000230 0.000000
# 4 0.000000 0.000000 0.000000 0.033490 0.000000 0.002539
# 5 0.003363 -0.005449 0.000230 0.000000 0.031531 0.000001
# 6 0.000001 -0.000001 0.000000 0.002539 0.000001 0.039284
#
#
# Mechanical properties :
#
#
# Convention : Reuss Voigt Hill
#
# Bulk Modulus (GPa) = 45.72853 61.53929 53.63391
# Shear Modulus (GPa) = 26.51187 30.06016 28.28602
#
# Velocity S-wave (km/s) = 3.67995 3.91848 3.80109
# Velocity P-wave (km/s) = 6.43535 7.20461 6.83082
#
# Compressibility (1/GPa) = 0.02186819
#
# Stress axis : x y z
#
# Youngs Moduli (GPa) = 69.71863 38.21451 112.07802
#
# Poissons Ratio (x) = 0.27718 0.50223
# Poissons Ratio (y) = 0.50569 0.22959
# Poissons Ratio (z) = 0.31241 0.07828
#
# Static dielectric constant tensor:
#      x y z
#    x 3.484570 0.000000 -0.067860 
#    y 0.000000 3.453260 0.000000 
#    z -0.067860 0.000000 4.057280 
# 
# 
# High freq. dielectric constant tensor:
#      x y z
#    x 1.749970 0.000000 -0.002390 
#    y 0.000000 1.751280 0.000000 
#    z -0.002390 0.000000 1.785060 
# 
# From -- ./inp_files/342566.got.cif
#   From: 2010.06.25/outbox.cif.g09.slc.cpg/sg12_172_cif.got.tgz:342566.got - 2010.06.28 00:19:55.
