data_PCOD8101815
_publ_section_title
;
Structure prediction by ZEFSAII (Michael W. Deem and Ramdas Pophale) SiO2 
 PCOD8101815
Probable space group: C 2/M
;
_chemical_formula_sum "Si O2"
_cell_formula_units_Z 64
_cell_length_a 30.665053
_cell_length_b 8.512666
_cell_length_c 14.469938
_cell_angle_alpha 90.000000
_cell_angle_beta 53.587686
_cell_angle_gamma 90.000000
_cell_volume 3039.805062
_symmetry_space_group_name_H-M "C 2/M"
_symmetry_group_IT_number 12
_symmetry_cell_setting 'monoclinic'
loop_
_space_group_symop_operation_xyz
x,y,z
-x,y,-z
-x,-y,-z
x,-y,z
1/2+x,1/2+y,z
1/2-x,1/2+y,-z
1/2-x,1/2-y,-z
1/2+x,1/2-y,z
loop_
_atom_site_type_symbol
_atom_site_label
_atom_site_fract_x
_atom_site_fract_y
_atom_site_fract_z
Si Si1 0.006856 0.686361 0.095940
Si Si2 0.412907 0.314889 0.863219
Si Si3 0.871717 0.317280 0.576130
Si Si4 0.753524 0.181359 0.247862
Si Si5 0.706055 0.817928 0.986240
Si Si6 0.704063 0.186787 0.623938
Si Si7 0.949229 0.815401 0.620331
Si Si8 0.595064 0.813685 0.663314
O O1 0.005382 0.500000 0.094199
O O2 0.958136 0.754908 0.220008
O O3 0.062716 0.739172 0.074009
O O4 0.000000 0.752658 0.000000
O O5 0.418315 0.500000 0.865029
O O6 0.444798 0.251844 0.731370
O O7 0.350349 0.271670 0.931481
O O8 0.883896 0.500000 0.575048
O O9 0.808158 0.285530 0.645984
O O10 0.893997 0.225751 0.636617
O O11 0.900839 0.250906 0.446989
O O12 0.770263 0.295552 0.144969
O O13 0.791941 0.226567 0.283789
O O14 0.762385 0.000000 0.208617
O O15 0.696261 0.000000 0.019707
O O16 0.750000 0.750000 0.000000
O O17 0.750000 0.250000 0.500000
O O18 0.646764 0.241528 0.655927
O O19 0.708770 0.000000 0.628950
O O20 0.000000 0.739570 0.500000
O O21 0.956155 0.000000 0.615685
O O22 0.593678 0.000000 0.662201
#
# Coordination Sequence:
#
# PCOD8101815 Si02
#       8
#     8   8   8   8   8   8   8   8
#     4  10  22  40  64  91 122 165 216 266 318 379
#     4  11  24  43  65  92 129 167 210 264 319 378
#     4  10  20  36  59  86 119 158 199 249 303 370
#     4  11  23  40  61  91 126 161 208 259 316 384
#     4  12  26  45  68  95 128 169 214 262 321 383
#     4  11  21  37  60  89 127 170 212 264 322 381
#     4  10  22  39  60  88 122 156 196 250 308 365
#     4   9  19  37  58  85 124 164 207 259 315 373
#
# _framework density 21.053981
#
# number of rings (size 3 to 8) (size 9 to 14) (size 15 to 20)
#    0.000    1.500    1.250    3.750    1.750    4.500 
#    0.000    1.250    0.000    0.000    0.000    0.000 
#    0.000    0.000    0.000    0.000    0.000    0.000 
#
# Total GULP energy -396875.237189 kJ/mol
# GULP energy per Si atom -12402.351162 kJ/mol
# Density = 2.100606 g / cm^3
# Si number density = 21.053981 Si / 1000 Ang^3
#
#
#
# Elastic Constant Matrix: (Units=GPa)
#
#
# Indices 1 2 3 4 5 6 
#
# 1 131.2519 12.3368 44.8166 0.0000 15.4513 0.0000
# 2 12.3368 29.3792 16.6049 0.0000 1.8032 0.0000
# 3 44.8166 16.6049 129.5682 0.0000 14.6282 0.0000
# 4 0.0000 0.0000 0.0000 25.4977 0.0000 5.1679
# 5 15.4513 1.8032 14.6282 0.0000 42.7278 0.0000
# 6 0.0000 0.0000 0.0000 5.1679 0.0000 32.4681
#
#
#
# Elastic Compliance Matrix: (Units=1/GPa)
#
#
# Indices 1 2 3 4 5 6 
#
# 1 0.008967 -0.002176 -0.002566 0.000000 -0.002272 0.000000
# 2 -0.002176 0.037224 -0.004087 0.000000 0.000615 0.000000
# 3 -0.002566 -0.004087 0.009367 0.000000 -0.002106 0.000000
# 4 0.000000 0.000000 0.000000 0.040527 0.000000 -0.006451
# 5 -0.002272 0.000615 -0.002106 0.000000 0.024921 0.000000
# 6 0.000000 0.000000 0.000000 -0.006451 0.000000 0.031826
#
#
# Mechanical properties :
#
#
# Convention : Reuss Voigt Hill
#
# Bulk Modulus (GPa) = 26.38552 48.63512 37.51032
# Shear Modulus (GPa) = 27.30400 34.56813 30.93606
#
# Velocity S-wave (km/s) = 3.60510 4.05641 3.83739
# Velocity P-wave (km/s) = 5.46704 6.71488 6.12283
#
# Compressibility (1/GPa) = 0.03789957
#
# Stress axis : x y z
#
# Youngs Moduli (GPa) = 111.51728 26.86469 106.75493
#
# Poissons Ratio (x) = 0.05845 0.27397
# Poissons Ratio (y) = 0.24261 0.43635
# Poissons Ratio (z) = 0.28619 0.10981
#
# Static dielectric constant tensor:
#      x y z
#    x 3.480750 0.000000 -0.045310 
#    y 0.000000 3.570500 0.000000 
#    z -0.045310 0.000000 4.113050 
# 
# 
# High freq. dielectric constant tensor:
#      x y z
#    x 1.838450 0.000000 0.005340 
#    y 0.000000 1.805280 0.000000 
#    z 0.005340 0.000000 1.837580 
# 
# From -- ./inp_files/249111.got.cif
#   From: 2010.06.25/outbox.cif.g09.slc.cpg/sg12_125_cif.got.tgz:249111.got - 2010.06.28 00:19:55.
