data_PCOD8101290
_publ_section_title
;
Structure prediction by ZEFSAII (Michael W. Deem and Ramdas Pophale) SiO2 
 PCOD8101290
Probable space group: C 2/M
;
_chemical_formula_sum "Si O2"
_cell_formula_units_Z 48
_cell_length_a 11.358154
_cell_length_b 16.413541
_cell_length_c 13.332287
_cell_angle_alpha 90.000000
_cell_angle_beta 107.164790
_cell_angle_gamma 90.000000
_cell_volume 2374.800640
_symmetry_space_group_name_H-M "C 2/M"
_symmetry_group_IT_number 12
_symmetry_cell_setting 'monoclinic'
loop_
_space_group_symop_operation_xyz
x,y,z
-x,y,-z
-x,-y,-z
x,-y,z
1/2+x,1/2+y,z
1/2-x,1/2+y,-z
1/2-x,1/2-y,-z
1/2+x,1/2-y,z
loop_
_atom_site_type_symbol
_atom_site_label
_atom_site_fract_x
_atom_site_fract_y
_atom_site_fract_z
Si Si1 0.786700 0.341512 0.755618
Si Si2 0.959737 0.236951 0.381276
Si Si3 0.489350 0.090961 0.683024
Si Si4 0.731927 0.908575 0.851884
Si Si5 0.922941 0.812178 0.789269
Si Si6 0.656292 0.594781 0.914111
O O1 0.680872 0.288640 0.674258
O O2 0.893127 0.279157 0.819714
O O3 0.738004 0.393412 0.835971
O O4 0.850843 0.402018 0.691977
O O5 0.979498 0.335268 0.385097
O O6 0.000000 0.204379 0.500000
O O7 0.045804 0.191669 0.321183
O O8 0.585826 0.099424 0.799610
O O9 0.502517 0.000000 0.636825
O O10 0.800544 0.864398 0.777426
O O11 0.778875 0.000000 0.858981
O O12 0.767203 0.873690 0.970325
O O13 0.034673 0.849979 0.880594
O O14 0.619063 0.500000 0.911870
#
# Coordination Sequence:
#
# PCOD8101290 Si02
#       6
#     8   8   8   8   8   8
#     4  10  21  39  57  87 116 150 188 237 282 333
#     4  10  22  41  64  81 109 149 193 236 294 342
#     4  10  21  38  59  84 119 151 187 234 280 336
#     4  10  20  37  58  85 120 156 189 227 279 336
#     4  10  20  36  57  87 113 146 189 241 278 325
#     4  10  21  37  59  83 117 161 193 222 273 337
#
# _framework density 20.212223000000002
#
# number of rings (size 3 to 8) (size 9 to 14) (size 15 to 20)
#    0.000    2.000    1.667    1.500    0.000    5.667 
#    6.000    2.500    0.000   17.000    0.000    0.000 
#    0.000    0.000    0.000    0.000    0.000    0.000 
#
# Total GULP energy -297465.128123 kJ/mol
# GULP energy per Si atom -12394.380338 kJ/mol
# Density = 2.016622 g / cm^3
# Si number density = 20.212223 Si / 1000 Ang^3
#
#
#
# Elastic Constant Matrix: (Units=GPa)
#
#
# Indices 1 2 3 4 5 6 
#
# 1 96.3445 32.9641 28.9797 0.0000 0.6474 0.0000
# 2 32.9641 78.8243 35.5570 0.0000 1.5859 0.0000
# 3 28.9797 35.5570 91.7343 0.0000 -1.9187 0.0000
# 4 0.0000 0.0000 0.0000 20.5219 0.0000 1.2600
# 5 0.6474 1.5859 -1.9187 0.0000 11.7999 0.0000
# 6 0.0000 0.0000 0.0000 1.2600 0.0000 33.2997
#
#
#
# Elastic Compliance Matrix: (Units=1/GPa)
#
#
# Indices 1 2 3 4 5 6 
#
# 1 0.012514 -0.004163 -0.002350 0.000000 -0.000509 0.000000
# 2 -0.004163 0.016869 -0.005284 0.000000 -0.002898 0.000000
# 3 -0.002350 -0.005284 0.013756 0.000000 0.003076 0.000000
# 4 0.000000 0.000000 0.000000 0.048842 0.000000 -0.001848
# 5 -0.000509 -0.002898 0.003076 0.000000 0.085664 0.000000
# 6 0.000000 0.000000 0.000000 -0.001848 0.000000 0.030100
#
#
# Mechanical properties :
#
#
# Convention : Reuss Voigt Hill
#
# Bulk Modulus (GPa) = 51.16515 51.32274 51.24395
# Shear Modulus (GPa) = 21.02118 24.41781 22.71949
#
# Velocity S-wave (km/s) = 3.22844 3.47950 3.35632
# Velocity P-wave (km/s) = 6.26626 6.44900 6.35829
#
# Compressibility (1/GPa) = 0.01954455
#
# Stress axis : x y z
#
# Youngs Moduli (GPa) = 79.90957 59.27923 72.69501
#
# Poissons Ratio (x) = 0.24677 0.17086
# Poissons Ratio (y) = 0.33265 0.38414
# Poissons Ratio (z) = 0.18782 0.31324
#
# Static dielectric constant tensor:
#      x y z
#    x 3.801270 0.000000 0.032780 
#    y 0.000000 3.808140 0.000000 
#    z 0.032780 0.000000 3.380840 
# 
# 
# High freq. dielectric constant tensor:
#      x y z
#    x 1.801020 0.000000 0.000570 
#    y 0.000000 1.794480 0.000000 
#    z 0.000570 0.000000 1.758900 
# 
# From -- ./inp_files/131040.got.cif
#   From: 2010.06.25/outbox.cif.g09.slc.cpg/sg12_66_cif.got.tgz:131040.got - 2010.06.28 00:19:55.
