data_PCOD8101519
_publ_section_title
;
Structure prediction by ZEFSAII (Michael W. Deem and Ramdas Pophale) SiO2 
 PCOD8101519
Probable space group: C 2/M
;
_chemical_formula_sum "Si O2"
_cell_formula_units_Z 44
_cell_length_a 10.393874
_cell_length_b 24.671560
_cell_length_c 12.412152
_cell_angle_alpha 90.000000
_cell_angle_beta 131.406391
_cell_angle_gamma 90.000000
_cell_volume 2387.283552
_symmetry_space_group_name_H-M "C 2/M"
_symmetry_group_IT_number 12
_symmetry_cell_setting 'monoclinic'
loop_
_space_group_symop_operation_xyz
x,y,z
-x,y,-z
-x,-y,-z
x,-y,z
1/2+x,1/2+y,z
1/2-x,1/2+y,-z
1/2-x,1/2-y,-z
1/2+x,1/2-y,z
loop_
_atom_site_type_symbol
_atom_site_label
_atom_site_fract_x
_atom_site_fract_y
_atom_site_fract_z
Si Si1 0.223880 0.793335 0.331869
Si Si2 0.134891 0.500000 0.983345
Si Si3 0.366623 0.000000 0.524849
Si Si4 0.895976 0.105810 0.842284
Si Si5 0.050093 0.584748 0.757960
Si Si6 0.479698 0.797362 0.669079
Si Si7 0.992671 0.000000 0.786288
O O1 0.112766 0.847385 0.251993
O O2 0.339887 0.805064 0.499099
O O3 0.340416 0.780382 0.289829
O O4 0.086089 0.746301 0.280414
O O5 0.109685 0.554605 0.899138
O O6 0.313055 0.500000 0.150316
O O7 0.000000 0.500000 0.000000
O O8 0.500000 0.000000 0.500000
O O9 0.395674 0.946942 0.613921
O O10 0.165080 0.000000 0.383861
O O11 0.706155 0.084876 0.761161
O O12 0.996942 0.053490 0.860268
O O13 0.000000 0.130769 0.000000
O O14 0.996512 0.647200 0.747356
#
# Coordination Sequence:
#
# PCOD8101519 Si02
#       7
#     8   4   4   8   8   8   4
#     4   9  19  34  56  81 113 143 190 230 285 335
#     4  11  24  42  54  76 117 163 187 222 288 355
#     4  11  19  29  60  98 112 133 185 244 293 335
#     4  11  19  32  57  87 112 141 183 240 282 340
#     4  10  20  36  58  84 116 145 185 234 287 339
#     4   9  18  36  57  80 109 150 184 237 283 334
#     4  12  20  34  58  87 113 144 182 234 291 340
#
# _framework density 18.430990000000001
#
# number of rings (size 3 to 8) (size 9 to 14) (size 15 to 20)
#    0.000    1.818    3.636    1.909    2.545    0.000 
#    3.273    6.364    4.000    0.000    0.000    0.000 
#    0.000    0.000    0.000    0.000    0.000    0.000 
#
# Total GULP energy -272654.384588 kJ/mol
# GULP energy per Si atom -12393.381118 kJ/mol
# Density = 1.838904 g / cm^3
# Si number density = 18.430990 Si / 1000 Ang^3
#
#
#
# Elastic Constant Matrix: (Units=GPa)
#
#
# Indices 1 2 3 4 5 6 
#
# 1 86.5944 69.2501 36.8645 0.0000 11.9497 0.0000
# 2 69.2501 148.2071 39.7115 0.0000 1.3109 0.0000
# 3 36.8645 39.7115 95.0662 0.0000 16.0257 0.0000
# 4 0.0000 0.0000 0.0000 -25.5831 0.0000 13.7468
# 5 11.9497 1.3109 16.0257 0.0000 21.8032 0.0000
# 6 0.0000 0.0000 0.0000 13.7468 0.0000 24.3798
#
#
#
# Elastic Compliance Matrix: (Units=1/GPa)
#
#
# Indices 1 2 3 4 5 6 
#
# 1 0.021309 -0.009085 -0.002958 0.000000 -0.008958 0.000000
# 2 -0.009085 0.011559 -0.002315 0.000000 0.005986 0.000000
# 3 -0.002958 -0.002315 0.014081 0.000000 -0.008589 0.000000
# 4 0.000000 0.000000 0.000000 -0.029999 0.000000 0.016915
# 5 -0.008958 0.005986 -0.008589 0.000000 0.056728 0.000000
# 6 0.000000 0.000000 0.000000 0.016915 0.000000 0.031480
#
#
# Mechanical properties :
#
#
# Convention : Reuss Voigt Hill
#
# Bulk Modulus (GPa) = 54.84248 69.05777 61.95013
# Shear Modulus (GPa) = 35.72683 16.38942 26.05812
#
# Velocity S-wave (km/s) = 4.40752 2.98523 3.76416
# Velocity P-wave (km/s) = 7.46470 7.03077 7.25098
#
# Compressibility (1/GPa) = 0.01823404
#
# Stress axis : x y z
#
# Youngs Moduli (GPa) = 46.92929 86.50910 71.01797
#
# Poissons Ratio (x) = 0.78591 0.21007
# Poissons Ratio (y) = 0.42634 0.16440
# Poissons Ratio (z) = 0.13882 0.20026
#
# Static dielectric constant tensor:
#      x y z
#    x 3.327810 0.000000 0.007390 
#    y 0.000000 3.352300 0.000000 
#    z 0.007390 0.000000 3.591240 
# 
# 
# High freq. dielectric constant tensor:
#      x y z
#    x 1.684240 0.000000 0.017010 
#    y 0.000000 1.721480 0.000000 
#    z 0.017010 0.000000 1.715980 
# 
# From -- ./inp_files/50562.got.cif
#   From: 2010.06.25/outbox.cif.g09.slc.cpg/sg12_26_cif.got.tgz:50562.got - 2010.06.28 00:19:55.
