data_PCOD8101396
_publ_section_title
;
Structure prediction by ZEFSAII (Michael W. Deem and Ramdas Pophale) SiO2 
 PCOD8101396
Probable space group: C 2/M
;
_chemical_formula_sum "Si O2"
_cell_formula_units_Z 64
_cell_length_a 20.540346
_cell_length_b 8.744786
_cell_length_c 31.853796
_cell_angle_alpha 90.000000
_cell_angle_beta 36.452752
_cell_angle_gamma 90.000000
_cell_volume 3399.549156
_symmetry_space_group_name_H-M "C 2/M"
_symmetry_group_IT_number 12
_symmetry_cell_setting 'monoclinic'
loop_
_space_group_symop_operation_xyz
x,y,z
-x,y,-z
-x,-y,-z
x,-y,z
1/2+x,1/2+y,z
1/2-x,1/2+y,-z
1/2-x,1/2-y,-z
1/2+x,1/2-y,z
loop_
_atom_site_type_symbol
_atom_site_label
_atom_site_fract_x
_atom_site_fract_y
_atom_site_fract_z
Si Si1 0.063040 0.323158 0.791526
Si Si2 0.485385 0.321184 0.056506
Si Si3 0.365364 0.819581 0.952716
Si Si4 0.071437 0.319347 0.341304
Si Si5 0.649947 0.681258 0.577600
Si Si6 0.898972 0.318351 0.578883
Si Si7 0.326932 0.680599 0.340031
Si Si8 0.708430 0.819692 0.794034
O O1 0.069336 0.500000 0.777271
O O2 0.075813 0.232235 0.741436
O O3 0.158826 0.276636 0.774319
O O4 0.946870 0.280463 0.872199
O O5 0.476171 0.500000 0.071182
O O6 0.589385 0.254174 0.027815
O O7 0.373278 0.238671 0.127779
O O8 0.500000 0.287899 0.000000
O O9 0.356025 0.000000 0.964777
O O10 0.250000 0.750000 0.000000
O O11 0.055972 0.500000 0.344937
O O12 0.090068 0.265048 0.379127
O O13 0.175496 0.264484 0.260178
O O14 0.963890 0.234799 0.382045
O O15 0.659290 0.500000 0.570981
O O16 0.750000 0.750000 0.500000
O O17 0.653974 0.743196 0.623168
O O18 0.897877 0.500000 0.576329
O O19 0.787515 0.250222 0.617387
O O20 0.000000 0.250406 0.500000
O O21 0.323392 0.500000 0.342187
O O22 0.723820 0.000000 0.791232
#
# Coordination Sequence:
#
# PCOD8101396 Si02
#       8
#     8   8   8   8   8   8   8   8
#     4   9  19  35  57  85 117 148 183 235 289 333
#     4  10  21  38  61  89 120 155 196 241 289 345
#     4  10  21  38  60  88 120 157 195 238 289 345
#     4  11  21  36  60  85 114 151 190 236 288 341
#     4  11  24  41  59  81 114 153 192 236 290 350
#     4   9  17  31  54  83 109 137 182 233 275 326
#     4  10  20  36  58  82 109 147 192 232 278 339
#     4  10  20  36  59  87 120 153 190 237 288 344
#
# _framework density 18.826027
#
# number of rings (size 3 to 8) (size 9 to 14) (size 15 to 20)
#    0.000    2.000    1.250    3.375    0.000    6.500 
#    2.250    0.000    0.000    1.875    0.000    0.000 
#    0.000    0.000    0.000    0.000    0.000    0.000 
#
# Total GULP energy -396856.482591 kJ/mol
# GULP energy per Si atom -12401.765081 kJ/mol
# Density = 1.878318 g / cm^3
# Si number density = 18.826027 Si / 1000 Ang^3
#
#
#
# Elastic Constant Matrix: (Units=GPa)
#
#
# Indices 1 2 3 4 5 6 
#
# 1 117.2610 41.0052 67.0098 0.0545 -3.6835 0.0740
# 2 41.0052 56.4386 35.5001 0.0680 6.7865 -0.0640
# 3 67.0098 35.5001 122.2836 0.0017 -2.1745 -0.0023
# 4 0.0545 0.0680 0.0017 33.8695 0.0112 -3.0435
# 5 -3.6835 6.7865 -2.1745 0.0112 38.4592 0.0029
# 6 0.0740 -0.0640 -0.0023 -3.0435 0.0029 29.7473
#
#
#
# Elastic Compliance Matrix: (Units=1/GPa)
#
#
# Indices 1 2 3 4 5 6 
#
# 1 0.014385 -0.007090 -0.005783 -0.000014 0.002302 -0.000053
# 2 -0.007090 0.025866 -0.003721 -0.000032 -0.005454 0.000070
# 3 -0.005783 -0.003721 0.012441 0.000017 0.000806 0.000009
# 4 -0.000014 -0.000032 0.000017 0.029799 -0.000004 0.003049
# 5 0.002302 -0.005454 0.000806 -0.000004 0.027230 -0.000020
# 6 -0.000053 0.000070 0.000009 0.003049 -0.000020 0.033929
#
#
# Mechanical properties :
#
#
# Convention : Reuss Voigt Hill
#
# Bulk Modulus (GPa) = 51.27293 64.77924 58.02609
# Shear Modulus (GPa) = 27.27177 30.57973 28.92575
#
# Velocity S-wave (km/s) = 3.81020 4.03467 3.92404
# Velocity P-wave (km/s) = 6.83016 7.49593 7.17077
#
# Compressibility (1/GPa) = 0.01950347
#
# Stress axis : x y z
#
# Youngs Moduli (GPa) = 69.51855 38.66071 80.37677
#
# Poissons Ratio (x) = 0.27411 0.46484
# Poissons Ratio (y) = 0.49290 0.29907
# Poissons Ratio (z) = 0.40205 0.14385
#
# Static dielectric constant tensor:
#      x y z
#    x 3.437120 -0.000010 0.138880 
#    y -0.000010 3.348340 -0.000060 
#    z 0.138880 -0.000060 3.300650 
# 
# 
# High freq. dielectric constant tensor:
#      x y z
#    x 1.725950 0.000000 -0.001070 
#    y 0.000000 1.727370 0.000000 
#    z -0.001070 0.000000 1.742920 
# 
# From -- ./inp_files/378197.got.cif
#   From: 2010.06.25/outbox.cif.g09.slc.cpg/sg12_190_cif.got.tgz:378197.got - 2010.06.28 00:19:55.
