data_PCOD8101378
_publ_section_title
;
Structure prediction by ZEFSAII (Michael W. Deem and Ramdas Pophale) SiO2 
 PCOD8101378
Probable space group: C 2/M
;
_chemical_formula_sum "Si O2"
_cell_formula_units_Z 56
_cell_length_a 31.339410
_cell_length_b 9.549514
_cell_length_c 15.530264
_cell_angle_alpha 90.000000
_cell_angle_beta 38.487983
_cell_angle_gamma 90.000000
_cell_volume 2892.583831
_symmetry_space_group_name_H-M "C 2/M"
_symmetry_group_IT_number 12
_symmetry_cell_setting 'monoclinic'
loop_
_space_group_symop_operation_xyz
x,y,z
-x,y,-z
-x,-y,-z
x,-y,z
1/2+x,1/2+y,z
1/2-x,1/2+y,-z
1/2-x,1/2-y,-z
1/2+x,1/2-y,z
loop_
_atom_site_type_symbol
_atom_site_label
_atom_site_fract_x
_atom_site_fract_y
_atom_site_fract_z
Si Si1 0.524356 0.662594 0.554357
Si Si2 0.183223 0.154564 0.515501
Si Si3 0.281743 0.833867 0.029035
Si Si4 0.340525 0.152443 0.304903
Si Si5 0.438541 0.833632 0.827758
Si Si6 0.319532 0.337920 0.666135
Si Si7 0.949299 0.663181 0.005629
O O1 0.500000 0.713921 0.500000
O O2 0.506231 0.500000 0.600770
O O3 0.491131 0.755481 0.681783
O O4 0.604970 0.687882 0.418103
O O5 0.259691 0.143607 0.428913
O O6 0.136725 0.242100 0.655417
O O7 0.184495 0.233312 0.421691
O O8 0.149670 0.000000 0.562078
O O9 0.361038 0.796517 0.920912
O O10 0.271372 0.000000 0.030407
O O11 0.250000 0.750000 0.000000
O O12 0.237672 0.777249 0.179726
O O13 0.372649 0.196197 0.162158
O O14 0.370876 0.000000 0.282000
O O15 0.450144 0.000000 0.803034
O O16 0.453424 0.775873 0.901728
O O17 0.302047 0.500000 0.680108
O O18 0.963849 0.500000 0.973172
O O19 0.000000 0.726445 0.000000
#
# Coordination Sequence:
#
# PCOD8101378 Si02
#       7
#     8   8   8   8   8   8   8
#     4  10  21  37  56  78 107 145 183 219 268 329
#     4   9  17  30  49  72  98 129 167 212 256 301
#     4  10  20  36  58  82 107 138 180 226 274 325
#     4   9  17  30  49  72  99 131 168 209 254 302
#     4  10  21  36  57  84 112 143 181 228 276 321
#     4   9  18  33  54  75 100 138 179 213 256 319
#     4   9  18  32  51  75 106 143 179 212 257 318
#
# _framework density 19.359853000000001
#
# number of rings (size 3 to 8) (size 9 to 14) (size 15 to 20)
#    0.000    2.571    0.000    1.714    2.000    5.429 
#    0.000    2.143    0.000    4.286    0.000    0.000 
#    0.000    0.000    0.000    0.000    0.000    0.000 
#
# Total GULP energy -346931.909577 kJ/mol
# GULP energy per Si atom -12390.425342 kJ/mol
# Density = 1.931579 g / cm^3
# Si number density = 19.359853 Si / 1000 Ang^3
#
#
#
# Elastic Constant Matrix: (Units=GPa)
#
#
# Indices 1 2 3 4 5 6 
#
# 1 68.9910 15.6834 15.6888 0.0000 23.4304 0.0000
# 2 15.6834 39.1541 28.3390 -0.0004 11.4992 0.0002
# 3 15.6888 28.3390 104.5826 -0.0001 23.0436 0.0001
# 4 0.0000 -0.0004 -0.0001 28.0155 0.0001 7.8160
# 5 23.4304 11.4992 23.0436 0.0001 38.0340 0.0000
# 6 0.0000 0.0002 0.0001 7.8160 0.0000 16.5226
#
#
#
# Elastic Compliance Matrix: (Units=1/GPa)
#
#
# Indices 1 2 3 4 5 6 
#
# 1 0.019116 -0.005146 0.000899 0.000000 -0.010765 0.000000
# 2 -0.005146 0.034025 -0.007940 0.000001 -0.002307 -0.000001
# 3 0.000899 -0.007940 0.012893 0.000000 -0.005964 0.000000
# 4 0.000000 0.000001 0.000000 0.041122 0.000000 -0.019453
# 5 -0.010765 -0.002307 -0.005964 0.000000 0.037235 0.000000
# 6 0.000000 -0.000001 0.000000 -0.019453 0.000000 0.069725
#
#
# Mechanical properties :
#
#
# Convention : Reuss Voigt Hill
#
# Bulk Modulus (GPa) = 24.00379 36.90556 30.45468
# Shear Modulus (GPa) = 19.81166 26.71549 23.26358
#
# Velocity S-wave (km/s) = 3.20243 3.71879 3.47023
# Velocity P-wave (km/s) = 5.10879 6.12728 5.64107
#
# Compressibility (1/GPa) = 0.04166009
#
# Stress axis : x y z
#
# Youngs Moduli (GPa) = 52.31220 29.38973 77.56361
#
# Poissons Ratio (x) = 0.15124 -0.06970
# Poissons Ratio (y) = 0.26919 0.61584
# Poissons Ratio (z) = -0.04701 0.23335
#
# Static dielectric constant tensor:
#      x y z
#    x 3.639000 0.000000 0.171340 
#    y 0.000000 3.456500 0.000000 
#    z 0.171340 0.000000 3.765440 
# 
# 
# High freq. dielectric constant tensor:
#      x y z
#    x 1.760310 0.000000 0.006330 
#    y 0.000000 1.708540 0.000000 
#    z 0.006330 0.000000 1.768720 
# 
# From -- ./inp_files/182440.got.cif
#   From: 2010.06.25/outbox.cif.g09.slc.cpg/sg12_92_cif.got.tgz:182440.got - 2010.06.28 00:19:55.
