data_PCOD8101892
_publ_section_title
;
Structure prediction by ZEFSAII (Michael W. Deem and Ramdas Pophale) SiO2 
 PCOD8101892
Probable space group: C 2/M
;
_chemical_formula_sum "Si O2"
_cell_formula_units_Z 56
_cell_length_a 30.572237
_cell_length_b 8.799607
_cell_length_c 12.472539
_cell_angle_alpha 90.000000
_cell_angle_beta 52.058009
_cell_angle_gamma 90.000000
_cell_volume 2646.187919
_symmetry_space_group_name_H-M "C 2/M"
_symmetry_group_IT_number 12
_symmetry_cell_setting 'monoclinic'
loop_
_space_group_symop_operation_xyz
x,y,z
-x,y,-z
-x,-y,-z
x,-y,z
1/2+x,1/2+y,z
1/2-x,1/2+y,-z
1/2-x,1/2-y,-z
1/2+x,1/2-y,z
loop_
_atom_site_type_symbol
_atom_site_label
_atom_site_fract_x
_atom_site_fract_y
_atom_site_fract_z
Si Si1 0.259021 0.667460 0.780187
Si Si2 0.949563 0.820884 0.362794
Si Si3 0.635677 0.180348 0.931963
Si Si4 0.200927 0.832328 0.517310
Si Si5 0.562207 0.822544 0.242472
Si Si6 0.868199 0.677475 0.652656
Si Si7 0.098152 0.322211 0.756961
O O1 0.254860 0.500000 0.841923
O O2 0.197701 0.744367 0.863808
O O3 0.283783 0.644940 0.626930
O O4 0.304298 0.772025 0.772545
O O5 0.896742 0.763119 0.510243
O O6 0.951429 0.756067 0.236696
O O7 0.005471 0.770260 0.337810
O O8 0.945014 0.000000 0.363028
O O9 0.609252 0.243281 0.860200
O O10 0.641732 0.000000 0.912215
O O11 0.595341 0.231310 0.087480
O O12 0.250000 0.750000 0.500000
O O13 0.150451 0.717120 0.604895
O O14 0.188343 0.000000 0.586182
O O15 0.598582 0.782547 0.290215
O O16 0.547635 0.000000 0.258557
O O17 0.869207 0.500000 0.625246
O O18 0.085839 0.500000 0.780493
#
# Coordination Sequence:
#
# PCOD8101892 Si02
#       7
#     8   8   8   8   8   8   8
#     4  10  20  36  59  89 124 159 196 240 296 355
#     4  12  25  41  62  90 121 154 197 252 310 357
#     4   9  20  40  63  88 121 162 200 236 290 360
#     4  11  20  32  54  87 124 160 196 244 299 352
#     4  10  23  44  65  85 116 159 206 250 291 351
#     4  11  23  39  63  93 119 152 202 252 299 351
#     4  11  21  37  62  90 120 156 200 244 297 360
#
# _framework density 21.162517000000001
#
# number of rings (size 3 to 8) (size 9 to 14) (size 15 to 20)
#    0.000    1.429    2.857    3.000    0.000    4.571 
#    0.000    5.000    0.000    0.000    0.000    0.000 
#    0.000    0.000    0.000    0.000    0.000    0.000 
#
# Total GULP energy -347053.003745 kJ/mol
# GULP energy per Si atom -12394.750134 kJ/mol
# Density = 2.111435 g / cm^3
# Si number density = 21.162517 Si / 1000 Ang^3
#
#
#
# Elastic Constant Matrix: (Units=GPa)
#
#
# Indices 1 2 3 4 5 6 
#
# 1 127.0113 43.9484 17.8964 0.0000 16.0595 0.0000
# 2 43.9484 82.7675 13.4561 0.0000 11.4325 0.0000
# 3 17.8964 13.4561 65.2109 0.0000 9.3752 0.0000
# 4 0.0000 0.0000 0.0000 15.4792 0.0000 -3.5314
# 5 16.0595 11.4325 9.3752 0.0000 24.9094 0.0000
# 6 0.0000 0.0000 0.0000 -3.5314 0.0000 33.5931
#
#
#
# Elastic Compliance Matrix: (Units=1/GPa)
#
#
# Indices 1 2 3 4 5 6 
#
# 1 0.010156 -0.004643 -0.001262 0.000000 -0.003942 0.000000
# 2 -0.004643 0.015253 -0.001371 0.000000 -0.003491 0.000000
# 3 -0.001262 -0.001371 0.016658 0.000000 -0.004826 0.000000
# 4 0.000000 0.000000 0.000000 0.066190 0.000000 0.006958
# 5 -0.003942 -0.003491 -0.004826 0.000000 0.046105 0.000000
# 6 0.000000 0.000000 0.000000 0.006958 0.000000 0.030499
#
#
# Mechanical properties :
#
#
# Convention : Reuss Voigt Hill
#
# Bulk Modulus (GPa) = 36.34604 47.28795 41.81700
# Shear Modulus (GPa) = 23.97087 28.10894 26.03990
#
# Velocity S-wave (km/s) = 3.36922 3.64846 3.51162
# Velocity P-wave (km/s) = 5.68749 6.33577 6.02036
#
# Compressibility (1/GPa) = 0.02751331
#
# Stress axis : x y z
#
# Youngs Moduli (GPa) = 98.46206 65.56275 60.03071
#
# Poissons Ratio (x) = 0.30441 0.07579
# Poissons Ratio (y) = 0.45717 0.08232
# Poissons Ratio (z) = 0.12431 0.08990
#
# Static dielectric constant tensor:
#      x y z
#    x 4.080260 0.000000 0.028860 
#    y 0.000000 3.772770 0.000000 
#    z 0.028860 0.000000 3.705960 
# 
# 
# High freq. dielectric constant tensor:
#      x y z
#    x 1.853060 0.000000 0.003380 
#    y 0.000000 1.809730 0.000000 
#    z 0.003380 0.000000 1.812160 
# 
# From -- ./inp_files/181055.got.cif
#   From: 2010.06.25/outbox.cif.g09.slc.cpg/sg12_91_cif.got.tgz:181055.got - 2010.06.28 00:19:55.
