data_PCOD8101809
_publ_section_title
;
Structure prediction by ZEFSAII (Michael W. Deem and Ramdas Pophale) SiO2 
 PCOD8101809
Probable space group: C 2/M
;
_chemical_formula_sum "Si O2"
_cell_formula_units_Z 64
_cell_length_a 18.861424
_cell_length_b 12.344128
_cell_length_c 29.447379
_cell_angle_alpha 90.000000
_cell_angle_beta 26.856036
_cell_angle_gamma 90.000000
_cell_volume 3097.276488
_symmetry_space_group_name_H-M "C 2/M"
_symmetry_group_IT_number 12
_symmetry_cell_setting 'monoclinic'
loop_
_space_group_symop_operation_xyz
x,y,z
-x,y,-z
-x,-y,-z
x,-y,z
1/2+x,1/2+y,z
1/2-x,1/2+y,-z
1/2-x,1/2-y,-z
1/2+x,1/2-y,z
loop_
_atom_site_type_symbol
_atom_site_label
_atom_site_fract_x
_atom_site_fract_y
_atom_site_fract_z
Si Si1 0.351269 0.266185 0.845582
Si Si2 0.056574 0.624877 0.793772
Si Si3 0.921380 0.225111 0.358968
Si Si4 0.894009 0.219133 0.603588
Si Si5 0.875885 0.378499 0.691959
Si Si6 0.362472 0.321007 0.104794
Si Si7 0.036048 0.376214 0.049526
Si Si8 0.153361 0.880814 0.511165
O O1 0.429292 0.197998 0.840954
O O2 0.483703 0.324535 0.738172
O O3 0.274600 0.183786 0.853819
O O4 0.222027 0.348032 0.939743
O O5 0.038100 0.500000 0.789273
O O6 0.231297 0.664366 0.681631
O O7 0.022675 0.639676 0.865993
O O8 0.863971 0.127976 0.424068
O O9 0.773765 0.291348 0.423022
O O10 0.014210 0.307166 0.338922
O O11 0.862346 0.329688 0.649347
O O12 0.000000 0.248752 0.500000
O O13 0.984977 0.133992 0.583601
O O14 0.941872 0.500000 0.650571
O O15 0.700650 0.380924 0.814355
O O16 0.428850 0.200852 0.079558
O O17 0.500000 0.386714 0.000000
O O18 0.011283 0.500000 0.047740
O O19 0.217574 0.000000 0.463142
#
# Coordination Sequence:
#
# PCOD8101809 Si02
#       8
#     8   8   8   8   8   8   8   8
#     4  10  21  36  59  88 122 153 200 246 294 363
#     4  11  23  40  62  86 123 165 200 249 308 360
#     4   9  20  36  55  87 120 154 195 253 304 357
#     4  11  23  38  58  86 119 157 208 252 294 361
#     4  10  20  37  58  81 116 158 199 248 301 355
#     4   9  19  37  61  91 118 151 199 248 294 356
#     4  10  21  40  65  90 121 162 198 244 310 365
#     4  10  20  36  59  86 118 157 202 250 305 356
#
# _framework density 20.663315000000001
#
# number of rings (size 3 to 8) (size 9 to 14) (size 15 to 20)
#    0.000    2.000    1.250    1.875    0.000    7.750 
#    0.000    2.500    0.000    3.000    0.000    0.000 
#    0.000    0.000    0.000    0.000    0.000    0.000 
#
# Total GULP energy -396605.001675 kJ/mol
# GULP energy per Si atom -12393.906302 kJ/mol
# Density = 2.061628 g / cm^3
# Si number density = 20.663315 Si / 1000 Ang^3
#
#
#
# Elastic Constant Matrix: (Units=GPa)
#
#
# Indices 1 2 3 4 5 6 
#
# 1 76.0841 23.8659 21.0105 0.0004 -4.2095 0.0000
# 2 23.8659 68.9795 10.4153 0.0009 -2.6135 0.0004
# 3 21.0105 10.4153 121.2938 0.0014 15.0712 0.0012
# 4 0.0004 0.0009 0.0014 10.3676 0.0026 -8.6294
# 5 -4.2095 -2.6135 15.0712 0.0026 42.3929 0.0002
# 6 0.0000 0.0004 0.0012 -8.6294 0.0002 14.8893
#
#
#
# Elastic Compliance Matrix: (Units=1/GPa)
#
#
# Indices 1 2 3 4 5 6 
#
# 1 0.015497 -0.004899 -0.002529 0.000000 0.002136 0.000000
# 2 -0.004899 0.016318 -0.000646 -0.000003 0.000749 -0.000002
# 3 -0.002529 -0.000646 0.009180 -0.000002 -0.003554 -0.000002
# 4 0.000000 -0.000003 -0.000002 0.186350 -0.000012 0.108004
# 5 0.002136 0.000749 -0.003554 -0.000012 0.025111 -0.000007
# 6 0.000000 -0.000002 -0.000002 0.108004 -0.000007 0.129758
#
#
# Mechanical properties :
#
#
# Convention : Reuss Voigt Hill
#
# Bulk Modulus (GPa) = 40.24643 41.88234 41.06439
# Shear Modulus (GPa) = 12.29581 27.60103 19.94842
#
# Velocity S-wave (km/s) = 2.44202 3.65876 3.11046
# Velocity P-wave (km/s) = 5.24126 6.17751 5.72854
#
# Compressibility (1/GPa) = 0.02484692
#
# Stress axis : x y z
#
# Youngs Moduli (GPa) = 64.53049 61.28260 108.93704
#
# Poissons Ratio (x) = 0.30021 0.27551
# Poissons Ratio (y) = 0.31612 0.07034
# Poissons Ratio (z) = 0.16320 0.03957
#
# Static dielectric constant tensor:
#      x y z
#    x 3.640360 0.000000 0.132220 
#    y 0.000000 3.395830 0.000010 
#    z 0.132220 0.000010 4.318810 
# 
# 
# High freq. dielectric constant tensor:
#      x y z
#    x 1.803960 0.000000 0.008920 
#    y 0.000000 1.775930 0.000000 
#    z 0.008920 0.000000 1.832360 
# 
# From -- ./inp_files/379087.got.cif
#   From: 2010.06.25/outbox.cif.g09.slc.cpg/sg12_190_cif.got.tgz:379087.got - 2010.06.28 00:19:55.
