data_PCOD8101808
_publ_section_title
;
Structure prediction by ZEFSAII (Michael W. Deem and Ramdas Pophale) SiO2 
 PCOD8101808
Probable space group: C 2/M
;
_chemical_formula_sum "Si O2"
_cell_formula_units_Z 64
_cell_length_a 16.041791
_cell_length_b 8.902950
_cell_length_c 32.595689
_cell_angle_alpha 90.000000
_cell_angle_beta 137.901680
_cell_angle_gamma 90.000000
_cell_volume 3120.930586
_symmetry_space_group_name_H-M "C 2/M"
_symmetry_group_IT_number 12
_symmetry_cell_setting 'monoclinic'
loop_
_space_group_symop_operation_xyz
x,y,z
-x,y,-z
-x,-y,-z
x,-y,z
1/2+x,1/2+y,z
1/2-x,1/2+y,-z
1/2-x,1/2-y,-z
1/2+x,1/2-y,z
loop_
_atom_site_type_symbol
_atom_site_label
_atom_site_fract_x
_atom_site_fract_y
_atom_site_fract_z
Si Si1 0.167114 0.676865 0.435185
Si Si2 0.510739 0.329731 0.242144
Si Si3 0.664265 0.331219 0.218463
Si Si4 0.687993 0.176676 0.015757
Si Si5 0.387227 0.179303 0.354226
Si Si6 0.210339 0.665662 0.870517
Si Si7 0.947588 0.166206 0.904486
Si Si8 0.233422 0.677531 0.367725
O O1 0.169952 0.500000 0.441652
O O2 0.250000 0.750000 0.500000
O O3 0.228589 0.722977 0.414076
O O4 0.024074 0.731457 0.389663
O O5 0.501625 0.500000 0.255609
O O6 0.555016 0.327861 0.211521
O O7 0.378329 0.247791 0.194794
O O8 0.602413 0.233968 0.303351
O O9 0.699887 0.500000 0.218306
O O10 0.789553 0.258774 0.284119
O O11 0.609331 0.252899 0.157374
O O12 0.771957 0.229647 0.083995
O O13 0.691903 0.000000 0.015507
O O14 0.750000 0.250000 0.000000
O O15 0.545680 0.229722 0.963667
O O16 0.348601 0.246890 0.384897
O O17 0.374620 0.000000 0.353819
O O18 0.157189 0.500000 0.863094
O O19 0.341965 0.642733 0.898579
O O20 0.004304 0.000000 0.914386
O O21 0.244881 0.500000 0.366369
#
# Coordination Sequence:
#
# PCOD8101808 Si02
#       8
#     8   8   8   8   8   8   8   8
#     4  10  23  40  62  89 123 164 206 251 304 367
#     4  10  20  36  59  86 118 157 197 241 292 353
#     4   8  16  33  58  82 107 145 192 235 285 345
#     4  12  25  41  60  79 110 152 196 247 298 356
#     4   9  19  38  62  87 119 162 206 249 303 368
#     4  11  23  37  58  87 118 152 193 242 295 355
#     4  10  21  37  59  85 114 151 191 239 295 355
#     4  10  21  38  61  90 123 160 203 257 310 358
#
# _framework density 20.506705
#
# number of rings (size 3 to 8) (size 9 to 14) (size 15 to 20)
#    0.000    2.000    0.000    4.125    1.750    5.500 
#    0.000    5.000    0.000    0.000    0.000    0.000 
#    0.000    0.000    0.000    0.000    0.000    0.000 
#
# Total GULP energy -396642.600207 kJ/mol
# GULP energy per Si atom -12395.081256 kJ/mol
# Density = 2.046003 g / cm^3
# Si number density = 20.506705 Si / 1000 Ang^3
#
#
#
# Elastic Constant Matrix: (Units=GPa)
#
#
# Indices 1 2 3 4 5 6 
#
# 1 60.2680 27.0954 16.5849 0.0000 0.9661 0.0000
# 2 27.0954 79.5733 24.4536 0.0000 -3.8754 0.0000
# 3 16.5849 24.4536 84.3855 0.0000 -4.8976 0.0000
# 4 0.0000 0.0000 0.0000 31.4173 0.0000 -1.4724
# 5 0.9661 -3.8754 -4.8976 0.0000 37.6753 0.0000
# 6 0.0000 0.0000 0.0000 -1.4724 0.0000 25.3631
#
#
#
# Elastic Compliance Matrix: (Units=1/GPa)
#
#
# Indices 1 2 3 4 5 6 
#
# 1 0.020015 -0.006203 -0.002220 0.000000 -0.001440 0.000000
# 2 -0.006203 0.015749 -0.003266 0.000000 0.001355 0.000000
# 3 -0.002220 -0.003266 0.013317 0.000000 0.001452 0.000000
# 4 0.000000 0.000000 0.000000 0.031916 0.000000 0.001853
# 5 -0.001440 0.001355 0.001452 0.000000 0.026908 0.000000
# 6 0.000000 0.000000 0.000000 0.001853 0.000000 0.039535
#
#
# Mechanical properties :
#
#
# Convention : Reuss Voigt Hill
#
# Bulk Modulus (GPa) = 38.90515 40.05494 39.48004
# Shear Modulus (GPa) = 27.87274 29.29733 28.58504
#
# Velocity S-wave (km/s) = 3.69073 3.78388 3.73760
# Velocity P-wave (km/s) = 6.09714 6.21814 6.15794
#
# Compressibility (1/GPa) = 0.02570354
#
# Stress axis : x y z
#
# Youngs Moduli (GPa) = 49.96154 63.49615 75.09005
#
# Poissons Ratio (x) = 0.39389 0.16668
# Poissons Ratio (y) = 0.30993 0.24524
# Poissons Ratio (z) = 0.11090 0.20738
#
# Static dielectric constant tensor:
#      x y z
#    x 3.792020 0.000000 -0.163100 
#    y 0.000000 2.671870 0.000000 
#    z -0.163100 0.000000 4.886880 
# 
# 
# High freq. dielectric constant tensor:
#      x y z
#    x 1.802560 0.000000 0.000270 
#    y 0.000000 1.787880 0.000000 
#    z 0.000270 0.000000 1.806700 
# 
# From -- ./inp_files/375646.got.cif
#   From: 2010.06.25/outbox.cif.g09.slc.cpg/sg12_188_cif.got.tgz:375646.got - 2010.06.28 00:19:55.
