data_PCOD8101845
_publ_section_title
;
Structure prediction by ZEFSAII (Michael W. Deem and Ramdas Pophale) SiO2 
 PCOD8101845
Probable space group: C 2/M
;
_chemical_formula_sum "Si O2"
_cell_formula_units_Z 56
_cell_length_a 17.829700
_cell_length_b 8.817638
_cell_length_c 19.820483
_cell_angle_alpha 90.000000
_cell_angle_beta 62.434044
_cell_angle_gamma 90.000000
_cell_volume 2762.350872
_symmetry_space_group_name_H-M "C 2/M"
_symmetry_group_IT_number 12
_symmetry_cell_setting 'monoclinic'
loop_
_space_group_symop_operation_xyz
x,y,z
-x,y,-z
-x,-y,-z
x,-y,z
1/2+x,1/2+y,z
1/2-x,1/2+y,-z
1/2-x,1/2-y,-z
1/2+x,1/2-y,z
loop_
_atom_site_type_symbol
_atom_site_label
_atom_site_fract_x
_atom_site_fract_y
_atom_site_fract_z
Si Si1 0.319456 0.323031 0.518214
Si Si2 0.863653 0.175578 0.907907
Si Si3 0.040814 0.823609 0.770113
Si Si4 0.507961 0.324876 0.629508
Si Si5 0.338814 0.821460 0.653399
Si Si6 0.701838 0.324265 0.919961
Si Si7 0.811754 0.678043 0.210537
O O1 0.301036 0.500000 0.531867
O O2 0.250000 0.250000 0.500000
O O3 0.411553 0.290576 0.449961
O O4 0.311248 0.250008 0.594499
O O5 0.798454 0.275638 0.892525
O O6 0.957430 0.220347 0.846543
O O7 0.843780 0.000000 0.900493
O O8 0.855080 0.210741 0.990815
O O9 0.028280 0.780861 0.697621
O O10 0.117560 0.724201 0.765187
O O11 0.063645 0.000000 0.769340
O O12 0.479748 0.500000 0.635822
O O13 0.434168 0.219780 0.632428
O O14 0.277136 0.758098 0.736569
O O15 0.328961 0.000000 0.652380
O O16 0.700074 0.500000 0.901572
O O17 0.660970 0.230534 0.875639
O O18 0.798478 0.500000 0.218207
#
# Coordination Sequence:
#
# PCOD8101845 Si02
#       7
#     8   8   8   8   8   8   8
#     4  11  23  40  63  92 127 162 197 240 291 345
#     4   9  19  36  60  88 119 156 195 240 292 346
#     4  10  21  39  61  86 118 154 195 242 295 352
#     4  10  22  40  63  90 121 157 195 240 293 348
#     4  12  25  41  63  89 118 155 200 247 294 350
#     4  10  20  36  59  87 119 155 197 242 290 349
#     4  12  25  40  59  84 117 155 197 247 301 354
#
# _framework density 20.272589
#
# number of rings (size 3 to 8) (size 9 to 14) (size 15 to 20)
#    0.000    1.429    0.000    5.571    0.000    7.429 
#    0.000    2.857    0.000    0.000    0.000    0.000 
#    0.000    0.000    0.000    0.000    0.000    0.000 
#
# Total GULP energy -347410.201795 kJ/mol
# GULP energy per Si atom -12407.507207 kJ/mol
# Density = 2.022645 g / cm^3
# Si number density = 20.272589 Si / 1000 Ang^3
#
#
#
# Elastic Constant Matrix: (Units=GPa)
#
#
# Indices 1 2 3 4 5 6 
#
# 1 69.0809 40.6777 13.1188 0.0000 13.0807 0.0002
# 2 40.6777 107.0450 36.9795 0.0000 -1.1688 0.0003
# 3 13.1188 36.9795 79.1036 0.0000 13.7067 -0.0001
# 4 0.0000 0.0000 0.0000 30.4336 0.0000 3.0891
# 5 13.0807 -1.1688 13.7067 0.0000 29.9013 -0.0001
# 6 0.0002 0.0003 -0.0001 3.0891 -0.0001 42.3660
#
#
#
# Elastic Compliance Matrix: (Units=1/GPa)
#
#
# Indices 1 2 3 4 5 6 
#
# 1 0.021457 -0.009182 0.002632 0.000000 -0.010952 0.000000
# 2 -0.009182 0.015336 -0.007002 0.000000 0.007826 0.000000
# 3 0.002632 -0.007002 0.017082 0.000000 -0.009256 0.000000
# 4 0.000000 0.000000 0.000000 0.033103 0.000000 -0.002414
# 5 -0.010952 0.007826 -0.009256 0.000000 0.042783 0.000000
# 6 0.000000 0.000000 0.000000 -0.002414 0.000000 0.023780
#
#
# Mechanical properties :
#
#
# Convention : Reuss Voigt Hill
#
# Bulk Modulus (GPa) = 37.35682 48.53130 42.94406
# Shear Modulus (GPa) = 26.37545 31.50376 28.93961
#
# Velocity S-wave (km/s) = 3.61091 3.94637 3.78236
# Velocity P-wave (km/s) = 5.98766 6.69002 6.34856
#
# Compressibility (1/GPa) = 0.02676887
#
# Stress axis : x y z
#
# Youngs Moduli (GPa) = 46.60533 65.20711 58.53966
#
# Poissons Ratio (x) = 0.59876 -0.15407
# Poissons Ratio (y) = 0.42795 0.40992
# Poissons Ratio (z) = -0.12266 0.45661
#
# Static dielectric constant tensor:
#      x y z
#    x 3.570960 0.000000 0.038050 
#    y 0.000000 3.692450 0.000000 
#    z 0.038050 0.000000 3.860910 
# 
# 
# High freq. dielectric constant tensor:
#      x y z
#    x 1.794630 0.000000 0.005180 
#    y 0.000000 1.793270 0.000000 
#    z 0.005180 0.000000 1.810110 
# 
# From -- ./inp_files/313780.got.cif
#   From: 2010.06.25/outbox.cif.g09.slc.cpg/sg12_157_cif.got.tgz:313780.got - 2010.06.28 00:19:55.
