data_PCOD8101322
_publ_section_title
;
Structure prediction by ZEFSAII (Michael W. Deem and Ramdas Pophale) SiO2 
 PCOD8101322
Probable space group: C 2/M
;
_chemical_formula_sum "Si O2"
_cell_formula_units_Z 64
_cell_length_a 14.839653
_cell_length_b 8.802989
_cell_length_c 26.537720
_cell_angle_alpha 90.000000
_cell_angle_beta 104.730940
_cell_angle_gamma 90.000000
_cell_volume 3352.761252
_symmetry_space_group_name_H-M "C 2/M"
_symmetry_group_IT_number 12
_symmetry_cell_setting 'monoclinic'
loop_
_space_group_symop_operation_xyz
x,y,z
-x,y,-z
-x,-y,-z
x,-y,z
1/2+x,1/2+y,z
1/2-x,1/2+y,-z
1/2-x,1/2-y,-z
1/2+x,1/2-y,z
loop_
_atom_site_type_symbol
_atom_site_label
_atom_site_fract_x
_atom_site_fract_y
_atom_site_fract_z
Si Si1 0.398224 0.179372 0.004012
Si Si2 0.289214 0.679441 0.077188
Si Si3 0.454942 0.674280 0.742385
Si Si4 0.557155 0.177555 0.557520
Si Si5 0.434505 0.675607 0.623471
Si Si6 0.653483 0.319957 0.805995
Si Si7 0.742317 0.320254 0.613109
Si Si8 0.233348 0.678232 0.270887
O O1 0.316166 0.226532 0.953257
O O2 0.403447 0.000000 0.011386
O O3 0.500000 0.240611 0.000000
O O4 0.369583 0.249779 0.053491
O O5 0.301991 0.500000 0.076150
O O6 0.305677 0.743330 0.135788
O O7 0.428881 0.500000 0.749366
O O8 0.470847 0.698915 0.685292
O O9 0.545993 0.726331 0.785572
O O10 0.373804 0.779267 0.752128
O O11 0.500000 0.222828 0.500000
O O12 0.500619 0.223518 0.598670
O O13 0.652772 0.271433 0.568676
O O14 0.580157 0.000000 0.562544
O O15 0.440354 0.500000 0.607959
O O16 0.329883 0.734885 0.601436
O O17 0.664533 0.500000 0.806000
O O18 0.708527 0.246762 0.766483
O O19 0.758376 0.500000 0.611879
O O20 0.730129 0.264909 0.669459
O O21 0.245039 0.500000 0.270172
#
# Coordination Sequence:
#
# PCOD8101322 Si02
#       8
#     8   8   8   8   8   8   8   8
#     4   9  18  33  51  70  95 128 167 212 256 295
#     4   9  18  32  50  72  97 130 169 205 247 299
#     4   9  18  33  52  75 102 132 166 203 245 297
#     4  11  24  39  55  78 106 136 174 219 264 310
#     4  10  20  36  58  80 104 137 174 213 259 310
#     4   9  17  31  50  72 103 136 163 198 247 301
#     4  10  20  36  58  81 106 138 174 212 257 310
#     4   9  18  33  53  77 103 133 168 203 244 299
#
# _framework density 19.088743000000001
#
# number of rings (size 3 to 8) (size 9 to 14) (size 15 to 20)
#    0.000    2.500    0.000    1.875    0.000    5.750 
#    0.000    3.125    0.000    0.000    0.000    0.000 
#    0.000    0.000    0.000    0.000    0.000    0.000 
#
# Total GULP energy -396793.867981 kJ/mol
# GULP energy per Si atom -12399.808374 kJ/mol
# Density = 1.904530 g / cm^3
# Si number density = 19.088743 Si / 1000 Ang^3
#
#
#
# Elastic Constant Matrix: (Units=GPa)
#
#
# Indices 1 2 3 4 5 6 
#
# 1 81.5562 4.8448 24.6598 0.0000 13.2666 0.0000
# 2 4.8448 15.4697 17.8780 0.0000 1.0124 0.0000
# 3 24.6598 17.8780 52.0275 0.0000 22.4912 0.0000
# 4 0.0000 0.0000 0.0000 22.1985 0.0000 -1.5555
# 5 13.2666 1.0124 22.4912 0.0000 23.8960 0.0000
# 6 0.0000 0.0000 0.0000 -1.5555 0.0000 32.3783
#
#
#
# Elastic Compliance Matrix: (Units=1/GPa)
#
#
# Indices 1 2 3 4 5 6 
#
# 1 0.014608 0.005692 -0.008884 0.000000 0.000011 0.000000
# 2 0.005692 0.164980 -0.092732 0.000000 0.077131 0.000000
# 3 -0.008884 -0.092732 0.086772 0.000000 -0.072809 0.000000
# 4 0.000000 0.000000 0.000000 0.045200 0.000000 0.002171
# 5 0.000011 0.077131 -0.072809 0.000000 0.107103 0.000000
# 6 0.000000 0.000000 0.000000 0.002171 0.000000 0.030989
#
#
# Mechanical properties :
#
#
# Convention : Reuss Voigt Hill
#
# Bulk Modulus (GPa) = 13.42101 27.09095 20.25598
# Shear Modulus (GPa) = 7.50371 22.47263 14.98817
#
# Velocity S-wave (km/s) = 1.98482 3.43486 2.80515
# Velocity P-wave (km/s) = 3.50696 5.47302 4.59634
#
# Compressibility (1/GPa) = 0.07451003
#
# Stress axis : x y z
#
# Youngs Moduli (GPa) = 68.45600 6.06135 11.52451
#
# Poissons Ratio (x) = -0.03450 0.10239
# Poissons Ratio (y) = -0.38964 1.06869
# Poissons Ratio (z) = 0.60819 0.56208
#
# Static dielectric constant tensor:
#      x y z
#    x 3.764350 0.000000 0.014720 
#    y 0.000000 3.291350 0.000000 
#    z 0.014720 0.000000 3.646840 
# 
# 
# High freq. dielectric constant tensor:
#      x y z
#    x 1.750500 0.000000 0.003470 
#    y 0.000000 1.724480 0.000000 
#    z 0.003470 0.000000 1.739330 
# 
# From -- ./inp_files/359699.got.cif
#   From: 2010.06.25/outbox.cif.g09.slc.cpg/sg12_180_cif.got.tgz:359699.got - 2010.06.28 00:19:55.
