data_PCOD8101279
_publ_section_title
;
Structure prediction by ZEFSAII (Michael W. Deem and Ramdas Pophale) SiO2 
 PCOD8101279
Probable space group: C 2/M
;
_chemical_formula_sum "Si O2"
_cell_formula_units_Z 56
_cell_length_a 33.121062
_cell_length_b 8.630503
_cell_length_c 11.193342
_cell_angle_alpha 90.000000
_cell_angle_beta 60.066124
_cell_angle_gamma 90.000000
_cell_volume 2772.807726
_symmetry_space_group_name_H-M "C 2/M"
_symmetry_group_IT_number 12
_symmetry_cell_setting 'monoclinic'
loop_
_space_group_symop_operation_xyz
x,y,z
-x,y,-z
-x,-y,-z
x,-y,z
1/2+x,1/2+y,z
1/2-x,1/2+y,-z
1/2-x,1/2-y,-z
1/2+x,1/2-y,z
loop_
_atom_site_type_symbol
_atom_site_label
_atom_site_fract_x
_atom_site_fract_y
_atom_site_fract_z
Si Si1 0.988996 0.181786 0.386421
Si Si2 0.209730 0.819307 0.816540
Si Si3 0.103944 0.816589 0.601311
Si Si4 0.805771 0.180414 0.679347
Si Si5 0.926757 0.677638 0.867151
Si Si6 0.374711 0.818276 0.180955
Si Si7 0.330633 0.821358 0.889381
O O1 0.940000 0.246105 0.409536
O O2 0.000000 0.257421 0.500000
O O3 0.029708 0.218158 0.232961
O O4 0.984531 0.000000 0.407995
O O5 0.261669 0.777254 0.696839
O O6 0.173922 0.772080 0.765023
O O7 0.205227 0.000000 0.850322
O O8 0.199822 0.723142 0.951014
O O9 0.150300 0.766118 0.463547
O O10 0.101925 0.730745 0.730475
O O11 0.101503 0.000000 0.625447
O O12 0.815899 0.213555 0.802568
O O13 0.795475 0.000000 0.678176
O O14 0.942702 0.500000 0.842015
O O15 0.884972 0.706464 0.835772
O O16 0.910465 0.728061 0.023097
O O17 0.363975 0.000000 0.192096
O O18 0.320367 0.000000 0.873290
#
# Coordination Sequence:
#
# PCOD8101279 Si02
#       7
#     8   8   8   8   8   8   8
#     4  10  21  38  60  87 117 148 185 229 279 336
#     4  11  22  37  59  85 114 149 190 235 286 341
#     4  10  23  40  58  83 114 150 193 237 282 336
#     4  11  22  37  57  82 115 153 193 237 285 336
#     4   9  20  37  58  84 113 148 187 231 282 335
#     4  10  22  41  61  83 113 148 191 237 282 337
#     4  10  20  36  57  85 119 151 190 235 283 340
#
# _framework density 20.196135999999999
#
# number of rings (size 3 to 8) (size 9 to 14) (size 15 to 20)
#    0.000    1.857    0.000    4.714    0.000    7.714 
#    0.000    2.857    0.000    0.000    0.000    0.000 
#    0.000    0.000    0.000    0.000    0.000    0.000 
#
# Total GULP energy -347346.330007 kJ/mol
# GULP energy per Si atom -12405.226072 kJ/mol
# Density = 2.015017 g / cm^3
# Si number density = 20.196136 Si / 1000 Ang^3
#
#
#
# Elastic Constant Matrix: (Units=GPa)
#
#
# Indices 1 2 3 4 5 6 
#
# 1 129.5204 28.8398 77.7055 0.0000 -0.9828 0.0000
# 2 28.8398 46.3952 21.4252 0.0000 -5.1212 0.0000
# 3 77.7055 21.4252 92.6902 0.0000 -8.2864 0.0000
# 4 0.0000 0.0000 0.0000 32.1604 0.0000 -0.9213
# 5 -0.9828 -5.1212 -8.2864 0.0000 37.9356 0.0000
# 6 0.0000 0.0000 0.0000 -0.9213 0.0000 33.4724
#
#
#
# Elastic Compliance Matrix: (Units=1/GPa)
#
#
# Indices 1 2 3 4 5 6 
#
# 1 0.016593 -0.004592 -0.013122 0.000000 -0.003056 0.000000
# 2 -0.004592 0.025562 -0.001796 0.000000 0.002940 0.000000
# 3 -0.013122 -0.001796 0.022594 0.000000 0.004353 0.000000
# 4 0.000000 0.000000 0.000000 0.031119 0.000000 0.000857
# 5 -0.003056 0.002940 0.004353 0.000000 0.027629 0.000000
# 6 0.000000 0.000000 0.000000 0.000857 0.000000 0.029899
#
#
# Mechanical properties :
#
#
# Convention : Reuss Voigt Hill
#
# Bulk Modulus (GPa) = 38.86803 58.28298 48.57551
# Shear Modulus (GPa) = 24.87669 30.08936 27.48303
#
# Velocity S-wave (km/s) = 3.51344 3.86405 3.69291
# Velocity P-wave (km/s) = 5.97881 6.98778 6.50289
#
# Compressibility (1/GPa) = 0.02572809
#
# Stress axis : x y z
#
# Youngs Moduli (GPa) = 60.26809 39.12004 44.26031
#
# Poissons Ratio (x) = 0.17963 0.58078
# Poissons Ratio (y) = 0.27674 0.07951
# Poissons Ratio (z) = 0.79083 0.07028
#
# Static dielectric constant tensor:
#      x y z
#    x 3.826260 0.000000 -0.036280 
#    y 0.000000 3.515920 0.000000 
#    z -0.036280 0.000000 3.587640 
# 
# 
# High freq. dielectric constant tensor:
#      x y z
#    x 1.796040 0.000000 -0.004290 
#    y 0.000000 1.784610 0.000000 
#    z -0.004290 0.000000 1.786240 
# 
# From -- ./inp_files/187195.got.cif
#   From: 2010.06.25/outbox.cif.g09.slc.cpg/sg12_94_cif.got.tgz:187195.got - 2010.06.28 00:19:55.
