data_PCOD8101814
_publ_section_title
;
Structure prediction by ZEFSAII (Michael W. Deem and Ramdas Pophale) SiO2 
 PCOD8101814
Probable space group: C 2/M
;
_chemical_formula_sum "Si O2"
_cell_formula_units_Z 56
_cell_length_a 17.622409
_cell_length_b 8.737968
_cell_length_c 28.564534
_cell_angle_alpha 90.000000
_cell_angle_beta 140.711827
_cell_angle_gamma 90.000000
_cell_volume 2785.212038
_symmetry_space_group_name_H-M "C 2/M"
_symmetry_group_IT_number 12
_symmetry_cell_setting 'monoclinic'
loop_
_space_group_symop_operation_xyz
x,y,z
-x,y,-z
-x,-y,-z
x,-y,z
1/2+x,1/2+y,z
1/2-x,1/2+y,-z
1/2-x,1/2-y,-z
1/2+x,1/2-y,z
loop_
_atom_site_type_symbol
_atom_site_label
_atom_site_fract_x
_atom_site_fract_y
_atom_site_fract_z
Si Si1 0.139923 0.675306 0.570793
Si Si2 0.553406 0.320837 0.710977
Si Si3 0.084738 0.818390 0.999477
Si Si4 0.798103 0.321455 0.570271
Si Si5 0.648618 0.819362 0.850529
Si Si6 0.490877 0.321201 0.854988
Si Si7 0.286886 0.823858 0.289483
O O1 0.171256 0.500000 0.572754
O O2 0.203985 0.789527 0.566142
O O3 0.185769 0.715903 0.644074
O O4 0.000000 0.706041 0.500000
O O5 0.535129 0.500000 0.707333
O O6 0.424489 0.245934 0.645339
O O7 0.620682 0.258684 0.788295
O O8 0.631515 0.284751 0.702807
O O9 0.039877 0.758628 0.927809
O O10 0.076677 0.000000 0.996668
O O11 0.220219 0.761632 0.071316
O O12 0.000000 0.750260 0.000000
O O13 0.812990 0.500000 0.569421
O O14 0.750000 0.250000 0.500000
O O15 0.552488 0.773089 0.843317
O O16 0.646016 0.000000 0.842028
O O17 0.518982 0.500000 0.861099
O O18 0.350469 0.287916 0.786797
O O19 0.318298 0.000000 0.293101
#
# Coordination Sequence:
#
# PCOD8101814 Si02
#       7
#     8   8   8   8   8   8   8
#     4  10  21  38  61  90 125 162 199 241 293 352
#     4  12  25  41  62  88 120 156 198 247 298 352
#     4   9  18  34  57  84 115 155 200 245 297 358
#     4  12  25  42  65  92 124 159 199 244 291 348
#     4  11  22  37  59  86 118 156 200 247 297 356
#     4  10  20  36  59  86 119 157 198 246 301 360
#     4  10  21  38  61  87 117 156 199 245 300 359
#
# _framework density 20.106190000000002
#
# number of rings (size 3 to 8) (size 9 to 14) (size 15 to 20)
#    0.000    1.429    0.000    6.000    0.000    6.000 
#    0.000    0.714    0.000    3.000    0.000    0.000 
#    0.000    0.000    0.000    0.000    0.000    0.000 
#
# Total GULP energy -347374.517958 kJ/mol
# GULP energy per Si atom -12406.232784 kJ/mol
# Density = 2.006043 g / cm^3
# Si number density = 20.106190 Si / 1000 Ang^3
#
#
#
# Elastic Constant Matrix: (Units=GPa)
#
#
# Indices 1 2 3 4 5 6 
#
# 1 92.2026 32.4971 30.1922 0.0000 -0.6205 -0.0001
# 2 32.4971 94.3349 41.6098 -0.0002 4.0438 -0.0004
# 3 30.1922 41.6098 147.5732 0.0000 -2.6801 0.0000
# 4 0.0000 -0.0002 0.0000 0.9215 0.0000 -17.8974
# 5 -0.6205 4.0438 -2.6801 0.0000 23.8621 0.0000
# 6 -0.0001 -0.0004 0.0000 -17.8974 0.0000 26.8652
#
#
#
# Elastic Compliance Matrix: (Units=1/GPa)
#
#
# Indices 1 2 3 4 5 6 
#
# 1 0.012663 -0.003723 -0.001527 0.000000 0.000789 0.000000
# 2 -0.003723 0.013344 -0.003050 0.000000 -0.002701 0.000000
# 3 -0.001527 -0.003050 0.007974 0.000000 0.001373 0.000000
# 4 0.000000 0.000000 0.000000 -0.090896 0.000000 -0.060554
# 5 0.000789 -0.002701 0.001373 0.000000 0.042540 0.000000
# 6 0.000000 0.000000 0.000000 -0.060554 0.000000 -0.003118
#
#
# Mechanical properties :
#
#
# Convention : Reuss Voigt Hill
#
# Bulk Modulus (GPa) = 57.53107 60.30100 58.91603
# Shear Modulus (GPa) = 1020.68930 25.65054 523.16992
#
# Velocity S-wave (km/s) = 22.55552 3.57564 16.14832
# Velocity P-wave (km/s) = 26.58968 6.86319 19.41796
#
# Compressibility (1/GPa) = 0.01738191
#
# Stress axis : x y z
#
# Youngs Moduli (GPa) = 78.97036 74.94031 125.41463
#
# Poissons Ratio (x) = 0.27897 0.19148
# Poissons Ratio (y) = 0.29397 0.38250
# Poissons Ratio (z) = 0.12057 0.22856
#
# Static dielectric constant tensor:
#      x y z
#    x 3.730000 0.000000 -0.008750 
#    y 0.000000 3.513300 0.000000 
#    z -0.008750 0.000000 3.935650 
# 
# 
# High freq. dielectric constant tensor:
#      x y z
#    x 1.799740 0.000000 -0.000520 
#    y 0.000000 1.768330 0.000000 
#    z -0.000520 0.000000 1.809780 
# 
# From -- ./inp_files/363105.got.cif
#   From: 2010.06.25/outbox.cif.g09.slc.cpg/sg12_182_cif.got.tgz:363105.got - 2010.06.28 00:19:55.
