data_PCOD8101833
_publ_section_title
;
Structure prediction by ZEFSAII (Michael W. Deem and Ramdas Pophale) SiO2 
 PCOD8101833
Probable space group: C 2/M
;
_chemical_formula_sum "Si O2"
_cell_formula_units_Z 56
_cell_length_a 17.942693
_cell_length_b 8.676045
_cell_length_c 18.583738
_cell_angle_alpha 90.000000
_cell_angle_beta 74.991928
_cell_angle_gamma 90.000000
_cell_volume 2794.279698
_symmetry_space_group_name_H-M "C 2/M"
_symmetry_group_IT_number 12
_symmetry_cell_setting 'monoclinic'
loop_
_space_group_symop_operation_xyz
x,y,z
-x,y,-z
-x,-y,-z
x,-y,z
1/2+x,1/2+y,z
1/2-x,1/2+y,-z
1/2-x,1/2-y,-z
1/2+x,1/2-y,z
loop_
_atom_site_type_symbol
_atom_site_label
_atom_site_fract_x
_atom_site_fract_y
_atom_site_fract_z
Si Si1 0.829463 0.178469 0.003996
Si Si2 0.194079 0.678696 0.848362
Si Si3 0.994027 0.322002 0.709245
Si Si4 0.153356 0.820729 0.709399
Si Si5 0.872055 0.824360 0.839136
Si Si6 0.439330 0.678204 0.578168
Si Si7 0.272144 0.680679 0.570313
O O1 0.856289 0.267530 0.069446
O O2 0.818061 0.000000 0.025735
O O3 0.750000 0.250000 0.000000
O O4 0.886621 0.198673 0.921402
O O5 0.178180 0.500000 0.837362
O O6 0.164665 0.777603 0.789249
O O7 0.284093 0.712844 0.839480
O O8 0.018294 0.500000 0.707190
O O9 0.066887 0.215833 0.707293
O O10 0.927478 0.291574 0.784007
O O11 0.962590 0.284183 0.638539
O O12 0.212419 0.725700 0.646557
O O13 0.169267 0.000000 0.693577
O O14 0.891465 0.000000 0.812283
O O15 0.500000 0.702812 0.500000
O O16 0.435698 0.500000 0.603709
O O17 0.356813 0.738255 0.571436
O O18 0.272119 0.500000 0.560759
O O19 0.250000 0.750000 0.500000
#
# Coordination Sequence:
#
# PCOD8101833 Si02
#       7
#     8   8   8   8   8   8   8
#     4   9  17  31  54  84 116 152 193 238 290 346
#     4  10  20  36  59  87 118 151 193 244 294 348
#     4  12  25  39  59  86 116 151 195 245 291 343
#     4  12  25  41  60  82 116 158 198 242 293 348
#     4   9  19  36  58  84 117 154 190 234 289 348
#     4  10  22  41  64  89 119 155 190 229 284 344
#     4  11  23  40  64  93 124 156 194 238 284 340
#
# _framework density 20.040942000000001
#
# number of rings (size 3 to 8) (size 9 to 14) (size 15 to 20)
#    0.000    1.571    0.000    6.429    0.000    9.429 
#    0.000    0.714    0.000    4.286    0.000    0.000 
#    0.000    0.000    0.000    0.000    0.000    0.000 
#
# Total GULP energy -347263.227994 kJ/mol
# GULP energy per Si atom -12402.258143 kJ/mol
# Density = 1.999533 g / cm^3
# Si number density = 20.040942 Si / 1000 Ang^3
#
#
#
# Elastic Constant Matrix: (Units=GPa)
#
#
# Indices 1 2 3 4 5 6 
#
# 1 93.7172 16.5163 41.3681 0.0000 9.8327 0.0000
# 2 16.5163 45.3137 15.4163 0.0000 2.8003 0.0000
# 3 41.3681 15.4163 118.6796 0.0000 14.2036 0.0000
# 4 0.0000 0.0000 0.0000 36.9044 0.0000 2.9380
# 5 9.8327 2.8003 14.2036 0.0000 30.2927 0.0000
# 6 0.0000 0.0000 0.0000 2.9380 0.0000 28.6508
#
#
#
# Elastic Compliance Matrix: (Units=1/GPa)
#
#
# Indices 1 2 3 4 5 6 
#
# 1 0.013214 -0.003352 -0.003914 0.000000 -0.002144 0.000000
# 2 -0.003352 0.023956 -0.001916 0.000000 -0.000228 0.000000
# 3 -0.003914 -0.001916 0.010453 0.000000 -0.003453 0.000000
# 4 0.000000 0.000000 0.000000 0.027320 0.000000 -0.002802
# 5 -0.002144 -0.000228 -0.003453 0.000000 0.035347 0.000000
# 6 0.000000 0.000000 0.000000 -0.002802 0.000000 0.035190
#
#
# Mechanical properties :
#
#
# Convention : Reuss Voigt Hill
#
# Bulk Modulus (GPa) = 34.17855 44.92353 39.55104
# Shear Modulus (GPa) = 28.80228 31.46358 30.13293
#
# Velocity S-wave (km/s) = 3.79512 3.96658 3.88179
# Velocity P-wave (km/s) = 6.02456 6.59112 6.31420
#
# Compressibility (1/GPa) = 0.02925811
#
# Stress axis : x y z
#
# Youngs Moduli (GPa) = 75.67865 41.74284 95.67081
#
# Poissons Ratio (x) = 0.13993 0.37444
# Poissons Ratio (y) = 0.25369 0.18332
# Poissons Ratio (z) = 0.29620 0.07998
#
# Static dielectric constant tensor:
#      x y z
#    x 3.633920 0.000000 0.035560 
#    y 0.000000 3.797980 0.000000 
#    z 0.035560 0.000000 4.041410 
# 
# 
# High freq. dielectric constant tensor:
#      x y z
#    x 1.767130 0.000000 0.006370 
#    y 0.000000 1.788140 0.000000 
#    z 0.006370 0.000000 1.803210 
# 
# From -- ./inp_files/275133.got.cif
#   From: 2010.06.25/outbox.cif.g09.slc.cpg/sg12_138_cif.got.tgz:275133.got - 2010.06.28 00:19:55.
