data_PCOD8101552
_publ_section_title
;
Structure prediction by ZEFSAII (Michael W. Deem and Ramdas Pophale) SiO2 
 PCOD8101552
Probable space group: C 2/M
;
_chemical_formula_sum "Si O2"
_cell_formula_units_Z 48
_cell_length_a 20.047949
_cell_length_b 13.263178
_cell_length_c 15.282818
_cell_angle_alpha 90.000000
_cell_angle_beta 34.732352
_cell_angle_gamma 90.000000
_cell_volume 2315.263823
_symmetry_space_group_name_H-M "C 2/M"
_symmetry_group_IT_number 12
_symmetry_cell_setting 'monoclinic'
loop_
_space_group_symop_operation_xyz
x,y,z
-x,y,-z
-x,-y,-z
x,-y,z
1/2+x,1/2+y,z
1/2-x,1/2+y,-z
1/2-x,1/2-y,-z
1/2+x,1/2-y,z
loop_
_atom_site_type_symbol
_atom_site_label
_atom_site_fract_x
_atom_site_fract_y
_atom_site_fract_z
Si Si1 0.652161 0.115132 0.702750
Si Si2 0.544100 0.723685 0.040293
Si Si3 0.613077 0.774488 0.251284
Si Si4 0.224361 0.760648 0.299583
Si Si5 0.372572 0.115627 0.470177
Si Si6 0.333336 0.384034 0.948870
O O1 0.541256 0.184600 0.843957
O O2 0.764610 0.148573 0.640836
O O3 0.681454 0.126412 0.568536
O O4 0.619851 0.000000 0.759812
O O5 0.559185 0.644726 0.102300
O O6 0.500000 0.666934 0.000000
O O7 0.669521 0.771516 0.882974
O O8 0.612035 0.741956 0.355678
O O9 0.487259 0.815391 0.358100
O O10 0.649187 0.675668 0.159244
O O11 0.708040 0.861880 0.128834
O O12 0.224169 0.657327 0.357376
O O13 0.402582 0.000000 0.460047
O O14 0.341353 0.500000 0.916179
#
# Coordination Sequence:
#
# PCOD8101552 Si02
#       6
#     8   8   8   8   8   8
#     4  10  21  40  65  90 118 159 205 247 298 356
#     4   9  19  37  59  88 118 151 198 251 294 348
#     4  10  21  38  58  88 121 157 202 248 293 355
#     4  10  22  36  58  89 126 151 194 253 295 352
#     4  11  22  39  65  90 120 160 200 247 301 356
#     4  10  20  36  58  85 120 157 197 246 303 354
#
# _framework density 20.731978000000002
#
# number of rings (size 3 to 8) (size 9 to 14) (size 15 to 20)
#    0.000    2.000    1.667    1.500    0.000    8.000 
#    0.000    3.333    0.000    2.000    0.000    0.000 
#    0.000    0.000    0.000    0.000    0.000    0.000 
#
# Total GULP energy -297399.578078 kJ/mol
# GULP energy per Si atom -12391.649087 kJ/mol
# Density = 2.068479 g / cm^3
# Si number density = 20.731978 Si / 1000 Ang^3
#
#
#
# Elastic Constant Matrix: (Units=GPa)
#
#
# Indices 1 2 3 4 5 6 
#
# 1 120.9081 48.3748 17.5139 0.0000 30.0624 0.0000
# 2 48.3748 127.3292 31.6017 0.0000 11.5353 0.0000
# 3 17.5139 31.6017 55.4801 0.0000 15.6778 0.0000
# 4 0.0000 0.0000 0.0000 23.1034 0.0000 -4.4713
# 5 30.0624 11.5353 15.6778 0.0000 31.8441 0.0000
# 6 0.0000 0.0000 0.0000 -4.4713 0.0000 21.7523
#
#
#
# Elastic Compliance Matrix: (Units=1/GPa)
#
#
# Indices 1 2 3 4 5 6 
#
# 1 0.012425 -0.004102 0.001520 0.000000 -0.010992 0.000000
# 2 -0.004102 0.010522 -0.005478 0.000000 0.002758 0.000000
# 3 0.001520 -0.005478 0.023824 0.000000 -0.011180 0.000000
# 4 0.000000 0.000000 0.000000 0.045077 0.000000 0.009266
# 5 -0.010992 0.002758 -0.011180 0.000000 0.046286 0.000000
# 6 0.000000 0.000000 0.000000 0.009266 0.000000 0.047877
#
#
# Mechanical properties :
#
#
# Convention : Reuss Voigt Hill
#
# Bulk Modulus (GPa) = 32.62396 55.41092 44.01744
# Shear Modulus (GPa) = 23.54655 29.08844 26.31750
#
# Velocity S-wave (km/s) = 3.37376 3.74982 3.56675
# Velocity P-wave (km/s) = 5.56296 6.74785 6.18385
#
# Compressibility (1/GPa) = 0.03065231
#
# Stress axis : x y z
#
# Youngs Moduli (GPa) = 80.48450 95.04165 41.97442
#
# Poissons Ratio (x) = 0.38985 -0.06382
# Poissons Ratio (y) = 0.33014 0.22992
# Poissons Ratio (z) = -0.12237 0.52060
#
# Static dielectric constant tensor:
#      x y z
#    x 4.282470 0.000000 0.178550 
#    y 0.000000 3.541420 0.000000 
#    z 0.178550 0.000000 3.735110 
# 
# 
# High freq. dielectric constant tensor:
#      x y z
#    x 1.833490 0.000000 0.016460 
#    y 0.000000 1.785480 0.000000 
#    z 0.016460 0.000000 1.803770 
# 
# From -- ./inp_files/165463.got.cif
#   From: 2010.06.25/outbox.cif.g09.slc.cpg/sg12_83_cif.got.tgz:165463.got - 2010.06.28 00:19:55.
