data_PCOD8101319
_publ_section_title
;
Structure prediction by ZEFSAII (Michael W. Deem and Ramdas Pophale) SiO2 
 PCOD8101319
Probable space group: C 2/M
;
_chemical_formula_sum "Si O2"
_cell_formula_units_Z 64
_cell_length_a 30.279533
_cell_length_b 8.735464
_cell_length_c 20.076285
_cell_angle_alpha 90.000000
_cell_angle_beta 142.202192
_cell_angle_gamma 90.000000
_cell_volume 3254.555649
_symmetry_space_group_name_H-M "C 2/M"
_symmetry_group_IT_number 12
_symmetry_cell_setting 'monoclinic'
loop_
_space_group_symop_operation_xyz
x,y,z
-x,y,-z
-x,-y,-z
x,-y,z
1/2+x,1/2+y,z
1/2-x,1/2+y,-z
1/2-x,1/2-y,-z
1/2+x,1/2-y,z
loop_
_atom_site_type_symbol
_atom_site_label
_atom_site_fract_x
_atom_site_fract_y
_atom_site_fract_z
Si Si1 0.167654 0.821500 0.463308
Si Si2 0.183349 0.176565 0.957877
Si Si3 0.075510 0.677412 0.465684
Si Si4 0.819661 0.178353 0.898367
Si Si5 0.843636 0.323291 0.304453
Si Si6 0.924751 0.824693 0.284451
Si Si7 0.418015 0.682014 0.898365
Si Si8 0.169154 0.320930 0.325884
O O1 0.109988 0.783171 0.450723
O O2 0.144998 0.728396 0.370801
O O3 0.247070 0.773798 0.583851
O O4 0.165134 0.000000 0.442828
O O5 0.110196 0.199187 0.829592
O O6 0.204079 0.000000 0.991142
O O7 0.250000 0.250000 0.000000
O O8 0.170916 0.250451 0.016388
O O9 0.089397 0.500000 0.465602
O O10 0.109264 0.723288 0.576254
O O11 0.991162 0.710259 0.369886
O O12 0.739171 0.209840 0.776220
O O13 0.875137 0.251198 0.911161
O O14 0.836908 0.000000 0.923289
O O15 0.855390 0.500000 0.298455
O O16 0.865803 0.217206 0.269487
O O17 0.949447 0.000000 0.323787
O O18 0.415660 0.500000 0.895877
O O19 0.380348 0.735787 0.786066
O O20 0.500000 0.742484 0.000000
O O21 0.157343 0.500000 0.302901
#
# Coordination Sequence:
#
# PCOD8101319 Si02
#       8
#     8   8   8   8   8   8   8   8
#     4  10  21  38  61  87 115 151 193 241 294 351
#     4  10  20  36  58  81 109 146 192 242 290 343
#     4  11  23  37  56  84 116 152 194 235 287 352
#     4   9  18  35  59  83 109 145 191 243 291 342
#     4  10  20  36  58  79 107 150 195 238 288 347
#     4  11  23  36  54  83 116 151 190 239 293 346
#     4  10  21  37  59  87 118 157 202 244 294 354
#     4  10  21  38  61  87 117 152 192 241 297 350
#
# _framework density 19.664743000000001
#
# number of rings (size 3 to 8) (size 9 to 14) (size 15 to 20)
#    0.000    1.875    1.250    2.625    0.000    6.750 
#    0.000    3.750    0.000    0.000    0.000    0.000 
#    0.000    0.000    0.000    0.000    0.000    0.000 
#
# Total GULP energy -396895.176361 kJ/mol
# GULP energy per Si atom -12402.974261 kJ/mol
# Density = 1.961999 g / cm^3
# Si number density = 19.664743 Si / 1000 Ang^3
#
#
#
# Elastic Constant Matrix: (Units=GPa)
#
#
# Indices 1 2 3 4 5 6 
#
# 1 81.6582 20.5908 62.8587 0.0000 6.6423 0.0000
# 2 20.5908 30.2064 25.4791 0.0000 0.7438 0.0000
# 3 62.8587 25.4791 135.2947 0.0000 -5.7567 0.0000
# 4 0.0000 0.0000 0.0000 27.2990 0.0000 -1.3516
# 5 6.6423 0.7438 -5.7567 0.0000 25.6949 0.0000
# 6 0.0000 0.0000 0.0000 -1.3516 0.0000 29.9189
#
#
#
# Elastic Compliance Matrix: (Units=1/GPa)
#
#
# Indices 1 2 3 4 5 6 
#
# 1 0.021525 -0.006884 -0.009019 0.000000 -0.007386 0.000000
# 2 -0.006884 0.041763 -0.004687 0.000000 -0.000479 0.000000
# 3 -0.009019 -0.004687 0.012690 0.000000 0.005310 0.000000
# 4 0.000000 0.000000 0.000000 0.036713 0.000000 0.001659
# 5 -0.007386 -0.000479 0.005310 0.000000 0.042031 0.000000
# 6 0.000000 0.000000 0.000000 0.001659 0.000000 0.033499
#
#
# Mechanical properties :
#
#
# Convention : Reuss Voigt Hill
#
# Bulk Modulus (GPa) = 28.73621 51.66851 40.20236
# Shear Modulus (GPa) = 20.74684 25.79795 23.27240
#
# Velocity S-wave (km/s) = 3.25164 3.62593 3.44387
# Velocity P-wave (km/s) = 5.36119 6.62281 6.02511
#
# Compressibility (1/GPa) = 0.03479930
#
# Stress axis : x y z
#
# Youngs Moduli (GPa) = 46.45749 23.94436 78.80250
#
# Poissons Ratio (x) = 0.16483 0.71068
# Poissons Ratio (y) = 0.31981 0.36935
# Poissons Ratio (z) = 0.41898 0.11223
#
# Static dielectric constant tensor:
#      x y z
#    x 3.710450 0.000000 -0.099380 
#    y 0.000000 3.404440 0.000000 
#    z -0.099380 0.000000 3.737290 
# 
# 
# High freq. dielectric constant tensor:
#      x y z
#    x 1.770660 0.000000 -0.005760 
#    y 0.000000 1.749910 0.000000 
#    z -0.005760 0.000000 1.776050 
# 
# From -- ./inp_files/295722.got.cif
#   From: 2010.06.25/outbox.cif.g09.slc.cpg/sg12_148_cif.got.tgz:295722.got - 2010.06.28 00:19:55.
