data_PCOD8101402
_publ_section_title
;
Structure prediction by ZEFSAII (Michael W. Deem and Ramdas Pophale) SiO2 
 PCOD8101402
Probable space group: C 2/M
;
_chemical_formula_sum "Si O2"
_cell_formula_units_Z 48
_cell_length_a 20.712243
_cell_length_b 8.785542
_cell_length_c 31.504732
_cell_angle_alpha 90.000000
_cell_angle_beta 154.634907
_cell_angle_gamma 90.000000
_cell_volume 2455.870356
_symmetry_space_group_name_H-M "C 2/M"
_symmetry_group_IT_number 12
_symmetry_cell_setting 'monoclinic'
loop_
_space_group_symop_operation_xyz
x,y,z
-x,y,-z
-x,-y,-z
x,-y,z
1/2+x,1/2+y,z
1/2-x,1/2+y,-z
1/2-x,1/2-y,-z
1/2+x,1/2-y,z
loop_
_atom_site_type_symbol
_atom_site_label
_atom_site_fract_x
_atom_site_fract_y
_atom_site_fract_z
Si Si1 0.569701 0.179566 0.780455
Si Si2 0.103149 0.819688 0.891811
Si Si3 0.260237 0.821126 0.552222
Si Si4 0.848172 0.180864 0.888756
Si Si5 0.994431 0.678351 0.447275
Si Si6 0.680046 0.319025 0.222876
O O1 0.586104 0.269288 0.833579
O O2 0.415722 0.229258 0.666452
O O3 0.705006 0.234148 0.830678
O O4 0.576755 0.000000 0.793721
O O5 0.958574 0.757626 0.831610
O O6 0.114363 0.000000 0.901121
O O7 0.250000 0.750000 0.000000
O O8 0.250000 0.750000 0.500000
O O9 0.125401 0.767410 0.501642
O O10 0.253575 0.000000 0.542719
O O11 0.834263 0.247419 0.833080
O O12 0.855598 0.000000 0.891266
O O13 0.000000 0.246999 0.000000
O O14 0.016169 0.500000 0.451322
O O15 0.835610 0.739582 0.335403
O O16 0.000000 0.716649 0.500000
O O17 0.678868 0.500000 0.221701
#
# Coordination Sequence:
#
# PCOD8101402 Si02
#       6
#     8   8   8   8   8   8
#     4  10  21  37  57  82 112 146 185 232 283 335
#     4  11  22  37  59  85 114 148 186 230 280 336
#     4  11  23  38  58  84 117 155 194 239 291 347
#     4   9  16  29  52  77 100 132 178 226 266 313
#     4  10  20  36  58  82 110 146 191 239 285 340
#     4   9  18  33  54  79 106 142 186 227 271 327
#
# _framework density 19.545005
#
# number of rings (size 3 to 8) (size 9 to 14) (size 15 to 20)
#    0.000    2.000    0.000    4.000    0.000    8.333 
#    0.000    1.667    0.000    5.500    0.000    0.000 
#    0.000    0.000    0.000    0.000    0.000    0.000 
#
# Total GULP energy -297675.351372 kJ/mol
# GULP energy per Si atom -12403.139641 kJ/mol
# Density = 1.950052 g / cm^3
# Si number density = 19.545005 Si / 1000 Ang^3
#
#
#
# Elastic Constant Matrix: (Units=GPa)
#
#
# Indices 1 2 3 4 5 6 
#
# 1 158.0279 29.9910 99.2862 -0.0006 -4.9475 0.0000
# 2 29.9910 37.1773 39.9807 -0.0007 -5.1476 0.0004
# 3 99.2862 39.9807 213.1459 -0.0019 -0.5763 0.0008
# 4 -0.0006 -0.0007 -0.0019 22.7396 0.0004 3.5536
# 5 -4.9475 -5.1476 -0.5763 0.0004 46.3054 0.0000
# 6 0.0000 0.0004 0.0008 3.5536 0.0000 31.6688
#
#
#
# Elastic Compliance Matrix: (Units=1/GPa)
#
#
# Indices 1 2 3 4 5 6 
#
# 1 0.009323 -0.003475 -0.003689 0.000000 0.000564 0.000000
# 2 -0.003475 0.035625 -0.005054 0.000001 0.003526 0.000000
# 3 -0.003689 -0.005054 0.007356 0.000000 -0.000864 0.000000
# 4 0.000000 0.000001 0.000000 0.044761 0.000000 -0.005023
# 5 0.000564 0.003526 -0.000864 0.000000 0.022037 0.000000
# 6 0.000000 0.000000 0.000000 -0.005023 0.000000 0.032140
#
#
# Mechanical properties :
#
#
# Convention : Reuss Voigt Hill
#
# Bulk Modulus (GPa) = 35.88530 82.98521 59.43526
# Shear Modulus (GPa) = 27.03154 36.08230 31.55692
#
# Velocity S-wave (km/s) = 3.72296 4.30130 4.02254
# Velocity P-wave (km/s) = 6.07295 8.19872 7.21456
#
# Compressibility (1/GPa) = 0.02786656
#
# Stress axis : x y z
#
# Youngs Moduli (GPa) = 107.25873 28.07025 135.94552
#
# Poissons Ratio (x) = 0.09755 0.50157
# Poissons Ratio (y) = 0.37276 0.68706
# Poissons Ratio (z) = 0.39573 0.14187
#
# Static dielectric constant tensor:
#      x y z
#    x 3.733390 0.000000 0.039850 
#    y 0.000000 3.209680 0.000000 
#    z 0.039850 0.000000 3.800080 
# 
# 
# High freq. dielectric constant tensor:
#      x y z
#    x 1.782300 0.000000 -0.000300 
#    y 0.000000 1.724020 0.000000 
#    z -0.000300 0.000000 1.784860 
# 
# From -- ./inp_files/244901.got.cif
#   From: 2010.06.25/outbox.cif.g09.slc.cpg/sg12_123_cif.got.tgz:244901.got - 2010.06.28 00:19:55.
