data_PCOD8101565
_publ_section_title
;
Structure prediction by ZEFSAII (Michael W. Deem and Ramdas Pophale) SiO2 
 PCOD8101565
Probable space group: C 2/M
;
_chemical_formula_sum "Si O2"
_cell_formula_units_Z 48
_cell_length_a 27.816316
_cell_length_b 8.993032
_cell_length_c 10.145582
_cell_angle_alpha 90.000000
_cell_angle_beta 89.891999
_cell_angle_gamma 90.000000
_cell_volume 2537.943467
_symmetry_space_group_name_H-M "C 2/M"
_symmetry_group_IT_number 12
_symmetry_cell_setting 'monoclinic'
loop_
_space_group_symop_operation_xyz
x,y,z
-x,y,-z
-x,-y,-z
x,-y,z
1/2+x,1/2+y,z
1/2-x,1/2+y,-z
1/2-x,1/2-y,-z
1/2+x,1/2-y,z
loop_
_atom_site_type_symbol
_atom_site_label
_atom_site_fract_x
_atom_site_fract_y
_atom_site_fract_z
Si Si1 0.471795 0.675136 0.129984
Si Si2 0.782068 0.174991 0.609423
Si Si3 0.034122 0.833723 0.376095
Si Si4 0.772397 0.325807 0.126249
Si Si5 0.376004 0.174772 0.521775
Si Si6 0.623299 0.175953 0.781777
O O1 0.462670 0.500000 0.131362
O O2 0.504001 0.726283 0.252697
O O3 0.419961 0.752496 0.135710
O O4 0.500000 0.727185 0.000000
O O5 0.750000 0.250000 0.500000
O O6 0.760839 0.217431 0.750901
O O7 0.835364 0.238206 0.601145
O O8 0.781781 0.000000 0.585524
O O9 0.075349 0.714687 0.403047
O O10 0.000000 0.841007 0.500000
O O11 0.054959 0.000000 0.348124
O O12 0.772740 0.500000 0.101544
O O13 0.826752 0.269997 0.153366
O O14 0.750000 0.250000 0.000000
O O15 0.378025 0.229376 0.370299
O O16 0.365985 0.000000 0.529421
O O17 0.618012 0.000000 0.788032
#
# Coordination Sequence:
#
# PCOD8101565 Si02
#       6
#     8   8   8   8   8   8
#     4  10  22  39  59  85 118 153 194 241 293 354
#     4  11  22  39  62  89 122 156 198 248 297 352
#     4  10  20  36  58  86 116 149 195 244 290 347
#     4  10  23  42  61  88 123 157 197 247 297 355
#     4  11  22  37  60  90 121 155 200 248 296 351
#     4  10  21  39  60  84 118 153 194 244 295 353
#
# _framework density 18.912949999999999
#
# number of rings (size 3 to 8) (size 9 to 14) (size 15 to 20)
#    0.000    1.667    3.333    1.000    0.000    5.333 
#    0.000    5.000    0.000    0.000    0.000    0.000 
#    0.000    0.000    0.000    0.000    0.000    0.000 
#
# Total GULP energy -297682.969923 kJ/mol
# GULP energy per Si atom -12403.457080 kJ/mol
# Density = 1.886990 g / cm^3
# Si number density = 18.912950 Si / 1000 Ang^3
#
#
#
# Elastic Constant Matrix: (Units=GPa)
#
#
# Indices 1 2 3 4 5 6 
#
# 1 156.4204 48.9417 80.0273 0.0000 -5.3152 0.0000
# 2 48.9417 55.4973 48.4664 0.0000 -6.4660 0.0000
# 3 80.0273 48.4664 140.7318 0.0000 1.1007 0.0000
# 4 0.0000 0.0000 0.0000 31.4071 0.0000 1.0296
# 5 -5.3152 -6.4660 1.1007 0.0000 35.0645 0.0000
# 6 0.0000 0.0000 0.0000 1.0296 0.0000 40.7215
#
#
#
# Elastic Compliance Matrix: (Units=1/GPa)
#
#
# Indices 1 2 3 4 5 6 
#
# 1 0.010102 -0.005452 -0.003872 0.000000 0.000648 0.000000
# 2 -0.005452 0.029630 -0.007142 0.000000 0.004862 0.000000
# 3 -0.003872 -0.007142 0.011785 0.000000 -0.002274 0.000000
# 4 0.000000 0.000000 0.000000 0.031866 0.000000 -0.000806
# 5 0.000648 0.004862 -0.002274 0.000000 0.029585 0.000000
# 6 0.000000 0.000000 0.000000 -0.000806 0.000000 0.024577
#
#
# Mechanical properties :
#
#
# Convention : Reuss Voigt Hill
#
# Bulk Modulus (GPa) = 53.80565 78.61338 66.20952
# Shear Modulus (GPa) = 28.30088 33.11954 30.71021
#
# Velocity S-wave (km/s) = 3.87250 4.18922 4.03397
# Velocity P-wave (km/s) = 6.96461 8.06570 7.53530
#
# Compressibility (1/GPa) = 0.01858541
#
# Stress axis : x y z
#
# Youngs Moduli (GPa) = 98.99314 33.74903 84.85331
#
# Poissons Ratio (x) = 0.18399 0.32855
# Poissons Ratio (y) = 0.53967 0.60605
# Poissons Ratio (z) = 0.38330 0.24105
#
# Static dielectric constant tensor:
#      x y z
#    x 3.265560 0.000000 0.051250 
#    y 0.000000 3.390640 0.000000 
#    z 0.051250 0.000000 3.446350 
# 
# 
# High freq. dielectric constant tensor:
#      x y z
#    x 1.747850 0.000000 0.000140 
#    y 0.000000 1.730280 0.000000 
#    z 0.000140 0.000000 1.736690 
# 
# From -- ./inp_files/108737.got.cif
#   From: 2010.06.25/outbox.cif.g09.slc.cpg/sg12_55_cif.got.tgz:108737.got - 2010.06.28 00:19:55.
