data_PCOD8101354
_publ_section_title
;
Structure prediction by ZEFSAII (Michael W. Deem and Ramdas Pophale) SiO2 
 PCOD8101354
Probable space group: C 2/M
;
_chemical_formula_sum "Si O2"
_cell_formula_units_Z 64
_cell_length_a 18.725393
_cell_length_b 9.079835
_cell_length_c 30.324338
_cell_angle_alpha 90.000000
_cell_angle_beta 141.352826
_cell_angle_gamma 90.000000
_cell_volume 3219.945751
_symmetry_space_group_name_H-M "C 2/M"
_symmetry_group_IT_number 12
_symmetry_cell_setting 'monoclinic'
loop_
_space_group_symop_operation_xyz
x,y,z
-x,y,-z
-x,-y,-z
x,-y,z
1/2+x,1/2+y,z
1/2-x,1/2+y,-z
1/2-x,1/2-y,-z
1/2+x,1/2-y,z
loop_
_atom_site_type_symbol
_atom_site_label
_atom_site_fract_x
_atom_site_fract_y
_atom_site_fract_z
Si Si1 0.959889 0.674617 0.933288
Si Si2 0.302754 0.173353 0.659355
Si Si3 0.198173 0.175287 0.798690
Si Si4 0.196069 0.336545 0.434677
Si Si5 0.370858 0.172748 0.061552
Si Si6 0.554260 0.165454 0.658295
Si Si7 0.061581 0.172241 0.574554
Si Si8 0.948960 0.673494 0.197145
O O1 0.966493 0.500000 0.936868
O O2 0.042594 0.734684 0.934262
O O3 0.830084 0.725418 0.862475
O O4 0.000000 0.738253 0.000000
O O5 0.269509 0.238082 0.595181
O O6 0.197142 0.209158 0.640215
O O7 0.422236 0.236571 0.734831
O O8 0.318014 0.000000 0.660720
O O9 0.146978 0.236325 0.728375
O O10 0.136902 0.242140 0.811953
O O11 0.184447 0.000000 0.793047
O O12 0.247134 0.500000 0.463175
O O13 0.250000 0.250000 0.500000
O O14 0.059082 0.339471 0.367184
O O15 0.420935 0.210348 0.133378
O O16 0.352488 0.000000 0.046127
O O17 0.250000 0.250000 0.000000
O O18 0.514301 0.236776 0.592845
O O19 0.601950 0.000000 0.674011
O O20 0.000000 0.225184 0.500000
O O21 0.037710 0.000000 0.570318
O O22 0.939177 0.500000 0.202584
#
# Coordination Sequence:
#
# PCOD8101354 Si02
#       8
#     8   8   8   8   8   8   8   8
#     4   9  19  36  59  88 119 152 191 237 286 339
#     4   9  18  35  57  79 110 151 190 232 285 343
#     4  11  22  37  62  89 115 151 198 245 285 341
#     4  10  20  36  58  81 108 147 191 237 289 343
#     4  10  21  37  61  88 117 155 193 233 286 344
#     4  11  23  39  58  83 120 158 190 237 300 355
#     4  10  21  37  60  86 113 149 199 249 288 344
#     4  10  20  37  59  82 115 156 194 235 293 351
#
# _framework density 19.876111999999999
#
# number of rings (size 3 to 8) (size 9 to 14) (size 15 to 20)
#    0.000    2.000    1.250    2.250    1.750    3.750 
#    0.000    2.500    0.000    3.375    0.000    0.000 
#    0.000    0.000    0.000    0.000    0.000    0.000 
#
# Total GULP energy -396751.633883 kJ/mol
# GULP energy per Si atom -12398.488559 kJ/mol
# Density = 1.983087 g / cm^3
# Si number density = 19.876112 Si / 1000 Ang^3
#
#
#
# Elastic Constant Matrix: (Units=GPa)
#
#
# Indices 1 2 3 4 5 6 
#
# 1 107.5567 27.6289 38.1546 0.0000 -3.3528 -0.0001
# 2 27.6289 56.2823 35.1958 0.0000 -6.3961 -0.0002
# 3 38.1546 35.1958 119.8536 0.0000 -3.7099 0.0000
# 4 0.0000 0.0000 0.0000 30.0876 0.0000 -2.2787
# 5 -3.3528 -6.3961 -3.7099 0.0000 41.2690 0.0000
# 6 -0.0001 -0.0002 0.0000 -2.2787 0.0000 25.7515
#
#
#
# Elastic Compliance Matrix: (Units=1/GPa)
#
#
# Indices 1 2 3 4 5 6 
#
# 1 0.011169 -0.003984 -0.002383 0.000000 0.000076 0.000000
# 2 -0.003984 0.023514 -0.005550 0.000000 0.002822 0.000000
# 3 -0.002383 -0.005550 0.010729 0.000000 -0.000089 0.000000
# 4 0.000000 0.000000 0.000000 0.033460 0.000000 0.002961
# 5 0.000076 0.002822 -0.000089 0.000000 0.024667 0.000000
# 6 0.000000 0.000000 0.000000 0.002961 0.000000 0.039095
#
#
# Mechanical properties :
#
#
# Convention : Reuss Voigt Hill
#
# Bulk Modulus (GPa) = 46.34166 53.96125 50.15145
# Shear Modulus (GPa) = 28.79194 31.60252 30.19723
#
# Velocity S-wave (km/s) = 3.81014 3.99177 3.90201
# Velocity P-wave (km/s) = 6.53621 6.96085 6.75187
#
# Compressibility (1/GPa) = 0.02157886
#
# Stress axis : x y z
#
# Youngs Moduli (GPa) = 89.53735 42.52746 93.20433
#
# Poissons Ratio (x) = 0.16941 0.22213
# Poissons Ratio (y) = 0.35669 0.51725
# Poissons Ratio (z) = 0.21339 0.23601
#
# Static dielectric constant tensor:
#      x y z
#    x 3.818490 0.000000 0.055520 
#    y 0.000000 3.211380 0.000000 
#    z 0.055520 0.000000 3.636900 
# 
# 
# High freq. dielectric constant tensor:
#      x y z
#    x 1.789100 0.000000 -0.001360 
#    y 0.000000 1.739750 0.000000 
#    z -0.001360 0.000000 1.790040 
# 
# From -- ./inp_files/378337.got.cif
#   From: 2010.06.25/outbox.cif.g09.slc.cpg/sg12_190_cif.got.tgz:378337.got - 2010.06.28 00:19:55.
