data_PCOD8101795
_publ_section_title
;
Structure prediction by ZEFSAII (Michael W. Deem and Ramdas Pophale) SiO2 
 PCOD8101795
Probable space group: C 2/M
;
_chemical_formula_sum "Si O2"
_cell_formula_units_Z 64
_cell_length_a 29.234349
_cell_length_b 10.050516
_cell_length_c 23.925423
_cell_angle_alpha 90.000000
_cell_angle_beta 154.109535
_cell_angle_gamma 90.000000
_cell_volume 3069.565783
_symmetry_space_group_name_H-M "C 2/M"
_symmetry_group_IT_number 12
_symmetry_cell_setting 'monoclinic'
loop_
_space_group_symop_operation_xyz
x,y,z
-x,y,-z
-x,-y,-z
x,-y,z
1/2+x,1/2+y,z
1/2-x,1/2+y,-z
1/2-x,1/2-y,-z
1/2+x,1/2-y,z
loop_
_atom_site_type_symbol
_atom_site_label
_atom_site_fract_x
_atom_site_fract_y
_atom_site_fract_z
Si Si1 0.235935 0.155130 0.432397
Si Si2 0.290971 0.648948 0.401138
Si Si3 0.676749 0.646084 0.101692
Si Si4 0.995150 0.152349 0.556669
Si Si5 0.495461 0.352175 0.173688
Si Si6 0.677683 0.233506 0.831887
Si Si7 0.128022 0.355164 0.897070
Si Si8 0.381203 0.849982 0.874851
O O1 0.250000 0.250000 0.500000
O O2 0.301128 0.229416 0.455634
O O3 0.114020 0.159666 0.284741
O O4 0.273529 0.000000 0.481409
O O5 0.306901 0.500000 0.445805
O O6 0.377835 0.673288 0.449561
O O7 0.175572 0.653016 0.247267
O O8 0.675429 0.500000 0.128481
O O9 0.769007 0.645451 0.157551
O O10 0.689157 0.758202 0.162140
O O11 0.567395 0.677819 0.951529
O O12 0.000000 0.220850 0.500000
O O13 0.075238 0.205096 0.691162
O O14 0.025538 0.000000 0.582238
O O15 0.470449 0.500000 0.169463
O O16 0.461007 0.251660 0.184756
O O17 0.644934 0.145962 0.849065
O O18 0.763104 0.338450 0.949309
O O19 0.083815 0.500000 0.864383
O O20 0.382401 0.000000 0.900710
O O21 0.500000 0.796058 0.000000
#
# Coordination Sequence:
#
# PCOD8101795 Si02
#       8
#     8   8   8   8   8   8   8   8
#     4  11  24  42  62  86 117 156 198 246 301 361
#     4  10  22  40  61  89 122 158 202 249 296 357
#     4  10  20  36  59  86 117 153 191 240 295 354
#     4  10  21  38  61  87 120 164 208 247 296 362
#     4   9  21  39  58  83 118 153 192 241 298 357
#     4  10  21  36  56  85 121 155 197 249 306 357
#     4  10  21  36  59  89 118 153 199 251 305 360
#     4  10  21  37  60  89 120 152 193 246 298 349
#
# _framework density 20.849855000000002
#
# number of rings (size 3 to 8) (size 9 to 14) (size 15 to 20)
#    0.000    2.000    0.000    2.625    1.750    8.750 
#    0.000    0.625    0.000    2.625    0.000    0.000 
#    0.000    0.000    0.000    0.000    0.000    0.000 
#
# Total GULP energy -396625.336125 kJ/mol
# GULP energy per Si atom -12394.541754 kJ/mol
# Density = 2.080240 g / cm^3
# Si number density = 20.849855 Si / 1000 Ang^3
#
#
#
# Elastic Constant Matrix: (Units=GPa)
#
#
# Indices 1 2 3 4 5 6 
#
# 1 90.2589 58.7363 13.2361 0.0000 -8.1713 0.0000
# 2 58.7363 140.0939 16.7937 0.0000 -9.7528 0.0000
# 3 13.2361 16.7937 80.2577 0.0000 -2.9460 0.0000
# 4 0.0000 0.0000 0.0000 20.0436 0.0000 0.0168
# 5 -8.1713 -9.7528 -2.9460 0.0000 26.0513 0.0000
# 6 0.0000 0.0000 0.0000 0.0168 0.0000 32.1305
#
#
#
# Elastic Compliance Matrix: (Units=1/GPa)
#
#
# Indices 1 2 3 4 5 6 
#
# 1 0.015497 -0.006189 -0.001172 0.000000 0.002411 0.000000
# 2 -0.006189 0.009970 -0.001004 0.000000 0.001678 0.000000
# 3 -0.001172 -0.001004 0.012889 0.000000 0.000714 0.000000
# 4 0.000000 0.000000 0.000000 0.049891 0.000000 -0.000026
# 5 0.002411 0.001678 0.000714 0.000000 0.039851 0.000000
# 6 0.000000 0.000000 0.000000 -0.000026 0.000000 0.031123
#
#
# Mechanical properties :
#
#
# Convention : Reuss Voigt Hill
#
# Bulk Modulus (GPa) = 46.24015 54.23808 50.23912
# Shear Modulus (GPa) = 27.29845 30.43470 28.86657
#
# Velocity S-wave (km/s) = 3.62233 3.82476 3.72492
# Velocity P-wave (km/s) = 6.30245 6.75094 6.53055
#
# Compressibility (1/GPa) = 0.02162623
#
# Stress axis : x y z
#
# Youngs Moduli (GPa) = 64.52902 100.30092 77.58270
#
# Poissons Ratio (x) = 0.62075 0.09094
# Poissons Ratio (y) = 0.39936 0.07789
# Poissons Ratio (z) = 0.07564 0.10070
#
# Static dielectric constant tensor:
#      x y z
#    x 3.629110 0.000000 0.062050 
#    y 0.000000 3.808300 0.000000 
#    z 0.062050 0.000000 3.941180 
# 
# 
# High freq. dielectric constant tensor:
#      x y z
#    x 1.810120 0.000000 0.003180 
#    y 0.000000 1.811510 0.000000 
#    z 0.003180 0.000000 1.814990 
# 
# From -- ./inp_files/353580.got.cif
#   From: 2010.06.25/outbox.cif.g09.slc.cpg/sg12_177_cif.got.tgz:353580.got - 2010.06.28 00:19:55.
