data_PCOD8101774
_publ_section_title
;
Structure prediction by ZEFSAII (Michael W. Deem and Ramdas Pophale) SiO2 
 PCOD8101774
Probable space group: C 2/M
;
_chemical_formula_sum "Si O2"
_cell_formula_units_Z 48
_cell_length_a 9.034389
_cell_length_b 18.340981
_cell_length_c 27.715886
_cell_angle_alpha 90.000000
_cell_angle_beta 147.340120
_cell_angle_gamma 90.000000
_cell_volume 2478.352357
_symmetry_space_group_name_H-M "C 2/M"
_symmetry_group_IT_number 12
_symmetry_cell_setting 'monoclinic'
loop_
_space_group_symop_operation_xyz
x,y,z
-x,y,-z
-x,-y,-z
x,-y,z
1/2+x,1/2+y,z
1/2-x,1/2+y,-z
1/2-x,1/2-y,-z
1/2+x,1/2-y,z
loop_
_atom_site_type_symbol
_atom_site_label
_atom_site_fract_x
_atom_site_fract_y
_atom_site_fract_z
Si Si1 0.252662 0.083168 0.602304
Si Si2 0.539094 0.825978 0.255216
Si Si3 0.354631 0.417813 0.736002
Si Si4 0.780244 0.583756 0.048462
Si Si5 0.454845 0.583595 0.868693
Si Si6 0.779843 0.820499 0.220547
O O1 0.270531 0.141409 0.650348
O O2 0.527115 0.087952 0.645717
O O3 0.000000 0.107363 0.500000
O O4 0.213133 0.000000 0.610718
O O5 0.743737 0.809202 0.267610
O O6 0.354490 0.756903 0.218711
O O7 0.311681 0.884826 0.176959
O O8 0.457267 0.500000 0.757320
O O9 0.480303 0.384533 0.821016
O O10 0.465242 0.373184 0.720764
O O11 0.878497 0.500000 0.084885
O O12 0.006063 0.643759 0.123037
O O13 0.500000 0.599125 0.000000
O O14 0.722784 0.594674 0.975177
O O15 0.379170 0.500000 0.840829
#
# Coordination Sequence:
#
# PCOD8101774 Si02
#       6
#     8   8   8   8   8   8
#     4   9  19  40  69  95 117 145 184 233 289 352
#     4  11  22  37  57  82 118 156 193 234 293 348
#     4   9  19  36  59  86 117 151 192 241 293 349
#     4  10  20  36  59  86 114 151 204 250 288 337
#     4   9  18  36  58  82 112 152 196 242 293 342
#     4  12  24  38  55  83 119 161 201 239 288 341
#
# _framework density 19.367705000000001
#
# number of rings (size 3 to 8) (size 9 to 14) (size 15 to 20)
#    0.000    2.000    1.667    4.000    0.000    3.333 
#    0.000    6.667    0.000    3.000    0.000    0.000 
#    0.000    0.000    0.000    0.000    0.000    0.000 
#
# Total GULP energy -297473.742771 kJ/mol
# GULP energy per Si atom -12394.739282 kJ/mol
# Density = 1.932362 g / cm^3
# Si number density = 19.367705 Si / 1000 Ang^3
#
#
#
# Elastic Constant Matrix: (Units=GPa)
#
#
# Indices 1 2 3 4 5 6 
#
# 1 126.1479 56.3214 42.1845 -0.0007 5.5182 -0.0001
# 2 56.3214 88.7315 56.7567 0.0009 -5.7658 -0.0007
# 3 42.1845 56.7567 117.3496 0.0058 -7.7908 -0.0025
# 4 -0.0007 0.0009 0.0058 27.0109 -0.0025 7.2969
# 5 5.5182 -5.7658 -7.7908 -0.0025 17.6034 -0.0001
# 6 -0.0001 -0.0007 -0.0025 7.2969 -0.0001 34.0286
#
#
#
# Elastic Compliance Matrix: (Units=1/GPa)
#
#
# Indices 1 2 3 4 5 6 
#
# 1 0.011815 -0.007140 -0.001231 0.000000 -0.006587 0.000000
# 2 -0.007140 0.020695 -0.007051 0.000001 0.005896 0.000000
# 3 -0.001231 -0.007051 0.012618 -0.000003 0.003661 0.000001
# 4 0.000000 0.000001 -0.000003 0.039299 0.000005 -0.008427
# 5 -0.006587 0.005896 0.003661 0.000005 0.062423 0.000000
# 6 0.000000 0.000000 0.000001 -0.008427 0.000000 0.031194
#
#
# Mechanical properties :
#
#
# Convention : Reuss Voigt Hill
#
# Bulk Modulus (GPa) = 70.01386 71.41715 70.71550
# Shear Modulus (GPa) = 23.40277 27.52634 25.46456
#
# Velocity S-wave (km/s) = 3.47989 3.77404 3.62994
# Velocity P-wave (km/s) = 7.23702 7.47967 7.35935
#
# Compressibility (1/GPa) = 0.01428289
#
# Stress axis : x y z
#
# Youngs Moduli (GPa) = 84.63956 48.31995 79.25409
#
# Poissons Ratio (x) = 0.34499 0.09758
# Poissons Ratio (y) = 0.60431 0.55885
# Poissons Ratio (z) = 0.10422 0.34072
#
# Static dielectric constant tensor:
#      x y z
#    x 3.641650 0.000000 -0.057430 
#    y 0.000000 3.588190 0.000000 
#    z -0.057430 0.000000 3.374020 
# 
# 
# High freq. dielectric constant tensor:
#      x y z
#    x 1.751370 0.000000 0.002370 
#    y 0.000000 1.755930 0.000000 
#    z 0.002370 0.000000 1.732830 
# 
# From -- ./inp_files/300636.got.cif
#   From: 2010.06.25/outbox.cif.g09.slc.cpg/sg12_151_cif.got.tgz:300636.got - 2010.06.28 00:19:55.
