data_PCOD8101705
_publ_section_title
;
Structure prediction by ZEFSAII (Michael W. Deem and Ramdas Pophale) SiO2 
 PCOD8101705
Probable space group: C 2/M
;
_chemical_formula_sum "Si O2"
_cell_formula_units_Z 60
_cell_length_a 20.475421
_cell_length_b 25.687558
_cell_length_c 11.005046
_cell_angle_alpha 90.000000
_cell_angle_beta 150.376487
_cell_angle_gamma 90.000000
_cell_volume 2861.125740
_symmetry_space_group_name_H-M "C 2/M"
_symmetry_group_IT_number 12
_symmetry_cell_setting 'monoclinic'
loop_
_space_group_symop_operation_xyz
x,y,z
-x,y,-z
-x,-y,-z
x,-y,z
1/2+x,1/2+y,z
1/2-x,1/2+y,-z
1/2-x,1/2-y,-z
1/2+x,1/2-y,z
loop_
_atom_site_type_symbol
_atom_site_label
_atom_site_fract_x
_atom_site_fract_y
_atom_site_fract_z
Si Si1 0.670720 0.354269 0.497755
Si Si2 0.139787 0.672062 0.990874
Si Si3 0.509503 0.558751 0.879568
Si Si4 0.316349 0.942651 0.359437
Si Si5 0.816804 0.657193 0.222939
Si Si6 0.066767 0.787094 0.853982
Si Si7 0.500000 0.245101 0.500000
Si Si8 0.586666 0.109415 0.253776
O O1 0.732856 0.348752 0.731643
O O2 0.584152 0.406984 0.358718
O O3 0.572861 0.305174 0.313578
O O4 0.789576 0.356073 0.592627
O O5 0.170559 0.659504 0.901539
O O6 0.118978 0.732744 0.991503
O O7 0.004779 0.644984 0.811272
O O8 0.452656 0.500000 0.783868
O O9 0.500000 0.581879 0.000000
O O10 0.660559 0.559255 0.083065
O O11 0.376096 0.897064 0.370426
O O12 0.355045 0.935407 0.564369
O O13 0.369457 0.000000 0.406831
O O14 0.898510 0.706653 0.406474
O O15 0.670261 0.665728 0.040387
O O16 0.064030 0.781930 0.703414
O O17 0.500000 0.086645 0.000000
#
# Coordination Sequence:
#
# PCOD8101705 Si02
#       8
#     8   8   8   8   8   8   4   8
#     4  11  21  39  62  89 123 156 203 252 298 356
#     4  10  23  40  58  89 127 162 198 242 302 365
#     4  10  20  38  63  90 115 154 206 255 303 351
#     4  11  22  39  64  91 120 154 202 255 303 360
#     4  11  21  38  61  89 120 158 204 249 295 357
#     4  11  20  35  60  90 115 162 206 247 296 351
#     4  10  20  36  59  84 125 164 202 244 290 362
#     4  10  23  41  60  86 123 161 197 248 304 361
#
# _framework density 20.970766999999999
#
# number of rings (size 3 to 8) (size 9 to 14) (size 15 to 20)
#    0.000    1.467    2.667    4.800    0.000    0.800 
#    0.000   10.333    0.000    1.600    0.000    0.000 
#    0.000    0.000    0.000    0.000    0.000    0.000 
#
# Total GULP energy -371815.157837 kJ/mol
# GULP energy per Si atom -12393.838595 kJ/mol
# Density = 2.092304 g / cm^3
# Si number density = 20.970767 Si / 1000 Ang^3
#
#
#
# Elastic Constant Matrix: (Units=GPa)
#
#
# Indices 1 2 3 4 5 6 
#
# 1 58.4635 27.4336 32.2180 0.0000 6.1888 0.0000
# 2 27.4336 120.2871 50.2693 0.0000 -11.3309 0.0000
# 3 32.2180 50.2693 112.3516 0.0000 5.6992 0.0000
# 4 0.0000 0.0000 0.0000 9.2783 0.0000 -8.5772
# 5 6.1888 -11.3309 5.6992 0.0000 33.0688 0.0000
# 6 0.0000 0.0000 0.0000 -8.5772 0.0000 23.9412
#
#
#
# Elastic Compliance Matrix: (Units=1/GPa)
#
#
# Indices 1 2 3 4 5 6 
#
# 1 0.021663 -0.003523 -0.004408 0.000000 -0.004502 0.000000
# 2 -0.003523 0.011452 -0.004385 0.000000 0.005339 0.000000
# 3 -0.004408 -0.004385 0.012268 0.000000 -0.002792 0.000000
# 4 0.000000 0.000000 0.000000 0.161149 0.000000 0.057733
# 5 -0.004502 0.005339 -0.002792 0.000000 0.033393 0.000000
# 6 0.000000 0.000000 0.000000 0.057733 0.000000 0.062453
#
#
# Mechanical properties :
#
#
# Convention : Reuss Voigt Hill
#
# Bulk Modulus (GPa) = 48.18506 56.77156 52.47831
# Shear Modulus (GPa) = 14.97339 25.33642 20.15491
#
# Velocity S-wave (km/s) = 2.67500 3.47966 3.10352
# Velocity P-wave (km/s) = 5.70684 6.57834 6.15802
#
# Compressibility (1/GPa) = 0.02075332
#
# Stress axis : x y z
#
# Youngs Moduli (GPa) = 46.16127 87.31951 81.51278
#
# Poissons Ratio (x) = 0.30760 0.35928
# Poissons Ratio (y) = 0.16261 0.35741
# Poissons Ratio (z) = 0.20346 0.38287
#
# Static dielectric constant tensor:
#      x y z
#    x 3.547600 0.000000 0.071250 
#    y 0.000000 3.792540 0.000000 
#    z 0.071250 0.000000 4.233160 
# 
# 
# High freq. dielectric constant tensor:
#      x y z
#    x 1.803470 0.000000 0.010550 
#    y 0.000000 1.811440 0.000000 
#    z 0.010550 0.000000 1.839540 
# 
# From -- ./inp_files/170404.got.cif
#   From: 2010.06.25/outbox.cif.g09.slc.cpg/sg12_86_cif.got.tgz:170404.got - 2010.06.28 00:19:55.
