data_PCOD8101890
_publ_section_title
;
Structure prediction by ZEFSAII (Michael W. Deem and Ramdas Pophale) SiO2 
 PCOD8101890
Probable space group: C 2/M
;
_chemical_formula_sum "Si O2"
_cell_formula_units_Z 56
_cell_length_a 25.052949
_cell_length_b 8.855009
_cell_length_c 14.525427
_cell_angle_alpha 90.000000
_cell_angle_beta 120.400348
_cell_angle_gamma 90.000000
_cell_volume 2779.336995
_symmetry_space_group_name_H-M "C 2/M"
_symmetry_group_IT_number 12
_symmetry_cell_setting 'monoclinic'
loop_
_space_group_symop_operation_xyz
x,y,z
-x,y,-z
-x,-y,-z
x,-y,z
1/2+x,1/2+y,z
1/2-x,1/2+y,-z
1/2-x,1/2-y,-z
1/2+x,1/2-y,z
loop_
_atom_site_type_symbol
_atom_site_label
_atom_site_fract_x
_atom_site_fract_y
_atom_site_fract_z
Si Si1 0.545684 0.678498 0.617707
Si Si2 0.501810 0.678450 0.226247
Si Si3 0.228391 0.177597 0.074082
Si Si4 0.390558 0.820902 0.780500
Si Si5 0.764833 0.175215 0.609164
Si Si6 0.325979 0.173044 0.309659
Si Si7 0.405986 0.321913 0.983750
O O1 0.500000 0.745106 0.500000
O O2 0.543090 0.500000 0.616078
O O3 0.525815 0.738484 0.701106
O O4 0.614330 0.725630 0.651095
O O5 0.513562 0.500000 0.239310
O O6 0.566693 0.762697 0.265949
O O7 0.454911 0.723596 0.104180
O O8 0.274596 0.230266 0.193650
O O9 0.160274 0.235798 0.039076
O O10 0.227423 0.000000 0.061063
O O11 0.250000 0.250000 0.000000
O O12 0.321967 0.754735 0.709617
O O13 0.421398 0.763177 0.902354
O O14 0.387098 0.000000 0.775873
O O15 0.750000 0.250000 0.500000
O O16 0.702537 0.194581 0.614141
O O17 0.781779 0.000000 0.611433
O O18 0.344174 0.000000 0.306997
O O19 0.406856 0.500000 0.964072
#
# Coordination Sequence:
#
# PCOD8101890 Si02
#       7
#     8   8   8   8   8   8   8
#     4  10  23  42  64  92 122 160 210 256 303 366
#     4  10  22  40  63  89 124 170 210 254 314 372
#     4  10  20  36  59  89 123 161 201 248 304 365
#     4  12  25  40  62  94 127 163 208 260 313 364
#     4  11  24  44  67  94 127 163 207 253 309 374
#     4  10  22  41  64  90 125 161 198 250 311 364
#     4  10  20  39  62  86 123 168 208 250 313 380
#
# _framework density 20.148692
#
# number of rings (size 3 to 8) (size 9 to 14) (size 15 to 20)
#    0.000    1.571    1.429    3.000    2.000    6.571 
#    0.000    0.000    0.000    0.000    0.000    0.000 
#    0.000    0.000    0.000    0.000    0.000    0.000 
#
# Total GULP energy -347323.730310 kJ/mol
# GULP energy per Si atom -12404.418940 kJ/mol
# Density = 2.010283 g / cm^3
# Si number density = 20.148692 Si / 1000 Ang^3
#
#
#
# Elastic Constant Matrix: (Units=GPa)
#
#
# Indices 1 2 3 4 5 6 
#
# 1 125.7852 34.8365 41.1368 0.0000 -6.2542 0.0000
# 2 34.8365 60.5259 37.6363 0.0000 -6.4294 0.0000
# 3 41.1368 37.6363 104.7027 0.0000 -18.3187 0.0000
# 4 0.0000 0.0000 0.0000 26.5419 0.0000 -2.2884
# 5 -6.2542 -6.4294 -18.3187 0.0000 35.8314 0.0000
# 6 0.0000 0.0000 0.0000 -2.2884 0.0000 36.1402
#
#
#
# Elastic Compliance Matrix: (Units=1/GPa)
#
#
# Indices 1 2 3 4 5 6 
#
# 1 0.009896 -0.004221 -0.002417 0.000000 -0.000266 0.000000
# 2 -0.004221 0.023079 -0.006635 0.000000 0.000012 0.000000
# 3 -0.002417 -0.006635 0.013842 0.000000 0.005464 0.000000
# 4 0.000000 0.000000 0.000000 0.037883 0.000000 0.002399
# 5 -0.000266 0.000012 0.005464 0.000000 0.030658 0.000000
# 6 0.000000 0.000000 0.000000 0.002399 0.000000 0.027822
#
#
# Mechanical properties :
#
#
# Convention : Reuss Voigt Hill
#
# Bulk Modulus (GPa) = 49.33600 57.58145 53.45872
# Shear Modulus (GPa) = 28.33125 31.52964 29.93044
#
# Velocity S-wave (km/s) = 3.75388 3.96011 3.85837
# Velocity P-wave (km/s) = 6.58240 7.03919 6.81462
#
# Compressibility (1/GPa) = 0.02026918
#
# Stress axis : x y z
#
# Youngs Moduli (GPa) = 101.04596 43.33019 72.24529
#
# Poissons Ratio (x) = 0.18290 0.17465
# Poissons Ratio (y) = 0.42652 0.47937
# Poissons Ratio (z) = 0.24427 0.28751
#
# Static dielectric constant tensor:
#      x y z
#    x 3.749950 0.000000 -0.002090 
#    y 0.000000 3.474570 0.000000 
#    z -0.002090 0.000000 3.852080 
# 
# 
# High freq. dielectric constant tensor:
#      x y z
#    x 1.803080 0.000000 -0.002980 
#    y 0.000000 1.771870 0.000000 
#    z -0.002980 0.000000 1.796540 
# 
# From -- ./inp_files/239003.got.cif
#   From: 2010.06.25/outbox.cif.g09.slc.cpg/sg12_120_cif.got.tgz:239003.got - 2010.06.28 00:19:55.
