data_PCOD8101026
_publ_section_title
;
Structure prediction by ZEFSAII (Michael W. Deem and Ramdas Pophale) SiO2 
 PCOD8101026
Probable space group: C 2/M
;
_chemical_formula_sum "Si O2"
_cell_formula_units_Z 64
_cell_length_a 15.037959
_cell_length_b 8.474373
_cell_length_c 26.257802
_cell_angle_alpha 90.000000
_cell_angle_beta 90.057873
_cell_angle_gamma 90.000000
_cell_volume 3346.220994
_symmetry_space_group_name_H-M "C 2/M"
_symmetry_group_IT_number 12
_symmetry_cell_setting 'monoclinic'
loop_
_space_group_symop_operation_xyz
x,y,z
-x,y,-z
-x,-y,-z
x,-y,z
1/2+x,1/2+y,z
1/2-x,1/2+y,-z
1/2-x,1/2-y,-z
1/2+x,1/2-y,z
loop_
_atom_site_type_symbol
_atom_site_label
_atom_site_fract_x
_atom_site_fract_y
_atom_site_fract_z
Si Si1 0.155880 0.314686 0.372346
Si Si2 0.657428 0.184504 0.626411
Si Si3 0.001918 0.312342 0.188841
Si Si4 0.842042 0.684688 0.257496
Si Si5 0.499983 0.811821 0.073389
Si Si6 0.655243 0.185488 0.259399
Si Si7 0.502688 0.811860 0.442969
Si Si8 0.852285 0.812239 0.999960
O O1 0.141506 0.500000 0.369438
O O2 0.254642 0.275725 0.390506
O O3 0.138497 0.241883 0.315905
O O4 0.088356 0.242524 0.413622
O O5 0.629799 0.224434 0.684471
O O6 0.582298 0.247107 0.588448
O O7 0.674592 0.000000 0.619915
O O8 0.004582 0.500000 0.188953
O O9 0.087243 0.241782 0.218381
O O10 0.916400 0.250924 0.219315
O O11 0.000285 0.250237 0.131263
O O12 0.825662 0.500000 0.250824
O O13 0.753632 0.774955 0.240864
O O14 0.591368 0.747761 0.048648
O O15 0.499416 0.000000 0.068442
O O16 0.408719 0.746310 0.048790
O O17 0.641499 0.000000 0.262223
O O18 0.500000 0.741729 0.500000
O O19 0.505746 0.000000 0.444784
O O20 0.848476 0.000000 0.999647
O O21 0.750000 0.750000 0.000000
#
# Coordination Sequence:
#
# PCOD8101026 Si02
#       8
#     8   8   8   8   8   8   8   8
#     4   9  17  30  49  69  92 124 161 200 240 287
#     4   9  17  30  49  69  92 124 161 200 240 287
#     4   9  18  32  52  75 103 134 162 198 243 292
#     4   9  17  31  49  71  97 128 164 198 238 289
#     4  10  20  36  56  82 110 136 170 212 257 304
#     4   9  17  31  49  71  97 128 164 198 238 289
#     4   9  17  29  46  68  91 120 160 200 241 294
#     4  11  22  39  60  80 104 139 178 215 254 298
#
# _framework density 19.126052999999999
#
# number of rings (size 3 to 8) (size 9 to 14) (size 15 to 20)
#    0.000    2.625    0.000    3.000    0.000    4.500 
#    0.000    6.250    0.000    6.750    0.000    0.000 
#    0.000    0.000    0.000    0.000    0.000    0.000 
#
# Total GULP energy -396671.173614 kJ/mol
# GULP energy per Si atom -12395.974175 kJ/mol
# Density = 1.908252 g / cm^3
# Si number density = 19.126053 Si / 1000 Ang^3
#
#
#
# Elastic Constant Matrix: (Units=GPa)
#
#
# Indices 1 2 3 4 5 6 
#
# 1 159.3908 22.9139 111.8927 0.0000 -4.8419 0.0000
# 2 22.9139 43.1366 22.0405 0.0000 -0.1461 0.0000
# 3 111.8927 22.0405 174.3807 0.0000 0.6413 0.0000
# 4 0.0000 0.0000 0.0000 16.0204 0.0000 -1.2288
# 5 -4.8419 -0.1461 0.6413 0.0000 11.9462 0.0000
# 6 0.0000 0.0000 0.0000 -1.2288 0.0000 30.9053
#
#
#
# Elastic Compliance Matrix: (Units=1/GPa)
#
#
# Indices 1 2 3 4 5 6 
#
# 1 0.011988 -0.002576 -0.007385 0.000000 0.005224 0.000000
# 2 -0.002576 0.025339 -0.001547 0.000000 -0.000651 0.000000
# 3 -0.007385 -0.001547 0.010682 0.000000 -0.003586 0.000000
# 4 0.000000 0.000000 0.000000 0.062611 0.000000 0.002489
# 5 0.005224 -0.000651 -0.003586 0.000000 0.086010 0.000000
# 6 0.000000 0.000000 0.000000 0.002489 0.000000 0.032456
#
#
# Mechanical properties :
#
#
# Convention : Reuss Voigt Hill
#
# Bulk Modulus (GPa) = 40.01470 76.73360 58.37415
# Shear Modulus (GPa) = 19.19869 26.44512 22.82191
#
# Velocity S-wave (km/s) = 3.17171 3.72247 3.45807
# Velocity P-wave (km/s) = 5.86345 7.66047 6.82139
#
# Compressibility (1/GPa) = 0.02499082
#
# Stress axis : x y z
#
# Youngs Moduli (GPa) = 83.41959 39.46483 93.61310
#
# Poissons Ratio (x) = 0.10168 0.69138
# Poissons Ratio (y) = 0.21493 0.14483
# Poissons Ratio (z) = 0.61609 0.06105
#
# Static dielectric constant tensor:
#      x y z
#    x 3.649020 0.000000 0.007120 
#    y 0.000000 3.158100 0.000000 
#    z 0.007120 0.000000 3.798540 
# 
# 
# High freq. dielectric constant tensor:
#      x y z
#    x 1.753110 0.000000 -0.000800 
#    y 0.000000 1.712720 0.000000 
#    z -0.000800 0.000000 1.746480 
# 
# From -- ./inp_files/359844.got.cif
#   From: 2010.06.25/outbox.cif.g09.slc.cpg/sg12_180_cif.got.tgz:359844.got - 2010.06.28 00:19:55.
