data_PCOD8101019
_publ_section_title
;
Structure prediction by ZEFSAII (Michael W. Deem and Ramdas Pophale) SiO2 
 PCOD8101019
Probable space group: C 2/M
;
_chemical_formula_sum "Si O2"
_cell_formula_units_Z 48
_cell_length_a 19.926794
_cell_length_b 8.650483
_cell_length_c 20.617536
_cell_angle_alpha 90.000000
_cell_angle_beta 136.667340
_cell_angle_gamma 90.000000
_cell_volume 2438.856263
_symmetry_space_group_name_H-M "C 2/M"
_symmetry_group_IT_number 12
_symmetry_cell_setting 'monoclinic'
loop_
_space_group_symop_operation_xyz
x,y,z
-x,y,-z
-x,-y,-z
x,-y,z
1/2+x,1/2+y,z
1/2-x,1/2+y,-z
1/2-x,1/2-y,-z
1/2+x,1/2-y,z
loop_
_atom_site_type_symbol
_atom_site_label
_atom_site_fract_x
_atom_site_fract_y
_atom_site_fract_z
Si Si1 0.110230 0.815900 0.581201
Si Si2 0.566138 0.182968 0.102379
Si Si3 0.524402 0.181799 0.216470
Si Si4 0.679708 0.682147 0.895216
Si Si5 0.275290 0.316001 0.215640
Si Si6 0.764989 0.316529 0.581835
O O1 0.145299 0.757265 0.676494
O O2 0.181227 0.754267 0.572958
O O3 0.000000 0.750414 0.500000
O O4 0.111329 0.000000 0.578246
O O5 0.521670 0.228317 0.139567
O O6 0.673993 0.251127 0.171324
O O7 0.571362 0.000000 0.098046
O O8 0.500000 0.257826 0.000000
O O9 0.433931 0.274247 0.181732
O O10 0.627360 0.236751 0.319142
O O11 0.508841 0.000000 0.216191
O O12 0.692154 0.500000 0.907661
O O13 0.710541 0.749011 0.846755
O O14 0.750000 0.750000 0.000000
O O15 0.276815 0.500000 0.214473
O O16 0.759658 0.500000 0.575475
O O17 0.750000 0.250000 0.500000
#
# Coordination Sequence:
#
# PCOD8101019 Si02
#       6
#     8   8   8   8   8   8
#     4   9  17  31  53  81 109 137 181 237 278 313
#     4   9  15  27  51  77 100 131 176 229 276 317
#     4  10  20  36  56  81 113 145 182 230 281 331
#     4  11  23  37  57  84 115 149 185 227 276 331
#     4   9  17  31  51  79 106 136 184 233 272 312
#     4  10  21  36  57  84 114 147 183 230 284 336
#
# _framework density 19.681356999999998
#
# number of rings (size 3 to 8) (size 9 to 14) (size 15 to 20)
#    0.000    2.333    1.667    1.500    2.333    3.333 
#    0.000    0.000    0.000    8.000    0.000    0.000 
#    0.000    0.000    0.000    0.000    0.000    0.000 
#
# Total GULP energy -297449.214631 kJ/mol
# GULP energy per Si atom -12393.717276 kJ/mol
# Density = 1.963656 g / cm^3
# Si number density = 19.681357 Si / 1000 Ang^3
#
#
#
# Elastic Constant Matrix: (Units=GPa)
#
#
# Indices 1 2 3 4 5 6 
#
# 1 103.5182 15.3858 38.9272 0.0000 -0.4009 0.0000
# 2 15.3858 20.4201 13.3375 0.0000 -1.4030 0.0000
# 3 38.9272 13.3375 141.3274 0.0000 -5.5166 0.0000
# 4 0.0000 0.0000 0.0000 21.9510 0.0000 -2.3532
# 5 -0.4009 -1.4030 -5.5166 0.0000 44.6249 0.0000
# 6 0.0000 0.0000 0.0000 -2.3532 0.0000 24.1498
#
#
#
# Elastic Compliance Matrix: (Units=1/GPa)
#
#
# Indices 1 2 3 4 5 6 
#
# 1 0.011686 -0.007163 -0.002560 0.000000 -0.000437 0.000000
# 2 -0.007163 0.056627 -0.003320 0.000000 0.001306 0.000000
# 3 -0.002560 -0.003320 0.008128 0.000000 0.000877 0.000000
# 4 0.000000 0.000000 0.000000 0.046037 0.000000 0.004486
# 5 -0.000437 0.001306 0.000877 0.000000 0.022555 0.000000
# 6 0.000000 0.000000 0.000000 0.004486 0.000000 0.041845
#
#
# Mechanical properties :
#
#
# Convention : Reuss Voigt Hill
#
# Bulk Modulus (GPa) = 19.85893 44.50741 32.18317
# Shear Modulus (GPa) = 21.76300 31.31949 26.54124
#
# Velocity S-wave (km/s) = 3.32892 3.99347 3.67624
# Velocity P-wave (km/s) = 4.98876 6.62773 5.86577
#
# Compressibility (1/GPa) = 0.05035519
#
# Stress axis : x y z
#
# Youngs Moduli (GPa) = 85.57530 17.65957 123.02525
#
# Poissons Ratio (x) = 0.12649 0.31491
# Poissons Ratio (y) = 0.61296 0.40846
# Poissons Ratio (z) = 0.21905 0.05863
#
# Static dielectric constant tensor:
#      x y z
#    x 3.885500 0.000000 -0.041600 
#    y 0.000000 2.982570 0.000000 
#    z -0.041600 0.000000 3.978560 
# 
# 
# High freq. dielectric constant tensor:
#      x y z
#    x 1.783260 0.000000 -0.000050 
#    y 0.000000 1.705210 0.000000 
#    z -0.000050 0.000000 1.787920 
# 
# From -- ./inp_files/229971.got.cif
#   From: 2010.06.25/outbox.cif.g09.slc.cpg/sg12_115_cif.got.tgz:229971.got - 2010.06.28 00:19:55.
