data_PCOD8101302
_publ_section_title
;
Structure prediction by ZEFSAII (Michael W. Deem and Ramdas Pophale) SiO2 
 PCOD8101302
Probable space group: C 2/M
;
_chemical_formula_sum "Si O2"
_cell_formula_units_Z 64
_cell_length_a 15.935221
_cell_length_b 16.351220
_cell_length_c 23.471707
_cell_angle_alpha 90.000000
_cell_angle_beta 147.517119
_cell_angle_gamma 90.000000
_cell_volume 3284.473050
_symmetry_space_group_name_H-M "C 2/M"
_symmetry_group_IT_number 12
_symmetry_cell_setting 'monoclinic'
loop_
_space_group_symop_operation_xyz
x,y,z
-x,y,-z
-x,-y,-z
x,-y,z
1/2+x,1/2+y,z
1/2-x,1/2+y,-z
1/2-x,1/2-y,-z
1/2+x,1/2-y,z
loop_
_atom_site_type_symbol
_atom_site_label
_atom_site_fract_x
_atom_site_fract_y
_atom_site_fract_z
Si Si1 0.697672 0.593338 0.774203
Si Si2 0.056491 0.169403 0.301827
Si Si3 0.426186 0.241584 0.118993
Si Si4 0.043759 0.675888 0.690616
Si Si5 0.026592 0.408116 0.239977
Si Si6 0.619582 0.247447 0.116430
Si Si7 0.897520 0.404691 0.497525
Si Si8 0.642026 0.595766 0.615513
O O1 0.759194 0.500000 0.807012
O O2 0.548378 0.597990 0.730108
O O3 0.834976 0.653698 0.873907
O O4 0.651692 0.629094 0.685400
O O5 0.228338 0.134672 0.389826
O O6 0.977534 0.194679 0.196957
O O7 0.057086 0.246627 0.345161
O O8 0.426157 0.149340 0.141999
O O9 0.541281 0.254209 0.132693
O O10 0.250000 0.250000 0.000000
O O11 0.227178 0.696250 0.795020
O O12 0.017446 0.601375 0.719287
O O13 0.985292 0.646344 0.596245
O O14 0.995278 0.500000 0.201753
O O15 0.206559 0.382737 0.334438
O O16 0.500000 0.279726 0.000000
O O17 0.880072 0.500000 0.504601
O O18 0.000000 0.395046 0.500000
O O19 0.500000 0.638391 0.500000
O O20 0.611312 0.500000 0.602854
#
# Coordination Sequence:
#
# PCOD8101302 Si02
#       8
#     8   8   8   8   8   8   8   8
#     4  10  20  36  57  89 123 151 189 234 291 355
#     4  10  22  39  59  87 119 155 194 234 290 351
#     4  11  22  41  63  85 118 154 194 242 291 345
#     4  10  22  39  60  87 116 154 196 240 290 345
#     4  10  20  37  60  89 117 149 198 245 286 337
#     4  11  22  40  62  84 115 154 194 243 292 347
#     4  11  23  40  61  85 119 158 197 240 287 344
#     4   9  18  32  53  85 122 152 182 229 288 344
#
# _framework density 19.485620999999998
#
# number of rings (size 3 to 8) (size 9 to 14) (size 15 to 20)
#    0.000    1.750    1.250    4.125    1.750    0.250 
#    2.250    2.500    0.000    8.250    0.000    0.000 
#    0.000    0.000    0.000    0.000    0.000    0.000 
#
# Total GULP energy -396785.926351 kJ/mol
# GULP energy per Si atom -12399.560198 kJ/mol
# Density = 1.944127 g / cm^3
# Si number density = 19.485621 Si / 1000 Ang^3
#
#
#
# Elastic Constant Matrix: (Units=GPa)
#
#
# Indices 1 2 3 4 5 6 
#
# 1 137.7117 38.5202 57.3003 0.0010 5.7166 0.0011
# 2 38.5202 77.8762 55.5498 -0.0033 2.9852 -0.0053
# 3 57.3003 55.5498 146.8662 -0.0060 5.6302 -0.0098
# 4 0.0010 -0.0033 -0.0060 51.7081 -0.0014 44.2142
# 5 5.7166 2.9852 5.6302 -0.0014 38.0994 -0.0022
# 6 0.0011 -0.0053 -0.0098 44.2142 -0.0022 81.8398
#
#
#
# Elastic Compliance Matrix: (Units=1/GPa)
#
#
# Indices 1 2 3 4 5 6 
#
# 1 0.009084 -0.002680 -0.002501 0.000000 -0.000784 0.000000
# 2 -0.002680 0.018382 -0.005901 0.000000 -0.000166 0.000000
# 3 -0.002501 -0.005901 0.010041 0.000000 -0.000646 0.000001
# 4 0.000000 0.000000 0.000000 0.035944 0.000000 -0.019419
# 5 -0.000784 -0.000166 -0.000646 0.000000 0.026473 0.000001
# 6 0.000000 0.000000 0.000001 -0.019419 0.000001 0.022710
#
#
# Mechanical properties :
#
#
# Convention : Reuss Voigt Hill
#
# Bulk Modulus (GPa) = 65.16748 73.91053 69.53901
# Shear Modulus (GPa) = 33.35313 48.40172 40.87742
#
# Velocity S-wave (km/s) = 4.14173 4.98935 4.58517
# Velocity P-wave (km/s) = 7.50922 8.43829 7.98727
#
# Compressibility (1/GPa) = 0.01534508
#
# Stress axis : x y z
#
# Youngs Moduli (GPa) = 110.08288 54.40182 99.58948
#
# Poissons Ratio (x) = 0.14577 0.24904
# Poissons Ratio (y) = 0.29497 0.58766
# Poissons Ratio (z) = 0.27528 0.32101
#
# Static dielectric constant tensor:
#      x y z
#    x 3.805110 0.000000 0.021380 
#    y 0.000000 3.553130 0.000000 
#    z 0.021380 0.000000 3.537310 
# 
# 
# High freq. dielectric constant tensor:
#      x y z
#    x 1.778820 0.000000 0.002740 
#    y 0.000000 1.748270 0.000000 
#    z 0.002740 0.000000 1.754620 
# 
# From -- ./inp_files/340840.got.cif
#   From: 2010.06.25/outbox.cif.g09.slc.cpg/sg12_171_cif.got.tgz:340840.got - 2010.06.28 00:19:55.
