data_PCOD8101157
_publ_section_title
;
Structure prediction by ZEFSAII (Michael W. Deem and Ramdas Pophale) SiO2 
 PCOD8101157
Probable space group: C 2/M
;
_chemical_formula_sum "Si O2"
_cell_formula_units_Z 56
_cell_length_a 18.534239
_cell_length_b 8.997938
_cell_length_c 26.533479
_cell_angle_alpha 90.000000
_cell_angle_beta 42.102344
_cell_angle_gamma 90.000000
_cell_volume 2966.763072
_symmetry_space_group_name_H-M "C 2/M"
_symmetry_group_IT_number 12
_symmetry_cell_setting 'monoclinic'
loop_
_space_group_symop_operation_xyz
x,y,z
-x,y,-z
-x,-y,-z
x,-y,z
1/2+x,1/2+y,z
1/2-x,1/2+y,-z
1/2-x,1/2-y,-z
1/2+x,1/2-y,z
loop_
_atom_site_type_symbol
_atom_site_label
_atom_site_fract_x
_atom_site_fract_y
_atom_site_fract_z
Si Si1 0.326573 0.162871 0.693386
Si Si2 0.913033 0.824840 0.086075
Si Si3 0.220055 0.325543 0.568154
Si Si4 0.622259 0.339174 0.426743
Si Si5 0.184760 0.175528 0.201960
Si Si6 0.924686 0.835900 0.190877
Si Si7 0.015566 0.324584 0.740240
O O1 0.378943 0.215817 0.615089
O O2 0.355735 0.279701 0.721560
O O3 0.201552 0.151094 0.749374
O O4 0.373432 0.000000 0.683425
O O5 0.802668 0.740842 0.130080
O O6 0.963173 0.782604 0.115114
O O7 0.887743 0.000000 0.097300
O O8 0.000000 0.775288 0.000000
O O9 0.217821 0.500000 0.559403
O O10 0.250000 0.250000 0.500000
O O11 0.314420 0.278483 0.557551
O O12 0.106036 0.273895 0.652274
O O13 0.500000 0.370795 0.500000
O O14 0.674766 0.500000 0.383614
O O15 0.097447 0.242483 0.209123
O O16 0.188525 0.000000 0.194100
O O17 0.950479 0.717261 0.220502
O O18 0.972113 0.000000 0.179754
O O19 0.998640 0.500000 0.746555
#
# Coordination Sequence:
#
# PCOD8101157 Si02
#       7
#     8   8   8   8   8   8   8
#     4  10  20  36  57  81 109 145 191 238 285 341
#     4   9  19  39  65  92 123 153 185 230 282 339
#     4  10  23  39  55  79 113 152 193 240 297 349
#     4  10  21  37  55  79 110 145 189 239 293 347
#     4  11  23  37  58  86 117 151 192 238 284 339
#     4   9  18  34  58  86 112 146 186 226 279 339
#     4  11  22  38  58  82 115 153 196 242 287 343
#
# _framework density 18.875789999999999
#
# number of rings (size 3 to 8) (size 9 to 14) (size 15 to 20)
#    0.000    2.000    1.429    3.000    2.000    4.571 
#    0.000    0.714    0.000    0.000    0.000    0.000 
#    0.000    0.000    0.000    0.000    0.000    0.000 
#
# Total GULP energy -347052.811678 kJ/mol
# GULP energy per Si atom -12394.743274 kJ/mol
# Density = 1.883283 g / cm^3
# Si number density = 18.875790 Si / 1000 Ang^3
#
#
#
# Elastic Constant Matrix: (Units=GPa)
#
#
# Indices 1 2 3 4 5 6 
#
# 1 76.7897 38.0384 37.9205 0.0001 6.8799 -0.0003
# 2 38.0384 95.3383 45.8085 0.0000 2.7601 -0.0004
# 3 37.9205 45.8085 104.9928 0.0000 23.6283 -0.0001
# 4 0.0001 0.0000 0.0000 22.5832 0.0000 2.2227
# 5 6.8799 2.7601 23.6283 0.0000 22.9650 0.0001
# 6 -0.0003 -0.0004 -0.0001 2.2227 0.0001 31.6266
#
#
#
# Elastic Compliance Matrix: (Units=1/GPa)
#
#
# Indices 1 2 3 4 5 6 
#
# 1 0.017560 -0.005061 -0.004017 0.000000 -0.000519 0.000000
# 2 -0.005061 0.015324 -0.006226 0.000000 0.006081 0.000000
# 3 -0.004017 -0.006226 0.017246 0.000000 -0.015792 0.000000
# 4 0.000000 0.000000 0.000000 0.044589 0.000000 -0.003134
# 5 -0.000519 0.006081 -0.015792 0.000000 0.059218 0.000000
# 6 0.000000 0.000000 0.000000 -0.003134 0.000000 0.031839
#
#
# Mechanical properties :
#
#
# Convention : Reuss Voigt Hill
#
# Bulk Modulus (GPa) = 51.22785 57.85063 54.53924
# Shear Modulus (GPa) = 22.43244 25.79185 24.11215
#
# Velocity S-wave (km/s) = 3.45109 3.70049 3.57797
# Velocity P-wave (km/s) = 6.56342 6.99806 6.78422
#
# Compressibility (1/GPa) = 0.01952063
#
# Stress axis : x y z
#
# Youngs Moduli (GPa) = 56.94814 65.25798 57.98450
#
# Poissons Ratio (x) = 0.33026 0.23294
# Poissons Ratio (y) = 0.28820 0.36103
# Poissons Ratio (z) = 0.22878 0.40632
#
# Static dielectric constant tensor:
#      x y z
#    x 3.625410 0.000000 0.122090 
#    y 0.000000 3.107690 0.000000 
#    z 0.122090 0.000000 3.346810 
# 
# 
# High freq. dielectric constant tensor:
#      x y z
#    x 1.735700 0.000000 0.005450 
#    y 0.000000 1.734940 0.000000 
#    z 0.005450 0.000000 1.720790 
# 
# From -- ./inp_files/342516.got.cif
#   From: 2010.06.25/outbox.cif.g09.slc.cpg/sg12_172_cif.got.tgz:342516.got - 2010.06.28 00:19:55.
