data_PCOD8101838
_publ_section_title
;
Structure prediction by ZEFSAII (Michael W. Deem and Ramdas Pophale) SiO2 
 PCOD8101838
Probable space group: C 2/M
;
_chemical_formula_sum "Si O2"
_cell_formula_units_Z 56
_cell_length_a 29.306554
_cell_length_b 22.280118
_cell_length_c 8.712300
_cell_angle_alpha 90.000000
_cell_angle_beta 29.421366
_cell_angle_gamma 90.000000
_cell_volume 2794.465218
_symmetry_space_group_name_H-M "C 2/M"
_symmetry_group_IT_number 12
_symmetry_cell_setting 'monoclinic'
loop_
_space_group_symop_operation_xyz
x,y,z
-x,y,-z
-x,-y,-z
x,-y,z
1/2+x,1/2+y,z
1/2-x,1/2+y,-z
1/2-x,1/2-y,-z
1/2+x,1/2-y,z
loop_
_atom_site_type_symbol
_atom_site_label
_atom_site_fract_x
_atom_site_fract_y
_atom_site_fract_z
Si Si1 0.093489 0.715361 0.153668
Si Si2 0.602745 0.000000 0.629778
Si Si3 0.094314 0.157012 0.647774
Si Si4 0.898028 0.500000 0.731612
Si Si5 0.289254 0.116036 0.050628
Si Si6 0.907164 0.843965 0.701333
Si Si7 0.336386 0.232194 0.357084
Si Si8 0.210520 0.382254 0.303703
O O1 0.116331 0.781496 0.147383
O O2 0.000000 0.688249 0.500000
O O3 0.179841 0.673609 0.943439
O O4 0.081490 0.716734 0.004299
O O5 0.595513 0.000000 0.469160
O O6 0.660062 0.058482 0.517318
O O7 0.500000 0.000000 0.000000
O O8 0.178432 0.108413 0.405134
O O9 0.074488 0.172021 0.529196
O O10 0.127411 0.216290 0.637947
O O11 0.000000 0.130611 0.000000
O O12 0.000000 0.500000 0.500000
O O13 0.841563 0.557310 0.958527
O O14 0.315811 0.128712 0.796220
O O15 0.000000 0.873488 0.500000
O O16 0.822670 0.889846 0.980390
O O17 0.250000 0.250000 0.500000
O O18 0.318708 0.174073 0.510507
#
# Coordination Sequence:
#
# PCOD8101838 Si02
#       8
#     8   4   8   4   8   8   8   8
#     4  11  21  34  56  86 122 154 196 242 300 366
#     4  10  24  44  61  88 116 157 207 248 295 352
#     4  11  22  36  58  88 121 157 196 243 305 365
#     4  10  22  42  65  86 114 156 206 253 299 353
#     4  10  21  39  58  85 118 160 201 246 304 355
#     4  10  20  36  59  87 118 156 196 244 301 362
#     4  12  22  37  59  90 126 158 198 248 300 366
#     4  10  22  39  61  81 119 159 198 250 298 348
#
# _framework density 20.039612000000002
#
# number of rings (size 3 to 8) (size 9 to 14) (size 15 to 20)
#    0.000    1.429    2.857    3.000    0.000    6.286 
#    0.000    0.714    0.000    0.000    0.000    0.000 
#    0.000    0.000    0.000    0.000    0.000    0.000 
#
# Total GULP energy -347110.033182 kJ/mol
# GULP energy per Si atom -12396.786899 kJ/mol
# Density = 1.999400 g / cm^3
# Si number density = 20.039612 Si / 1000 Ang^3
#
#
#
# Elastic Constant Matrix: (Units=GPa)
#
#
# Indices 1 2 3 4 5 6 
#
# 1 103.9141 37.5409 50.4950 0.0000 -7.1758 0.0000
# 2 37.5409 84.2249 55.6900 0.0000 -12.4095 0.0000
# 3 50.4950 55.6900 156.6108 0.0000 -6.1725 0.0000
# 4 0.0000 0.0000 0.0000 25.9275 0.0000 -5.6991
# 5 -7.1758 -12.4095 -6.1725 0.0000 38.6296 0.0000
# 6 0.0000 0.0000 0.0000 -5.6991 0.0000 23.5244
#
#
#
# Elastic Compliance Matrix: (Units=1/GPa)
#
#
# Indices 1 2 3 4 5 6 
#
# 1 0.012261 -0.003617 -0.002639 0.000000 0.000694 0.000000
# 2 -0.003617 0.017274 -0.004814 0.000000 0.004108 0.000000
# 3 -0.002639 -0.004814 0.008924 0.000000 -0.000611 0.000000
# 4 0.000000 0.000000 0.000000 0.040739 0.000000 0.009869
# 5 0.000694 0.004108 -0.000611 0.000000 0.027238 0.000000
# 6 0.000000 0.000000 0.000000 0.009869 0.000000 0.044900
#
#
# Mechanical properties :
#
#
# Convention : Reuss Voigt Hill
#
# Bulk Modulus (GPa) = 61.28814 70.24461 65.76638
# Shear Modulus (GPa) = 27.94609 31.01789 29.48199
#
# Velocity S-wave (km/s) = 3.73841 3.93851 3.83976
# Velocity P-wave (km/s) = 7.02027 7.47071 7.24899
#
# Compressibility (1/GPa) = 0.01631637
#
# Stress axis : x y z
#
# Youngs Moduli (GPa) = 81.56150 57.89125 112.05599
#
# Poissons Ratio (x) = 0.20942 0.29577
# Poissons Ratio (y) = 0.29504 0.53946
# Poissons Ratio (z) = 0.21528 0.27870
#
# Static dielectric constant tensor:
#      x y z
#    x 3.841840 0.000000 -0.012810 
#    y 0.000000 3.410780 0.000000 
#    z -0.012810 0.000000 4.123020 
# 
# 
# High freq. dielectric constant tensor:
#      x y z
#    x 1.789510 0.000000 0.000390 
#    y 0.000000 1.748420 0.000000 
#    z 0.000390 0.000000 1.803840 
# 
# From -- ./inp_files/113382.got.cif
#   From: 2010.06.25/outbox.cif.g09.slc.cpg/sg12_57_cif.got.tgz:113382.got - 2010.06.28 00:19:55.
