data_PCOD8101438
_publ_section_title
;
Structure prediction by ZEFSAII (Michael W. Deem and Ramdas Pophale) SiO2 
 PCOD8101438
Probable space group: C 2/M
;
_chemical_formula_sum "Si O2"
_cell_formula_units_Z 56
_cell_length_a 11.549389
_cell_length_b 14.666377
_cell_length_c 19.796938
_cell_angle_alpha 90.000000
_cell_angle_beta 122.915200
_cell_angle_gamma 90.000000
_cell_volume 2815.062391
_symmetry_space_group_name_H-M "C 2/M"
_symmetry_group_IT_number 12
_symmetry_cell_setting 'monoclinic'
loop_
_space_group_symop_operation_xyz
x,y,z
-x,y,-z
-x,-y,-z
x,-y,z
1/2+x,1/2+y,z
1/2-x,1/2+y,-z
1/2-x,1/2-y,-z
1/2+x,1/2-y,z
loop_
_atom_site_type_symbol
_atom_site_label
_atom_site_fract_x
_atom_site_fract_y
_atom_site_fract_z
Si Si1 0.883483 0.896769 0.699237
Si Si2 0.698286 0.327183 0.033434
Si Si3 0.199094 0.287754 0.151698
Si Si4 0.538056 0.225396 0.706143
Si Si5 0.015514 0.605241 0.829564
Si Si6 0.060220 0.604537 0.590607
Si Si7 0.908810 0.899297 0.126946
O O1 0.959395 0.822293 0.676611
O O2 0.722657 0.881186 0.643460
O O3 0.936895 0.883220 0.793987
O O4 0.920668 0.000000 0.686383
O O5 0.627500 0.288065 0.079944
O O6 0.828090 0.390160 0.095213
O O7 0.750000 0.250000 0.000000
O O8 0.589365 0.384180 0.953554
O O9 0.295932 0.242865 0.240268
O O10 0.084785 0.354834 0.144434
O O11 0.305815 0.335092 0.134613
O O12 0.491452 0.165949 0.755752
O O13 0.494226 0.168851 0.626382
O O14 0.976911 0.500000 0.803007
O O15 0.019912 0.500000 0.593221
O O16 0.000000 0.636043 0.500000
O O17 0.856667 0.000000 0.126091
#
# Coordination Sequence:
#
# PCOD8101438 Si02
#       7
#     8   8   8   8   8   8   8
#     4   9  19  36  58  81 108 145 181 216 268 329
#     4   9  19  32  46  71 105 142 182 226 266 309
#     4   9  19  33  50  75 108 143 178 220 272 320
#     4  10  20  36  58  83 111 143 179 223 268 321
#     4  11  21  34  54  80 109 143 185 231 276 317
#     4  10  21  38  60  85 111 140 176 218 269 329
#     4   9  16  30  51  74 101 136 181 224 263 312
#
# _framework density 19.892987000000002
#
# number of rings (size 3 to 8) (size 9 to 14) (size 15 to 20)
#    0.000    2.429    0.000    3.000    0.000    3.429 
#    0.000    6.429    0.000    1.286    0.000   24.000 
#    0.000    0.000    0.000    0.000    0.000    0.000 
#
# Total GULP energy -346993.578885 kJ/mol
# GULP energy per Si atom -12392.627817 kJ/mol
# Density = 1.984771 g / cm^3
# Si number density = 19.892987 Si / 1000 Ang^3
#
#
#
# Elastic Constant Matrix: (Units=GPa)
#
#
# Indices 1 2 3 4 5 6 
#
# 1 59.2248 45.0178 39.9654 0.0000 2.8176 0.0000
# 2 45.0178 105.0086 50.7625 0.0000 -8.7484 0.0000
# 3 39.9654 50.7625 131.7982 0.0000 -1.1746 0.0000
# 4 0.0000 0.0000 0.0000 31.2912 0.0000 -3.6886
# 5 2.8176 -8.7484 -1.1746 0.0000 18.9087 0.0000
# 6 0.0000 0.0000 0.0000 -3.6886 0.0000 22.3127
#
#
#
# Elastic Compliance Matrix: (Units=1/GPa)
#
#
# Indices 1 2 3 4 5 6 
#
# 1 0.028725 -0.010890 -0.004601 0.000000 -0.009605 0.000000
# 2 -0.010890 0.016351 -0.002915 0.000000 0.009007 0.000000
# 3 -0.004601 -0.002915 0.010105 0.000000 -0.000035 0.000000
# 4 0.000000 0.000000 0.000000 0.032593 0.000000 0.005388
# 5 -0.009605 0.009007 -0.000035 0.000000 0.058482 0.000000
# 6 0.000000 0.000000 0.000000 0.005388 0.000000 0.045708
#
#
# Mechanical properties :
#
#
# Convention : Reuss Voigt Hill
#
# Bulk Modulus (GPa) = 54.44427 63.05811 58.75119
# Shear Modulus (GPa) = 21.28561 25.18826 23.23693
#
# Velocity S-wave (km/s) = 3.27464 3.56221 3.42145
# Velocity P-wave (km/s) = 6.45954 6.97758 6.72355
#
# Compressibility (1/GPa) = 0.01836740
#
# Stress axis : x y z
#
# Youngs Moduli (GPa) = 34.81322 61.15692 98.95932
#
# Poissons Ratio (x) = 0.66601 0.45536
# Poissons Ratio (y) = 0.37912 0.28849
# Poissons Ratio (z) = 0.16019 0.17829
#
# Static dielectric constant tensor:
#      x y z
#    x 3.250450 0.000000 0.061180 
#    y 0.000000 4.045880 0.000000 
#    z 0.061180 0.000000 3.938760 
# 
# 
# High freq. dielectric constant tensor:
#      x y z
#    x 1.752530 0.000000 0.007630 
#    y 0.000000 1.788120 0.000000 
#    z 0.007630 0.000000 1.767640 
# 
# From -- ./inp_files/262850.got.cif
#   From: 2010.06.25/outbox.cif.g09.slc.cpg/sg12_132_cif.got.tgz:262850.got - 2010.06.28 00:19:55.
