data_PCOD8101116
_publ_section_title
;
Structure prediction by ZEFSAII (Michael W. Deem and Ramdas Pophale) SiO2 
 PCOD8101116
Probable space group: C 2/M
;
_chemical_formula_sum "Si O2"
_cell_formula_units_Z 64
_cell_length_a 29.255381
_cell_length_b 8.909145
_cell_length_c 25.799771
_cell_angle_alpha 90.000000
_cell_angle_beta 30.007189
_cell_angle_gamma 90.000000
_cell_volume 3362.962386
_symmetry_space_group_name_H-M "C 2/M"
_symmetry_group_IT_number 12
_symmetry_cell_setting 'monoclinic'
loop_
_space_group_symop_operation_xyz
x,y,z
-x,y,-z
-x,-y,-z
x,-y,z
1/2+x,1/2+y,z
1/2-x,1/2+y,-z
1/2-x,1/2-y,-z
1/2+x,1/2-y,z
loop_
_atom_site_type_symbol
_atom_site_label
_atom_site_fract_x
_atom_site_fract_y
_atom_site_fract_z
Si Si1 0.152213 0.327306 0.485116
Si Si2 0.661260 0.322457 0.740989
Si Si3 0.011587 0.320966 0.705820
Si Si4 0.604273 0.176431 0.899494
Si Si5 0.492316 0.826475 0.565825
Si Si6 0.995187 0.823492 0.831647
Si Si7 0.375494 0.674671 0.764169
Si Si8 0.665378 0.825749 0.953095
O O1 0.167745 0.500000 0.482401
O O2 0.251600 0.255011 0.376291
O O3 0.091045 0.303479 0.494344
O O4 0.099032 0.258892 0.587109
O O5 0.670486 0.500000 0.737562
O O6 0.661577 0.254661 0.798004
O O7 0.569655 0.275198 0.801112
O O8 0.007360 0.500000 0.709744
O O9 0.021665 0.259877 0.753241
O O10 0.918854 0.262436 0.770078
O O11 0.649354 0.224330 0.909563
O O12 0.609039 0.000000 0.885598
O O13 0.500000 0.234094 0.000000
O O14 0.500000 0.766565 0.500000
O O15 0.416150 0.729957 0.669830
O O16 0.461839 0.000000 0.597837
O O17 0.995025 0.000000 0.821542
O O18 0.896571 0.771990 0.947927
O O19 0.396644 0.500000 0.750090
O O20 0.268168 0.707607 0.869066
O O21 0.639273 0.000000 0.985401
#
# Coordination Sequence:
#
# PCOD8101116 Si02
#       8
#     8   8   8   8   8   8   8   8
#     4   8  17  35  55  79 111 146 183 224 270 327
#     4  10  21  36  56  84 115 146 184 230 276 325
#     4  10  21  40  63  81 108 148 187 227 280 338
#     4  10  20  36  57  79 112 151 187 227 270 328
#     4   9  18  33  54  80 111 150 190 224 269 333
#     4  11  23  37  57  85 113 142 186 236 281 327
#     4  10  21  37  57  82 113 144 183 236 282 323
#     4  10  22  39  57  81 114 152 188 224 276 337
#
# _framework density 19.030840000000001
#
# number of rings (size 3 to 8) (size 9 to 14) (size 15 to 20)
#    0.000    2.250    1.250    1.875    1.750    3.500 
#    0.000    3.125    0.000    0.000    0.000    0.000 
#    0.000    0.000    0.000    0.000    0.000    0.000 
#
# Total GULP energy -396838.879846 kJ/mol
# GULP energy per Si atom -12401.214995 kJ/mol
# Density = 1.898753 g / cm^3
# Si number density = 19.030840 Si / 1000 Ang^3
#
#
#
# Elastic Constant Matrix: (Units=GPa)
#
#
# Indices 1 2 3 4 5 6 
#
# 1 51.6413 23.5971 41.7817 -0.0176 14.9574 0.0176
# 2 23.5971 52.9153 37.5471 -0.0612 1.1981 0.0376
# 3 41.7817 37.5471 127.1683 -0.0171 1.6205 0.0204
# 4 -0.0176 -0.0612 -0.0171 28.8544 0.0137 7.8722
# 5 14.9574 1.1981 1.6205 0.0137 35.4281 0.0036
# 6 0.0176 0.0376 0.0204 7.8722 0.0036 28.5826
#
#
#
# Elastic Compliance Matrix: (Units=1/GPa)
#
#
# Indices 1 2 3 4 5 6 
#
# 1 0.034293 -0.008995 -0.008436 0.000004 -0.013788 -0.000003
# 2 -0.008995 0.026274 -0.004842 0.000057 0.003130 -0.000042
# 3 -0.008436 -0.004842 0.012024 -0.000011 0.003175 0.000006
# 4 0.000004 0.000057 -0.000011 0.037473 -0.000017 -0.010321
# 5 -0.013788 0.003130 0.003175 -0.000017 0.033796 0.000002
# 6 -0.000003 -0.000042 0.000006 -0.010321 0.000002 0.037829
#
#
# Mechanical properties :
#
#
# Convention : Reuss Voigt Hill
#
# Bulk Modulus (GPa) = 35.65505 48.61963 42.13734
# Shear Modulus (GPa) = 21.22379 27.15960 24.19170
#
# Velocity S-wave (km/s) = 3.34313 3.78184 3.56923
# Velocity P-wave (km/s) = 5.80328 6.68379 6.25904
#
# Compressibility (1/GPa) = 0.02804652
#
# Stress axis : x y z
#
# Youngs Moduli (GPa) = 29.16020 38.05984 83.16395
#
# Poissons Ratio (x) = 0.34234 0.70155
# Poissons Ratio (y) = 0.26229 0.40270
# Poissons Ratio (z) = 0.24599 0.18430
#
# Static dielectric constant tensor:
#      x y z
#    x 3.493690 -0.000070 -0.004820 
#    y -0.000070 3.322550 0.000100 
#    z -0.004820 0.000100 3.669900 
# 
# 
# High freq. dielectric constant tensor:
#      x y z
#    x 1.741760 -0.000010 0.002160 
#    y -0.000010 1.725400 0.000010 
#    z 0.002160 0.000010 1.748900 
# 
# From -- ./inp_files/353423.got.cif
#   From: 2010.06.25/outbox.cif.g09.slc.cpg/sg12_177_cif.got.tgz:353423.got - 2010.06.28 00:19:55.
