data_PCOD8101040
_publ_section_title
;
Structure prediction by ZEFSAII (Michael W. Deem and Ramdas Pophale) SiO2 
 PCOD8101040
Probable space group: C 2/M
;
_chemical_formula_sum "Si O2"
_cell_formula_units_Z 64
_cell_length_a 25.717461
_cell_length_b 8.566482
_cell_length_c 14.797527
_cell_angle_alpha 90.000000
_cell_angle_beta 80.886727
_cell_angle_gamma 90.000000
_cell_volume 3218.865325
_symmetry_space_group_name_H-M "C 2/M"
_symmetry_group_IT_number 12
_symmetry_cell_setting 'monoclinic'
loop_
_space_group_symop_operation_xyz
x,y,z
-x,y,-z
-x,-y,-z
x,-y,z
1/2+x,1/2+y,z
1/2-x,1/2+y,-z
1/2-x,1/2-y,-z
1/2+x,1/2-y,z
loop_
_atom_site_type_symbol
_atom_site_label
_atom_site_fract_x
_atom_site_fract_y
_atom_site_fract_z
Si Si1 0.961978 0.684655 0.792383
Si Si2 0.226261 0.317283 0.596543
Si Si3 0.938471 0.819386 0.150515
Si Si4 0.847221 0.683647 0.066887
Si Si5 0.750981 0.185093 0.785738
Si Si6 0.492283 0.176261 0.405444
Si Si7 0.610320 0.823659 0.666495
Si Si8 0.150086 0.816204 0.126563
O O1 0.971078 0.500000 0.790921
O O2 0.976445 0.752498 0.688202
O O3 0.902652 0.726527 0.831612
O O4 0.001771 0.756146 0.856178
O O5 0.234428 0.500000 0.591719
O O6 0.250000 0.250000 0.500000
O O7 0.252120 0.250785 0.682218
O O8 0.165451 0.268769 0.611886
O O9 0.906207 0.728053 0.082131
O O10 0.907657 0.795931 0.252330
O O11 0.940633 0.000000 0.123490
O O12 0.844483 0.500000 0.048671
O O13 0.803319 0.739568 0.151384
O O14 0.833912 0.775961 0.979472
O O15 0.802658 0.247074 0.823055
O O16 0.751225 0.000000 0.786080
O O17 0.500000 0.264265 0.500000
O O18 0.430090 0.179948 0.404920
O O19 0.513636 0.000000 0.409475
O O20 0.613947 0.000000 0.707242
O O21 0.141194 0.000000 0.140466
#
# Coordination Sequence:
#
# PCOD8101040 Si02
#       8
#     8   8   8   8   8   8   8   8
#     4  10  21  38  58  83 117 157 195 234 290 354
#     4  10  20  36  56  83 115 154 198 240 291 343
#     4  11  21  35  59  88 115 146 189 243 291 339
#     4  11  21  39  64  87 113 154 199 237 289 357
#     4   9  20  39  61  82 117 159 194 239 295 350
#     4   8  15  29  53  82 107 139 189 241 282 330
#     4   9  17  33  55  76 109 153 192 234 287 346
#     4  11  23  39  58  86 120 154 192 243 297 344
#
# _framework density 19.882781999999999
#
# number of rings (size 3 to 8) (size 9 to 14) (size 15 to 20)
#    0.000    2.125    1.250    3.375    0.000    2.000 
#    0.000    6.875    0.000    9.375    0.000    0.000 
#    0.000    0.000    0.000    0.000    0.000    0.000 
#
# Total GULP energy -396709.950901 kJ/mol
# GULP energy per Si atom -12397.185966 kJ/mol
# Density = 1.983753 g / cm^3
# Si number density = 19.882782 Si / 1000 Ang^3
#
#
#
# Elastic Constant Matrix: (Units=GPa)
#
#
# Indices 1 2 3 4 5 6 
#
# 1 129.0257 15.1116 53.9341 0.0000 6.7421 0.0000
# 2 15.1116 37.9774 4.8742 0.0000 1.4802 0.0000
# 3 53.9341 4.8742 121.9571 0.0000 12.6239 0.0000
# 4 0.0000 0.0000 0.0000 26.5242 0.0000 -2.4070
# 5 6.7421 1.4802 12.6239 0.0000 31.8761 0.0000
# 6 0.0000 0.0000 0.0000 -2.4070 0.0000 22.6508
#
#
#
# Elastic Compliance Matrix: (Units=1/GPa)
#
#
# Indices 1 2 3 4 5 6 
#
# 1 0.009930 -0.003398 -0.004228 0.000000 -0.000268 0.000000
# 2 -0.003398 0.027652 0.000476 0.000000 -0.000754 0.000000
# 3 -0.004228 0.000476 0.010386 0.000000 -0.003241 0.000000
# 4 0.000000 0.000000 0.000000 0.038068 0.000000 0.004045
# 5 -0.000268 -0.000754 -0.003241 0.000000 0.032747 0.000000
# 6 0.000000 0.000000 0.000000 0.004045 0.000000 0.044578
#
#
# Mechanical properties :
#
#
# Convention : Reuss Voigt Hill
#
# Bulk Modulus (GPa) = 29.70273 48.53334 39.11803
# Shear Modulus (GPa) = 26.47138 30.54626 28.50882
#
# Velocity S-wave (km/s) = 3.65276 3.92384 3.79072
# Velocity P-wave (km/s) = 5.72377 6.70756 6.23510
#
# Compressibility (1/GPa) = 0.03366694
#
# Stress axis : x y z
#
# Youngs Moduli (GPa) = 100.70900 36.16391 96.28614
#
# Poissons Ratio (x) = 0.12289 0.40707
# Poissons Ratio (y) = 0.34221 -0.04579
# Poissons Ratio (z) = 0.42577 -0.01720
#
# Static dielectric constant tensor:
#      x y z
#    x 3.802770 0.000000 0.247500 
#    y 0.000000 3.315990 0.000000 
#    z 0.247500 0.000000 4.203490 
# 
# 
# High freq. dielectric constant tensor:
#      x y z
#    x 1.783730 0.000000 0.009230 
#    y 0.000000 1.746370 0.000000 
#    z 0.009230 0.000000 1.777850 
# 
# From -- ./inp_files/238815.got.cif
#   From: 2010.06.25/outbox.cif.g09.slc.cpg/sg12_120_cif.got.tgz:238815.got - 2010.06.28 00:19:55.
