data_PCOD8101571
_publ_section_title
;
Structure prediction by ZEFSAII (Michael W. Deem and Ramdas Pophale) SiO2 
 PCOD8101571
Probable space group: C 2/M
;
_chemical_formula_sum "Si O2"
_cell_formula_units_Z 56
_cell_length_a 23.635129
_cell_length_b 15.329763
_cell_length_c 9.320580
_cell_angle_alpha 90.000000
_cell_angle_beta 115.894327
_cell_angle_gamma 90.000000
_cell_volume 3037.989699
_symmetry_space_group_name_H-M "C 2/M"
_symmetry_group_IT_number 12
_symmetry_cell_setting 'monoclinic'
loop_
_space_group_symop_operation_xyz
x,y,z
-x,y,-z
-x,-y,-z
x,-y,z
1/2+x,1/2+y,z
1/2-x,1/2+y,-z
1/2-x,1/2-y,-z
1/2+x,1/2-y,z
loop_
_atom_site_type_symbol
_atom_site_label
_atom_site_fract_x
_atom_site_fract_y
_atom_site_fract_z
Si Si1 0.682630 0.597108 0.596421
Si Si2 0.994385 0.598905 0.332536
Si Si3 0.844208 0.841989 0.742521
Si Si4 0.932325 0.000000 0.853192
Si Si5 0.382055 0.095672 0.011727
Si Si6 0.564250 0.500000 0.479269
Si Si7 0.944320 0.696471 0.847650
Si Si8 0.730071 0.774125 0.135551
O O1 0.714284 0.500000 0.647309
O O2 0.690096 0.625237 0.438979
O O3 0.608180 0.586005 0.558356
O O4 0.714704 0.670719 0.728168
O O5 0.020131 0.500000 0.348413
O O6 0.000000 0.633326 0.500000
O O7 0.036059 0.664341 0.286398
O O8 0.922016 0.603295 0.202108
O O9 0.890191 0.917116 0.854861
O O10 0.885963 0.758369 0.753233
O O11 0.790019 0.812253 0.795975
O O12 0.949814 0.000000 0.704934
O O13 0.000000 0.000000 0.000000
O O14 0.426789 0.112298 0.924523
O O15 0.329583 0.167059 0.954623
O O16 0.351992 0.000000 0.965051
O O17 0.500000 0.500000 0.500000
O O18 0.000000 0.745279 0.000000
O O19 0.750000 0.750000 0.000000
#
# Coordination Sequence:
#
# PCOD8101571 Si02
#       8
#     8   8   8   4   8   4   8   8
#     4   9  20  40  61  79 116 152 194 234 293 360
#     4   9  17  30  50  79 113 143 177 228 282 337
#     4  10  20  38  57  80 113 150 198 240 287 354
#     4  10  20  36  58  86 118 154 197 245 300 354
#     4   9  18  34  53  73 106 145 186 220 273 345
#     4   8  18  36  60  86 112 150 194 235 295 358
#     4   9  17  30  52  79 108 142 181 223 278 338
#     4  11  23  37  56  85 113 146 193 246 297 338
#
# _framework density 18.433243000000001
#
# number of rings (size 3 to 8) (size 9 to 14) (size 15 to 20)
#    0.429    2.143    0.714    1.714    0.000    4.000 
#    2.571    5.714    0.000    3.429    0.000    0.000 
#    0.000    0.000    0.000    0.000    0.000    0.000 
#
# Total GULP energy -346945.054014 kJ/mol
# GULP energy per Si atom -12390.894786 kJ/mol
# Density = 1.839129 g / cm^3
# Si number density = 18.433243 Si / 1000 Ang^3
#
#
#
# Elastic Constant Matrix: (Units=GPa)
#
#
# Indices 1 2 3 4 5 6 
#
# 1 107.7402 43.0249 54.0291 0.0000 -13.0104 0.0000
# 2 43.0249 87.2352 49.3009 0.0000 -5.7173 0.0000
# 3 54.0291 49.3009 119.1875 0.0000 -7.5001 0.0000
# 4 0.0000 0.0000 0.0000 30.2204 0.0000 7.5268
# 5 -13.0104 -5.7173 -7.5001 0.0000 27.7243 0.0000
# 6 0.0000 0.0000 0.0000 7.5268 0.0000 24.5509
#
#
#
# Elastic Compliance Matrix: (Units=1/GPa)
#
#
# Indices 1 2 3 4 5 6 
#
# 1 0.013514 -0.004009 -0.004192 0.000000 0.004381 0.000000
# 2 -0.004009 0.016206 -0.004877 0.000000 0.000141 0.000000
# 3 -0.004192 -0.004877 0.012331 0.000000 0.000363 0.000000
# 4 0.000000 0.000000 0.000000 0.035826 0.000000 -0.010983
# 5 0.004381 0.000141 0.000363 0.000000 0.038253 0.000000
# 6 0.000000 0.000000 0.000000 -0.010983 0.000000 0.044099
#
#
# Mechanical properties :
#
#
# Convention : Reuss Voigt Hill
#
# Bulk Modulus (GPa) = 62.91629 67.43031 65.17330
# Shear Modulus (GPa) = 26.08480 27.68631 26.88556
#
# Velocity S-wave (km/s) = 3.76586 3.87974 3.82322
# Velocity P-wave (km/s) = 7.28800 7.53194 7.41097
#
# Compressibility (1/GPa) = 0.01589413
#
# Stress axis : x y z
#
# Youngs Moduli (GPa) = 73.99912 61.70499 81.09791
#
# Poissons Ratio (x) = 0.24736 0.33997
# Poissons Ratio (y) = 0.29665 0.39555
# Poissons Ratio (z) = 0.31021 0.30096
#
# Static dielectric constant tensor:
#      x y z
#    x 2.760570 0.000000 0.136930 
#    y 0.000000 6.964220 0.000000 
#    z 0.136930 0.000000 3.380760 
# 
# 
# High freq. dielectric constant tensor:
#      x y z
#    x 1.698860 0.000000 0.005500 
#    y 0.000000 1.713710 0.000000 
#    z 0.005500 0.000000 1.718410 
# 
# From -- ./inp_files/97015.got.cif
#   From: 2010.06.25/outbox.cif.g09.slc.cpg/sg12_49_cif.got.tgz:97015.got - 2010.06.28 00:19:55.
