data_PCOD8101140
_publ_section_title
;
Structure prediction by ZEFSAII (Michael W. Deem and Ramdas Pophale) SiO2 
 PCOD8101140
Probable space group: C 2/M
;
_chemical_formula_sum "Si O2"
_cell_formula_units_Z 48
_cell_length_a 9.667249
_cell_length_b 29.987389
_cell_length_c 15.407544
_cell_angle_alpha 90.000000
_cell_angle_beta 148.059643
_cell_angle_gamma 90.000000
_cell_volume 2362.981681
_symmetry_space_group_name_H-M "C 2/M"
_symmetry_group_IT_number 12
_symmetry_cell_setting 'monoclinic'
loop_
_space_group_symop_operation_xyz
x,y,z
-x,y,-z
-x,-y,-z
x,-y,z
1/2+x,1/2+y,z
1/2-x,1/2+y,-z
1/2-x,1/2-y,-z
1/2+x,1/2-y,z
loop_
_atom_site_type_symbol
_atom_site_label
_atom_site_fract_x
_atom_site_fract_y
_atom_site_fract_z
Si Si1 0.265045 0.393752 0.183146
Si Si2 0.265974 0.245941 0.610674
Si Si3 0.286956 0.380261 0.814244
Si Si4 0.908408 0.818963 0.134702
Si Si5 0.567423 0.154242 0.237922
Si Si6 0.801975 0.948292 0.679198
O O1 0.319000 0.345851 0.171012
O O2 0.508917 0.426720 0.293769
O O3 0.221717 0.382446 0.261803
O O4 0.000000 0.414780 0.000000
O O5 0.250000 0.250000 0.500000
O O6 0.517100 0.270018 0.789490
O O7 0.254914 0.194549 0.634805
O O8 0.000000 0.269380 0.500000
O O9 0.330471 0.340501 0.768173
O O10 0.013117 0.373483 0.718104
O O11 0.337922 0.427153 0.793328
O O12 0.500000 0.377258 0.000000
O O13 0.674067 0.821707 0.940491
O O14 0.500000 0.939008 0.500000
O O15 0.871986 0.000000 0.720959
#
# Coordination Sequence:
#
# PCOD8101140 Si02
#       6
#     8   8   8   8   8   8
#     4   9  19  37  61  85 109 145 194 237 276 328
#     4  12  24  34  49  80 115 148 194 238 278 326
#     4   9  19  36  59  83 108 146 193 234 279 339
#     4   9  19  37  55  74 109 155 193 228 277 334
#     4  10  20  36  57  80 109 147 191 239 284 322
#     4  10  22  40  61  86 117 151 181 219 285 359
#
# _framework density 20.313317999999999
#
# number of rings (size 3 to 8) (size 9 to 14) (size 15 to 20)
#    0.000    2.167    0.000    3.500    0.000    7.333 
#    0.000    7.500    0.000    2.000    0.000    0.000 
#    0.000    0.000    0.000    0.000    0.000    0.000 
#
# Total GULP energy -297349.884232 kJ/mol
# GULP energy per Si atom -12389.578510 kJ/mol
# Density = 2.026708 g / cm^3
# Si number density = 20.313318 Si / 1000 Ang^3
#
#
#
# Elastic Constant Matrix: (Units=GPa)
#
#
# Indices 1 2 3 4 5 6 
#
# 1 160.3436 52.3515 40.0343 0.0000 1.3590 0.0000
# 2 52.3515 103.7733 33.6206 0.0000 6.3540 0.0000
# 3 40.0343 33.6206 45.0534 0.0000 6.5253 0.0000
# 4 0.0000 0.0000 0.0000 23.0617 0.0000 1.7779
# 5 1.3590 6.3540 6.5253 0.0000 30.9612 0.0000
# 6 0.0000 0.0000 0.0000 1.7779 0.0000 22.5169
#
#
#
# Elastic Compliance Matrix: (Units=1/GPa)
#
#
# Indices 1 2 3 4 5 6 
#
# 1 0.008506 -0.002456 -0.005926 0.000000 0.001380 0.000000
# 2 -0.002456 0.013430 -0.007691 0.000000 -0.001027 0.000000
# 3 -0.005926 -0.007691 0.033971 0.000000 -0.005321 0.000000
# 4 0.000000 0.000000 0.000000 0.043627 0.000000 -0.003445
# 5 0.001380 -0.001027 -0.005321 0.000000 0.033570 0.000000
# 6 0.000000 0.000000 0.000000 -0.003445 0.000000 0.044683
#
#
# Mechanical properties :
#
#
# Convention : Reuss Voigt Hill
#
# Bulk Modulus (GPa) = 42.08286 62.35368 52.21827
# Shear Modulus (GPa) = 22.95111 27.51890 25.23500
#
# Velocity S-wave (km/s) = 3.36498 3.68465 3.52844
# Velocity P-wave (km/s) = 5.98826 6.99033 6.50861
#
# Compressibility (1/GPa) = 0.02376264
#
# Stress axis : x y z
#
# Youngs Moduli (GPa) = 117.56006 74.46060 29.43644
#
# Poissons Ratio (x) = 0.18286 0.17444
# Poissons Ratio (y) = 0.28871 0.22639
# Poissons Ratio (z) = 0.69664 0.57267
#
# Static dielectric constant tensor:
#      x y z
#    x 5.070590 0.000000 0.183590 
#    y 0.000000 3.383590 0.000000 
#    z 0.183590 0.000000 3.567870 
# 
# 
# High freq. dielectric constant tensor:
#      x y z
#    x 1.814480 0.000000 0.004400 
#    y 0.000000 1.763030 0.000000 
#    z 0.004400 0.000000 1.785170 
# 
# From -- ./inp_files/200222.got.cif
#   From: 2010.06.25/outbox.cif.g09.slc.cpg/sg12_101_cif.got.tgz:200222.got - 2010.06.28 00:19:55.
