data_PCOD8101832
_publ_section_title
;
Structure prediction by ZEFSAII (Michael W. Deem and Ramdas Pophale) SiO2 
 PCOD8101832
Probable space group: C 2/M
;
_chemical_formula_sum "Si O2"
_cell_formula_units_Z 40
_cell_length_a 17.939634
_cell_length_b 8.809890
_cell_length_c 18.413759
_cell_angle_alpha 90.000000
_cell_angle_beta 44.402932
_cell_angle_gamma 90.000000
_cell_volume 2036.283920
_symmetry_space_group_name_H-M "C 2/M"
_symmetry_group_IT_number 12
_symmetry_cell_setting 'monoclinic'
loop_
_space_group_symop_operation_xyz
x,y,z
-x,y,-z
-x,-y,-z
x,-y,z
1/2+x,1/2+y,z
1/2-x,1/2+y,-z
1/2-x,1/2-y,-z
1/2+x,1/2-y,z
loop_
_atom_site_type_symbol
_atom_site_label
_atom_site_fract_x
_atom_site_fract_y
_atom_site_fract_z
Si Si1 0.720982 0.321580 0.596545
Si Si2 0.165614 0.175436 0.006454
Si Si3 0.334051 0.172577 0.776729
Si Si4 0.377424 0.324810 0.598648
Si Si5 0.000441 0.323475 0.209808
O O1 0.715917 0.500000 0.589973
O O2 0.750000 0.250000 0.500000
O O3 0.810860 0.280967 0.591876
O O4 0.608539 0.263382 0.702824
O O5 0.053403 0.260718 0.098015
O O6 0.151608 0.000000 0.036690
O O7 0.250000 0.250000 0.000000
O O8 0.213539 0.193107 0.891883
O O9 0.348282 0.289365 0.701807
O O10 0.421648 0.209695 0.776992
O O11 0.349645 0.000000 0.738357
O O12 0.500000 0.286958 0.500000
O O13 0.351287 0.500000 0.600721
O O14 0.976546 0.500000 0.216873
#
# Coordination Sequence:
#
# PCOD8101832 Si02
#       5
#     8   8   8   8   8
#     4  12  25  41  61  84 114 149 187 233 284 339
#     4   9  17  31  53  83 117 152 192 234 280 333
#     4   9  19  35  57  85 116 151 188 231 281 332
#     4  11  24  40  59  84 113 147 189 235 283 337
#     4  10  20  36  59  87 118 151 191 235 282 336
#
# _framework density 19.643626000000001
#
# number of rings (size 3 to 8) (size 9 to 14) (size 15 to 20)
#    0.000    1.800    0.000    6.000    0.000    9.600 
#    0.000    1.000    0.000    6.000    0.000    0.000 
#    0.000    0.000    0.000    0.000    0.000    0.000 
#
# Total GULP energy -247999.956834 kJ/mol
# GULP energy per Si atom -12399.997842 kJ/mol
# Density = 1.959892 g / cm^3
# Si number density = 19.643626 Si / 1000 Ang^3
#
#
#
# Elastic Constant Matrix: (Units=GPa)
#
#
# Indices 1 2 3 4 5 6 
#
# 1 66.5868 45.5092 49.6054 0.0000 -3.1574 0.0000
# 2 45.5092 143.1468 75.5322 0.0001 -6.5365 0.0000
# 3 49.6054 75.5322 163.5343 0.0000 -8.7615 0.0000
# 4 0.0000 0.0001 0.0000 36.4284 0.0000 1.6156
# 5 -3.1574 -6.5365 -8.7615 0.0000 28.0085 0.0000
# 6 0.0000 0.0000 0.0000 1.6156 0.0000 30.9141
#
#
#
# Elastic Compliance Matrix: (Units=1/GPa)
#
#
# Indices 1 2 3 4 5 6 
#
# 1 0.021357 -0.004458 -0.004420 0.000000 -0.000016 0.000000
# 2 -0.004458 0.010187 -0.003308 0.000000 0.000840 0.000000
# 3 -0.004420 -0.003308 0.009067 0.000000 0.001566 0.000000
# 4 0.000000 0.000000 0.000000 0.027515 0.000000 -0.001438
# 5 -0.000016 0.000840 0.001566 0.000000 0.036388 0.000000
# 6 0.000000 0.000000 0.000000 -0.001438 0.000000 0.032423
#
#
# Mechanical properties :
#
#
# Convention : Reuss Voigt Hill
#
# Bulk Modulus (GPa) = 61.57896 79.39573 70.48734
# Shear Modulus (GPa) = 29.99008 32.57828 31.28418
#
# Velocity S-wave (km/s) = 3.91155 4.07684 3.99505
# Velocity P-wave (km/s) = 7.19836 7.91623 7.56581
#
# Compressibility (1/GPa) = 0.01623931
#
# Stress axis : x y z
#
# Youngs Moduli (GPa) = 46.82283 98.16507 110.28651
#
# Poissons Ratio (x) = 0.43765 0.48746
# Poissons Ratio (y) = 0.20875 0.36479
# Poissons Ratio (z) = 0.20695 0.32470
#
# Static dielectric constant tensor:
#      x y z
#    x 3.165170 0.000000 -0.116610 
#    y 0.000000 3.775400 0.000000 
#    z -0.116610 0.000000 4.075180 
# 
# 
# High freq. dielectric constant tensor:
#      x y z
#    x 1.734240 0.000000 -0.001420 
#    y 0.000000 1.779900 0.000000 
#    z -0.001420 0.000000 1.790000 
# 
# From -- ./inp_files/211177.got.cif
#   From: 2010.06.25/outbox.cif.g09.slc.cpg/sg12_106_cif.got.tgz:211177.got - 2010.06.28 00:19:55.
