data_PCOD8101263
_publ_section_title
;
Structure prediction by ZEFSAII (Michael W. Deem and Ramdas Pophale) SiO2 
 PCOD8101263
Probable space group: C 2/M
;
_chemical_formula_sum "Si O2"
_cell_formula_units_Z 48
_cell_length_a 24.708201
_cell_length_b 9.228399
_cell_length_c 20.157007
_cell_angle_alpha 90.000000
_cell_angle_beta 35.158197
_cell_angle_gamma 90.000000
_cell_volume 2646.624501
_symmetry_space_group_name_H-M "C 2/M"
_symmetry_group_IT_number 12
_symmetry_cell_setting 'monoclinic'
loop_
_space_group_symop_operation_xyz
x,y,z
-x,y,-z
-x,-y,-z
x,-y,z
1/2+x,1/2+y,z
1/2-x,1/2+y,-z
1/2-x,1/2-y,-z
1/2+x,1/2-y,z
loop_
_atom_site_type_symbol
_atom_site_label
_atom_site_fract_x
_atom_site_fract_y
_atom_site_fract_z
Si Si1 0.949271 0.831294 0.232649
Si Si2 0.058630 0.332550 0.626498
Si Si3 0.067616 0.667601 0.373169
Si Si4 0.748333 0.331866 0.632667
Si Si5 0.049698 0.334081 0.017109
Si Si6 0.245141 0.833592 0.237419
O O1 0.972452 0.761271 0.279900
O O2 0.840967 0.800862 0.323786
O O3 0.017622 0.763810 0.109846
O O4 0.971657 0.000000 0.214150
O O5 0.062595 0.500000 0.643613
O O6 0.160077 0.280334 0.498980
O O7 0.981954 0.304972 0.646887
O O8 0.093250 0.500000 0.358487
O O9 0.162577 0.759184 0.278690
O O10 0.000000 0.721202 0.500000
O O11 0.757342 0.500000 0.643750
O O12 0.738092 0.240642 0.709132
O O13 0.019132 0.500000 0.060760
O O14 0.161396 0.318638 0.899839
O O15 0.000000 0.276975 0.000000
O O16 0.219249 0.000000 0.276316
#
# Coordination Sequence:
#
# PCOD8101263 Si02
#       6
#     8   8   8   8   8   8
#     4  11  23  36  57  88 118 149 189 241 285 330
#     4  10  21  38  59  81 115 159 189 223 283 350
#     4  10  20  38  61  83 113 153 192 229 280 343
#     4  10  20  36  57  84 118 152 186 228 285 346
#     4  10  21  39  59  81 114 153 191 231 283 345
#     4  11  22  35  58  89 115 145 188 241 284 325
#
# _framework density 18.136309000000001
#
# number of rings (size 3 to 8) (size 9 to 14) (size 15 to 20)
#    0.000    1.667    3.333    1.500    0.000    4.000 
#    0.000    0.833    0.000    0.000    0.000    0.000 
#    0.000    0.000    0.000    0.000    0.000    0.000 
#
# Total GULP energy -297740.683307 kJ/mol
# GULP energy per Si atom -12405.861804 kJ/mol
# Density = 1.809503 g / cm^3
# Si number density = 18.136309 Si / 1000 Ang^3
#
#
#
# Elastic Constant Matrix: (Units=GPa)
#
#
# Indices 1 2 3 4 5 6 
#
# 1 87.9688 46.8862 36.5023 0.0005 4.7246 -0.0006
# 2 46.8862 83.6588 44.4538 0.0000 7.1660 0.0009
# 3 36.5023 44.4538 77.9501 -0.0008 4.6224 0.0009
# 4 0.0005 0.0000 -0.0008 30.1387 0.0012 -3.2396
# 5 4.7246 7.1660 4.6224 0.0012 33.9986 -0.0010
# 6 -0.0006 0.0009 0.0009 -3.2396 -0.0010 28.3075
#
#
#
# Elastic Compliance Matrix: (Units=1/GPa)
#
#
# Indices 1 2 3 4 5 6 
#
# 1 0.016889 -0.007530 -0.003598 0.000000 -0.000271 0.000001
# 2 -0.007530 0.020689 -0.008141 0.000000 -0.002207 -0.000001
# 3 -0.003598 -0.008141 0.019180 0.000001 -0.000392 0.000000
# 4 0.000000 0.000000 0.000001 0.033593 -0.000001 0.003845
# 5 -0.000271 -0.002207 -0.000392 -0.000001 0.029969 0.000001
# 6 0.000001 -0.000001 0.000000 0.003845 0.000001 0.035766
#
#
# Mechanical properties :
#
#
# Convention : Reuss Voigt Hill
#
# Bulk Modulus (GPa) = 54.89138 56.14026 55.51582
# Shear Modulus (GPa) = 24.91309 26.60465 25.75887
#
# Velocity S-wave (km/s) = 3.71031 3.83420 3.77277
# Velocity P-wave (km/s) = 6.97760 7.11501 7.04664
#
# Compressibility (1/GPa) = 0.01821780
#
# Stress axis : x y z
#
# Youngs Moduli (GPa) = 59.21135 48.33578 52.13800
#
# Poissons Ratio (x) = 0.36397 0.18761
# Poissons Ratio (y) = 0.44586 0.42448
# Poissons Ratio (z) = 0.21306 0.39352
#
# Static dielectric constant tensor:
#      x y z
#    x 3.292340 0.000000 -0.099220 
#    y 0.000000 3.371770 0.000000 
#    z -0.099220 0.000000 3.339840 
# 
# 
# High freq. dielectric constant tensor:
#      x y z
#    x 1.703710 0.000000 -0.003770 
#    y 0.000000 1.704700 0.000000 
#    z -0.003770 0.000000 1.702030 
# 
# From -- ./inp_files/180252.got.cif
#   From: 2010.06.25/outbox.cif.g09.slc.cpg/sg12_91_cif.got.tgz:180252.got - 2010.06.28 00:19:55.
