data_PCOD8101596
_publ_section_title
;
Structure prediction by ZEFSAII (Michael W. Deem and Ramdas Pophale) SiO2 
 PCOD8101596
Probable space group: C 2/M
;
_chemical_formula_sum "Si O2"
_cell_formula_units_Z 56
_cell_length_a 8.744964
_cell_length_b 22.428320
_cell_length_c 22.163736
_cell_angle_alpha 90.000000
_cell_angle_beta 139.784017
_cell_angle_gamma 90.000000
_cell_volume 2806.782991
_symmetry_space_group_name_H-M "C 2/M"
_symmetry_group_IT_number 12
_symmetry_cell_setting 'monoclinic'
loop_
_space_group_symop_operation_xyz
x,y,z
-x,y,-z
-x,-y,-z
x,-y,z
1/2+x,1/2+y,z
1/2-x,1/2+y,-z
1/2-x,1/2-y,-z
1/2+x,1/2-y,z
loop_
_atom_site_type_symbol
_atom_site_label
_atom_site_fract_x
_atom_site_fract_y
_atom_site_fract_z
Si Si1 0.756377 0.377072 0.959180
Si Si2 0.001101 0.432883 0.140811
Si Si3 0.749722 0.286889 0.601627
Si Si4 0.065312 0.224732 0.148687
Si Si5 0.211556 0.679156 0.667168
Si Si6 0.496795 0.822999 0.789254
Si Si7 0.500143 0.568664 0.227206
O O1 0.659215 0.310622 0.946301
O O2 0.566258 0.412847 0.861264
O O3 0.000000 0.365109 0.000000
O O4 0.801939 0.416978 0.031513
O O5 0.959984 0.500000 0.149182
O O6 0.267739 0.422728 0.197976
O O7 0.956615 0.392781 0.186695
O O8 0.500000 0.307812 0.500000
O O9 0.748184 0.215051 0.614916
O O10 0.947773 0.307979 0.613464
O O11 0.781056 0.317828 0.676750
O O12 0.099133 0.202898 0.227773
O O13 0.283469 0.212150 0.171945
O O14 0.041701 0.295953 0.153985
O O15 0.281326 0.609087 0.680700
O O16 0.585039 0.500000 0.253537
#
# Coordination Sequence:
#
# PCOD8101596 Si02
#       7
#     8   8   8   8   8   8   8
#     4   9  18  33  55  82 109 144 189 229 264 313
#     4  10  21  36  55  78 109 150 189 227 265 313
#     4  10  20  36  58  88 110 138 176 225 281 330
#     4   9  20  35  52  81 111 145 175 224 278 318
#     4   9  19  33  57  84 110 141 175 221 274 325
#     4  10  22  36  57  80 112 143 179 224 278 332
#     4   9  18  34  57  81 110 148 186 220 262 321
#
# _framework density 19.951668000000002
#
# number of rings (size 3 to 8) (size 9 to 14) (size 15 to 20)
#    0.000    2.571    0.000    0.857   12.000    2.857 
#    0.000    7.857    0.000    2.143    0.000    0.000 
#    0.000    0.000    0.000    0.000    0.000    0.000 
#
# Total GULP energy -346956.914172 kJ/mol
# GULP energy per Si atom -12391.318363 kJ/mol
# Density = 1.990626 g / cm^3
# Si number density = 19.951668 Si / 1000 Ang^3
#
#
#
# Elastic Constant Matrix: (Units=GPa)
#
#
# Indices 1 2 3 4 5 6 
#
# 1 61.1576 43.7184 34.8587 0.0003 0.4485 -0.0001
# 2 43.7184 135.7197 50.2562 0.0003 5.1670 0.0002
# 3 34.8587 50.2562 88.6828 -0.0001 12.5282 -0.0004
# 4 0.0003 0.0003 -0.0001 20.2730 0.0000 2.3274
# 5 0.4485 5.1670 12.5282 0.0000 19.1595 -0.0002
# 6 -0.0001 0.0002 -0.0004 2.3274 -0.0002 26.2827
#
#
#
# Elastic Compliance Matrix: (Units=1/GPa)
#
#
# Indices 1 2 3 4 5 6 
#
# 1 0.024297 -0.005327 -0.007331 0.000000 0.005662 0.000000
# 2 -0.005327 0.010512 -0.003834 0.000000 -0.000203 0.000000
# 3 -0.007331 -0.003834 0.017805 0.000000 -0.010437 0.000000
# 4 0.000000 0.000000 0.000000 0.049833 0.000000 -0.004413
# 5 0.005662 -0.000203 -0.010437 0.000000 0.058940 0.000000
# 6 0.000000 0.000000 0.000000 -0.004413 0.000000 0.038439
#
#
# Mechanical properties :
#
#
# Convention : Reuss Voigt Hill
#
# Bulk Modulus (GPa) = 50.94791 60.35852 55.65322
# Shear Modulus (GPa) = 20.88962 23.59150 22.24056
#
# Velocity S-wave (km/s) = 3.23927 3.44238 3.34237
# Velocity P-wave (km/s) = 6.29139 6.79103 6.54598
#
# Compressibility (1/GPa) = 0.01962789
#
# Stress axis : x y z
#
# Youngs Moduli (GPa) = 41.15818 95.13205 56.16380
#
# Poissons Ratio (x) = 0.50680 0.41174
# Poissons Ratio (y) = 0.21926 0.21535
# Poissons Ratio (z) = 0.30174 0.36476
#
# Static dielectric constant tensor:
#      x y z
#    x 3.390090 0.000000 -0.036100 
#    y 0.000000 3.827130 0.000000 
#    z -0.036100 0.000000 3.583210 
# 
# 
# High freq. dielectric constant tensor:
#      x y z
#    x 1.766720 0.000000 0.004700 
#    y 0.000000 1.771790 0.000000 
#    z 0.004700 0.000000 1.756560 
# 
# From -- ./inp_files/334016.got.cif
#   From: 2010.06.25/outbox.cif.g09.slc.cpg/sg12_168_cif.got.tgz:334016.got - 2010.06.28 00:19:55.
