data_PCOD8101990
_publ_section_title
;
Structure prediction by ZEFSAII (Michael W. Deem and Ramdas Pophale) SiO2 
 PCOD8101990
Probable space group: C 2/M
;
_chemical_formula_sum "Si O2"
_cell_formula_units_Z 56
_cell_length_a 14.792371
_cell_length_b 9.161716
_cell_length_c 21.671190
_cell_angle_alpha 90.000000
_cell_angle_beta 88.891596
_cell_angle_gamma 90.000000
_cell_volume 2936.406016
_symmetry_space_group_name_H-M "C 2/M"
_symmetry_group_IT_number 12
_symmetry_cell_setting 'monoclinic'
loop_
_space_group_symop_operation_xyz
x,y,z
-x,y,-z
-x,-y,-z
x,-y,z
1/2+x,1/2+y,z
1/2-x,1/2+y,-z
1/2-x,1/2-y,-z
1/2+x,1/2-y,z
loop_
_atom_site_type_symbol
_atom_site_label
_atom_site_fract_x
_atom_site_fract_y
_atom_site_fract_z
Si Si1 0.139071 0.167619 0.553138
Si Si2 0.517231 0.671475 0.349139
Si Si3 0.345264 0.169927 0.570485
Si Si4 0.511436 0.827738 0.221976
Si Si5 0.823064 0.669111 0.861398
Si Si6 0.865630 0.328355 0.126056
Si Si7 0.342084 0.167788 0.994272
O O1 0.238473 0.198725 0.578763
O O2 0.118235 0.267982 0.494694
O O3 0.067539 0.207630 0.606308
O O4 0.130028 0.000000 0.531640
O O5 0.534546 0.500000 0.342906
O O6 0.607321 0.746776 0.374013
O O7 0.493331 0.738314 0.283715
O O8 0.369381 0.000000 0.573713
O O9 0.611385 0.789876 0.195709
O O10 0.439186 0.769384 0.173045
O O11 0.501388 0.000000 0.234506
O O12 0.795543 0.500000 0.858886
O O13 0.731756 0.760556 0.857406
O O14 0.880226 0.699777 0.924864
O O15 0.855587 0.500000 0.134561
O O16 0.899902 0.288990 0.054952
O O17 0.318125 0.000000 0.001024
O O18 0.250000 0.250000 0.000000
#
# Coordination Sequence:
#
# PCOD8101990 Si02
#       7
#     8   8   8   8   8   8   8
#     4   9  20  38  58  82 111 140 171 209 257 309
#     4  11  23  38  55  76 107 145 179 213 255 305
#     4  10  20  36  60  87 111 136 170 213 258 304
#     4  10  22  37  51  73 104 139 179 217 256 307
#     4   9  18  33  53  75 102 135 170 213 265 317
#     4   9  18  33  53  76 103 133 170 218 264 310
#     4   8  14  27  49  75  99 127 165 210 263 315
#
# _framework density 19.070933
#
# number of rings (size 3 to 8) (size 9 to 14) (size 15 to 20)
#    0.000    2.571    0.000    1.286    0.000    6.286 
#    0.000    7.143    0.000    0.000    0.000   11.000 
#    0.000    0.000    0.000    0.000    0.000    0.000 
#
# Total GULP energy -347008.507765 kJ/mol
# GULP energy per Si atom -12393.160992 kJ/mol
# Density = 1.902753 g / cm^3
# Si number density = 19.070933 Si / 1000 Ang^3
#
#
#
# Elastic Constant Matrix: (Units=GPa)
#
#
# Indices 1 2 3 4 5 6 
#
# 1 49.1520 20.6043 25.8802 0.0000 11.3193 0.0000
# 2 20.6043 54.0061 38.2845 0.0000 9.4843 0.0000
# 3 25.8802 38.2845 99.7070 0.0000 15.9331 0.0000
# 4 0.0000 0.0000 0.0000 31.6184 0.0000 0.7665
# 5 11.3193 9.4843 15.9331 0.0000 28.6928 0.0000
# 6 0.0000 0.0000 0.0000 0.7665 0.0000 25.2120
#
#
#
# Elastic Compliance Matrix: (Units=1/GPa)
#
#
# Indices 1 2 3 4 5 6 
#
# 1 0.026302 -0.006592 -0.003277 0.000000 -0.006378 0.000000
# 2 -0.006592 0.027377 -0.008527 0.000000 -0.001714 0.000000
# 3 -0.003277 -0.008527 0.014811 0.000000 -0.004113 0.000000
# 4 0.000000 0.000000 0.000000 0.031650 0.000000 -0.000962
# 5 -0.006378 -0.001714 -0.004113 0.000000 0.040219 0.000000
# 6 0.000000 0.000000 0.000000 -0.000962 0.000000 0.039693
#
#
# Mechanical properties :
#
#
# Convention : Reuss Voigt Hill
#
# Bulk Modulus (GPa) = 31.54651 41.37813 36.46232
# Shear Modulus (GPa) = 21.98660 24.97772 23.48216
#
# Velocity S-wave (km/s) = 3.39910 3.62294 3.51280
# Velocity P-wave (km/s) = 5.65533 6.26458 5.96774
#
# Compressibility (1/GPa) = 0.03169922
#
# Stress axis : x y z
#
# Youngs Moduli (GPa) = 38.01931 36.52679 67.51536
#
# Poissons Ratio (x) = 0.24078 0.22124
# Poissons Ratio (y) = 0.25062 0.57571
# Poissons Ratio (z) = 0.12459 0.31147
#
# Static dielectric constant tensor:
#      x y z
#    x 3.366620 0.000000 0.081580 
#    y 0.000000 3.433210 0.000000 
#    z 0.081580 0.000000 3.822210 
# 
# 
# High freq. dielectric constant tensor:
#      x y z
#    x 1.732620 0.000000 0.005430 
#    y 0.000000 1.737310 0.000000 
#    z 0.005430 0.000000 1.749970 
# 
# From -- ./inp_files/309067.got.cif
#   From: 2010.06.25/outbox.cif.g09.slc.cpg/sg12_155_cif.got.tgz:309067.got - 2010.06.28 00:19:55.
