data_PCOD8101677
_publ_section_title
;
Structure prediction by ZEFSAII (Michael W. Deem and Ramdas Pophale) SiO2 
 PCOD8101677
Probable space group: C 2/M
;
_chemical_formula_sum "Si O2"
_cell_formula_units_Z 64
_cell_length_a 14.299699
_cell_length_b 11.858317
_cell_length_c 19.960793
_cell_angle_alpha 90.000000
_cell_angle_beta 106.477071
_cell_angle_gamma 90.000000
_cell_volume 3245.758108
_symmetry_space_group_name_H-M "C 2/M"
_symmetry_group_IT_number 12
_symmetry_cell_setting 'monoclinic'
loop_
_space_group_symop_operation_xyz
x,y,z
-x,y,-z
-x,-y,-z
x,-y,z
1/2+x,1/2+y,z
1/2-x,1/2+y,-z
1/2-x,1/2-y,-z
1/2+x,1/2-y,z
loop_
_atom_site_type_symbol
_atom_site_label
_atom_site_fract_x
_atom_site_fract_y
_atom_site_fract_z
Si Si1 0.664339 0.368692 0.288531
Si Si2 0.676169 0.627534 0.037388
Si Si3 0.778072 0.879098 0.194941
Si Si4 0.630642 0.243969 0.899363
Si Si5 0.293870 0.628879 0.484099
Si Si6 0.033017 0.127853 0.386947
Si Si7 0.408861 0.248210 0.855448
Si Si8 0.325660 0.306196 0.344996
O O1 0.686273 0.500000 0.293261
O O2 0.596187 0.332089 0.336175
O O3 0.612007 0.336903 0.208333
O O4 0.769597 0.310850 0.320109
O O5 0.651139 0.500000 0.047383
O O6 0.793274 0.645081 0.067065
O O7 0.613054 0.698652 0.076854
O O8 0.641974 0.656647 0.955684
O O9 0.842063 0.787476 0.168942
O O10 0.662392 0.857300 0.167706
O O11 0.808828 0.885782 0.278165
O O12 0.798160 0.000000 0.165813
O O13 0.519311 0.201716 0.875494
O O14 0.252275 0.500000 0.497529
O O15 0.250000 0.750000 0.500000
O O16 0.404380 0.633625 0.532525
O O17 0.287174 0.629976 0.402829
O O18 0.942037 0.213285 0.375744
O O19 0.994972 0.000000 0.367988
#
# Coordination Sequence:
#
# PCOD8101677 Si02
#       8
#     8   8   8   8   8   8   8   8
#     4  10  21  37  57  82 116 150 186 235 288 337
#     4  10  21  36  55  80 110 145 183 225 275 327
#     4  10  21  36  55  81 109 142 182 228 277 326
#     4  10  21  37  55  80 112 143 182 230 273 326
#     4  11  22  38  60  87 117 152 191 240 290 343
#     4  10  20  36  59  84 109 148 192 230 279 338
#     4  10  21  35  55  81 110 144 186 227 274 333
#     4  11  21  36  60  84 113 145 191 238 279 335
#
# _framework density 19.718043000000002
#
# number of rings (size 3 to 8) (size 9 to 14) (size 15 to 20)
#    0.000    1.750    1.250    3.375    0.000    5.000 
#    0.000    0.625    0.000    9.000    0.000    0.000 
#    0.000    0.000    0.000    0.000    0.000    0.000 
#
# Total GULP energy -396534.832463 kJ/mol
# GULP energy per Si atom -12391.713514 kJ/mol
# Density = 1.967316 g / cm^3
# Si number density = 19.718043 Si / 1000 Ang^3
#
#
#
# Elastic Constant Matrix: (Units=GPa)
#
#
# Indices 1 2 3 4 5 6 
#
# 1 94.7335 7.3565 19.2716 0.0000 9.3448 0.0000
# 2 7.3565 64.6106 8.6908 0.0000 -0.2386 0.0000
# 3 19.2716 8.6908 105.9327 0.0000 -10.6295 0.0000
# 4 0.0000 0.0000 0.0000 12.3180 0.0000 -5.0160
# 5 9.3448 -0.2386 -10.6295 0.0000 26.9635 0.0000
# 6 0.0000 0.0000 0.0000 -5.0160 0.0000 19.1132
#
#
#
# Elastic Compliance Matrix: (Units=1/GPa)
#
#
# Indices 1 2 3 4 5 6 
#
# 1 0.011649 -0.001003 -0.002544 0.000000 -0.005049 0.000000
# 2 -0.001003 0.015740 -0.001104 0.000000 0.000052 0.000000
# 3 -0.002544 -0.001104 0.010496 0.000000 0.005009 0.000000
# 4 0.000000 0.000000 0.000000 0.090895 0.000000 0.023854
# 5 -0.005049 0.000052 0.005009 0.000000 0.040812 0.000000
# 6 0.000000 0.000000 0.000000 0.023854 0.000000 0.058580
#
#
# Mechanical properties :
#
#
# Convention : Reuss Voigt Hill
#
# Bulk Modulus (GPa) = 34.98343 37.32387 36.15365
# Shear Modulus (GPa) = 20.24280 27.00947 23.62614
#
# Velocity S-wave (km/s) = 3.20756 3.70508 3.46526
# Velocity P-wave (km/s) = 5.61233 6.10519 5.86394
#
# Compressibility (1/GPa) = 0.02858496
#
# Stress axis : x y z
#
# Youngs Moduli (GPa) = 85.84212 63.53174 95.27529
#
# Poissons Ratio (x) = 0.06371 0.24234
# Poissons Ratio (y) = 0.08609 0.10516
# Poissons Ratio (z) = 0.21835 0.07012
#
# Static dielectric constant tensor:
#      x y z
#    x 3.621400 0.000000 -0.012740 
#    y 0.000000 3.457270 0.000000 
#    z -0.012740 0.000000 3.821530 
# 
# 
# High freq. dielectric constant tensor:
#      x y z
#    x 1.762150 0.000000 -0.002860 
#    y 0.000000 1.746300 0.000000 
#    z -0.002860 0.000000 1.791340 
# 
# From -- ./inp_files/309915.got.cif
#   From: 2010.06.25/outbox.cif.g09.slc.cpg/sg12_155_cif.got.tgz:309915.got - 2010.06.28 00:19:55.
