data_PCOD8101787
_publ_section_title
;
Structure prediction by ZEFSAII (Michael W. Deem and Ramdas Pophale) SiO2 
 PCOD8101787
Probable space group: C 2/M
;
_chemical_formula_sum "Si O2"
_cell_formula_units_Z 56
_cell_length_a 27.272135
_cell_length_b 8.871775
_cell_length_c 13.586633
_cell_angle_alpha 90.000000
_cell_angle_beta 119.909350
_cell_angle_gamma 90.000000
_cell_volume 2849.496415
_symmetry_space_group_name_H-M "C 2/M"
_symmetry_group_IT_number 12
_symmetry_cell_setting 'monoclinic'
loop_
_space_group_symop_operation_xyz
x,y,z
-x,y,-z
-x,-y,-z
x,-y,z
1/2+x,1/2+y,z
1/2-x,1/2+y,-z
1/2-x,1/2-y,-z
1/2+x,1/2-y,z
loop_
_atom_site_type_symbol
_atom_site_label
_atom_site_fract_x
_atom_site_fract_y
_atom_site_fract_z
Si Si1 0.631948 0.677852 0.317242
Si Si2 0.224043 0.822973 0.249023
Si Si3 0.436989 0.672668 0.411017
Si Si4 0.589075 0.326336 0.842127
Si Si5 0.202594 0.677537 0.019952
Si Si6 0.487586 0.679034 0.879080
Si Si7 0.345396 0.823570 0.451993
O O1 0.628562 0.500000 0.325452
O O2 0.679925 0.725754 0.288390
O O3 0.571964 0.743698 0.219876
O O4 0.647281 0.743874 0.437321
O O5 0.208374 0.732139 0.136663
O O6 0.286014 0.773490 0.345811
O O7 0.220394 0.000000 0.222143
O O8 0.500000 0.724836 0.500000
O O9 0.426922 0.500000 0.433668
O O10 0.428477 0.694064 0.287415
O O11 0.394327 0.778665 0.426065
O O12 0.604070 0.500000 0.881656
O O13 0.537164 0.268176 0.856189
O O14 0.641964 0.221709 0.917022
O O15 0.210108 0.500000 0.023127
O O16 0.250000 0.750000 0.000000
O O17 0.484066 0.500000 0.879774
O O18 0.500000 0.744797 0.000000
O O19 0.347034 0.000000 0.472168
#
# Coordination Sequence:
#
# PCOD8101787 Si02
#       7
#     8   8   8   8   8   8   8
#     4  10  20  37  62  87 114 152 194 234 277 333
#     4  10  22  40  61  86 116 151 192 235 281 336
#     4  10  21  38  60  84 111 149 198 242 280 335
#     4  10  20  36  59  86 116 149 189 238 286 334
#     4  12  25  40  60  85 115 151 191 236 286 341
#     4   9  17  32  58  88 114 146 190 234 277 330
#     4  11  23  37  56  85 119 151 186 235 292 344
#
# _framework density 19.652595000000002
#
# number of rings (size 3 to 8) (size 9 to 14) (size 15 to 20)
#    0.000    1.714    0.000    4.714    0.000    9.429 
#    0.000    2.143    0.000    1.714    0.000    0.000 
#    0.000    0.000    0.000    0.000    0.000    0.000 
#
# Total GULP energy -347340.994240 kJ/mol
# GULP energy per Si atom -12405.035509 kJ/mol
# Density = 1.960786 g / cm^3
# Si number density = 19.652595 Si / 1000 Ang^3
#
#
#
# Elastic Constant Matrix: (Units=GPa)
#
#
# Indices 1 2 3 4 5 6 
#
# 1 158.5788 32.5188 62.7722 0.0000 3.7535 0.0000
# 2 32.5188 33.3139 30.1830 0.0000 -3.1625 0.0000
# 3 62.7722 30.1830 124.9796 0.0000 2.4377 0.0000
# 4 0.0000 0.0000 0.0000 32.5510 0.0000 -0.3919
# 5 3.7535 -3.1625 2.4377 0.0000 42.7175 0.0000
# 6 0.0000 0.0000 0.0000 -0.3919 0.0000 30.7255
#
#
#
# Elastic Compliance Matrix: (Units=1/GPa)
#
#
# Indices 1 2 3 4 5 6 
#
# 1 0.008705 -0.005957 -0.002914 0.000000 -0.001040 0.000000
# 2 -0.005957 0.042994 -0.007472 0.000000 0.004133 0.000000
# 3 -0.002914 -0.007472 0.011288 0.000000 -0.000941 0.000000
# 4 0.000000 0.000000 0.000000 0.030726 0.000000 0.000392
# 5 -0.001040 0.004133 -0.000941 0.000000 0.023861 0.000000
# 6 0.000000 0.000000 0.000000 0.000392 0.000000 0.032551
#
#
# Mechanical properties :
#
#
# Convention : Reuss Voigt Hill
#
# Bulk Modulus (GPa) = 33.00049 63.09116 48.04582
# Shear Modulus (GPa) = 25.91882 33.95868 29.93875
#
# Velocity S-wave (km/s) = 3.63554 4.16137 3.90731
# Velocity P-wave (km/s) = 5.86952 7.43386 6.69752
#
# Compressibility (1/GPa) = 0.03030258
#
# Stress axis : x y z
#
# Youngs Moduli (GPa) = 114.87101 23.25902 88.59312
#
# Poissons Ratio (x) = 0.13854 0.25812
# Poissons Ratio (y) = 0.68424 0.66197
# Poissons Ratio (z) = 0.33468 0.17379
#
# Static dielectric constant tensor:
#      x y z
#    x 3.928890 0.000000 0.003690 
#    y 0.000000 3.281520 0.000000 
#    z 0.003690 0.000000 3.814960 
# 
# 
# High freq. dielectric constant tensor:
#      x y z
#    x 1.786630 0.000000 0.000610 
#    y 0.000000 1.740850 0.000000 
#    z 0.000610 0.000000 1.786930 
# 
# From -- ./inp_files/181064.got.cif
#   From: 2010.06.25/outbox.cif.g09.slc.cpg/sg12_91_cif.got.tgz:181064.got - 2010.06.28 00:19:55.
