data_PCOD8101335
_publ_section_title
;
Structure prediction by ZEFSAII (Michael W. Deem and Ramdas Pophale) SiO2 
 PCOD8101335
Probable space group: C 2/M
;
_chemical_formula_sum "Si O2"
_cell_formula_units_Z 56
_cell_length_a 20.139411
_cell_length_b 9.676600
_cell_length_c 16.137847
_cell_angle_alpha 90.000000
_cell_angle_beta 75.260438
_cell_angle_gamma 90.000000
_cell_volume 3041.466769
_symmetry_space_group_name_H-M "C 2/M"
_symmetry_group_IT_number 12
_symmetry_cell_setting 'monoclinic'
loop_
_space_group_symop_operation_xyz
x,y,z
-x,y,-z
-x,-y,-z
x,-y,z
1/2+x,1/2+y,z
1/2-x,1/2+y,-z
1/2-x,1/2-y,-z
1/2+x,1/2-y,z
loop_
_atom_site_type_symbol
_atom_site_label
_atom_site_fract_x
_atom_site_fract_y
_atom_site_fract_z
Si Si1 0.888897 0.662641 0.416689
Si Si2 0.718015 0.653578 0.627945
Si Si3 0.884540 0.662997 0.774376
Si Si4 0.033530 0.660492 0.772251
Si Si5 0.377987 0.156135 0.596031
Si Si6 0.141613 0.157126 0.819060
Si Si7 0.247314 0.337087 0.083621
O O1 0.873613 0.500000 0.423731
O O2 0.816738 0.736263 0.421345
O O3 0.943995 0.701217 0.328608
O O4 0.915901 0.712154 0.499922
O O5 0.694137 0.500000 0.609086
O O6 0.798718 0.667646 0.597669
O O7 0.695904 0.682913 0.729213
O O8 0.874449 0.500000 0.765443
O O9 0.891753 0.732485 0.679652
O O10 0.818018 0.719561 0.843393
O O11 0.952951 0.696453 0.805384
O O12 0.048039 0.500000 0.784696
O O13 0.074948 0.746049 0.828235
O O14 0.402885 0.000000 0.601307
O O15 0.181801 0.193145 0.890566
O O16 0.114937 0.000000 0.829012
O O17 0.239331 0.500000 0.066946
O O18 0.250000 0.250000 0.000000
#
# Coordination Sequence:
#
# PCOD8101335 Si02
#       7
#     8   8   8   8   8   8   8
#     4   9  17  26  40  69 102 129 161 204 242 271
#     4   9  15  26  45  66  91 129 170 199 233 285
#     4   9  17  32  52  73  99 132 167 200 241 296
#     4   9  18  31  49  74 104 134 164 201 241 281
#     4   9  15  25  44  68  96 129 167 204 237 278
#     4   9  17  32  53  73  96 131 167 197 239 297
#     4  10  20  36  58  80  98 122 160 205 249 295
#
# _framework density 18.412168999999999
#
# number of rings (size 3 to 8) (size 9 to 14) (size 15 to 20)
#    0.000    2.857    1.429    0.429    0.000    1.143 
#    0.000    4.286    0.000    6.857    0.000    4.000 
#    0.000    0.000    0.000    0.000    0.000    0.000 
#
# Total GULP energy -346946.410735 kJ/mol
# GULP energy per Si atom -12390.943241 kJ/mol
# Density = 1.837026 g / cm^3
# Si number density = 18.412169 Si / 1000 Ang^3
#
#
#
# Elastic Constant Matrix: (Units=GPa)
#
#
# Indices 1 2 3 4 5 6 
#
# 1 83.9525 36.5741 49.1030 0.0000 14.3051 0.0000
# 2 36.5741 46.2090 36.9514 0.0000 12.1529 0.0000
# 3 49.1030 36.9514 98.0250 0.0000 25.7480 0.0000
# 4 0.0000 0.0000 0.0000 22.9764 0.0000 3.5876
# 5 14.3051 12.1529 25.7480 0.0000 19.3448 0.0000
# 6 0.0000 0.0000 0.0000 3.5876 0.0000 22.5220
#
#
#
# Elastic Compliance Matrix: (Units=1/GPa)
#
#
# Indices 1 2 3 4 5 6 
#
# 1 0.020306 -0.011359 -0.005874 0.000000 -0.000062 0.000000
# 2 -0.011359 0.037796 -0.006961 0.000000 -0.006080 0.000000
# 3 -0.005874 -0.006961 0.020723 0.000000 -0.018866 0.000000
# 4 0.000000 0.000000 0.000000 0.044633 0.000000 -0.007110
# 5 -0.000062 -0.006080 -0.018866 0.000000 0.080670 0.000000
# 6 0.000000 0.000000 0.000000 -0.007110 0.000000 0.045533
#
#
# Mechanical properties :
#
#
# Convention : Reuss Voigt Hill
#
# Bulk Modulus (GPa) = 32.85214 52.60484 42.72849
# Shear Modulus (GPa) = 16.22349 20.00586 18.11467
#
# Velocity S-wave (km/s) = 2.97160 3.29987 3.14003
# Velocity P-wave (km/s) = 5.44566 6.56899 6.03352
#
# Compressibility (1/GPa) = 0.03043942
#
# Stress axis : x y z
#
# Youngs Moduli (GPa) = 49.24651 26.45748 48.25524
#
# Poissons Ratio (x) = 0.30053 0.28343
# Poissons Ratio (y) = 0.55938 0.33589
# Poissons Ratio (z) = 0.28925 0.18416
#
# Static dielectric constant tensor:
#      x y z
#    x 3.340940 0.000000 0.067950 
#    y 0.000000 3.116810 0.000000 
#    z 0.067950 0.000000 3.458950 
# 
# 
# High freq. dielectric constant tensor:
#      x y z
#    x 1.709750 0.000000 0.005100 
#    y 0.000000 1.669760 0.000000 
#    z 0.005100 0.000000 1.711480 
# 
# From -- ./inp_files/280212.got.cif
#   From: 2010.06.25/outbox.cif.g09.slc.cpg/sg12_141_cif.got.tgz:280212.got - 2010.06.28 00:19:55.
