data_PCOD8101641
_publ_section_title
;
Structure prediction by ZEFSAII (Michael W. Deem and Ramdas Pophale) SiO2 
 PCOD8101641
Probable space group: C 2/M
;
_chemical_formula_sum "Si O2"
_cell_formula_units_Z 56
_cell_length_a 22.692239
_cell_length_b 8.532091
_cell_length_c 14.747536
_cell_angle_alpha 90.000000
_cell_angle_beta 78.046638
_cell_angle_gamma 90.000000
_cell_volume 2793.390664
_symmetry_space_group_name_H-M "C 2/M"
_symmetry_group_IT_number 12
_symmetry_cell_setting 'monoclinic'
loop_
_space_group_symop_operation_xyz
x,y,z
-x,y,-z
-x,-y,-z
x,-y,z
1/2+x,1/2+y,z
1/2-x,1/2+y,-z
1/2-x,1/2-y,-z
1/2+x,1/2-y,z
loop_
_atom_site_type_symbol
_atom_site_label
_atom_site_fract_x
_atom_site_fract_y
_atom_site_fract_z
Si Si1 0.898154 0.820223 0.371595
Si Si2 0.349058 0.183469 0.207688
Si Si3 0.891802 0.815295 0.845674
Si Si4 0.026969 0.318202 0.331559
Si Si5 0.783435 0.815650 0.758818
Si Si6 0.873278 0.817356 0.579588
Si Si7 0.930925 0.686034 0.019241
O O1 0.869806 0.714501 0.302903
O O2 0.863340 0.783167 0.476668
O O3 0.967856 0.784292 0.364034
O O4 0.890244 0.000000 0.345900
O O5 0.283025 0.261274 0.211541
O O6 0.397919 0.248733 0.120493
O O7 0.344822 0.000000 0.194270
O O8 0.943521 0.726207 0.773854
O O9 0.826437 0.762110 0.827984
O O10 0.900975 0.000000 0.829772
O O11 0.895640 0.766673 0.948403
O O12 0.009459 0.500000 0.335720
O O13 0.070765 0.282848 0.401451
O O14 0.813471 0.765564 0.653336
O O15 0.775354 0.000000 0.763402
O O16 0.887901 0.000000 0.593041
O O17 0.927439 0.500000 0.009148
O O18 0.000000 0.743344 0.000000
#
# Coordination Sequence:
#
# PCOD8101641 Si02
#       7
#     8   8   8   8   8   8   8
#     4  11  22  35  53  79 111 146 183 225 274 323
#     4  10  21  37  56  77 108 148 186 227 271 320
#     4  10  20  36  59  82 108 143 180 223 274 327
#     4  11  21  34  55  83 112 141 179 225 271 326
#     4   8  17  36  57  78 106 143 184 223 271 323
#     4   9  19  36  56  78 109 146 181 224 275 324
#     4  10  21  36  54  80 112 143 179 225 276 325
#
# _framework density 20.047321
#
# number of rings (size 3 to 8) (size 9 to 14) (size 15 to 20)
#    0.000    2.143    0.000    4.286    0.000    6.000 
#    0.000    3.571    0.000    0.000    0.000    0.000 
#    0.000    0.000    0.000    0.000    0.000    0.000 
#
# Total GULP energy -347216.692622 kJ/mol
# GULP energy per Si atom -12400.596165 kJ/mol
# Density = 2.000169 g / cm^3
# Si number density = 20.047321 Si / 1000 Ang^3
#
#
#
# Elastic Constant Matrix: (Units=GPa)
#
#
# Indices 1 2 3 4 5 6 
#
# 1 141.6285 12.0010 72.4662 0.0000 -17.0113 0.0000
# 2 12.0010 19.7833 16.1909 0.0000 1.1745 0.0000
# 3 72.4662 16.1909 150.1595 0.0000 5.4010 0.0000
# 4 0.0000 0.0000 0.0000 29.1450 0.0000 7.9473
# 5 -17.0113 1.1745 5.4010 0.0000 18.5603 0.0000
# 6 0.0000 0.0000 0.0000 7.9473 0.0000 15.4861
#
#
#
# Elastic Compliance Matrix: (Units=1/GPa)
#
#
# Indices 1 2 3 4 5 6 
#
# 1 0.011847 -0.003169 -0.005834 0.000000 0.012756 0.000000
# 2 -0.003169 0.056346 -0.004359 0.000000 -0.005202 0.000000
# 3 -0.005834 -0.004359 0.010235 0.000000 -0.008050 0.000000
# 4 0.000000 0.000000 0.000000 0.039894 0.000000 -0.020473
# 5 0.012756 -0.005202 -0.008050 0.000000 0.068242 0.000000
# 6 0.000000 0.000000 0.000000 -0.020473 0.000000 0.075081
#
#
# Mechanical properties :
#
#
# Convention : Reuss Voigt Hill
#
# Bulk Modulus (GPa) = 19.34118 56.98749 38.16434
# Shear Modulus (GPa) = 16.36110 26.69916 21.53013
#
# Velocity S-wave (km/s) = 2.85989 3.65335 3.28070
# Velocity P-wave (km/s) = 4.53586 6.80325 5.78179
#
# Compressibility (1/GPa) = 0.05170314
#
# Stress axis : x y z
#
# Youngs Moduli (GPa) = 84.41244 17.74735 97.70675
#
# Poissons Ratio (x) = 0.05624 0.57004
# Poissons Ratio (y) = 0.26750 0.42591
# Poissons Ratio (z) = 0.49248 0.07736
#
# Static dielectric constant tensor:
#      x y z
#    x 3.904600 0.000000 -0.212720 
#    y 0.000000 3.360920 0.000000 
#    z -0.212720 0.000000 3.743290 
# 
# 
# High freq. dielectric constant tensor:
#      x y z
#    x 1.782090 0.000000 -0.002830 
#    y 0.000000 1.760920 0.000000 
#    z -0.002830 0.000000 1.789890 
# 
# From -- ./inp_files/230880.got.cif
#   From: 2010.06.25/outbox.cif.g09.slc.cpg/sg12_116_cif.got.tgz:230880.got - 2010.06.28 00:19:55.
