data_PCOD8101418
_publ_section_title
;
Structure prediction by ZEFSAII (Michael W. Deem and Ramdas Pophale) SiO2 
 PCOD8101418
Probable space group: C 2/M
;
_chemical_formula_sum "Si O2"
_cell_formula_units_Z 56
_cell_length_a 10.284111
_cell_length_b 17.982259
_cell_length_c 17.488706
_cell_angle_alpha 90.000000
_cell_angle_beta 116.400486
_cell_angle_gamma 90.000000
_cell_volume 2896.910838
_symmetry_space_group_name_H-M "C 2/M"
_symmetry_group_IT_number 12
_symmetry_cell_setting 'monoclinic'
loop_
_space_group_symop_operation_xyz
x,y,z
-x,y,-z
-x,-y,-z
x,-y,z
1/2+x,1/2+y,z
1/2-x,1/2+y,-z
1/2-x,1/2-y,-z
1/2+x,1/2-y,z
loop_
_atom_site_type_symbol
_atom_site_label
_atom_site_fract_x
_atom_site_fract_y
_atom_site_fract_z
Si Si1 0.833398 0.912145 0.456609
Si Si2 0.869714 0.155257 0.171990
Si Si3 0.349709 0.913344 0.998594
Si Si4 0.627162 0.827778 0.842932
Si Si5 0.799532 0.157632 0.736393
Si Si6 0.341620 0.087455 0.443547
Si Si7 0.700660 0.170328 0.279693
O O1 0.768878 0.884449 0.520325
O O2 0.745272 0.871152 0.367813
O O3 0.000000 0.887122 0.500000
O O4 0.816748 0.000000 0.439405
O O5 0.782160 0.101464 0.093211
O O6 0.857348 0.239794 0.139711
O O7 0.808118 0.145186 0.240865
O O8 0.035810 0.128981 0.215880
O O9 0.358467 0.000000 0.020813
O O10 0.500000 0.885341 0.000000
O O11 0.317391 0.868189 0.066917
O O12 0.728655 0.853618 0.800396
O O13 0.462760 0.852603 0.783841
O O14 0.712490 0.108212 0.654125
O O15 0.790712 0.241840 0.704521
O O16 0.500000 0.123313 0.500000
O O17 0.353612 0.000000 0.451439
#
# Coordination Sequence:
#
# PCOD8101418 Si02
#       7
#     8   8   8   8   8   8   8
#     4  10  21  35  54  81 112 149 190 235 285 335
#     4  10  21  39  59  84 118 150 186 236 288 338
#     4  11  23  39  61  89 116 148 193 236 280 339
#     4  10  21  39  59  84 116 150 191 232 283 347
#     4  10  22  36  58  86 110 149 190 234 288 332
#     4  10  21  37  54  77 112 149 186 229 283 343
#     4  10  20  36  58  82 112 147 192 237 277 337
#
# _framework density 19.330938
#
# number of rings (size 3 to 8) (size 9 to 14) (size 15 to 20)
#    0.000    1.857    1.429    2.143    0.000    4.000 
#    0.000    0.714    0.000    0.000    0.000    0.000 
#    0.000    0.000    0.000    0.000    0.000    0.000 
#
# Total GULP energy -347354.718852 kJ/mol
# GULP energy per Si atom -12405.525673 kJ/mol
# Density = 1.928694 g / cm^3
# Si number density = 19.330938 Si / 1000 Ang^3
#
#
#
# Elastic Constant Matrix: (Units=GPa)
#
#
# Indices 1 2 3 4 5 6 
#
# 1 138.5804 14.2460 32.7029 0.0000 10.3740 0.0000
# 2 14.2460 24.6136 18.6021 0.0000 -5.0369 0.0000
# 3 32.7029 18.6021 91.0559 0.0000 3.1120 0.0000
# 4 0.0000 0.0000 0.0000 19.5538 0.0000 13.2272
# 5 10.3740 -5.0369 3.1120 0.0000 27.8065 0.0000
# 6 0.0000 0.0000 0.0000 13.2272 0.0000 7.9559
#
#
#
# Elastic Compliance Matrix: (Units=1/GPa)
#
#
# Indices 1 2 3 4 5 6 
#
# 1 0.008390 -0.004039 -0.002064 0.000000 -0.003631 0.000000
# 2 -0.004039 0.052831 -0.009758 0.000000 0.012169 0.000000
# 3 -0.002064 -0.009758 0.013804 0.000000 -0.002542 0.000000
# 4 0.000000 0.000000 0.000000 -0.410301 0.000000 0.682154
# 5 -0.003631 0.012169 -0.002542 0.000000 0.039806 0.000000
# 6 0.000000 0.000000 0.000000 0.682154 0.000000 -1.008434
#
#
# Mechanical properties :
#
#
# Convention : Reuss Voigt Hill
#
# Bulk Modulus (GPa) = 23.09348 42.81687 32.95517
# Shear Modulus (GPa) = -3.97536 23.64317 9.83390
#
# Velocity S-wave (km/s) = -1.43560 3.50104 2.25791
# Velocity P-wave (km/s) = 3.03717 6.20810 4.88697
#
# Compressibility (1/GPa) = 0.04330226
#
# Stress axis : x y z
#
# Youngs Moduli (GPa) = 119.18750 18.92827 72.44272
#
# Poissons Ratio (x) = 0.07645 0.14953
# Poissons Ratio (y) = 0.48142 0.70691
# Poissons Ratio (z) = 0.24601 0.18471
#
# Static dielectric constant tensor:
#      x y z
#    x 3.901800 0.000000 -0.016370 
#    y 0.000000 3.328730 0.000000 
#    z -0.016370 0.000000 3.422480 
# 
# 
# High freq. dielectric constant tensor:
#      x y z
#    x 1.770590 0.000000 -0.000540 
#    y 0.000000 1.736930 0.000000 
#    z -0.000540 0.000000 1.759140 
# 
# From -- ./inp_files/197548.got.cif
#   From: 2010.06.25/outbox.cif.g09.slc.cpg/sg12_99_cif.got.tgz:197548.got - 2010.06.28 00:19:55.
