data_PCOD8101716
_publ_section_title
;
Structure prediction by ZEFSAII (Michael W. Deem and Ramdas Pophale) SiO2 
 PCOD8101716
Probable space group: C 2/M
;
_chemical_formula_sum "Si O2"
_cell_formula_units_Z 48
_cell_length_a 25.031486
_cell_length_b 8.757103
_cell_length_c 24.074240
_cell_angle_alpha 90.000000
_cell_angle_beta 150.877659
_cell_angle_gamma 90.000000
_cell_volume 2568.263910
_symmetry_space_group_name_H-M "C 2/M"
_symmetry_group_IT_number 12
_symmetry_cell_setting 'monoclinic'
loop_
_space_group_symop_operation_xyz
x,y,z
-x,y,-z
-x,-y,-z
x,-y,z
1/2+x,1/2+y,z
1/2-x,1/2+y,-z
1/2-x,1/2-y,-z
1/2+x,1/2-y,z
loop_
_atom_site_type_symbol
_atom_site_label
_atom_site_fract_x
_atom_site_fract_y
_atom_site_fract_z
Si Si1 0.575901 0.821110 0.020415
Si Si2 0.688829 0.820644 0.623701
Si Si3 0.596148 0.177899 0.223411
Si Si4 0.527218 0.678639 0.388353
Si Si5 0.815926 0.179748 0.264211
Si Si6 0.368001 0.820624 0.618563
O O1 0.699499 0.755519 0.135911
O O2 0.584752 0.000000 0.038957
O O3 0.500000 0.748706 0.000000
O O4 0.522124 0.785446 0.911606
O O5 0.815110 0.776207 0.729346
O O6 0.618219 0.738105 0.513021
O O7 0.649578 0.766192 0.648438
O O8 0.672119 0.000000 0.602903
O O9 0.591039 0.225355 0.282967
O O10 0.626775 0.000000 0.243928
O O11 0.545707 0.500000 0.397939
O O12 0.405788 0.718789 0.299298
O O13 0.541809 0.757192 0.341972
O O14 0.813249 0.000000 0.274745
O O15 0.250000 0.750000 0.500000
O O16 0.357589 0.000000 0.601777
#
# Coordination Sequence:
#
# PCOD8101716 Si02
#       6
#     8   8   8   8   8   8
#     4   9  16  32  61  86 107 142 190 234 271 329
#     4  12  23  34  55  85 118 148 181 232 288 340
#     4  10  20  36  59  85 112 145 188 232 277 334
#     4  11  23  38  57  81 114 152 191 233 281 336
#     4  10  21  38  59  83 112 150 191 231 279 338
#     4  11  22  36  58  84 114 150 189 234 280 330
#
# _framework density 18.689668999999999
#
# number of rings (size 3 to 8) (size 9 to 14) (size 15 to 20)
#    0.000    1.500    3.333    3.000    0.000    4.000 
#    0.000    2.500    0.000    0.000    0.000    0.000 
#    0.000    0.000    0.000    0.000    0.000    0.000 
#
# Total GULP energy -297661.616002 kJ/mol
# GULP energy per Si atom -12402.567333 kJ/mol
# Density = 1.864713 g / cm^3
# Si number density = 18.689669 Si / 1000 Ang^3
#
#
#
# Elastic Constant Matrix: (Units=GPa)
#
#
# Indices 1 2 3 4 5 6 
#
# 1 134.6574 37.3185 40.5587 0.0000 -8.4782 0.0000
# 2 37.3185 50.4790 5.7027 0.0000 -3.5273 0.0000
# 3 40.5587 5.7027 69.1097 0.0000 -8.5570 0.0000
# 4 0.0000 0.0000 0.0000 13.2247 0.0000 -1.8387
# 5 -8.4782 -3.5273 -8.5570 0.0000 34.6836 0.0000
# 6 0.0000 0.0000 0.0000 -1.8387 0.0000 32.1771
#
#
#
# Elastic Compliance Matrix: (Units=1/GPa)
#
#
# Indices 1 2 3 4 5 6 
#
# 1 0.011402 -0.007716 -0.005990 0.000000 0.000525 0.000000
# 2 -0.007716 0.025313 0.002604 0.000000 0.001331 0.000000
# 3 -0.005990 0.002604 0.018177 0.000000 0.003285 0.000000
# 4 0.000000 0.000000 0.000000 0.076221 0.000000 0.004356
# 5 0.000525 0.001331 0.003285 0.000000 0.029906 0.000000
# 6 0.000000 0.000000 0.000000 0.004356 0.000000 0.031327
#
#
# Mechanical properties :
#
#
# Convention : Reuss Voigt Hill
#
# Bulk Modulus (GPa) = 30.59117 46.82286 38.70701
# Shear Modulus (GPa) = 22.17833 27.39485 24.78659
#
# Velocity S-wave (km/s) = 3.44853 3.83270 3.64568
# Velocity P-wave (km/s) = 5.67979 6.68530 6.20295
#
# Compressibility (1/GPa) = 0.03268917
#
# Stress axis : x y z
#
# Youngs Moduli (GPa) = 87.70603 39.50502 55.01500
#
# Poissons Ratio (x) = 0.30481 0.32953
# Poissons Ratio (y) = 0.67672 -0.14327
# Poissons Ratio (z) = 0.52534 -0.10288
#
# Static dielectric constant tensor:
#      x y z
#    x 3.599380 0.000000 0.011450 
#    y 0.000000 3.293700 0.000000 
#    z 0.011450 0.000000 3.554090 
# 
# 
# High freq. dielectric constant tensor:
#      x y z
#    x 1.727470 0.000000 -0.004100 
#    y 0.000000 1.709950 0.000000 
#    z -0.004100 0.000000 1.726510 
# 
# From -- ./inp_files/172416.got.cif
#   From: 2010.06.25/outbox.cif.g09.slc.cpg/sg12_87_cif.got.tgz:172416.got - 2010.06.28 00:19:55.
