data_PCOD8101926
_publ_section_title
;
Structure prediction by ZEFSAII (Michael W. Deem and Ramdas Pophale) SiO2 
 PCOD8101926
Probable space group: C 2/M
;
_chemical_formula_sum "Si O2"
_cell_formula_units_Z 48
_cell_length_a 8.704934
_cell_length_b 25.620592
_cell_length_c 13.259580
_cell_angle_alpha 90.000000
_cell_angle_beta 119.360495
_cell_angle_gamma 90.000000
_cell_volume 2577.375845
_symmetry_space_group_name_H-M "C 2/M"
_symmetry_group_IT_number 12
_symmetry_cell_setting 'monoclinic'
loop_
_space_group_symop_operation_xyz
x,y,z
-x,y,-z
-x,-y,-z
x,-y,z
1/2+x,1/2+y,z
1/2-x,1/2+y,-z
1/2-x,1/2-y,-z
1/2+x,1/2-y,z
loop_
_atom_site_type_symbol
_atom_site_label
_atom_site_fract_x
_atom_site_fract_y
_atom_site_fract_z
Si Si1 0.003087 0.597191 0.621967
Si Si2 0.797721 0.302980 0.628035
Si Si3 0.382368 0.500000 0.213710
Si Si4 0.902423 0.897238 0.761804
Si Si5 0.732129 0.000000 0.949863
Si Si6 0.392336 0.000000 0.706368
Si Si7 0.465699 0.699272 0.642100
Si Si8 0.000000 0.087094 0.000000
O O1 0.201630 0.589244 0.721025
O O2 0.000000 0.599993 0.500000
O O3 0.923197 0.648351 0.648247
O O4 0.893932 0.549084 0.631741
O O5 0.657497 0.297078 0.494366
O O6 0.674219 0.307766 0.687354
O O7 0.926841 0.253549 0.687019
O O8 0.504013 0.448859 0.249809
O O9 0.290673 0.500000 0.292659
O O10 0.242273 0.500000 0.075778
O O11 0.906526 0.850315 0.685776
O O12 0.995993 0.878662 0.896665
O O13 0.827580 0.948926 0.938188
O O14 0.536898 0.000000 0.842032
#
# Coordination Sequence:
#
# PCOD8101926 Si02
#       8
#     8   8   4   8   4   4   8   4
#     4  12  23  37  56  84 117 153 188 227 285 342
#     4  10  21  36  57  86 110 149 190 231 277 337
#     4  10  23  36  58  83 116 151 195 233 280 334
#     4  11  20  38  59  84 115 152 188 236 283 331
#     4   9  17  35  57  83 107 151 197 235 268 330
#     4  12  22  37  54  86 120 151 185 236 284 339
#     4  10  20  36  60  82 114 145 190 237 278 328
#     4   9  18  34  60  84 110 146 196 233 278 330
#
# _framework density 18.623593
#
# number of rings (size 3 to 8) (size 9 to 14) (size 15 to 20)
#    0.000    1.500    3.333    3.500    2.333    0.000 
#    0.000    0.833    0.000    4.000    0.000    0.000 
#    0.000    0.000    0.000    0.000    0.000    0.000 
#
# Total GULP energy -297477.382084 kJ/mol
# GULP energy per Si atom -12394.890920 kJ/mol
# Density = 1.858120 g / cm^3
# Si number density = 18.623593 Si / 1000 Ang^3
#
#
#
# Elastic Constant Matrix: (Units=GPa)
#
#
# Indices 1 2 3 4 5 6 
#
# 1 120.8538 43.8309 26.2123 0.0000 -11.9323 0.0000
# 2 43.8309 118.0109 18.8322 0.0000 -8.5509 0.0000
# 3 26.2123 18.8322 40.2999 0.0000 -2.1676 0.0000
# 4 0.0000 0.0000 0.0000 42.4436 0.0000 -18.9411
# 5 -11.9323 -8.5509 -2.1676 0.0000 26.5773 0.0000
# 6 0.0000 0.0000 0.0000 -18.9411 0.0000 50.5831
#
#
#
# Elastic Compliance Matrix: (Units=1/GPa)
#
#
# Indices 1 2 3 4 5 6 
#
# 1 0.010871 -0.002902 -0.005526 0.000000 0.003496 0.000000
# 2 -0.002902 0.010115 -0.002746 0.000000 0.001727 0.000000
# 3 -0.005526 -0.002746 0.029641 0.000000 -0.000947 0.000000
# 4 0.000000 0.000000 0.000000 0.028288 0.000000 0.010592
# 5 0.003496 0.001727 -0.000947 0.000000 0.039674 0.000000
# 6 0.000000 0.000000 0.000000 0.010592 0.000000 0.023736
#
#
# Mechanical properties :
#
#
# Convention : Reuss Voigt Hill
#
# Bulk Modulus (GPa) = 35.36440 50.76837 43.06639
# Shear Modulus (GPa) = 28.71909 36.60675 32.66292
#
# Velocity S-wave (km/s) = 3.93119 4.43833 4.19244
# Velocity P-wave (km/s) = 6.29571 7.32014 6.82717
#
# Compressibility (1/GPa) = 0.02827702
#
# Stress axis : x y z
#
# Youngs Moduli (GPa) = 91.98858 98.86148 33.73726
#
# Poissons Ratio (x) = 0.28693 0.18645
# Poissons Ratio (y) = 0.26699 0.09265
# Poissons Ratio (z) = 0.50837 0.27149
#
# Static dielectric constant tensor:
#      x y z
#    x 3.626290 0.000000 -0.128270 
#    y 0.000000 3.367970 0.000000 
#    z -0.128270 0.000000 3.313470 
# 
# 
# High freq. dielectric constant tensor:
#      x y z
#    x 1.735570 0.000000 -0.009710 
#    y 0.000000 1.718180 0.000000 
#    z -0.009710 0.000000 1.704610 
# 
# From -- ./inp_files/122647.got.cif
#   From: 2010.06.25/outbox.cif.g09.slc.cpg/sg12_62_cif.got.tgz:122647.got - 2010.06.28 00:19:55.
