data_PCOD8101987
_publ_section_title
;
Structure prediction by ZEFSAII (Michael W. Deem and Ramdas Pophale) SiO2 
 PCOD8101987
Probable space group: C 2/M
;
_chemical_formula_sum "Si O2"
_cell_formula_units_Z 64
_cell_length_a 30.970879
_cell_length_b 18.892571
_cell_length_c 9.436032
_cell_angle_alpha 90.000000
_cell_angle_beta 142.350677
_cell_angle_gamma 90.000000
_cell_volume 3372.501957
_symmetry_space_group_name_H-M "C 2/M"
_symmetry_group_IT_number 12
_symmetry_cell_setting 'monoclinic'
loop_
_space_group_symop_operation_xyz
x,y,z
-x,y,-z
-x,-y,-z
x,-y,z
1/2+x,1/2+y,z
1/2-x,1/2+y,-z
1/2-x,1/2-y,-z
1/2+x,1/2-y,z
loop_
_atom_site_type_symbol
_atom_site_label
_atom_site_fract_x
_atom_site_fract_y
_atom_site_fract_z
Si Si1 0.528272 0.284792 0.719775
Si Si2 0.699447 0.199595 0.542912
Si Si3 0.062958 0.788088 0.255563
Si Si4 0.330572 0.797033 0.855088
Si Si5 0.632766 0.420127 0.326514
Si Si6 0.386375 0.579397 0.045275
Si Si7 0.752710 0.580125 0.143688
Si Si8 0.227286 0.418829 0.131160
O O1 0.500000 0.252795 0.500000
O O2 0.460050 0.283793 0.642286
O O3 0.551336 0.366176 0.760163
O O4 0.592294 0.237918 0.946150
O O5 0.636602 0.249521 0.428415
O O6 0.689633 0.177276 0.354616
O O7 0.773775 0.239408 0.761463
O O8 0.696073 0.130160 0.632099
O O9 0.071765 0.868990 0.225941
O O10 0.000000 0.753055 0.000000
O O11 0.332038 0.865249 0.962906
O O12 0.606617 0.500000 0.284971
O O13 0.704399 0.404728 0.596024
O O14 0.647073 0.405226 0.197154
O O15 0.417844 0.500000 0.132461
O O16 0.327098 0.589192 0.010378
O O17 0.779293 0.500000 0.236002
O O18 0.755129 0.600810 0.984951
O O19 0.200961 0.500000 0.076398
#
# Coordination Sequence:
#
# PCOD8101987 Si02
#       8
#     8   8   8   8   8   8   8   8
#     4  12  27  40  57  89 128 163 200 247 307 360
#     4  11  22  38  67  89 118 160 205 254 296 352
#     4  12  23  40  58  89 126 158 200 251 298 357
#     4  11  22  40  63  91 118 159 210 248 296 359
#     4  10  20  36  60  86 119 166 206 240 290 354
#     4  10  20  38  59  84 121 166 207 241 289 356
#     4  10  22  38  61  92 123 154 200 255 304 353
#     4  10  22  38  61  92 122 154 202 255 303 354
#
# _framework density 18.97701
#
# number of rings (size 3 to 8) (size 9 to 14) (size 15 to 20)
#    0.000    1.250    5.000    0.750    3.500    3.000 
#    0.000    0.000    0.000    1.500    0.000    0.000 
#    0.000    0.000    0.000    0.000    0.000    0.000 
#
# Total GULP energy -396881.178390 kJ/mol
# GULP energy per Si atom -12402.536825 kJ/mol
# Density = 1.893382 g / cm^3
# Si number density = 18.977010 Si / 1000 Ang^3
#
#
#
# Elastic Constant Matrix: (Units=GPa)
#
#
# Indices 1 2 3 4 5 6 
#
# 1 122.9517 49.7798 19.7800 0.0000 -12.4571 0.0000
# 2 49.7798 84.4720 26.7190 0.0000 -8.3653 0.0000
# 3 19.7800 26.7190 57.0101 0.0000 -7.8636 0.0000
# 4 0.0000 0.0000 0.0000 22.6893 0.0000 -5.6326
# 5 -12.4571 -8.3653 -7.8636 0.0000 31.4338 0.0000
# 6 0.0000 0.0000 0.0000 -5.6326 0.0000 28.7336
#
#
#
# Elastic Compliance Matrix: (Units=1/GPa)
#
#
# Indices 1 2 3 4 5 6 
#
# 1 0.010916 -0.005979 -0.000630 0.000000 0.002577 0.000000
# 2 -0.005979 0.017314 -0.005936 0.000000 0.000753 0.000000
# 3 -0.000630 -0.005936 0.021014 0.000000 0.003428 0.000000
# 4 0.000000 0.000000 0.000000 0.046328 0.000000 0.009082
# 5 0.002577 0.000753 0.003428 0.000000 0.033892 0.000000
# 6 0.000000 0.000000 0.000000 0.009082 0.000000 0.036583
#
#
# Mechanical properties :
#
#
# Convention : Reuss Voigt Hill
#
# Bulk Modulus (GPa) = 41.39974 50.77682 46.08828
# Shear Modulus (GPa) = 25.10186 27.78168 26.44177
#
# Velocity S-wave (km/s) = 3.64091 3.83033 3.73682
# Velocity P-wave (km/s) = 6.28793 6.81007 6.55420
#
# Compressibility (1/GPa) = 0.02415474
#
# Stress axis : x y z
#
# Youngs Moduli (GPa) = 91.60605 57.75770 47.58667
#
# Poissons Ratio (x) = 0.34531 0.02998
# Poissons Ratio (y) = 0.54767 0.28249
# Poissons Ratio (z) = 0.05771 0.34287
#
# Static dielectric constant tensor:
#      x y z
#    x 3.551390 0.000000 -0.209670 
#    y 0.000000 3.594720 0.000000 
#    z -0.209670 0.000000 3.295450 
# 
# 
# High freq. dielectric constant tensor:
#      x y z
#    x 1.741770 0.000000 -0.018490 
#    y 0.000000 1.735610 0.000000 
#    z -0.018490 0.000000 1.722890 
# 
# From -- ./inp_files/99074.got.cif
#   From: 2010.06.25/outbox.cif.g09.slc.cpg/sg12_50_cif.got.tgz:99074.got - 2010.06.28 00:19:55.
