data_PCOD8101919
_publ_section_title
;
Structure prediction by ZEFSAII (Michael W. Deem and Ramdas Pophale) SiO2 
 PCOD8101919
Probable space group: C 2/M
;
_chemical_formula_sum "Si O2"
_cell_formula_units_Z 60
_cell_length_a 19.296741
_cell_length_b 21.584068
_cell_length_c 17.922178
_cell_angle_alpha 90.000000
_cell_angle_beta 156.209470
_cell_angle_gamma 90.000000
_cell_volume 3011.185828
_symmetry_space_group_name_H-M "C 2/M"
_symmetry_group_IT_number 12
_symmetry_cell_setting 'monoclinic'
loop_
_space_group_symop_operation_xyz
x,y,z
-x,y,-z
-x,-y,-z
x,-y,z
1/2+x,1/2+y,z
1/2-x,1/2+y,-z
1/2-x,1/2-y,-z
1/2+x,1/2-y,z
loop_
_atom_site_type_symbol
_atom_site_label
_atom_site_fract_x
_atom_site_fract_y
_atom_site_fract_z
Si Si1 0.474398 0.333531 0.351130
Si Si2 0.071841 0.430058 0.258363
Si Si3 0.306290 0.153765 0.747545
Si Si4 0.500000 0.259598 0.000000
Si Si5 0.268129 0.069410 0.848649
Si Si6 0.762804 0.285334 0.146816
Si Si7 0.911425 0.669382 0.608932
Si Si8 0.549443 0.290527 0.266375
O O1 0.613051 0.318812 0.552852
O O2 0.413850 0.404040 0.304183
O O3 0.310896 0.287370 0.197537
O O4 0.555674 0.328397 0.349489
O O5 0.141446 0.500000 0.336111
O O6 0.192251 0.390734 0.322556
O O7 0.069667 0.399284 0.338507
O O8 0.884860 0.430076 0.037006
O O9 0.345526 0.113693 0.860520
O O10 0.430654 0.213987 0.865660
O O11 0.655959 0.300179 0.118177
O O12 0.247207 0.000000 0.795897
O O13 0.941984 0.322784 0.311214
O O14 0.630958 0.303393 0.951393
O O15 0.718563 0.684806 0.387073
O O16 0.942345 0.717483 0.707403
#
# Coordination Sequence:
#
# PCOD8101919 Si02
#       8
#     8   8   8   4   8   8   8   8
#     4  11  21  36  54  78 109 156 198 250 284 326
#     4  11  21  37  58  81 114 155 200 243 279 329
#     4  12  21  35  53  76 121 159 204 232 276 329
#     4  12  24  36  57  84 117 154 190 238 288 348
#     4  11  22  34  50  75 114 170 211 235 269 318
#     4  11  23  37  58  81 111 144 186 245 297 348
#     4  10  20  37  57  82 106 144 194 240 293 340
#     4  10  20  36  60  78 107 146 193 241 296 339
#
# _framework density 19.925706000000002
#
# number of rings (size 3 to 8) (size 9 to 14) (size 15 to 20)
#    0.000    1.067    4.000    4.800    3.733    2.667 
#    0.000    0.000    0.000    0.000    0.000    0.467 
#    0.000    1.067    0.000    0.000    0.000    0.000 
#
# Total GULP energy -371751.668139 kJ/mol
# GULP energy per Si atom -12391.722271 kJ/mol
# Density = 1.988035 g / cm^3
# Si number density = 19.925706 Si / 1000 Ang^3
#
#
#
# Elastic Constant Matrix: (Units=GPa)
#
#
# Indices 1 2 3 4 5 6 
#
# 1 67.1696 28.6809 13.6990 0.0009 30.8404 0.0000
# 2 28.6809 58.5699 10.2347 -0.0007 3.1140 0.0001
# 3 13.6990 10.2347 97.3720 0.0091 18.6804 0.0027
# 4 0.0009 -0.0007 0.0091 17.7190 0.0038 -0.6602
# 5 30.8404 3.1140 18.6804 0.0038 33.8134 0.0006
# 6 0.0000 0.0001 0.0027 -0.6602 0.0006 27.3367
#
#
#
# Elastic Compliance Matrix: (Units=1/GPa)
#
#
# Indices 1 2 3 4 5 6 
#
# 1 0.037045 -0.016873 0.003071 0.000003 -0.033931 0.000001
# 2 -0.016873 0.025092 -0.003101 0.000000 0.014792 0.000000
# 3 0.003071 -0.003101 0.011909 -0.000004 -0.009094 -0.000001
# 4 0.000003 0.000000 -0.000004 0.056487 -0.000007 0.001364
# 5 -0.033931 0.014792 -0.009094 -0.000007 0.064184 -0.000001
# 6 0.000001 0.000000 -0.000001 0.001364 -0.000001 0.036614
#
#
# Mechanical properties :
#
#
# Convention : Reuss Voigt Hill
#
# Bulk Modulus (GPa) = 24.85171 36.48232 30.66701
# Shear Modulus (GPa) = 17.95011 27.14027 22.54519
#
# Velocity S-wave (km/s) = 3.00468 3.69463 3.36737
# Velocity P-wave (km/s) = 4.95345 6.04560 5.52657
#
# Compressibility (1/GPa) = 0.04023869
#
# Stress axis : x y z
#
# Youngs Moduli (GPa) = 26.99408 39.85380 83.97348
#
# Poissons Ratio (x) = 0.67246 -0.25790
# Poissons Ratio (y) = 0.45548 0.26043
# Poissons Ratio (z) = -0.08290 0.12360
#
# Static dielectric constant tensor:
#      x y z
#    x 3.482030 0.000000 0.179250 
#    y 0.000000 3.392830 0.000000 
#    z 0.179250 0.000000 3.815430 
# 
# 
# High freq. dielectric constant tensor:
#      x y z
#    x 1.755290 0.000000 0.018440 
#    y 0.000000 1.727490 0.000000 
#    z 0.018440 0.000000 1.798880 
# 
# From -- ./inp_files/322989.got.cif
#   From: 2010.06.25/outbox.cif.g09.slc.cpg/sg12_162_cif.got.tgz:322989.got - 2010.06.28 00:19:55.
