data_PCOD8101927
_publ_section_title
;
Structure prediction by ZEFSAII (Michael W. Deem and Ramdas Pophale) SiO2 
 PCOD8101927
Probable space group: C 2/M
;
_chemical_formula_sum "Si O2"
_cell_formula_units_Z 48
_cell_length_a 22.204350
_cell_length_b 15.870174
_cell_length_c 20.830747
_cell_angle_alpha 90.000000
_cell_angle_beta 20.863322
_cell_angle_gamma 90.000000
_cell_volume 2614.238592
_symmetry_space_group_name_H-M "C 2/M"
_symmetry_group_IT_number 12
_symmetry_cell_setting 'monoclinic'
loop_
_space_group_symop_operation_xyz
x,y,z
-x,y,-z
-x,-y,-z
x,-y,z
1/2+x,1/2+y,z
1/2-x,1/2+y,-z
1/2-x,1/2-y,-z
1/2+x,1/2-y,z
loop_
_atom_site_type_symbol
_atom_site_label
_atom_site_fract_x
_atom_site_fract_y
_atom_site_fract_z
Si Si1 0.558784 0.500000 0.014042
Si Si2 0.272617 0.098956 0.456221
Si Si3 0.453071 0.320381 0.121049
Si Si4 0.046158 0.500000 0.380046
Si Si5 0.925777 0.698875 0.897496
Si Si6 0.118256 0.338046 0.517132
Si Si7 0.555021 0.307784 0.246374
O O1 0.756667 0.500000 0.824155
O O2 0.500000 0.500000 0.000000
O O3 0.489604 0.413878 0.114963
O O4 0.426758 0.129720 0.257339
O O5 0.285160 0.144137 0.512434
O O6 0.092042 0.121872 0.604091
O O7 0.287154 0.000000 0.449991
O O8 0.557876 0.246863 0.051102
O O9 0.253449 0.305413 0.330229
O O10 0.500000 0.317344 0.000000
O O11 0.000000 0.500000 0.500000
O O12 0.976269 0.418940 0.414423
O O13 0.940922 0.770091 0.828626
O O14 0.740546 0.654256 0.078465
O O15 0.982087 0.264802 0.664239
#
# Coordination Sequence:
#
# PCOD8101927 Si02
#       7
#     4   8   8   4   8   8   8
#     4  10  22  34  46  78 114 160 200 225 269 333
#     4  11  21  38  60  85 115 149 195 256 301 338
#     4  11  20  35  56  81 120 159 193 236 287 349
#     4  12  22  34  52  80 122 160 197 228 273 355
#     4  10  20  37  57  85 115 148 198 243 295 356
#     4  11  20  37  55  82 115 157 196 236 287 351
#     4  10  20  36  60  82 114 153 195 250 295 342
#
# _framework density 18.360986
#
# number of rings (size 3 to 8) (size 9 to 14) (size 15 to 20)
#    0.000    1.333    4.167    4.500    0.000    0.667 
#    0.000    0.000    0.000    0.500    0.000    1.167 
#    0.000    0.000    0.000    0.000    0.000    0.000 
#
# Total GULP energy -297567.247660 kJ/mol
# GULP energy per Si atom -12398.635319 kJ/mol
# Density = 1.831920 g / cm^3
# Si number density = 18.360986 Si / 1000 Ang^3
#
#
#
# Elastic Constant Matrix: (Units=GPa)
#
#
# Indices 1 2 3 4 5 6 
#
# 1 56.0783 12.4123 36.7323 -0.0141 5.0004 0.0034
# 2 12.4123 33.0360 26.8881 -0.0439 3.9836 0.0180
# 3 36.7323 26.8881 144.3693 -0.0563 -12.8707 0.0198
# 4 -0.0141 -0.0439 -0.0563 20.9971 0.0127 2.8834
# 5 5.0004 3.9836 -12.8707 0.0127 34.4362 -0.0010
# 6 0.0034 0.0180 0.0198 2.8834 -0.0010 22.7696
#
#
#
# Elastic Compliance Matrix: (Units=1/GPa)
#
#
# Indices 1 2 3 4 5 6 
#
# 1 0.022685 -0.003372 -0.005589 -0.000004 -0.004993 0.000005
# 2 -0.003372 0.037808 -0.006755 0.000067 -0.006409 -0.000032
# 3 -0.005589 -0.006755 0.010085 0.000006 0.005362 -0.000003
# 4 -0.000004 0.000067 0.000006 0.048469 -0.000023 -0.006138
# 5 -0.004993 -0.006409 0.005362 -0.000023 0.032510 0.000005
# 6 0.000005 -0.000032 -0.000003 -0.006138 0.000005 0.044696
#
#
# Mechanical properties :
#
#
# Convention : Reuss Voigt Hill
#
# Bulk Modulus (GPa) = 25.54587 42.83880 34.19233
# Shear Modulus (GPa) = 20.77009 26.13730 23.45369
#
# Velocity S-wave (km/s) = 3.36699 3.77705 3.57790
# Velocity P-wave (km/s) = 5.39063 6.51180 5.97756
#
# Compressibility (1/GPa) = 0.03914527
#
# Stress axis : x y z
#
# Youngs Moduli (GPa) = 44.08296 26.44970 99.15989
#
# Poissons Ratio (x) = 0.08920 0.55418
# Poissons Ratio (y) = 0.14866 0.66980
# Poissons Ratio (z) = 0.24637 0.17866
#
# Static dielectric constant tensor:
#      x y z
#    x 3.231650 0.000000 -0.090670 
#    y 0.000000 3.015280 -0.000070 
#    z -0.090670 -0.000070 3.707250 
# 
# 
# High freq. dielectric constant tensor:
#      x y z
#    x 1.685730 0.000000 -0.006000 
#    y 0.000000 1.689070 0.000000 
#    z -0.006000 0.000000 1.735910 
# 
# From -- ./inp_files/95709.got.cif
#   From: 2010.06.25/outbox.cif.g09.slc.cpg/sg12_48_cif.got.tgz:95709.got - 2010.06.28 00:19:55.
