data_PCOD8101324
_publ_section_title
;
Structure prediction by ZEFSAII (Michael W. Deem and Ramdas Pophale) SiO2 
 PCOD8101324
Probable space group: C 2/M
;
_chemical_formula_sum "Si O2"
_cell_formula_units_Z 56
_cell_length_a 8.856065
_cell_length_b 19.376898
_cell_length_c 28.310275
_cell_angle_alpha 90.000000
_cell_angle_beta 38.556886
_cell_angle_gamma 90.000000
_cell_volume 3028.030393
_symmetry_space_group_name_H-M "C 2/M"
_symmetry_group_IT_number 12
_symmetry_cell_setting 'monoclinic'
loop_
_space_group_symop_operation_xyz
x,y,z
-x,y,-z
-x,-y,-z
x,-y,z
1/2+x,1/2+y,z
1/2-x,1/2+y,-z
1/2-x,1/2-y,-z
1/2+x,1/2-y,z
loop_
_atom_site_type_symbol
_atom_site_label
_atom_site_fract_x
_atom_site_fract_y
_atom_site_fract_z
Si Si1 0.086548 0.179335 0.794599
Si Si2 0.125372 0.822830 0.378346
Si Si3 0.483885 0.822826 0.378124
Si Si4 0.322237 0.080898 0.499841
Si Si5 0.119871 0.078175 0.923396
Si Si6 0.558706 0.179112 0.205574
Si Si7 0.763290 0.078177 0.923373
O O1 0.254671 0.161281 0.708709
O O2 0.247674 0.188105 0.801026
O O3 0.945746 0.250202 0.821906
O O4 0.886853 0.119937 0.850408
O O5 0.272467 0.819478 0.391109
O O6 0.297666 0.838933 0.291553
O O7 0.989194 0.749960 0.404434
O O8 0.935855 0.884902 0.426139
O O9 0.435806 0.885086 0.425507
O O10 0.500000 0.093688 0.500000
O O11 0.282249 0.000000 0.499923
O O12 0.361653 0.119639 0.850228
O O13 0.922321 0.082983 0.931088
O O14 0.204412 0.000000 0.911839
O O15 0.000000 0.109463 0.000000
O O16 0.737333 0.000000 0.911549
O O17 0.500000 0.109299 0.000000
#
# Coordination Sequence:
#
# PCOD8101324 Si02
#       7
#     8   8   8   8   8   8   8
#     4   9  19  34  53  77 103 132 167 210 254 298
#     4  10  20  36  58  80 104 137 175 213 257 310
#     4  10  20  36  58  80 104 137 175 213 257 310
#     4  11  24  39  54  77 109 139 170 213 260 305
#     4   9  18  33  51  72 100 134 171 209 251 299
#     4   9  19  34  53  77 103 132 167 210 254 298
#     4   9  18  33  51  72 100 134 171 209 251 299
#
# _framework density 18.493870999999999
#
# number of rings (size 3 to 8) (size 9 to 14) (size 15 to 20)
#    0.000    2.429    0.000    1.714    0.000    5.143 
#    0.000    5.714    0.000    3.429    0.000    0.000 
#    0.000    0.000    0.000    0.000    0.000    0.000 
#
# Total GULP energy -347239.010128 kJ/mol
# GULP energy per Si atom -12401.393219 kJ/mol
# Density = 1.845178 g / cm^3
# Si number density = 18.493871 Si / 1000 Ang^3
#
#
#
# Elastic Constant Matrix: (Units=GPa)
#
#
# Indices 1 2 3 4 5 6 
#
# 1 55.6901 49.0881 40.4118 0.0809 -2.3962 -0.0253
# 2 49.0881 133.5722 90.1159 0.0847 -2.1247 -0.0052
# 3 40.4118 90.1159 137.1672 0.2811 -1.9468 -0.0851
# 4 0.0809 0.0847 0.2811 46.8776 -0.1167 -1.1011
# 5 -2.3962 -2.1247 -1.9468 -0.1167 30.7620 0.0312
# 6 -0.0253 -0.0052 -0.0851 -1.1011 0.0312 29.9125
#
#
#
# Elastic Compliance Matrix: (Units=1/GPa)
#
#
# Indices 1 2 3 4 5 6 
#
# 1 0.027120 -0.008203 -0.002581 -0.000013 0.001383 0.000012
# 2 -0.008203 0.015932 -0.008051 0.000033 -0.000048 -0.000026
# 3 -0.002581 -0.008051 0.013342 -0.000060 0.000087 0.000032
# 4 -0.000013 0.000033 -0.000060 0.021351 0.000078 0.000786
# 5 0.001383 -0.000048 0.000087 0.000078 0.032618 -0.000030
# 6 0.000012 -0.000026 0.000032 0.000786 -0.000030 0.033460
#
#
# Mechanical properties :
#
#
# Convention : Reuss Voigt Hill
#
# Bulk Modulus (GPa) = 53.41045 76.18453 64.79749
# Shear Modulus (GPa) = 26.63343 31.29800 28.96572
#
# Velocity S-wave (km/s) = 3.79901 4.11827 3.96186
# Velocity P-wave (km/s) = 6.94162 7.99359 7.48611
#
# Compressibility (1/GPa) = 0.01872293
#
# Stress axis : x y z
#
# Youngs Moduli (GPa) = 36.87358 62.76550 74.95404
#
# Poissons Ratio (x) = 0.51489 0.19344
# Poissons Ratio (y) = 0.30249 0.60346
# Poissons Ratio (z) = 0.09516 0.50533
#
# Static dielectric constant tensor:
#      x y z
#    x 3.358920 0.000010 -0.015530 
#    y 0.000010 3.519830 0.000000 
#    z -0.015530 0.000000 3.679920 
# 
# 
# High freq. dielectric constant tensor:
#      x y z
#    x 1.717230 0.000000 -0.000610 
#    y 0.000000 1.712740 0.000000 
#    z -0.000610 0.000000 1.729070 
# 
# From -- ./inp_files/256997.got.cif
#   From: 2010.06.25/outbox.cif.g09.slc.cpg/sg12_129_cif.got.tgz:256997.got - 2010.06.28 00:19:55.
