data_PCOD8101444
_publ_section_title
;
Structure prediction by ZEFSAII (Michael W. Deem and Ramdas Pophale) SiO2 
 PCOD8101444
Probable space group: C 2/M
;
_chemical_formula_sum "Si O2"
_cell_formula_units_Z 64
_cell_length_a 20.231030
_cell_length_b 9.027840
_cell_length_c 21.940339
_cell_angle_alpha 90.000000
_cell_angle_beta 123.254660
_cell_angle_gamma 90.000000
_cell_volume 3351.019293
_symmetry_space_group_name_H-M "C 2/M"
_symmetry_group_IT_number 12
_symmetry_cell_setting 'monoclinic'
loop_
_space_group_symop_operation_xyz
x,y,z
-x,y,-z
-x,-y,-z
x,-y,z
1/2+x,1/2+y,z
1/2-x,1/2+y,-z
1/2-x,1/2-y,-z
1/2+x,1/2-y,z
loop_
_atom_site_type_symbol
_atom_site_label
_atom_site_fract_x
_atom_site_fract_y
_atom_site_fract_z
Si Si1 0.688145 0.327224 0.592812
Si Si2 0.227595 0.828300 0.050308
Si Si3 0.597581 0.675547 0.429540
Si Si4 0.649539 0.324088 0.322646
Si Si5 0.420878 0.327931 0.349142
Si Si6 0.632504 0.174171 0.795345
Si Si7 0.046998 0.171779 0.963390
Si Si8 0.507399 0.824588 0.185563
O O1 0.711372 0.500000 0.601563
O O2 0.656128 0.266457 0.511827
O O3 0.763716 0.232515 0.650637
O O4 0.619032 0.298662 0.606260
O O5 0.285407 0.772455 0.133025
O O6 0.242464 0.000000 0.046219
O O7 0.250000 0.750000 0.000000
O O8 0.138216 0.793144 0.023931
O O9 0.594699 0.500000 0.431878
O O10 0.629130 0.731329 0.380480
O O11 0.509480 0.738816 0.395731
O O12 0.645566 0.500000 0.314904
O O13 0.588965 0.253487 0.244462
O O14 0.423581 0.500000 0.334108
O O15 0.370435 0.249333 0.271604
O O16 0.559865 0.226570 0.800985
O O17 0.630124 0.000000 0.784506
O O18 0.016764 0.273616 0.893712
O O19 0.034440 0.000000 0.939417
O O20 0.000000 0.215485 0.000000
O O21 0.518914 0.000000 0.191603
#
# Coordination Sequence:
#
# PCOD8101444 Si02
#       8
#     8   8   8   8   8   8   8   8
#     4  10  21  37  57  84 118 151 189 240 292 341
#     4  10  20  36  58  83 112 146 186 229 275 330
#     4   9  18  35  59  84 111 150 196 238 284 341
#     4  11  22  37  59  85 115 152 194 237 286 346
#     4  10  20  36  59  85 113 150 195 237 283 340
#     4  10  21  36  56  84 116 150 189 238 289 333
#     4  10  22  39  60  88 120 153 188 230 285 343
#     4  11  22  38  60  85 116 151 191 238 287 339
#
# _framework density 19.098665
#
# number of rings (size 3 to 8) (size 9 to 14) (size 15 to 20)
#    0.000    1.875    2.500    1.500    0.000    4.250 
#    0.000    2.500    0.000    1.500    0.000    0.000 
#    0.000    0.000    0.000    0.000    0.000    0.000 
#
# Total GULP energy -396928.338083 kJ/mol
# GULP energy per Si atom -12404.010565 kJ/mol
# Density = 1.905520 g / cm^3
# Si number density = 19.098665 Si / 1000 Ang^3
#
#
#
# Elastic Constant Matrix: (Units=GPa)
#
#
# Indices 1 2 3 4 5 6 
#
# 1 76.3307 26.2069 19.8234 0.0000 14.3008 0.0000
# 2 26.2069 47.3564 33.2428 0.0000 4.2070 0.0000
# 3 19.8234 33.2428 115.7484 0.0000 17.0599 0.0000
# 4 0.0000 0.0000 0.0000 30.5186 0.0000 -2.0014
# 5 14.3008 4.2070 17.0599 0.0000 35.5858 0.0000
# 6 0.0000 0.0000 0.0000 -2.0014 0.0000 24.7612
#
#
#
# Elastic Compliance Matrix: (Units=1/GPa)
#
#
# Indices 1 2 3 4 5 6 
#
# 1 0.017353 -0.009528 0.000674 0.000000 -0.006170 0.000000
# 2 -0.009528 0.031690 -0.008051 0.000000 0.003942 0.000000
# 3 0.000674 -0.008051 0.011552 0.000000 -0.004857 0.000000
# 4 0.000000 0.000000 0.000000 0.032942 0.000000 0.002663
# 5 -0.006170 0.003942 -0.004857 0.000000 0.032443 0.000000
# 6 0.000000 0.000000 0.000000 0.002663 0.000000 0.040601
#
#
# Mechanical properties :
#
#
# Convention : Reuss Voigt Hill
#
# Bulk Modulus (GPa) = 37.33297 44.22019 40.77658
# Shear Modulus (GPa) = 23.88692 28.85063 26.36877
#
# Velocity S-wave (km/s) = 3.54038 3.89087 3.71976
# Velocity P-wave (km/s) = 6.02513 6.58703 6.31234
#
# Compressibility (1/GPa) = 0.02678598
#
# Stress axis : x y z
#
# Youngs Moduli (GPa) = 57.62621 31.55531 86.56501
#
# Poissons Ratio (x) = 0.30066 -0.05834
# Poissons Ratio (y) = 0.54907 0.69690
# Poissons Ratio (z) = -0.03884 0.25404
#
# Static dielectric constant tensor:
#      x y z
#    x 3.456790 0.000000 0.080010 
#    y 0.000000 3.295510 0.000000 
#    z 0.080010 0.000000 3.570120 
# 
# 
# High freq. dielectric constant tensor:
#      x y z
#    x 1.746090 0.000000 0.006650 
#    y 0.000000 1.725050 0.000000 
#    z 0.006650 0.000000 1.756590 
# 
# From -- ./inp_files/346145.got.cif
#   From: 2010.06.25/outbox.cif.g09.slc.cpg/sg12_174_cif.got.tgz:346145.got - 2010.06.28 00:19:55.
