data_PCOD8101609
_publ_section_title
;
Structure prediction by ZEFSAII (Michael W. Deem and Ramdas Pophale) SiO2 
 PCOD8101609
Probable space group: C 2/M
;
_chemical_formula_sum "Si O2"
_cell_formula_units_Z 48
_cell_length_a 24.066277
_cell_length_b 9.251512
_cell_length_c 10.888701
_cell_angle_alpha 90.000000
_cell_angle_beta 77.476488
_cell_angle_gamma 90.000000
_cell_volume 2366.680676
_symmetry_space_group_name_H-M "C 2/M"
_symmetry_group_IT_number 12
_symmetry_cell_setting 'monoclinic'
loop_
_space_group_symop_operation_xyz
x,y,z
-x,y,-z
-x,-y,-z
x,-y,z
1/2+x,1/2+y,z
1/2-x,1/2+y,-z
1/2-x,1/2-y,-z
1/2+x,1/2-y,z
loop_
_atom_site_type_symbol
_atom_site_label
_atom_site_fract_x
_atom_site_fract_y
_atom_site_fract_z
Si Si1 0.692805 0.337886 0.514490
Si Si2 0.629997 0.663785 0.312140
Si Si3 0.246747 0.835283 0.124924
Si Si4 0.156141 0.836363 0.797797
Si Si5 0.543426 0.168717 0.868711
Si Si6 0.981283 0.330029 0.646082
O O1 0.710799 0.500000 0.465012
O O2 0.750000 0.250000 0.500000
O O3 0.652851 0.269699 0.429150
O O4 0.653708 0.340684 0.652574
O O5 0.607961 0.500000 0.339628
O O6 0.681012 0.671305 0.191821
O O7 0.578739 0.760807 0.289034
O O8 0.287321 0.754279 0.200862
O O9 0.267651 0.000000 0.100596
O O10 0.250000 0.750000 0.000000
O O11 0.099646 0.759521 0.874665
O O12 0.159755 0.000000 0.850042
O O13 0.522158 0.212202 0.741226
O O14 0.558797 0.000000 0.863639
O O15 0.500000 0.205996 0.000000
O O16 0.973039 0.500000 0.645249
O O17 0.000000 0.274184 0.500000
#
# Coordination Sequence:
#
# PCOD8101609 Si02
#       6
#     8   8   8   8   8   8
#     4  10  20  36  58  88 122 155 195 241 297 361
#     4  10  22  39  61  90 122 157 198 247 305 359
#     4  11  24  41  61  88 124 163 203 249 303 362
#     4  11  23  39  63  93 122 157 202 250 304 365
#     4  10  23  42  62  87 119 161 206 252 309 366
#     4  10  22  40  62  89 120 159 207 253 302 361
#
# _framework density 20.281569000000001
#
# number of rings (size 3 to 8) (size 9 to 14) (size 15 to 20)
#    0.000    1.667    1.667    2.000    2.333    4.000 
#    0.000    0.000    0.000    0.000    0.000    0.000 
#    0.000    0.000    0.000    0.000    0.000    0.000 
#
# Total GULP energy -297558.502902 kJ/mol
# GULP energy per Si atom -12398.270954 kJ/mol
# Density = 2.023541 g / cm^3
# Si number density = 20.281569 Si / 1000 Ang^3
#
#
#
# Elastic Constant Matrix: (Units=GPa)
#
#
# Indices 1 2 3 4 5 6 
#
# 1 87.7424 43.4830 10.6484 0.0000 -11.5448 0.0000
# 2 43.4830 83.0555 24.1951 0.0000 -8.1401 0.0000
# 3 10.6484 24.1951 92.9067 0.0000 1.5696 0.0000
# 4 0.0000 0.0000 0.0000 27.5650 0.0000 -3.9087
# 5 -11.5448 -8.1401 1.5696 0.0000 31.5007 0.0000
# 6 0.0000 0.0000 0.0000 -3.9087 0.0000 40.6283
#
#
#
# Elastic Compliance Matrix: (Units=1/GPa)
#
#
# Indices 1 2 3 4 5 6 
#
# 1 0.015814 -0.007973 0.000201 0.000000 0.003725 0.000000
# 2 -0.007973 0.017454 -0.003662 0.000000 0.001771 0.000000
# 3 0.000201 -0.003662 0.011719 0.000000 -0.001457 0.000000
# 4 0.000000 0.000000 0.000000 0.036780 0.000000 0.003538
# 5 0.003725 0.001771 -0.001457 0.000000 0.033641 0.000000
# 6 0.000000 0.000000 0.000000 0.003538 0.000000 0.024954
#
#
# Mechanical properties :
#
#
# Convention : Reuss Voigt Hill
#
# Bulk Modulus (GPa) = 45.20797 46.70640 45.95718
# Shear Modulus (GPa) = 29.30808 32.29734 30.80271
#
# Velocity S-wave (km/s) = 3.80552 3.99488 3.90135
# Velocity P-wave (km/s) = 6.45351 6.66016 6.55765
#
# Compressibility (1/GPa) = 0.02211999
#
# Stress axis : x y z
#
# Youngs Moduli (GPa) = 63.23582 57.29222 85.33398
#
# Poissons Ratio (x) = 0.45677 -0.01714
# Poissons Ratio (y) = 0.50415 0.31247
# Poissons Ratio (z) = -0.01270 0.20979
#
# Static dielectric constant tensor:
#      x y z
#    x 3.972270 0.000000 0.148760 
#    y 0.000000 3.514500 0.000000 
#    z 0.148760 0.000000 3.690260 
# 
# 
# High freq. dielectric constant tensor:
#      x y z
#    x 1.791220 0.000000 0.003910 
#    y 0.000000 1.791120 0.000000 
#    z 0.003910 0.000000 1.802490 
# 
# From -- ./inp_files/172084.got.cif
#   From: 2010.06.25/outbox.cif.g09.slc.cpg/sg12_87_cif.got.tgz:172084.got - 2010.06.28 00:19:55.
