data_PCOD8101159
_publ_section_title
;
Structure prediction by ZEFSAII (Michael W. Deem and Ramdas Pophale) SiO2 
 PCOD8101159
Probable space group: C 2/M
;
_chemical_formula_sum "Si O2"
_cell_formula_units_Z 64
_cell_length_a 30.664534
_cell_length_b 9.516089
_cell_length_c 17.373224
_cell_angle_alpha 90.000000
_cell_angle_beta 136.900694
_cell_angle_gamma 90.000000
_cell_volume 3463.892564
_symmetry_space_group_name_H-M "C 2/M"
_symmetry_group_IT_number 12
_symmetry_cell_setting 'monoclinic'
loop_
_space_group_symop_operation_xyz
x,y,z
-x,y,-z
-x,-y,-z
x,-y,z
1/2+x,1/2+y,z
1/2-x,1/2+y,-z
1/2-x,1/2-y,-z
1/2+x,1/2-y,z
loop_
_atom_site_type_symbol
_atom_site_label
_atom_site_fract_x
_atom_site_fract_y
_atom_site_fract_z
Si Si1 0.579050 0.665805 0.176592
Si Si2 0.871117 0.340807 0.204258
Si Si3 0.628738 0.337635 0.522124
Si Si4 0.157679 0.336358 0.004963
Si Si5 0.796868 0.837253 0.230691
Si Si6 0.185666 0.833592 0.431075
Si Si7 0.511567 0.838595 0.428226
Si Si8 0.936750 0.833633 0.015550
O O1 0.577291 0.500000 0.179342
O O2 0.634990 0.723912 0.303020
O O3 0.591127 0.711009 0.103882
O O4 0.509923 0.718889 0.116158
O O5 0.855165 0.500000 0.207967
O O6 0.843586 0.241736 0.233788
O O7 0.947146 0.319772 0.296227
O O8 0.839599 0.303907 0.082148
O O9 0.608472 0.500000 0.496281
O O10 0.682010 0.305759 0.655094
O O11 0.658976 0.293731 0.480207
O O12 0.565261 0.249934 0.454827
O O13 0.144112 0.500000 0.003450
O O14 0.224301 0.285858 0.127559
O O15 0.101524 0.245768 0.968356
O O16 0.802132 0.000000 0.215996
O O17 0.250000 0.750000 0.500000
O O18 0.198176 0.000000 0.439328
O O19 0.500000 0.782659 0.500000
O O20 0.534347 0.000000 0.460584
O O21 0.930759 0.000000 0.020761
#
# Coordination Sequence:
#
# PCOD8101159 Si02
#       8
#     8   8   8   8   8   8   8   8
#     4   8  17  36  57  78 108 138 174 224 268 311
#     4  10  21  37  55  78 109 143 179 221 267 316
#     4  10  22  37  56  82 111 145 184 225 272 326
#     4  10  22  36  53  79 112 140 172 224 274 313
#     4  10  21  37  54  76 109 146 180 218 266 319
#     4  10  22  39  58  83 114 146 182 226 274 325
#     4  10  20  36  57  81 110 144 182 226 273 323
#     4   9  18  35  59  81 101 137 182 221 265 319
#
# _framework density 18.476323000000001
#
# number of rings (size 3 to 8) (size 9 to 14) (size 15 to 20)
#    0.000    2.375    1.250    1.125    3.500    2.250 
#    0.000    1.875    0.000    0.000    0.000    0.000 
#    0.000    0.000    0.000    0.000    0.000    0.000 
#
# Total GULP energy -396852.649183 kJ/mol
# GULP energy per Si atom -12401.645287 kJ/mol
# Density = 1.843427 g / cm^3
# Si number density = 18.476323 Si / 1000 Ang^3
#
#
#
# Elastic Constant Matrix: (Units=GPa)
#
#
# Indices 1 2 3 4 5 6 
#
# 1 106.8419 46.9761 45.5404 0.0000 4.4454 0.0000
# 2 46.9761 47.0003 32.0660 0.0000 3.0578 0.0000
# 3 45.5404 32.0660 130.3796 0.0000 -0.0187 0.0000
# 4 0.0000 0.0000 0.0000 24.1779 0.0000 7.1443
# 5 4.4454 3.0578 -0.0187 0.0000 24.1672 0.0000
# 6 0.0000 0.0000 0.0000 7.1443 0.0000 30.6658
#
#
#
# Elastic Compliance Matrix: (Units=1/GPa)
#
#
# Indices 1 2 3 4 5 6 
#
# 1 0.017212 -0.015650 -0.002163 0.000000 -0.001188 0.000000
# 2 -0.015650 0.040053 -0.004385 0.000000 -0.002192 0.000000
# 3 -0.002163 -0.004385 0.009504 0.000000 0.000960 0.000000
# 4 0.000000 0.000000 0.000000 0.044418 0.000000 -0.010348
# 5 -0.001188 -0.002192 0.000960 0.000000 0.041875 0.000000
# 6 0.000000 0.000000 0.000000 -0.010348 0.000000 0.035020
#
#
# Mechanical properties :
#
#
# Convention : Reuss Voigt Hill
#
# Bulk Modulus (GPa) = 44.69685 59.26521 51.98103
# Shear Modulus (GPa) = 20.83896 26.44480 23.64188
#
# Velocity S-wave (km/s) = 3.36203 3.78733 3.58100
# Velocity P-wave (km/s) = 6.27016 7.16038 6.73001
#
# Compressibility (1/GPa) = 0.02237294
#
# Stress axis : x y z
#
# Youngs Moduli (GPa) = 58.09859 24.96718 105.21929
#
# Poissons Ratio (x) = 0.39074 0.22760
# Poissons Ratio (y) = 0.90925 0.46134
# Poissons Ratio (z) = 0.12568 0.10947
#
# Static dielectric constant tensor:
#      x y z
#    x 3.261200 0.000000 -0.091400 
#    y 0.000000 3.204880 0.000000 
#    z -0.091400 0.000000 3.901140 
# 
# 
# High freq. dielectric constant tensor:
#      x y z
#    x 1.714130 0.000000 -0.002320 
#    y 0.000000 1.697690 0.000000 
#    z -0.002320 0.000000 1.735030 
# 
# From -- ./inp_files/295880.got.cif
#   From: 2010.06.25/outbox.cif.g09.slc.cpg/sg12_148_cif.got.tgz:295880.got - 2010.06.28 00:19:55.
