data_PCOD8101803
_publ_section_title
;
Structure prediction by ZEFSAII (Michael W. Deem and Ramdas Pophale) SiO2 
 PCOD8101803
Probable space group: C 2/M
;
_chemical_formula_sum "Si O2"
_cell_formula_units_Z 32
_cell_length_a 18.379694
_cell_length_b 8.871573
_cell_length_c 11.000163
_cell_angle_alpha 90.000000
_cell_angle_beta 65.740312
_cell_angle_gamma 90.000000
_cell_volume 1635.258629
_symmetry_space_group_name_H-M "C 2/M"
_symmetry_group_IT_number 12
_symmetry_cell_setting 'monoclinic'
loop_
_space_group_symop_operation_xyz
x,y,z
-x,y,-z
-x,-y,-z
x,-y,z
1/2+x,1/2+y,z
1/2-x,1/2+y,-z
1/2-x,1/2-y,-z
1/2+x,1/2-y,z
loop_
_atom_site_type_symbol
_atom_site_label
_atom_site_fract_x
_atom_site_fract_y
_atom_site_fract_z
Si Si1 0.789369 0.824812 0.156373
Si Si2 0.141946 0.826036 0.149381
Si Si3 0.023551 0.173395 0.621448
Si Si4 0.676447 0.822889 0.619516
O O1 0.698530 0.773393 0.196443
O O2 0.828702 0.734657 0.239244
O O3 0.789205 0.000000 0.189436
O O4 0.842954 0.788375 0.001860
O O5 0.050754 0.787047 0.240771
O O6 0.161332 0.000000 0.165043
O O7 0.095423 0.281775 0.606650
O O8 0.000000 0.206791 0.500000
O O9 0.050059 0.000000 0.620072
O O10 0.750000 0.750000 0.500000
O O11 0.688398 0.000000 0.610572
#
# Coordination Sequence:
#
# PCOD8101803 Si02
#       4
#     8   8   8   8
#     4  10  20  36  59  86 118 154 192 233 279 334
#     4   9  19  36  59  87 119 155 191 231 281 334
#     4  10  21  38  60  85 115 150 188 233 285 339
#     4  12  25  40  59  83 113 148 190 238 288 342
#
# _framework density 19.568770000000001
#
# number of rings (size 3 to 8) (size 9 to 14) (size 15 to 20)
#    0.000    1.750    0.000    4.500    0.000    5.500 
#    0.000    5.000    0.000    0.000    0.000    0.000 
#    0.000    0.000    0.000    0.000    0.000    0.000 
#
# Total GULP energy -198500.465088 kJ/mol
# GULP energy per Si atom -12406.279068 kJ/mol
# Density = 1.952423 g / cm^3
# Si number density = 19.568770 Si / 1000 Ang^3
#
#
#
# Elastic Constant Matrix: (Units=GPa)
#
#
# Indices 1 2 3 4 5 6 
#
# 1 119.3756 63.4672 62.4676 0.0000 -3.8862 0.0000
# 2 63.4672 122.7319 50.0314 0.0000 4.5154 0.0000
# 3 62.4676 50.0314 106.0235 0.0000 -3.8347 0.0000
# 4 0.0000 0.0000 0.0000 28.5436 0.0000 3.2005
# 5 -3.8862 4.5154 -3.8347 0.0000 30.6337 0.0000
# 6 0.0000 0.0000 0.0000 3.2005 0.0000 41.0546
#
#
#
# Elastic Compliance Matrix: (Units=1/GPa)
#
#
# Indices 1 2 3 4 5 6 
#
# 1 0.014197 -0.004983 -0.005949 0.000000 0.001791 0.000000
# 2 -0.004983 0.011972 -0.002813 0.000000 -0.002749 0.000000
# 3 -0.005949 -0.002813 0.014317 0.000000 0.001452 0.000000
# 4 0.000000 0.000000 0.000000 0.035343 0.000000 -0.002755
# 5 0.001791 -0.002749 0.001452 0.000000 0.033458 0.000000
# 6 0.000000 0.000000 0.000000 -0.002755 0.000000 0.024573
#
#
# Mechanical properties :
#
#
# Convention : Reuss Voigt Hill
#
# Bulk Modulus (GPa) = 76.94071 77.78482 77.36276
# Shear Modulus (GPa) = 30.17826 31.52402 30.85114
#
# Velocity S-wave (km/s) = 3.93130 4.01800 3.97489
# Velocity P-wave (km/s) = 7.74663 7.83336 7.79012
#
# Compressibility (1/GPa) = 0.01299702
#
# Stress axis : x y z
#
# Youngs Moduli (GPa) = 70.43667 83.52514 69.84701
#
# Poissons Ratio (x) = 0.41616 0.41551
# Poissons Ratio (y) = 0.35095 0.19651
# Poissons Ratio (z) = 0.41901 0.23500
#
# Static dielectric constant tensor:
#      x y z
#    x 3.478630 0.000000 -0.007720 
#    y 0.000000 3.631890 0.000000 
#    z -0.007720 0.000000 3.861150 
# 
# 
# High freq. dielectric constant tensor:
#      x y z
#    x 1.760130 0.000000 0.000780 
#    y 0.000000 1.763350 0.000000 
#    z 0.000780 0.000000 1.778370 
# 
# From -- ./inp_files/138621.got.cif
#   From: 2010.06.25/outbox.cif.g09.slc.cpg/sg12_70_cif.got.tgz:138621.got - 2010.06.28 00:19:55.
