data_PCOD8101652
_publ_section_title
;
Structure prediction by ZEFSAII (Michael W. Deem and Ramdas Pophale) SiO2 
 PCOD8101652
Probable space group: C 2/M
;
_chemical_formula_sum "Si O2"
_cell_formula_units_Z 56
_cell_length_a 19.062749
_cell_length_b 9.326514
_cell_length_c 16.725472
_cell_angle_alpha 90.000000
_cell_angle_beta 104.683072
_cell_angle_gamma 90.000000
_cell_volume 2876.494909
_symmetry_space_group_name_H-M "C 2/M"
_symmetry_group_IT_number 12
_symmetry_cell_setting 'monoclinic'
loop_
_space_group_symop_operation_xyz
x,y,z
-x,y,-z
-x,-y,-z
x,-y,z
1/2+x,1/2+y,z
1/2-x,1/2+y,-z
1/2-x,1/2-y,-z
1/2+x,1/2-y,z
loop_
_atom_site_type_symbol
_atom_site_label
_atom_site_fract_x
_atom_site_fract_y
_atom_site_fract_z
Si Si1 0.329970 0.336687 0.916766
Si Si2 0.825291 0.169382 0.508367
Si Si3 0.821158 0.336745 0.194575
Si Si4 0.084743 0.336091 0.929633
Si Si5 0.456632 0.336683 0.836194
Si Si6 0.111750 0.168253 0.645722
Si Si7 0.955602 0.170116 0.655337
O O1 0.328198 0.500000 0.948567
O O2 0.250598 0.280927 0.870742
O O3 0.377004 0.326647 0.849865
O O4 0.358443 0.235021 0.994409
O O5 0.750000 0.250000 0.500000
O O6 0.859092 0.209189 0.432666
O O7 0.883958 0.227141 0.589633
O O8 0.811510 0.000000 0.512419
O O9 0.809777 0.500000 0.219738
O O10 0.887536 0.323217 0.152856
O O11 0.835309 0.241268 0.275668
O O12 0.073466 0.500000 0.952473
O O13 0.008141 0.254817 0.909505
O O14 0.485627 0.500000 0.843558
O O15 0.454312 0.272866 0.745977
O O16 0.028908 0.224134 0.632419
O O17 0.114720 0.000000 0.662415
O O18 0.953103 0.000000 0.652749
#
# Coordination Sequence:
#
# PCOD8101652 Si02
#       7
#     8   8   8   8   8   8   8
#     4  10  22  37  56  81 110 148 195 235 274 334
#     4  10  22  38  60  90 119 148 183 228 280 333
#     4  10  22  38  57  83 114 149 188 232 282 336
#     4  11  22  37  56  82 114 148 185 232 291 338
#     4  10  20  36  59  83 107 147 195 232 272 328
#     4  10  20  37  61  86 111 147 193 233 273 326
#     4   9  18  36  61  84 110 148 192 231 268 323
#
# _framework density 19.468138
#
# number of rings (size 3 to 8) (size 9 to 14) (size 15 to 20)
#    0.000    2.000    1.429    1.714    2.000    5.714 
#    0.000    1.429    0.000    1.714    0.000    0.000 
#    0.000    0.000    0.000    0.000    0.000    0.000 
#
# Total GULP energy -347279.752286 kJ/mol
# GULP energy per Si atom -12402.848296 kJ/mol
# Density = 1.942383 g / cm^3
# Si number density = 19.468138 Si / 1000 Ang^3
#
#
#
# Elastic Constant Matrix: (Units=GPa)
#
#
# Indices 1 2 3 4 5 6 
#
# 1 82.0374 28.5897 29.9247 0.0000 11.7186 0.0000
# 2 28.5897 61.5676 44.3806 0.0000 7.2243 0.0000
# 3 29.9247 44.3806 114.2869 0.0000 14.7173 0.0000
# 4 0.0000 0.0000 0.0000 31.3018 0.0000 3.7822
# 5 11.7186 7.2243 14.7173 0.0000 33.8853 0.0000
# 6 0.0000 0.0000 0.0000 3.7822 0.0000 27.2326
#
#
#
# Elastic Compliance Matrix: (Units=1/GPa)
#
#
# Indices 1 2 3 4 5 6 
#
# 1 0.015141 -0.005678 -0.001315 0.000000 -0.003455 0.000000
# 2 -0.005678 0.024722 -0.008143 0.000000 0.000230 0.000000
# 3 -0.001315 -0.008143 0.012684 0.000000 -0.003318 0.000000
# 4 0.000000 0.000000 0.000000 0.032492 0.000000 -0.004513
# 5 -0.003455 0.000230 -0.003318 0.000000 0.032098 0.000000
# 6 0.000000 0.000000 0.000000 -0.004513 0.000000 0.037347
#
#
# Mechanical properties :
#
#
# Convention : Reuss Voigt Hill
#
# Bulk Modulus (GPa) = 44.89281 51.52022 48.20652
# Shear Modulus (GPa) = 26.01706 28.81704 27.41705
#
# Velocity S-wave (km/s) = 3.65964 3.85153 3.75681
# Velocity P-wave (km/s) = 6.40054 6.80444 6.60558
#
# Compressibility (1/GPa) = 0.02227528
#
# Stress axis : x y z
#
# Youngs Moduli (GPa) = 66.04402 40.45011 78.84191
#
# Poissons Ratio (x) = 0.22967 0.10366
# Poissons Ratio (y) = 0.37500 0.64201
# Poissons Ratio (z) = 0.08684 0.32939
#
# Static dielectric constant tensor:
#      x y z
#    x 3.640640 0.000000 0.007400 
#    y 0.000000 3.352910 0.000000 
#    z 0.007400 0.000000 3.597710 
# 
# 
# High freq. dielectric constant tensor:
#      x y z
#    x 1.769880 0.000000 -0.000230 
#    y 0.000000 1.733220 0.000000 
#    z -0.000230 0.000000 1.765000 
# 
# From -- ./inp_files/275056.got.cif
#   From: 2010.06.25/outbox.cif.g09.slc.cpg/sg12_138_cif.got.tgz:275056.got - 2010.06.28 00:19:55.
