data_PCOD8101880
_publ_section_title
;
Structure prediction by ZEFSAII (Michael W. Deem and Ramdas Pophale) SiO2 
 PCOD8101880
Probable space group: C 2/M
;
_chemical_formula_sum "Si O2"
_cell_formula_units_Z 64
_cell_length_a 23.738266
_cell_length_b 10.725454
_cell_length_c 11.977275
_cell_angle_alpha 90.000000
_cell_angle_beta 93.440050
_cell_angle_gamma 90.000000
_cell_volume 3043.963560
_symmetry_space_group_name_H-M "C 2/M"
_symmetry_group_IT_number 12
_symmetry_cell_setting 'monoclinic'
loop_
_space_group_symop_operation_xyz
x,y,z
-x,y,-z
-x,-y,-z
x,-y,z
1/2+x,1/2+y,z
1/2-x,1/2+y,-z
1/2-x,1/2-y,-z
1/2+x,1/2-y,z
loop_
_atom_site_type_symbol
_atom_site_label
_atom_site_fract_x
_atom_site_fract_y
_atom_site_fract_z
Si Si1 0.908640 0.855667 0.988556
Si Si2 0.221509 0.138184 0.062436
Si Si3 0.558300 0.738590 0.770805
Si Si4 0.765134 0.858837 0.681308
Si Si5 0.642684 0.140112 0.608097
Si Si6 0.874796 0.708886 0.641458
Si Si7 0.450971 0.136628 0.840774
Si Si8 0.476246 0.634944 0.604749
O O1 0.911217 0.818651 0.118236
O O2 0.929460 0.000000 0.972392
O O3 0.845200 0.840942 0.939131
O O4 0.945339 0.754586 0.924118
O O5 0.246218 0.142435 0.188599
O O6 0.234372 0.000000 0.011350
O O7 0.250000 0.250000 0.000000
O O8 0.605398 0.780814 0.688588
O O9 0.512612 0.848177 0.790606
O O10 0.522647 0.629713 0.707665
O O11 0.707333 0.811747 0.617321
O O12 0.812231 0.758422 0.655215
O O13 0.781348 0.000000 0.644306
O O14 0.621399 0.141780 0.477777
O O15 0.640974 0.000000 0.653223
O O16 0.899294 0.625057 0.745367
O O17 0.917437 0.823096 0.647538
O O18 0.450880 0.000000 0.901496
O O19 0.500000 0.713640 0.500000
O O20 0.462039 0.500000 0.556957
#
# Coordination Sequence:
#
# PCOD8101880 Si02
#       8
#     8   8   8   8   8   8   8   8
#     4  11  24  43  67  94 130 168 213 268 323 383
#     4  10  21  40  63  91 123 165 212 258 315 378
#     4  11  23  40  63  93 127 165 212 259 326 379
#     4  10  21  39  63  89 120 161 209 262 320 378
#     4  11  23  39  61  90 127 166 208 262 319 378
#     4  11  21  40  62  90 125 165 214 256 316 377
#     4  11  25  41  65  95 130 172 217 265 317 384
#     4  10  20  36  59  88 122 160 206 258 314 374
#
# _framework density 21.025220000000001
#
# number of rings (size 3 to 8) (size 9 to 14) (size 15 to 20)
#    0.000    1.375    2.500    3.000    0.000    5.000 
#    0.000    1.875    0.000    5.250    0.000    0.000 
#    0.000    0.000    0.000    0.000    0.000    0.000 
#
# Total GULP energy -396521.892416 kJ/mol
# GULP energy per Si atom -12391.309138 kJ/mol
# Density = 2.097737 g / cm^3
# Si number density = 21.025220 Si / 1000 Ang^3
#
#
#
# Elastic Constant Matrix: (Units=GPa)
#
#
# Indices 1 2 3 4 5 6 
#
# 1 88.2990 32.8407 11.1444 0.0000 -1.8113 0.0000
# 2 32.8407 120.7906 23.7150 0.0000 -17.8760 0.0000
# 3 11.1444 23.7150 95.8081 0.0000 7.1762 0.0000
# 4 0.0000 0.0000 0.0000 14.5145 0.0000 -4.1403
# 5 -1.8113 -17.8760 7.1762 0.0000 39.5553 0.0000
# 6 0.0000 0.0000 0.0000 -4.1403 0.0000 -8.4624
#
#
#
# Elastic Compliance Matrix: (Units=1/GPa)
#
#
# Indices 1 2 3 4 5 6 
#
# 1 0.012666 -0.003467 -0.000549 0.000000 -0.000887 0.000000
# 2 -0.003467 0.010471 -0.002566 0.000000 0.005039 0.000000
# 3 -0.000549 -0.002566 0.011380 0.000000 -0.003249 0.000000
# 4 0.000000 0.000000 0.000000 0.060459 0.000000 -0.029580
# 5 -0.000887 0.005039 -0.003249 0.000000 0.028107 0.000000
# 6 0.000000 0.000000 0.000000 -0.029580 0.000000 -0.103697
#
#
# Mechanical properties :
#
#
# Convention : Reuss Voigt Hill
#
# Bulk Modulus (GPa) = 46.83166 48.92198 47.87682
# Shear Modulus (GPa) = 126.05256 24.93465 75.49360
#
# Velocity S-wave (km/s) = 7.75133 3.44748 5.99868
# Velocity P-wave (km/s) = 10.12093 6.25824 8.41424
#
# Compressibility (1/GPa) = 0.02135307
#
# Stress axis : x y z
#
# Youngs Moduli (GPa) = 78.95317 95.50248 87.87461
#
# Poissons Ratio (x) = 0.33113 0.04821
# Poissons Ratio (y) = 0.27375 0.22548
# Poissons Ratio (z) = 0.04331 0.24505
#
# Static dielectric constant tensor:
#      x y z
#    x 3.883020 0.000000 0.229720 
#    y 0.000000 3.691620 0.000000 
#    z 0.229720 0.000000 3.998940 
# 
# 
# High freq. dielectric constant tensor:
#      x y z
#    x 1.828600 0.000000 0.013250 
#    y 0.000000 1.814020 0.000000 
#    z 0.013250 0.000000 1.830050 
# 
# From -- ./inp_files/174640.got.cif
#   From: 2010.06.25/outbox.cif.g09.slc.cpg/sg12_88_cif.got.tgz:174640.got - 2010.06.28 00:19:55.
