data_PCOD8101521
_publ_section_title
;
Structure prediction by ZEFSAII (Michael W. Deem and Ramdas Pophale) SiO2 
 PCOD8101521
Probable space group: C 2/M
;
_chemical_formula_sum "Si O2"
_cell_formula_units_Z 48
_cell_length_a 24.430017
_cell_length_b 8.614485
_cell_length_c 11.586299
_cell_angle_alpha 90.000000
_cell_angle_beta 75.109612
_cell_angle_gamma 90.000000
_cell_volume 2356.477899
_symmetry_space_group_name_H-M "C 2/M"
_symmetry_group_IT_number 12
_symmetry_cell_setting 'monoclinic'
loop_
_space_group_symop_operation_xyz
x,y,z
-x,y,-z
-x,-y,-z
x,-y,z
1/2+x,1/2+y,z
1/2-x,1/2+y,-z
1/2-x,1/2-y,-z
1/2+x,1/2-y,z
loop_
_atom_site_type_symbol
_atom_site_label
_atom_site_fract_x
_atom_site_fract_y
_atom_site_fract_z
Si Si1 0.658741 0.319125 0.517783
Si Si2 0.063946 0.816834 0.972920
Si Si3 0.064257 0.324231 0.430549
Si Si4 0.386133 0.684721 0.814225
Si Si5 0.655885 0.181155 0.765954
Si Si6 0.722035 0.316565 0.259161
O O1 0.665922 0.500000 0.544317
O O2 0.596572 0.289579 0.500190
O O3 0.666387 0.216445 0.626773
O O4 0.702951 0.258016 0.396700
O O5 0.096698 0.754224 0.068464
O O6 0.059836 0.000000 0.978582
O O7 0.100644 0.768714 0.842272
O O8 0.000000 0.747527 0.000000
O O9 0.087848 0.500000 0.426263
O O10 0.069935 0.262256 0.297261
O O11 0.000000 0.317735 0.500000
O O12 0.391494 0.500000 0.802500
O O13 0.321944 0.740807 0.815969
O O14 0.713455 0.237500 0.801511
O O15 0.645581 0.000000 0.789046
O O16 0.719405 0.500000 0.266029
#
# Coordination Sequence:
#
# PCOD8101521 Si02
#       6
#     8   8   8   8   8   8
#     4  10  20  36  58  84 116 152 190 229 278 340
#     4  10  23  41  58  81 112 151 197 239 279 335
#     4  10  21  35  54  84 117 147 184 233 287 336
#     4   9  19  38  60  80 109 150 194 237 276 332
#     4  11  22  36  57  85 117 151 188 236 292 338
#     4   8  17  35  58  85 114 146 187 235 286 339
#
# _framework density 20.369381000000001
#
# number of rings (size 3 to 8) (size 9 to 14) (size 15 to 20)
#    0.000    2.333    0.000    3.000    2.333    3.000 
#    0.000    7.500    0.000    0.000    0.000    0.000 
#    0.000    0.000    0.000    0.000    0.000    0.000 
#
# Total GULP energy -297516.784961 kJ/mol
# GULP energy per Si atom -12396.532707 kJ/mol
# Density = 2.032302 g / cm^3
# Si number density = 20.369381 Si / 1000 Ang^3
#
#
#
# Elastic Constant Matrix: (Units=GPa)
#
#
# Indices 1 2 3 4 5 6 
#
# 1 129.0464 13.1498 64.8071 0.0000 -10.2001 0.0000
# 2 13.1498 18.9765 11.2344 0.0000 -5.6820 0.0000
# 3 64.8071 11.2344 76.7474 0.0000 6.4804 0.0000
# 4 0.0000 0.0000 0.0000 20.1087 0.0000 1.8931
# 5 -10.2001 -5.6820 6.4804 0.0000 30.0494 0.0000
# 6 0.0000 0.0000 0.0000 1.8931 0.0000 20.2197
#
#
#
# Elastic Compliance Matrix: (Units=1/GPa)
#
#
# Indices 1 2 3 4 5 6 
#
# 1 0.015153 -0.000135 -0.013453 0.000000 0.008019 0.000000
# 2 -0.000135 0.063126 -0.010319 0.000000 0.014116 0.000000
# 3 -0.013453 -0.010319 0.026941 0.000000 -0.012328 0.000000
# 4 0.000000 0.000000 0.000000 0.050172 0.000000 -0.004697
# 5 0.008019 0.014116 -0.012328 0.000000 0.041328 0.000000
# 6 0.000000 0.000000 0.000000 -0.004697 0.000000 0.049896
#
#
# Mechanical properties :
#
#
# Convention : Reuss Voigt Hill
#
# Bulk Modulus (GPa) = 17.41943 44.79476 31.10709
# Shear Modulus (GPa) = 15.94576 23.11417 19.52997
#
# Velocity S-wave (km/s) = 2.80095 3.37226 3.09979
# Velocity P-wave (km/s) = 4.36242 6.09933 5.30248
#
# Compressibility (1/GPa) = 0.05740717
#
# Stress axis : x y z
#
# Youngs Moduli (GPa) = 65.99518 15.84144 37.11848
#
# Poissons Ratio (x) = 0.00214 0.49934
# Poissons Ratio (y) = 0.00890 0.38301
# Poissons Ratio (z) = 0.88781 0.16346
#
# Static dielectric constant tensor:
#      x y z
#    x 4.081650 0.000000 0.098690 
#    y 0.000000 3.518390 0.000000 
#    z 0.098690 0.000000 3.590400 
# 
# 
# High freq. dielectric constant tensor:
#      x y z
#    x 1.808040 0.000000 0.000890 
#    y 0.000000 1.776720 0.000000 
#    z 0.000890 0.000000 1.786980 
# 
# From -- ./inp_files/172946.got.cif
#   From: 2010.06.25/outbox.cif.g09.slc.cpg/sg12_87_cif.got.tgz:172946.got - 2010.06.28 00:19:55.
