data_PCOD8101174
_publ_section_title
;
Structure prediction by ZEFSAII (Michael W. Deem and Ramdas Pophale) SiO2 
 PCOD8101174
Probable space group: C 2/M
;
_chemical_formula_sum "Si O2"
_cell_formula_units_Z 60
_cell_length_a 8.483683
_cell_length_b 20.910769
_cell_length_c 25.870333
_cell_angle_alpha 90.000000
_cell_angle_beta 136.047827
_cell_angle_gamma 90.000000
_cell_volume 3185.312254
_symmetry_space_group_name_H-M "C 2/M"
_symmetry_group_IT_number 12
_symmetry_cell_setting 'monoclinic'
loop_
_space_group_symop_operation_xyz
x,y,z
-x,y,-z
-x,-y,-z
x,-y,z
1/2+x,1/2+y,z
1/2-x,1/2+y,-z
1/2-x,1/2-y,-z
1/2+x,1/2-y,z
loop_
_atom_site_type_symbol
_atom_site_label
_atom_site_fract_x
_atom_site_fract_y
_atom_site_fract_z
Si Si1 0.720149 0.327286 0.664645
Si Si2 0.354018 0.681188 0.188005
Si Si3 0.950838 0.683639 0.172750
Si Si4 0.936404 0.073437 0.542760
Si Si5 0.669107 0.702541 0.353245
Si Si6 0.112760 0.930410 0.081302
Si Si7 0.742553 0.926096 0.080307
Si Si8 0.500000 0.878875 0.500000
O O1 0.621971 0.394066 0.622873
O O2 0.552544 0.294591 0.665113
O O3 0.743585 0.275542 0.624769
O O4 0.959607 0.337861 0.749516
O O5 0.346218 0.745019 0.150842
O O6 0.591816 0.678693 0.277286
O O7 0.325796 0.617598 0.147398
O O8 0.143582 0.684485 0.175980
O O9 0.776645 0.629435 0.115975
O O10 0.681454 0.083084 0.506376
O O11 0.000000 0.098830 0.500000
O O12 0.994141 0.000000 0.558675
O O13 0.866260 0.660492 0.425119
O O14 0.923324 0.915685 0.078497
O O15 0.230667 0.000000 0.121535
O O16 0.000000 0.937324 0.000000
O O17 0.730244 0.000000 0.096379
O O18 0.500000 0.904207 0.000000
#
# Coordination Sequence:
#
# PCOD8101174 Si02
#       8
#     8   8   8   8   8   8   8   4
#     4   9  20  35  55  81 110 141 182 233 276 336
#     4  10  20  37  56  84 117 146 188 235 283 339
#     4  10  20  36  57  81 113 150 181 232 288 331
#     4  10  22  38  55  80 112 149 189 231 284 341
#     4   9  20  34  56  86 108 144 185 232 290 328
#     4  10  21  37  57  83 111 144 188 231 279 338
#     4  10  21  38  59  83 113 148 187 232 277 335
#     4  10  21  38  60  82 111 152 192 240 288 340
#
# _framework density 18.836456999999999
#
# number of rings (size 3 to 8) (size 9 to 14) (size 15 to 20)
#    0.000    2.267    0.000    1.800    2.800    4.800 
#    0.000    8.667    0.000    0.000    0.000    0.000 
#    0.000    0.000    0.000    0.000    0.000    0.000 
#
# Total GULP energy -371694.680101 kJ/mol
# GULP energy per Si atom -12389.822670 kJ/mol
# Density = 1.879358 g / cm^3
# Si number density = 18.836457 Si / 1000 Ang^3
#
#
#
# Elastic Constant Matrix: (Units=GPa)
#
#
# Indices 1 2 3 4 5 6 
#
# 1 90.2660 39.1282 26.2870 -0.0003 -11.0895 0.0001
# 2 39.1282 107.4791 56.3662 0.0005 -2.0851 0.0005
# 3 26.2870 56.3662 84.7715 -0.0031 -0.3437 -0.0013
# 4 -0.0003 0.0005 -0.0031 25.5392 -0.0019 -3.2369
# 5 -11.0895 -2.0851 -0.3437 -0.0019 22.7979 -0.0006
# 6 0.0001 0.0005 -0.0013 -3.2369 -0.0006 33.2909
#
#
#
# Elastic Compliance Matrix: (Units=1/GPa)
#
#
# Indices 1 2 3 4 5 6 
#
# 1 0.014153 -0.004205 -0.001566 0.000001 0.006476 0.000000
# 2 -0.004205 0.015566 -0.009049 -0.000002 -0.000758 -0.000001
# 3 -0.001566 -0.009049 0.018294 0.000002 -0.001314 0.000001
# 4 0.000001 -0.000002 0.000002 0.039644 0.000004 0.003855
# 5 0.006476 -0.000758 -0.001314 0.000004 0.046925 0.000001
# 6 0.000000 -0.000001 0.000001 0.003855 0.000001 0.030413
#
#
# Mechanical properties :
#
#
# Convention : Reuss Voigt Hill
#
# Bulk Modulus (GPa) = 54.43303 58.45325 56.44314
# Shear Modulus (GPa) = 24.90532 27.04130 25.97331
#
# Velocity S-wave (km/s) = 3.64013 3.79302 3.71736
# Velocity P-wave (km/s) = 6.82846 7.09098 6.96096
#
# Compressibility (1/GPa) = 0.01837120
#
# Stress axis : x y z
#
# Youngs Moduli (GPa) = 70.65607 64.24170 54.66335
#
# Poissons Ratio (x) = 0.27017 0.08561
# Poissons Ratio (y) = 0.29714 0.49466
# Poissons Ratio (z) = 0.11066 0.58134
#
# Static dielectric constant tensor:
#      x y z
#    x 3.666480 0.000000 -0.011590 
#    y 0.000000 3.549120 0.000000 
#    z -0.011590 0.000000 3.540490 
# 
# 
# High freq. dielectric constant tensor:
#      x y z
#    x 1.746950 0.000000 -0.001940 
#    y 0.000000 1.733010 0.000000 
#    z -0.001940 0.000000 1.725110 
# 
# From -- ./inp_files/356957.got.cif
#   From: 2010.06.25/outbox.cif.g09.slc.cpg/sg12_179_cif.got.tgz:356957.got - 2010.06.28 00:19:55.
