data_PCOD8101287
_publ_section_title
;
Structure prediction by ZEFSAII (Michael W. Deem and Ramdas Pophale) SiO2 
 PCOD8101287
Probable space group: C 2/M
;
_chemical_formula_sum "Si O2"
_cell_formula_units_Z 56
_cell_length_a 23.482795
_cell_length_b 8.978986
_cell_length_c 15.486778
_cell_angle_alpha 90.000000
_cell_angle_beta 56.582727
_cell_angle_gamma 90.000000
_cell_volume 2725.581264
_symmetry_space_group_name_H-M "C 2/M"
_symmetry_group_IT_number 12
_symmetry_cell_setting 'monoclinic'
loop_
_space_group_symop_operation_xyz
x,y,z
-x,y,-z
-x,-y,-z
x,-y,z
1/2+x,1/2+y,z
1/2-x,1/2+y,-z
1/2-x,1/2-y,-z
1/2+x,1/2-y,z
loop_
_atom_site_type_symbol
_atom_site_label
_atom_site_fract_x
_atom_site_fract_y
_atom_site_fract_z
Si Si1 0.926742 0.673251 0.025203
Si Si2 0.573983 0.175781 0.641996
Si Si3 0.574728 0.826452 0.174763
Si Si4 0.423426 0.672021 0.536290
Si Si5 0.204650 0.172351 0.801321
Si Si6 0.329987 0.675080 0.773906
Si Si7 0.199632 0.826661 0.609201
O O1 0.913064 0.500000 0.054941
O O2 0.871446 0.768698 0.122218
O O3 0.923139 0.710676 0.927475
O O4 0.000000 0.721609 0.000000
O O5 0.497399 0.229287 0.726608
O O6 0.595581 0.224547 0.528139
O O7 0.624735 0.254308 0.666528
O O8 0.581884 0.000000 0.645877
O O9 0.636544 0.739422 0.167587
O O10 0.584320 0.000000 0.185612
O O11 0.500000 0.704181 0.500000
O O12 0.412398 0.500000 0.519890
O O13 0.375632 0.721678 0.654370
O O14 0.254871 0.259079 0.823760
O O15 0.226830 0.198797 0.683506
O O16 0.207288 0.000000 0.823566
O O17 0.323925 0.500000 0.789805
O O18 0.250000 0.750000 0.500000
O O19 0.194842 0.000000 0.590195
#
# Coordination Sequence:
#
# PCOD8101287 Si02
#       7
#     8   8   8   8   8   8   8
#     4  10  22  43  69  93 120 156 201 250 303 363
#     4  11  22  36  60  91 123 161 202 250 306 360
#     4  10  22  39  61  91 123 157 200 251 301 358
#     4  10  20  36  57  86 124 164 206 250 298 355
#     4  11  25  43  63  90 124 160 201 252 305 360
#     4  11  23  39  62  89 122 165 206 249 303 362
#     4  11  24  41  62  89 122 160 202 249 302 362
#
# _framework density 20.546077
#
# number of rings (size 3 to 8) (size 9 to 14) (size 15 to 20)
#    0.000    1.429    1.429    3.429    0.000    9.143 
#    0.000    0.000    0.000    0.000    0.000    0.000 
#    0.000    0.000    0.000    0.000    0.000    0.000 
#
# Total GULP energy -347396.302156 kJ/mol
# GULP energy per Si atom -12407.010791 kJ/mol
# Density = 2.049931 g / cm^3
# Si number density = 20.546077 Si / 1000 Ang^3
#
#
#
# Elastic Constant Matrix: (Units=GPa)
#
#
# Indices 1 2 3 4 5 6 
#
# 1 140.6382 57.0397 44.7844 0.0000 1.1071 0.0000
# 2 57.0397 90.7682 47.1274 -0.0001 5.0073 -0.0001
# 3 44.7844 47.1274 88.7969 0.0000 -1.2816 0.0000
# 4 0.0000 -0.0001 0.0000 29.7854 0.0000 0.5697
# 5 1.1071 5.0073 -1.2816 0.0000 29.5442 0.0000
# 6 0.0000 -0.0001 0.0000 0.5697 0.0000 38.9416
#
#
#
# Elastic Compliance Matrix: (Units=1/GPa)
#
#
# Indices 1 2 3 4 5 6 
#
# 1 0.009884 -0.005034 -0.002308 0.000000 0.000383 0.000000
# 2 -0.005034 0.018029 -0.007076 0.000000 -0.003174 0.000000
# 3 -0.002308 -0.007076 0.016209 0.000000 0.001989 0.000000
# 4 0.000000 0.000000 0.000000 0.033583 0.000000 -0.000491
# 5 0.000383 -0.003174 0.001989 0.000000 0.034457 0.000000
# 6 0.000000 0.000000 0.000000 -0.000491 0.000000 0.025687
#
#
# Mechanical properties :
#
#
# Convention : Reuss Voigt Hill
#
# Bulk Modulus (GPa) = 65.41082 68.67847 67.04465
# Shear Modulus (GPa) = 29.10686 31.07105 30.08895
#
# Velocity S-wave (km/s) = 3.76794 3.89300 3.83098
# Velocity P-wave (km/s) = 7.12987 7.32846 7.22985
#
# Compressibility (1/GPa) = 0.01528799
#
# Stress axis : x y z
#
# Youngs Moduli (GPa) = 101.17344 55.46486 61.69230
#
# Poissons Ratio (x) = 0.27922 0.14236
# Poissons Ratio (y) = 0.50933 0.43651
# Poissons Ratio (z) = 0.23347 0.39245
#
# Static dielectric constant tensor:
#      x y z
#    x 3.842490 0.000000 0.015060 
#    y 0.000000 3.646030 0.000000 
#    z 0.015060 0.000000 3.707140 
# 
# 
# High freq. dielectric constant tensor:
#      x y z
#    x 1.818110 0.000000 0.001420 
#    y 0.000000 1.803100 0.000000 
#    z 0.001420 0.000000 1.803830 
# 
# From -- ./inp_files/238292.got.cif
#   From: 2010.06.25/outbox.cif.g09.slc.cpg/sg12_120_cif.got.tgz:238292.got - 2010.06.28 00:19:55.
