data_PCOD8101405
_publ_section_title
;
Structure prediction by ZEFSAII (Michael W. Deem and Ramdas Pophale) SiO2 
 PCOD8101405
Probable space group: C 2/M
;
_chemical_formula_sum "Si O2"
_cell_formula_units_Z 48
_cell_length_a 31.472802
_cell_length_b 8.665990
_cell_length_c 20.101905
_cell_angle_alpha 90.000000
_cell_angle_beta 27.413634
_cell_angle_gamma 90.000000
_cell_volume 2524.274227
_symmetry_space_group_name_H-M "C 2/M"
_symmetry_group_IT_number 12
_symmetry_cell_setting 'monoclinic'
loop_
_space_group_symop_operation_xyz
x,y,z
-x,y,-z
-x,-y,-z
x,-y,z
1/2+x,1/2+y,z
1/2-x,1/2+y,-z
1/2-x,1/2-y,-z
1/2+x,1/2-y,z
loop_
_atom_site_type_symbol
_atom_site_label
_atom_site_fract_x
_atom_site_fract_y
_atom_site_fract_z
Si Si1 0.270657 0.822048 0.820622
Si Si2 0.561369 0.319585 0.351995
Si Si3 0.061383 0.823331 0.116238
Si Si4 0.954541 0.321090 0.379176
Si Si5 0.273575 0.680188 0.674679
Si Si6 0.920220 0.180646 0.061209
O O1 0.341392 0.770771 0.779681
O O2 0.290088 0.719628 0.728795
O O3 0.284950 0.000000 0.780685
O O4 0.167322 0.795658 0.990939
O O5 0.500000 0.267951 0.500000
O O6 0.582069 0.500000 0.324059
O O7 0.510626 0.277457 0.354861
O O8 0.995938 0.711474 0.248958
O O9 0.032413 0.000000 0.169306
O O10 0.048605 0.779180 0.056801
O O11 0.963353 0.500000 0.384352
O O12 0.847971 0.270489 0.526720
O O13 0.288263 0.500000 0.643587
O O14 0.172267 0.728615 0.791017
O O15 0.898648 0.000000 0.097904
O O16 0.000000 0.235474 0.000000
#
# Coordination Sequence:
#
# PCOD8101405 Si02
#       6
#     8   8   8   8   8   8
#     4  10  20  36  58  82 110 150 194 235 278 331
#     4  11  22  35  55  82 112 149 193 239 281 327
#     4   9  20  38  58  83 116 147 181 230 285 334
#     4  12  24  37  56  81 113 153 193 234 280 331
#     4  11  21  35  57  84 115 149 187 231 280 333
#     4   9  19  39  66  91 114 144 183 227 277 338
#
# _framework density 19.015366
#
# number of rings (size 3 to 8) (size 9 to 14) (size 15 to 20)
#    0.000    1.667    1.667    5.000    0.000    5.000 
#    0.000    0.833    0.000    0.000    0.000    0.000 
#    0.000    0.000    0.000    0.000    0.000    0.000 
#
# Total GULP energy -297729.045894 kJ/mol
# GULP energy per Si atom -12405.376912 kJ/mol
# Density = 1.897209 g / cm^3
# Si number density = 19.015366 Si / 1000 Ang^3
#
#
#
# Elastic Constant Matrix: (Units=GPa)
#
#
# Indices 1 2 3 4 5 6 
#
# 1 102.1279 17.2050 46.0893 -0.0014 -16.5375 0.0002
# 2 17.2050 69.7300 38.0924 -0.0035 -3.4734 0.0029
# 3 46.0893 38.0924 113.0995 -0.0157 -3.5117 0.0033
# 4 -0.0014 -0.0035 -0.0157 31.5211 0.0035 -0.8418
# 5 -16.5375 -3.4734 -3.5117 0.0035 24.1667 0.0010
# 6 0.0002 0.0029 0.0033 -0.8418 0.0010 26.3646
#
#
#
# Elastic Compliance Matrix: (Units=1/GPa)
#
#
# Indices 1 2 3 4 5 6 
#
# 1 0.013539 -0.000058 -0.005234 -0.000003 0.008496 0.000000
# 2 -0.000058 0.017642 -0.005867 -0.000001 0.001643 -0.000001
# 3 -0.005234 -0.005867 0.012872 0.000006 -0.002555 -0.000001
# 4 -0.000003 -0.000001 0.000006 0.031752 -0.000006 0.001014
# 5 0.008496 0.001643 -0.002555 -0.000006 0.047058 -0.000002
# 6 0.000000 -0.000001 -0.000001 0.001014 -0.000002 0.037962
#
#
# Mechanical properties :
#
#
# Convention : Reuss Voigt Hill
#
# Bulk Modulus (GPa) = 46.01041 54.19231 50.10136
# Shear Modulus (GPa) = 26.26204 28.64854 27.45529
#
# Velocity S-wave (km/s) = 3.72034 3.88570 3.80392
# Velocity P-wave (km/s) = 6.53479 6.97801 6.76004
#
# Compressibility (1/GPa) = 0.02173421
#
# Stress axis : x y z
#
# Youngs Moduli (GPa) = 73.85925 56.68141 77.69094
#
# Poissons Ratio (x) = 0.00330 0.40663
# Poissons Ratio (y) = 0.00430 0.45584
# Poissons Ratio (z) = 0.38658 0.33257
#
# Static dielectric constant tensor:
#      x y z
#    x 3.369930 -0.000010 -0.147770 
#    y -0.000010 3.418560 0.000020 
#    z -0.147770 0.000020 3.527930 
# 
# 
# High freq. dielectric constant tensor:
#      x y z
#    x 1.721930 0.000000 -0.012270 
#    y 0.000000 1.744260 0.000000 
#    z -0.012270 0.000000 1.739330 
# 
# From -- ./inp_files/295343.got.cif
#   From: 2010.06.25/outbox.cif.g09.slc.cpg/sg12_148_cif.got.tgz:295343.got - 2010.06.28 00:19:55.
