data_PCOD8101779
_publ_section_title
;
Structure prediction by ZEFSAII (Michael W. Deem and Ramdas Pophale) SiO2 
 PCOD8101779
Probable space group: C 2/M
;
_chemical_formula_sum "Si O2"
_cell_formula_units_Z 64
_cell_length_a 15.506304
_cell_length_b 8.612373
_cell_length_c 23.981709
_cell_angle_alpha 90.000000
_cell_angle_beta 89.195639
_cell_angle_gamma 90.000000
_cell_volume 3202.347487
_symmetry_space_group_name_H-M "C 2/M"
_symmetry_group_IT_number 12
_symmetry_cell_setting 'monoclinic'
loop_
_space_group_symop_operation_xyz
x,y,z
-x,y,-z
-x,-y,-z
x,-y,z
1/2+x,1/2+y,z
1/2-x,1/2+y,-z
1/2-x,1/2-y,-z
1/2+x,1/2-y,z
loop_
_atom_site_type_symbol
_atom_site_label
_atom_site_fract_x
_atom_site_fract_y
_atom_site_fract_z
Si Si1 0.084043 0.685706 0.372378
Si Si2 0.148066 0.678646 0.255841
Si Si3 0.238258 0.184208 0.439116
Si Si4 0.162295 0.320597 0.874316
Si Si5 0.349190 0.816412 0.866563
Si Si6 0.325545 0.177037 0.251467
Si Si7 0.395814 0.180491 0.366228
Si Si8 0.501505 0.679673 0.935094
O O1 0.094576 0.500000 0.373650
O O2 0.101498 0.753843 0.309849
O O3 0.146916 0.760727 0.416525
O O4 0.987231 0.741036 0.388897
O O5 0.123675 0.500000 0.255949
O O6 0.122235 0.747365 0.195230
O O7 0.249552 0.702368 0.262699
O O8 0.250000 0.250000 0.500000
O O9 0.314774 0.255449 0.399521
O O10 0.239905 0.000000 0.440678
O O11 0.156728 0.500000 0.891591
O O12 0.259374 0.262834 0.885500
O O13 0.134111 0.296416 0.809985
O O14 0.095372 0.224604 0.911632
O O15 0.425116 0.778156 0.908300
O O16 0.333168 0.000000 0.865006
O O17 0.394537 0.211419 0.299455
O O18 0.290305 0.000000 0.256461
O O19 0.390267 0.000000 0.378410
O O20 0.483953 0.500000 0.923057
O O21 0.500000 0.718276 0.000000
#
# Coordination Sequence:
#
# PCOD8101779 Si02
#       8
#     8   8   8   8   8   8   8   8
#     4  10  20  36  59  86 115 150 190 233 283 344
#     4   9  18  32  56  87 120 149 183 233 290 344
#     4  11  23  41  61  82 113 154 197 241 287 339
#     4  10  21  37  62  91 121 157 197 245 301 358
#     4  10  21  38  61  90 123 158 197 244 300 360
#     4   9  17  33  58  85 117 152 190 231 282 350
#     4   9  19  35  58  84 114 152 190 228 282 348
#     4  11  25  43  61  84 118 160 207 254 299 354
#
# _framework density 19.985337999999999
#
# number of rings (size 3 to 8) (size 9 to 14) (size 15 to 20)
#    0.000    2.125    1.250    1.500    1.750    3.000 
#    0.000    4.375    0.000    0.000    0.000    0.000 
#    0.000    0.000    0.000    0.000    0.000    0.000 
#
# Total GULP energy -396666.994590 kJ/mol
# GULP energy per Si atom -12395.843581 kJ/mol
# Density = 1.993985 g / cm^3
# Si number density = 19.985338 Si / 1000 Ang^3
#
#
#
# Elastic Constant Matrix: (Units=GPa)
#
#
# Indices 1 2 3 4 5 6 
#
# 1 108.1094 16.8849 51.3335 0.0000 15.3091 0.0000
# 2 16.8849 34.8277 30.0103 0.0000 4.2845 0.0000
# 3 51.3335 30.0103 108.7416 0.0000 9.7950 0.0000
# 4 0.0000 0.0000 0.0000 26.0795 0.0000 3.1343
# 5 15.3091 4.2845 9.7950 0.0000 28.6924 0.0000
# 6 0.0000 0.0000 0.0000 3.1343 0.0000 30.8099
#
#
#
# Elastic Compliance Matrix: (Units=1/GPa)
#
#
# Indices 1 2 3 4 5 6 
#
# 1 0.012562 -0.001002 -0.005224 0.000000 -0.004770 0.000000
# 2 -0.001002 0.037879 -0.009821 0.000000 -0.001769 0.000000
# 3 -0.005224 -0.009821 0.014433 0.000000 -0.000673 0.000000
# 4 0.000000 0.000000 0.000000 0.038819 0.000000 -0.003949
# 5 -0.004770 -0.001769 -0.000673 0.000000 0.037891 0.000000
# 6 0.000000 0.000000 0.000000 -0.003949 0.000000 0.032859
#
#
# Mechanical properties :
#
#
# Convention : Reuss Voigt Hill
#
# Bulk Modulus (GPa) = 30.50678 49.79290 40.14984
# Shear Modulus (GPa) = 22.99214 27.34637 25.16925
#
# Velocity S-wave (km/s) = 3.39551 3.70310 3.55263
# Velocity P-wave (km/s) = 5.53808 6.57668 6.07960
#
# Compressibility (1/GPa) = 0.03277960
#
# Stress axis : x y z
#
# Youngs Moduli (GPa) = 79.60257 26.39981 69.28382
#
# Poissons Ratio (x) = 0.02646 0.36195
# Poissons Ratio (y) = 0.07977 0.68046
# Poissons Ratio (z) = 0.41585 0.25928
#
# Static dielectric constant tensor:
#      x y z
#    x 3.570860 0.000000 -0.052110 
#    y 0.000000 3.472240 0.000000 
#    z -0.052110 0.000000 3.797160 
# 
# 
# High freq. dielectric constant tensor:
#      x y z
#    x 1.779910 0.000000 0.000890 
#    y 0.000000 1.761650 0.000000 
#    z 0.000890 0.000000 1.785120 
# 
# From -- ./inp_files/338892.got.cif
#   From: 2010.06.25/outbox.cif.g09.slc.cpg/sg12_170_cif.got.tgz:338892.got - 2010.06.28 00:19:55.
