data_PCOD8101616
_publ_section_title
;
Structure prediction by ZEFSAII (Michael W. Deem and Ramdas Pophale) SiO2 
 PCOD8101616
Probable space group: C 2/M
;
_chemical_formula_sum "Si O2"
_cell_formula_units_Z 48
_cell_length_a 22.747759
_cell_length_b 8.865965
_cell_length_c 21.639929
_cell_angle_alpha 90.000000
_cell_angle_beta 31.633992
_cell_angle_gamma 90.000000
_cell_volume 2289.067514
_symmetry_space_group_name_H-M "C 2/M"
_symmetry_group_IT_number 12
_symmetry_cell_setting 'monoclinic'
loop_
_space_group_symop_operation_xyz
x,y,z
-x,y,-z
-x,-y,-z
x,-y,z
1/2+x,1/2+y,z
1/2-x,1/2+y,-z
1/2-x,1/2-y,-z
1/2+x,1/2-y,z
loop_
_atom_site_type_symbol
_atom_site_label
_atom_site_fract_x
_atom_site_fract_y
_atom_site_fract_z
Si Si1 0.689960 0.177125 0.955415
Si Si2 0.869518 0.174115 0.114007
Si Si3 0.086207 0.673854 0.244641
Si Si4 0.964451 0.821618 0.463829
Si Si5 0.728138 0.676552 0.666357
Si Si6 0.970023 0.326185 0.223662
O O1 0.685652 0.217913 0.887004
O O2 0.797491 0.262478 0.887494
O O3 0.705693 0.000000 0.951089
O O4 0.577477 0.235219 0.089593
O O5 0.815963 0.220229 0.226758
O O6 0.845995 0.000000 0.118223
O O7 0.000000 0.208386 0.000000
O O8 0.101785 0.500000 0.248448
O O9 0.056086 0.764749 0.333217
O O10 0.991214 0.693954 0.277599
O O11 0.845288 0.757107 0.549911
O O12 0.000000 0.763299 0.500000
O O13 0.959288 0.000000 0.466597
O O14 0.746231 0.500000 0.642110
O O15 0.638964 0.730059 0.695308
O O16 0.948399 0.500000 0.225646
#
# Coordination Sequence:
#
# PCOD8101616 Si02
#       6
#     8   8   8   8   8   8
#     4  11  22  37  61  92 126 164 204 251 307 359
#     4  10  20  36  58  89 124 158 199 247 299 356
#     4  11  24  42  64  89 121 163 208 252 302 361
#     4  11  25  45  67  91 121 157 201 253 307 363
#     4  11  23  39  64  93 124 163 204 250 303 359
#     4  10  23  41  61  90 126 163 204 251 302 361
#
# _framework density 20.969235999999999
#
# number of rings (size 3 to 8) (size 9 to 14) (size 15 to 20)
#    0.000    1.333    1.667    3.500    0.000    8.333 
#    0.000    0.000    0.000    0.000    0.000    0.000 
#    0.000    0.000    0.000    0.000    0.000    0.000 
#
# Total GULP energy -297763.589867 kJ/mol
# GULP energy per Si atom -12406.816244 kJ/mol
# Density = 2.092151 g / cm^3
# Si number density = 20.969236 Si / 1000 Ang^3
#
#
#
# Elastic Constant Matrix: (Units=GPa)
#
#
# Indices 1 2 3 4 5 6 
#
# 1 94.8877 38.9693 28.6542 -0.0004 -9.1073 0.0011
# 2 38.9693 76.7574 29.9286 0.0050 -5.8204 -0.0061
# 3 28.6542 29.9286 93.1673 0.0002 -12.3919 0.0002
# 4 -0.0004 0.0050 0.0002 33.6943 -0.0009 -5.5960
# 5 -9.1073 -5.8204 -12.3919 -0.0009 34.2373 0.0011
# 6 0.0011 -0.0061 0.0002 -5.5960 0.0011 33.6874
#
#
#
# Elastic Compliance Matrix: (Units=1/GPa)
#
#
# Indices 1 2 3 4 5 6 
#
# 1 0.013838 -0.006082 -0.002049 0.000001 0.001906 -0.000001
# 2 -0.006082 0.017590 -0.003779 -0.000002 0.000005 0.000003
# 3 -0.002049 -0.003779 0.013048 0.000000 0.003535 -0.000001
# 4 0.000001 -0.000002 0.000000 0.030521 0.000001 0.005070
# 5 0.001906 0.000005 0.003535 0.000001 0.030995 -0.000001
# 6 -0.000001 0.000003 -0.000001 0.005070 -0.000001 0.030527
#
#
# Mechanical properties :
#
#
# Convention : Reuss Voigt Hill
#
# Bulk Modulus (GPa) = 48.41370 51.10184 49.75777
# Shear Modulus (GPa) = 29.89997 31.47447 30.68722
#
# Velocity S-wave (km/s) = 3.78020 3.87846 3.82964
# Velocity P-wave (km/s) = 6.49548 6.66929 6.58296
#
# Compressibility (1/GPa) = 0.02065531
#
# Stress axis : x y z
#
# Youngs Moduli (GPa) = 72.26336 56.85073 76.64187
#
# Poissons Ratio (x) = 0.34578 0.15702
# Poissons Ratio (y) = 0.43953 0.28965
# Poissons Ratio (z) = 0.14805 0.21485
#
# Static dielectric constant tensor:
#      x y z
#    x 3.812510 0.000000 -0.021300 
#    y 0.000000 3.689160 0.000000 
#    z -0.021300 0.000000 3.833220 
# 
# 
# High freq. dielectric constant tensor:
#      x y z
#    x 1.829640 0.000000 -0.005490 
#    y 0.000000 1.820320 0.000000 
#    z -0.005490 0.000000 1.826190 
# 
# From -- ./inp_files/348752.got.cif
#   From: 2010.06.25/outbox.cif.g09.slc.cpg/sg12_175_cif.got.tgz:348752.got - 2010.06.28 00:19:55.
