data_PCOD8101950
_publ_section_title
;
Structure prediction by ZEFSAII (Michael W. Deem and Ramdas Pophale) SiO2 
 PCOD8101950
Probable space group: C 2/M
;
_chemical_formula_sum "Si O2"
_cell_formula_units_Z 56
_cell_length_a 10.785549
_cell_length_b 17.571584
_cell_length_c 14.849500
_cell_angle_alpha 90.000000
_cell_angle_beta 89.163250
_cell_angle_gamma 90.000000
_cell_volume 2813.964962
_symmetry_space_group_name_H-M "C 2/M"
_symmetry_group_IT_number 12
_symmetry_cell_setting 'monoclinic'
loop_
_space_group_symop_operation_xyz
x,y,z
-x,y,-z
-x,-y,-z
x,-y,z
1/2+x,1/2+y,z
1/2-x,1/2+y,-z
1/2-x,1/2-y,-z
1/2+x,1/2-y,z
loop_
_atom_site_type_symbol
_atom_site_label
_atom_site_fract_x
_atom_site_fract_y
_atom_site_fract_z
Si Si1 0.454573 0.416758 0.740567
Si Si2 0.424039 0.318587 0.409700
Si Si3 0.930886 0.645603 0.373530
Si Si4 0.508176 0.315700 0.892221
Si Si5 0.680504 0.915844 0.797719
Si Si6 0.820778 0.411149 0.548519
Si Si7 0.243052 0.725179 0.898698
O O1 0.508765 0.500000 0.715588
O O2 0.492429 0.353654 0.669072
O O3 0.503403 0.395872 0.840553
O O4 0.306925 0.419515 0.740609
O O5 0.500000 0.316955 0.500000
O O6 0.388172 0.233208 0.381984
O O7 0.305470 0.371376 0.422339
O O8 0.919229 0.617621 0.271028
O O9 0.844600 0.596043 0.441315
O O10 0.073586 0.634151 0.398620
O O11 0.385110 0.267243 0.860280
O O12 0.636037 0.277426 0.855730
O O13 0.500000 0.328378 0.000000
O O14 0.695865 0.861755 0.885216
O O15 0.640438 0.000000 0.831807
O O16 0.818057 0.500000 0.575132
O O17 0.250000 0.750000 0.000000
#
# Coordination Sequence:
#
# PCOD8101950 Si02
#       7
#     8   8   8   8   8   8   8
#     4  10  22  37  55  85 118 148 193 246 301 363
#     4  12  24  38  59  85 119 160 206 249 301 359
#     4  11  22  38  60  82 116 157 211 250 294 358
#     4   9  18  36  61  86 113 150 191 242 301 361
#     4  10  20  36  60  85 115 154 198 244 300 360
#     4  11  23  39  59  84 118 160 205 257 305 353
#     4   9  18  35  59  86 115 146 190 241 295 362
#
# _framework density 19.900745000000001
#
# number of rings (size 3 to 8) (size 9 to 14) (size 15 to 20)
#    0.000    1.714    1.429    4.286    2.000    2.571 
#    2.571    2.143    0.000    3.857    0.000    0.000 
#    0.000    0.000    0.000    0.000    0.000    0.000 
#
# Total GULP energy -346996.215445 kJ/mol
# GULP energy per Si atom -12392.721980 kJ/mol
# Density = 1.985545 g / cm^3
# Si number density = 19.900745 Si / 1000 Ang^3
#
#
#
# Elastic Constant Matrix: (Units=GPa)
#
#
# Indices 1 2 3 4 5 6 
#
# 1 62.0920 23.8380 10.1763 0.0000 8.9079 0.0000
# 2 23.8380 116.7012 40.3283 0.0000 9.2107 0.0000
# 3 10.1763 40.3283 80.8355 0.0000 14.6201 0.0000
# 4 0.0000 0.0000 0.0000 30.9770 0.0000 -1.1102
# 5 8.9079 9.2107 14.6201 0.0000 21.3003 0.0000
# 6 0.0000 0.0000 0.0000 -1.1102 0.0000 26.6544
#
#
#
# Elastic Compliance Matrix: (Units=1/GPa)
#
#
# Indices 1 2 3 4 5 6 
#
# 1 0.018262 -0.003417 0.000594 0.000000 -0.006567 0.000000
# 2 -0.003417 0.011014 -0.005094 0.000000 0.000163 0.000000
# 3 0.000594 -0.005094 0.016537 0.000000 -0.009396 0.000000
# 4 0.000000 0.000000 0.000000 0.032330 0.000000 0.001347
# 5 -0.006567 0.000163 -0.009396 0.000000 0.056073 0.000000
# 6 0.000000 0.000000 0.000000 0.001347 0.000000 0.037573
#
#
# Mechanical properties :
#
#
# Convention : Reuss Voigt Hill
#
# Bulk Modulus (GPa) = 33.35831 45.36821 39.36326
# Shear Modulus (GPa) = 25.30133 28.13874 26.72003
#
# Velocity S-wave (km/s) = 3.56950 3.76434 3.66821
# Velocity P-wave (km/s) = 5.81268 6.46068 6.14523
#
# Compressibility (1/GPa) = 0.02997754
#
# Stress axis : x y z
#
# Youngs Moduli (GPa) = 54.75901 90.78965 60.47050
#
# Poissons Ratio (x) = 0.31023 -0.03589
# Poissons Ratio (y) = 0.18711 0.30806
# Poissons Ratio (z) = -0.03250 0.46251
#
# Static dielectric constant tensor:
#      x y z
#    x 3.989990 0.000000 0.144720 
#    y 0.000000 3.841110 0.000000 
#    z 0.144720 0.000000 3.423180 
# 
# 
# High freq. dielectric constant tensor:
#      x y z
#    x 1.780730 0.000000 0.016690 
#    y 0.000000 1.777340 0.000000 
#    z 0.016690 0.000000 1.763630 
# 
# From -- ./inp_files/205043.got.cif
#   From: 2010.06.25/outbox.cif.g09.slc.cpg/sg12_103_cif.got.tgz:205043.got - 2010.06.28 00:19:55.
