data_PCOD8101789
_publ_section_title
;
Structure prediction by ZEFSAII (Michael W. Deem and Ramdas Pophale) SiO2 
 PCOD8101789
Probable space group: C 2/M
;
_chemical_formula_sum "Si O2"
_cell_formula_units_Z 64
_cell_length_a 20.458554
_cell_length_b 8.738788
_cell_length_c 17.688195
_cell_angle_alpha 90.000000
_cell_angle_beta 90.259711
_cell_angle_gamma 90.000000
_cell_volume 3162.315481
_symmetry_space_group_name_H-M "C 2/M"
_symmetry_group_IT_number 12
_symmetry_cell_setting 'monoclinic'
loop_
_space_group_symop_operation_xyz
x,y,z
-x,y,-z
-x,-y,-z
x,-y,z
1/2+x,1/2+y,z
1/2-x,1/2+y,-z
1/2-x,1/2-y,-z
1/2+x,1/2-y,z
loop_
_atom_site_type_symbol
_atom_site_label
_atom_site_fract_x
_atom_site_fract_y
_atom_site_fract_z
Si Si1 0.548974 0.318904 0.790499
Si Si2 0.166815 0.320206 0.701978
Si Si3 0.073253 0.679461 0.286729
Si Si4 0.308751 0.681261 0.954099
Si Si5 0.558316 0.676130 0.445769
Si Si6 0.300659 0.319661 0.781778
Si Si7 0.688563 0.322088 0.540698
Si Si8 0.935908 0.817952 0.039974
O O1 0.545822 0.500000 0.787471
O O2 0.602529 0.262090 0.731939
O O3 0.477452 0.256936 0.770698
O O4 0.567879 0.258984 0.874015
O O5 0.154900 0.500000 0.705163
O O6 0.229232 0.271928 0.752092
O O7 0.177632 0.269397 0.616975
O O8 0.069623 0.500000 0.275265
O O9 0.054647 0.719676 0.372107
O O10 0.145980 0.737175 0.269566
O O11 0.304304 0.500000 0.957669
O O12 0.306840 0.738090 0.867778
O O13 0.250000 0.750000 0.000000
O O14 0.374376 0.744655 0.993011
O O15 0.500000 0.729192 0.500000
O O16 0.548702 0.500000 0.421285
O O17 0.626706 0.701478 0.487031
O O18 0.312221 0.500000 0.774460
O O19 0.700957 0.500000 0.558445
O O20 0.750000 0.250000 0.500000
O O21 0.937429 0.000000 0.038329
O O22 0.000000 0.750400 0.000000
#
# Coordination Sequence:
#
# PCOD8101789 Si02
#       8
#     8   8   8   8   8   8   8   8
#     4  11  22  38  61  86 118 158 196 239 295 354
#     4  11  23  39  60  88 121 155 196 243 290 345
#     4  12  25  39  60  89 119 152 195 246 292 343
#     4  10  20  36  59  86 116 151 193 240 289 343
#     4  10  22  41  63  85 112 150 194 237 287 348
#     4  10  22  40  61  85 119 161 197 237 293 351
#     4  11  23  39  61  88 118 154 194 238 291 347
#     4   9  18  34  58  85 111 147 196 241 281 337
#
# _framework density 20.238333999999998
#
# number of rings (size 3 to 8) (size 9 to 14) (size 15 to 20)
#    0.000    1.500    0.000    5.250    0.000    8.750 
#    0.000    0.625    0.000    2.625    0.000    0.000 
#    0.000    0.000    0.000    0.000    0.000    0.000 
#
# Total GULP energy -396991.261959 kJ/mol
# GULP energy per Si atom -12405.976936 kJ/mol
# Density = 2.019227 g / cm^3
# Si number density = 20.238334 Si / 1000 Ang^3
#
#
#
# Elastic Constant Matrix: (Units=GPa)
#
#
# Indices 1 2 3 4 5 6 
#
# 1 95.8075 18.7214 0.3850 0.0000 -10.0644 0.0000
# 2 18.7214 54.8411 7.2134 0.0000 0.8557 0.0000
# 3 0.3850 7.2134 76.4953 0.0000 -7.1963 0.0000
# 4 0.0000 0.0000 0.0000 25.0824 0.0000 -2.0325
# 5 -10.0644 0.8557 -7.1963 0.0000 42.5747 0.0000
# 6 0.0000 0.0000 0.0000 -2.0325 0.0000 34.8242
#
#
#
# Elastic Compliance Matrix: (Units=1/GPa)
#
#
# Indices 1 2 3 4 5 6 
#
# 1 0.011535 -0.004062 0.000599 0.000000 0.002910 0.000000
# 2 -0.004062 0.019913 -0.002017 0.000000 -0.001701 0.000000
# 3 0.000599 -0.002017 0.013492 0.000000 0.002463 0.000000
# 4 0.000000 0.000000 0.000000 0.040058 0.000000 0.002338
# 5 0.002910 -0.001701 0.002463 0.000000 0.024626 0.000000
# 6 0.000000 0.000000 0.000000 0.002338 0.000000 0.028852
#
#
# Mechanical properties :
#
#
# Convention : Reuss Voigt Hill
#
# Bulk Modulus (GPa) = 29.43064 31.08704 30.25884
# Shear Modulus (GPa) = 31.10179 33.88455 32.49317
#
# Velocity S-wave (km/s) = 3.92443 4.09623 4.01125
# Velocity P-wave (km/s) = 5.92524 6.14540 6.03632
#
# Compressibility (1/GPa) = 0.03397819
#
# Stress axis : x y z
#
# Youngs Moduli (GPa) = 86.69630 50.21856 74.12029
#
# Poissons Ratio (x) = 0.20397 -0.04437
# Poissons Ratio (y) = 0.35214 0.14953
# Poissons Ratio (z) = -0.05190 0.10131
#
# Static dielectric constant tensor:
#      x y z
#    x 4.234910 0.000000 0.424280 
#    y 0.000000 3.529850 0.000000 
#    z 0.424280 0.000000 4.153190 
# 
# 
# High freq. dielectric constant tensor:
#      x y z
#    x 1.810120 0.000000 0.000820 
#    y 0.000000 1.776110 0.000000 
#    z 0.000820 0.000000 1.808030 
# 
# From -- ./inp_files/281366.got.cif
#   From: 2010.06.25/outbox.cif.g09.slc.cpg/sg12_141_cif.got.tgz:281366.got - 2010.06.28 00:19:55.
