data_PCOD8101458
_publ_section_title
;
Structure prediction by ZEFSAII (Michael W. Deem and Ramdas Pophale) SiO2 
 PCOD8101458
Probable space group: C 2/M
;
_chemical_formula_sum "Si O2"
_cell_formula_units_Z 48
_cell_length_a 8.590337
_cell_length_b 18.107402
_cell_length_c 15.517425
_cell_angle_alpha 90.000000
_cell_angle_beta 92.488606
_cell_angle_gamma 90.000000
_cell_volume 2411.438627
_symmetry_space_group_name_H-M "C 2/M"
_symmetry_group_IT_number 12
_symmetry_cell_setting 'monoclinic'
loop_
_space_group_symop_operation_xyz
x,y,z
-x,y,-z
-x,-y,-z
x,-y,z
1/2+x,1/2+y,z
1/2-x,1/2+y,-z
1/2-x,1/2-y,-z
1/2+x,1/2-y,z
loop_
_atom_site_type_symbol
_atom_site_label
_atom_site_fract_x
_atom_site_fract_y
_atom_site_fract_z
Si Si1 0.102812 0.581371 0.088542
Si Si2 0.695213 0.912404 0.827985
Si Si3 0.680725 0.670006 0.003850
Si Si4 0.179727 0.415543 0.492847
Si Si5 0.396798 0.700805 0.412706
Si Si6 0.296856 0.341936 0.654106
O O1 0.169510 0.500000 0.102335
O O2 0.991360 0.601606 0.166573
O O3 0.254774 0.632217 0.082480
O O4 0.000000 0.588300 0.000000
O O5 0.779553 0.878762 0.912482
O O6 0.751834 0.867628 0.747406
O O7 0.731448 0.000000 0.822844
O O8 0.500000 0.679118 0.000000
O O9 0.750000 0.750000 0.000000
O O10 0.192645 0.500000 0.460719
O O11 0.268466 0.362987 0.426726
O O12 0.263704 0.408781 0.587417
O O13 0.000000 0.391693 0.500000
O O14 0.500000 0.718567 0.500000
O O15 0.518342 0.676099 0.341562
O O16 0.305069 0.772567 0.379672
#
# Coordination Sequence:
#
# PCOD8101458 Si02
#       6
#     8   8   8   8   8   8
#     4   8  16  34  57  78 106 142 177 216 266 326
#     4  10  22  39  59  85 115 145 181 230 285 333
#     4  11  22  37  59  84 111 146 188 227 269 331
#     4  10  20  36  58  83 113 151 194 233 275 333
#     4  10  21  36  57  82 113 153 193 232 274 331
#     4  11  21  36  58  84 116 149 186 234 285 329
#
# _framework density 19.905128999999999
#
# number of rings (size 3 to 8) (size 9 to 14) (size 15 to 20)
#    0.000    2.000    0.000    7.000    0.000    7.667 
#    0.000    1.667    0.000    0.000    0.000    0.000 
#    0.000    0.000    0.000    0.000    0.000    0.000 
#
# Total GULP energy -297443.550853 kJ/mol
# GULP energy per Si atom -12393.481286 kJ/mol
# Density = 1.985982 g / cm^3
# Si number density = 19.905129 Si / 1000 Ang^3
#
#
#
# Elastic Constant Matrix: (Units=GPa)
#
#
# Indices 1 2 3 4 5 6 
#
# 1 168.7573 86.3345 41.5243 0.0000 -37.3330 0.0000
# 2 86.3345 140.0648 51.6900 0.0000 -24.6215 0.0000
# 3 41.5243 51.6900 77.9413 0.0000 -32.9235 0.0000
# 4 0.0000 0.0000 0.0000 26.0330 0.0000 -6.7059
# 5 -37.3330 -24.6215 -32.9235 0.0000 35.9190 0.0000
# 6 0.0000 0.0000 0.0000 -6.7059 0.0000 34.7825
#
#
#
# Elastic Compliance Matrix: (Units=1/GPa)
#
#
# Indices 1 2 3 4 5 6 
#
# 1 0.010123 -0.005405 0.001747 0.000000 0.008418 0.000000
# 2 -0.005405 0.012370 -0.006716 0.000000 -0.003294 0.000000
# 3 0.001747 -0.006716 0.024764 0.000000 0.019911 0.000000
# 4 0.000000 0.000000 0.000000 0.040420 0.000000 0.007793
# 5 0.008418 -0.003294 0.019911 0.000000 0.052583 0.000000
# 6 0.000000 0.000000 0.000000 0.007793 0.000000 0.030252
#
#
# Mechanical properties :
#
#
# Convention : Reuss Voigt Hill
#
# Bulk Modulus (GPa) = 37.72053 82.87345 60.29699
# Shear Modulus (GPa) = 24.98789 33.16119 29.07454
#
# Velocity S-wave (km/s) = 3.54693 4.08605 3.82600
# Velocity P-wave (km/s) = 5.98044 7.99910 7.06227
#
# Compressibility (1/GPa) = 0.02651076
#
# Stress axis : x y z
#
# Youngs Moduli (GPa) = 98.78422 80.83807 40.38116
#
# Poissons Ratio (x) = 0.43691 -0.07055
# Poissons Ratio (y) = 0.53390 0.27119
# Poissons Ratio (z) = -0.17259 0.54289
#
# Static dielectric constant tensor:
#      x y z
#    x 4.069530 0.000000 -0.433260 
#    y 0.000000 3.719680 0.000000 
#    z -0.433260 0.000000 3.486820 
# 
# 
# High freq. dielectric constant tensor:
#      x y z
#    x 1.787300 0.000000 -0.032170 
#    y 0.000000 1.790670 0.000000 
#    z -0.032170 0.000000 1.744520 
# 
# From -- ./inp_files/195942.got.cif
#   From: 2010.06.25/outbox.cif.g09.slc.cpg/sg12_98_cif.got.tgz:195942.got - 2010.06.28 00:19:55.
