data_PCOD8101215
_publ_section_title
;
Structure prediction by ZEFSAII (Michael W. Deem and Ramdas Pophale) SiO2 
 PCOD8101215
Probable space group: C 2/M
;
_chemical_formula_sum "Si O2"
_cell_formula_units_Z 60
_cell_length_a 13.707920
_cell_length_b 21.629702
_cell_length_c 19.083890
_cell_angle_alpha 90.000000
_cell_angle_beta 34.883741
_cell_angle_gamma 90.000000
_cell_volume 3236.078562
_symmetry_space_group_name_H-M "C 2/M"
_symmetry_group_IT_number 12
_symmetry_cell_setting 'monoclinic'
loop_
_space_group_symop_operation_xyz
x,y,z
-x,y,-z
-x,-y,-z
x,-y,z
1/2+x,1/2+y,z
1/2-x,1/2+y,-z
1/2-x,1/2-y,-z
1/2+x,1/2-y,z
loop_
_atom_site_type_symbol
_atom_site_label
_atom_site_fract_x
_atom_site_fract_y
_atom_site_fract_z
Si Si1 0.312808 0.235347 0.258951
Si Si2 0.309398 0.670489 0.140997
Si Si3 0.846141 0.755983 0.870817
Si Si4 0.000000 0.161865 0.500000
Si Si5 0.510468 0.427276 0.364558
Si Si6 0.284303 0.927230 0.565632
Si Si7 0.156197 0.427342 0.315252
Si Si8 0.678886 0.143736 0.867508
O O1 0.265708 0.293271 0.238289
O O2 0.452827 0.258515 0.232293
O O3 0.155862 0.208271 0.395331
O O4 0.376994 0.182476 0.167852
O O5 0.184381 0.693148 0.153917
O O6 0.264727 0.600081 0.186498
O O7 0.500000 0.679147 0.000000
O O8 0.778019 0.814083 0.866010
O O9 0.750000 0.750000 0.000000
O O10 0.963477 0.116183 0.457146
O O11 0.495624 0.500000 0.392635
O O12 0.378359 0.406315 0.382693
O O13 0.700537 0.413429 0.224589
O O14 0.460486 0.902852 0.427411
O O15 0.263515 0.904768 0.657961
O O16 0.301639 0.000000 0.557349
O O17 0.168596 0.500000 0.298478
O O18 0.500000 0.116183 0.000000
#
# Coordination Sequence:
#
# PCOD8101215 Si02
#       8
#     8   8   8   4   8   8   8   8
#     4  10  21  39  53  82 111 144 183 230 278 332
#     4  11  22  34  55  84 109 146 185 223 282 331
#     4  11  19  36  61  77 111 151 184 226 280 327
#     4  10  23  38  58  82 115 144 184 238 280 326
#     4  10  21  37  58  83 112 148 186 228 282 336
#     4   8  17  35  55  77 106 145 183 219 272 325
#     4   9  19  36  57  81 113 146 182 229 274 332
#     4  10  20  36  57  83 110 145 191 227 275 328
#
# _framework density 18.540959000000001
#
# number of rings (size 3 to 8) (size 9 to 14) (size 15 to 20)
#    0.000    2.133    2.667    1.800    3.733    1.600 
#    0.000    2.000    0.000    0.800    0.000    0.000 
#    0.000    0.000    0.000    0.000    0.000    0.000 
#
# Total GULP energy -371823.807968 kJ/mol
# GULP energy per Si atom -12394.126932 kJ/mol
# Density = 1.849876 g / cm^3
# Si number density = 18.540959 Si / 1000 Ang^3
#
#
#
# Elastic Constant Matrix: (Units=GPa)
#
#
# Indices 1 2 3 4 5 6 
#
# 1 118.2056 35.0068 48.4660 -0.0010 -7.1302 -0.0002
# 2 35.0068 64.8645 46.4744 -0.0103 5.0237 0.0085
# 3 48.4660 46.4744 111.5163 0.0090 3.4373 0.0058
# 4 -0.0010 -0.0103 0.0090 31.5568 0.0038 4.1889
# 5 -7.1302 5.0237 3.4373 0.0038 26.3442 -0.0024
# 6 -0.0002 0.0085 0.0058 4.1889 -0.0024 21.9672
#
#
#
# Elastic Compliance Matrix: (Units=1/GPa)
#
#
# Indices 1 2 3 4 5 6 
#
# 1 0.011283 -0.004009 -0.003364 -0.000001 0.004257 0.000003
# 2 -0.004009 0.023644 -0.007971 0.000012 -0.004554 -0.000010
# 3 -0.003364 -0.007971 0.013788 -0.000007 -0.001190 0.000001
# 4 -0.000001 0.000012 -0.000007 0.032512 -0.000007 -0.006200
# 5 0.004257 -0.004554 -0.001190 -0.000007 0.040135 0.000008
# 6 0.000003 -0.000010 0.000001 -0.006200 0.000008 0.046705
#
#
# Mechanical properties :
#
#
# Convention : Reuss Voigt Hill
#
# Bulk Modulus (GPa) = 55.47203 61.60895 58.54049
# Shear Modulus (GPa) = 24.41833 26.94959 25.68396
#
# Velocity S-wave (km/s) = 3.63298 3.81664 3.72594
# Velocity P-wave (km/s) = 6.89794 7.26106 7.08183
#
# Compressibility (1/GPa) = 0.01802710
#
# Stress axis : x y z
#
# Youngs Moduli (GPa) = 88.62675 42.29392 72.52615
#
# Poissons Ratio (x) = 0.16954 0.24401
# Poissons Ratio (y) = 0.35527 0.57811
# Poissons Ratio (z) = 0.29818 0.33713
#
# Static dielectric constant tensor:
#      x y z
#    x 4.625650 0.000160 -0.272400 
#    y 0.000160 3.237300 0.000010 
#    z -0.272400 0.000010 3.492790 
# 
# 
# High freq. dielectric constant tensor:
#      x y z
#    x 1.726030 0.000000 0.000280 
#    y 0.000000 1.703590 0.000010 
#    z 0.000280 0.000010 1.719580 
# 
# From -- ./inp_files/265694.got.cif
#   From: 2010.06.25/outbox.cif.g09.slc.cpg/sg12_133_cif.got.tgz:265694.got - 2010.06.28 00:19:55.
