data_PCOD8101763
_publ_section_title
;
Structure prediction by ZEFSAII (Michael W. Deem and Ramdas Pophale) SiO2 
 PCOD8101763
Probable space group: C 2/M
;
_chemical_formula_sum "Si O2"
_cell_formula_units_Z 56
_cell_length_a 29.509245
_cell_length_b 8.985228
_cell_length_c 11.017078
_cell_angle_alpha 90.000000
_cell_angle_beta 114.333727
_cell_angle_gamma 90.000000
_cell_volume 2661.636175
_symmetry_space_group_name_H-M "C 2/M"
_symmetry_group_IT_number 12
_symmetry_cell_setting 'monoclinic'
loop_
_space_group_symop_operation_xyz
x,y,z
-x,y,-z
-x,-y,-z
x,-y,z
1/2+x,1/2+y,z
1/2-x,1/2+y,-z
1/2-x,1/2-y,-z
1/2+x,1/2-y,z
loop_
_atom_site_type_symbol
_atom_site_label
_atom_site_fract_x
_atom_site_fract_y
_atom_site_fract_z
Si Si1 0.862663 0.168902 0.978482
Si Si2 0.199879 0.324980 0.902320
Si Si3 0.791088 0.165973 0.677916
Si Si4 0.820944 0.670739 0.487000
Si Si5 0.367796 0.674816 0.341852
Si Si6 0.037509 0.327296 0.931930
Si Si7 0.462909 0.827801 0.348466
O O1 0.817596 0.172586 0.835347
O O2 0.869067 0.000000 0.035122
O O3 0.846853 0.283044 0.065053
O O4 0.914791 0.226787 0.984123
O O5 0.207851 0.500000 0.901383
O O6 0.183239 0.256340 0.756482
O O7 0.250000 0.250000 0.000000
O O8 0.819036 0.285309 0.625578
O O9 0.733254 0.206512 0.630420
O O10 0.795390 0.000000 0.625682
O O11 0.836439 0.500000 0.490992
O O12 0.866141 0.769057 0.479269
O O13 0.363093 0.500000 0.326037
O O14 0.415108 0.726344 0.317588
O O15 0.051829 0.500000 0.958109
O O16 0.017869 0.295635 0.769953
O O17 0.000000 0.284640 0.000000
O O18 0.500000 0.784781 0.500000
O O19 0.447924 0.000000 0.344256
#
# Coordination Sequence:
#
# PCOD8101763 Si02
#       7
#     8   8   8   8   8   8   8
#     4  11  22  38  61  90 124 162 204 257 320 381
#     4  12  24  39  61  91 127 166 209 256 311 378
#     4   9  20  37  56  84 123 162 203 253 308 374
#     4  10  20  36  59  85 120 166 210 253 305 371
#     4  12  24  39  61  90 125 163 206 258 317 380
#     4  10  22  41  64  90 122 163 213 271 329 393
#     4  10  22  42  66  91 123 165 212 268 330 393
#
# _framework density 21.03969
#
# number of rings (size 3 to 8) (size 9 to 14) (size 15 to 20)
#    0.000    1.429    1.429    4.286    0.000    4.571 
#    0.000    1.429    0.000    0.000    0.000    0.000 
#    0.000    0.000    0.000    0.000    0.000    0.000 
#
# Total GULP energy -347006.604326 kJ/mol
# GULP energy per Si atom -12393.093012 kJ/mol
# Density = 2.099180 g / cm^3
# Si number density = 21.039690 Si / 1000 Ang^3
#
#
#
# Elastic Constant Matrix: (Units=GPa)
#
#
# Indices 1 2 3 4 5 6 
#
# 1 91.3290 45.0853 22.9539 0.0000 -28.5839 0.0000
# 2 45.0853 130.2264 31.3385 0.0000 -9.6417 0.0000
# 3 22.9539 31.3385 72.3644 0.0000 -12.8153 0.0000
# 4 0.0000 0.0000 0.0000 27.7984 0.0000 -1.7801
# 5 -28.5839 -9.6417 -12.8153 0.0000 32.2639 0.0000
# 6 0.0000 0.0000 0.0000 -1.7801 0.0000 38.9970
#
#
#
# Elastic Compliance Matrix: (Units=1/GPa)
#
#
# Indices 1 2 3 4 5 6 
#
# 1 0.018085 -0.004954 -0.001093 0.000000 0.014108 0.000000
# 2 -0.004954 0.009970 -0.003223 0.000000 -0.002689 0.000000
# 3 -0.001093 -0.003223 0.016371 0.000000 0.004571 0.000000
# 4 0.000000 0.000000 0.000000 0.036079 0.000000 0.001647
# 5 0.014108 -0.002689 0.004571 0.000000 0.044505 0.000000
# 6 0.000000 0.000000 0.000000 0.001647 0.000000 0.025718
#
#
# Mechanical properties :
#
#
# Convention : Reuss Voigt Hill
#
# Bulk Modulus (GPa) = 38.62866 54.74171 46.68518
# Shear Modulus (GPa) = 28.10637 32.78133 30.44385
#
# Velocity S-wave (km/s) = 3.65893 3.95152 3.80804
# Velocity P-wave (km/s) = 6.02080 6.84793 6.44764
#
# Compressibility (1/GPa) = 0.02588751
#
# Stress axis : x y z
#
# Youngs Moduli (GPa) = 55.29491 100.29733 61.08429
#
# Poissons Ratio (x) = 0.49683 0.06676
# Poissons Ratio (y) = 0.27391 0.19686
# Poissons Ratio (z) = 0.06043 0.32324
#
# Static dielectric constant tensor:
#      x y z
#    x 3.822830 0.000000 -0.252510 
#    y 0.000000 3.804940 0.000000 
#    z -0.252510 0.000000 4.201180 
# 
# 
# High freq. dielectric constant tensor:
#      x y z
#    x 1.820630 0.000000 -0.015900 
#    y 0.000000 1.825200 0.000000 
#    z -0.015900 0.000000 1.826870 
# 
# From -- ./inp_files/181048.got.cif
#   From: 2010.06.25/outbox.cif.g09.slc.cpg/sg12_91_cif.got.tgz:181048.got - 2010.06.28 00:19:55.
