data_PCOD8101668
_publ_section_title
;
Structure prediction by ZEFSAII (Michael W. Deem and Ramdas Pophale) SiO2 
 PCOD8101668
Probable space group: C 2/M
;
_chemical_formula_sum "Si O2"
_cell_formula_units_Z 64
_cell_length_a 15.159830
_cell_length_b 8.608558
_cell_length_c 28.014807
_cell_angle_alpha 90.000000
_cell_angle_beta 122.784631
_cell_angle_gamma 90.000000
_cell_volume 3073.686438
_symmetry_space_group_name_H-M "C 2/M"
_symmetry_group_IT_number 12
_symmetry_cell_setting 'monoclinic'
loop_
_space_group_symop_operation_xyz
x,y,z
-x,y,-z
-x,-y,-z
x,-y,z
1/2+x,1/2+y,z
1/2-x,1/2+y,-z
1/2-x,1/2-y,-z
1/2+x,1/2-y,z
loop_
_atom_site_type_symbol
_atom_site_label
_atom_site_fract_x
_atom_site_fract_y
_atom_site_fract_z
Si Si1 0.679520 0.821702 0.769668
Si Si2 0.554406 0.821295 0.881598
Si Si3 0.955961 0.179202 0.706803
Si Si4 0.228226 0.180063 0.878255
Si Si5 0.903446 0.684456 0.000916
Si Si6 0.390437 0.180770 0.494039
Si Si7 0.352500 0.175730 0.767052
Si Si8 0.833378 0.320355 0.585642
O O1 0.578203 0.714550 0.736429
O O2 0.749173 0.776125 0.836344
O O3 0.753336 0.788475 0.745777
O O4 0.644884 0.000000 0.760596
O O5 0.608854 0.712490 0.858212
O O6 0.587012 0.751873 0.942611
O O7 0.431092 0.807514 0.835277
O O8 0.591601 0.000000 0.886695
O O9 0.908824 0.284363 0.734493
O O10 0.897826 0.214742 0.640593
O O11 0.941606 0.000000 0.715950
O O12 0.249566 0.000000 0.873842
O O13 0.299217 0.241239 0.943137
O O14 0.910099 0.500000 0.004835
O O15 0.000000 0.754393 0.000000
O O16 0.500000 0.236236 0.500000
O O17 0.289488 0.275039 0.445641
O O18 0.388861 0.209393 0.550602
O O19 0.373295 0.000000 0.477218
O O20 0.311311 0.000000 0.751820
O O21 0.843353 0.500000 0.602635
#
# Coordination Sequence:
#
# PCOD8101668 Si02
#       8
#     8   8   8   8   8   8   8   8
#     4  12  25  42  63  88 121 162 209 259 315 376
#     4  10  20  36  59  83 114 152 194 248 313 380
#     4  12  25  43  65  91 127 167 213 264 314 369
#     4  11  21  35  58  84 114 152 199 250 309 377
#     4   9  18  33  53  80 111 148 193 245 308 376
#     4   9  19  38  64  94 130 171 213 257 307 360
#     4  11  23  41  65  91 120 159 206 257 318 380
#     4  10  21  38  62  93 130 169 211 259 311 366
#
# _framework density 20.821902000000001
#
# number of rings (size 3 to 8) (size 9 to 14) (size 15 to 20)
#    0.000    1.500    1.250    4.500    0.000    4.250 
#    0.000    4.375    0.000    2.625    0.000    0.000 
#    0.000    0.000    0.000    0.000    0.000    0.000 
#
# Total GULP energy -396779.371494 kJ/mol
# GULP energy per Si atom -12399.355359 kJ/mol
# Density = 2.077451 g / cm^3
# Si number density = 20.821902 Si / 1000 Ang^3
#
#
#
# Elastic Constant Matrix: (Units=GPa)
#
#
# Indices 1 2 3 4 5 6 
#
# 1 124.7762 16.2446 29.0315 0.0000 10.3085 0.0000
# 2 16.2446 69.7065 25.1698 0.0000 3.2872 0.0000
# 3 29.0315 25.1698 93.1231 0.0000 -3.7313 0.0000
# 4 0.0000 0.0000 0.0000 28.3115 0.0000 -1.5182
# 5 10.3085 3.2872 -3.7313 0.0000 11.3707 0.0000
# 6 0.0000 0.0000 0.0000 -1.5182 0.0000 31.8599
#
#
#
# Elastic Compliance Matrix: (Units=1/GPa)
#
#
# Indices 1 2 3 4 5 6 
#
# 1 0.009640 -0.000630 -0.003220 0.000000 -0.009614 0.000000
# 2 -0.000630 0.016365 -0.004452 0.000000 -0.005620 0.000000
# 3 -0.003220 -0.004452 0.013289 0.000000 0.008567 0.000000
# 4 0.000000 0.000000 0.000000 0.035412 0.000000 0.001687
# 5 -0.009614 -0.005620 0.008567 0.000000 0.101098 0.000000
# 6 0.000000 0.000000 0.000000 0.001687 0.000000 0.031468
#
#
# Mechanical properties :
#
#
# Convention : Reuss Voigt Hill
#
# Bulk Modulus (GPa) = 44.07386 47.61083 45.84235
# Shear Modulus (GPa) = 21.60392 28.78575 25.19484
#
# Velocity S-wave (km/s) = 3.22461 3.72220 3.48230
# Velocity P-wave (km/s) = 5.92260 6.43338 6.18327
#
# Compressibility (1/GPa) = 0.02268918
#
# Stress axis : x y z
#
# Youngs Moduli (GPa) = 103.73551 61.10462 75.25055
#
# Poissons Ratio (x) = 0.03852 0.24231
# Poissons Ratio (y) = 0.06540 0.33502
# Poissons Ratio (z) = 0.33404 0.27204
#
# Static dielectric constant tensor:
#      x y z
#    x 3.814860 0.000000 -0.051520 
#    y 0.000000 3.536540 0.000000 
#    z -0.051520 0.000000 3.822500 
# 
# 
# High freq. dielectric constant tensor:
#      x y z
#    x 1.822180 0.000000 -0.001050 
#    y 0.000000 1.801670 0.000000 
#    z -0.001050 0.000000 1.813870 
# 
# From -- ./inp_files/375584.got.cif
#   From: 2010.06.25/outbox.cif.g09.slc.cpg/sg12_188_cif.got.tgz:375584.got - 2010.06.28 00:19:55.
