data_PCOD8101625
_publ_section_title
;
Structure prediction by ZEFSAII (Michael W. Deem and Ramdas Pophale) SiO2 
 PCOD8101625
Probable space group: C 2/M
;
_chemical_formula_sum "Si O2"
_cell_formula_units_Z 56
_cell_length_a 22.188675
_cell_length_b 11.470584
_cell_length_c 21.890268
_cell_angle_alpha 90.000000
_cell_angle_beta 148.463959
_cell_angle_gamma 90.000000
_cell_volume 2914.060497
_symmetry_space_group_name_H-M "C 2/M"
_symmetry_group_IT_number 12
_symmetry_cell_setting 'monoclinic'
loop_
_space_group_symop_operation_xyz
x,y,z
-x,y,-z
-x,-y,-z
x,-y,z
1/2+x,1/2+y,z
1/2-x,1/2+y,-z
1/2-x,1/2-y,-z
1/2+x,1/2-y,z
loop_
_atom_site_type_symbol
_atom_site_label
_atom_site_fract_x
_atom_site_fract_y
_atom_site_fract_z
Si Si1 0.171325 0.868552 0.764750
Si Si2 0.505565 0.000000 0.602961
Si Si3 0.284104 0.287249 0.684045
Si Si4 0.617554 0.138357 0.132230
Si Si5 0.311078 0.000000 0.334284
Si Si6 0.927674 0.131590 0.693397
Si Si7 0.690388 0.632414 0.923706
Si Si8 0.441057 0.244312 0.580070
O O1 0.276028 0.814875 0.816478
O O2 0.204825 0.859802 0.864056
O O3 0.051659 0.806453 0.646461
O O4 0.152612 0.000000 0.727829
O O5 0.418233 0.000000 0.471841
O O6 0.637041 0.000000 0.689953
O O7 0.478943 0.889435 0.622269
O O8 0.364755 0.188972 0.784304
O O9 0.267505 0.387282 0.720718
O O10 0.343751 0.335960 0.675316
O O11 0.160990 0.235930 0.556758
O O12 0.612834 0.000000 0.133254
O O13 0.500000 0.185319 0.000000
O O14 0.902841 0.210789 0.613215
O O15 0.058074 0.143982 0.829334
O O16 0.902941 0.000000 0.650887
O O17 0.735052 0.500000 0.983135
O O18 0.750000 0.750000 0.000000
#
# Coordination Sequence:
#
# PCOD8101625 Si02
#       8
#     8   4   8   8   4   8   8   8
#     4   9  19  38  59  79 113 154 192 239 300 351
#     4   9  18  32  54  84 122 154 188 239 289 341
#     4  11  21  37  60  86 117 158 197 236 290 358
#     4  10  23  40  58  84 116 152 193 246 298 347
#     4   9  18  34  57  82 116 160 194 230 288 347
#     4  10  21  39  59  83 122 158 192 240 302 361
#     4   9  19  36  60  84 111 156 201 248 301 354
#     4  10  20  36  58  90 118 152 194 241 293 350
#
# _framework density 19.217172000000001
#
# number of rings (size 3 to 8) (size 9 to 14) (size 15 to 20)
#    0.000    2.286    0.714    2.571    2.000    2.857 
#    6.429    1.786    0.000    0.000    0.000    0.000 
#    0.000    0.000    0.000    0.000    0.000    0.000 
#
# Total GULP energy -347050.962039 kJ/mol
# GULP energy per Si atom -12394.677216 kJ/mol
# Density = 1.917343 g / cm^3
# Si number density = 19.217172 Si / 1000 Ang^3
#
#
#
# Elastic Constant Matrix: (Units=GPa)
#
#
# Indices 1 2 3 4 5 6 
#
# 1 92.7704 46.7128 35.8229 0.0000 7.3037 0.0000
# 2 46.7128 111.5249 61.6681 0.0000 -1.5564 0.0000
# 3 35.8229 61.6681 100.2985 0.0000 6.9499 0.0000
# 4 0.0000 0.0000 0.0000 28.8502 0.0000 -3.7393
# 5 7.3037 -1.5564 6.9499 0.0000 19.5694 0.0000
# 6 0.0000 0.0000 0.0000 -3.7393 0.0000 33.7395
#
#
#
# Elastic Compliance Matrix: (Units=1/GPa)
#
#
# Indices 1 2 3 4 5 6 
#
# 1 0.014444 -0.005261 -0.001560 0.000000 -0.005255 0.000000
# 2 -0.005261 0.015838 -0.008286 0.000000 0.006166 0.000000
# 3 -0.001560 -0.008286 0.016022 0.000000 -0.005767 0.000000
# 4 0.000000 0.000000 0.000000 0.035167 0.000000 0.003897
# 5 -0.005255 0.006166 -0.005767 0.000000 0.055600 0.000000
# 6 0.000000 0.000000 0.000000 0.003897 0.000000 0.030071
#
#
# Mechanical properties :
#
#
# Convention : Reuss Voigt Hill
#
# Bulk Modulus (GPa) = 62.15126 65.88903 64.02014
# Shear Modulus (GPa) = 24.66456 27.12449 25.89452
#
# Velocity S-wave (km/s) = 3.58643 3.76103 3.67477
# Velocity P-wave (km/s) = 7.04001 7.29530 7.16879
#
# Compressibility (1/GPa) = 0.01608978
#
# Stress axis : x y z
#
# Youngs Moduli (GPa) = 69.23060 63.13920 62.41452
#
# Poissons Ratio (x) = 0.33215 0.09739
# Poissons Ratio (y) = 0.36420 0.51718
# Poissons Ratio (z) = 0.10803 0.52319
#
# Static dielectric constant tensor:
#      x y z
#    x 3.599550 0.000000 0.226320 
#    y 0.000000 3.731740 0.000000 
#    z 0.226320 0.000000 3.322390 
# 
# 
# High freq. dielectric constant tensor:
#      x y z
#    x 1.755680 0.000000 0.014380 
#    y 0.000000 1.754510 0.000000 
#    z 0.014380 0.000000 1.723390 
# 
# From -- ./inp_files/325198.got.cif
#   From: 2010.06.25/outbox.cif.g09.slc.cpg/sg12_163_cif.got.tgz:325198.got - 2010.06.28 00:19:55.
