data_PCOD8101762
_publ_section_title
;
Structure prediction by ZEFSAII (Michael W. Deem and Ramdas Pophale) SiO2 
 PCOD8101762
Probable space group: C 2/M
;
_chemical_formula_sum "Si O2"
_cell_formula_units_Z 48
_cell_length_a 30.880187
_cell_length_b 18.774737
_cell_length_c 13.550236
_cell_angle_alpha 90.000000
_cell_angle_beta 162.447483
_cell_angle_gamma 90.000000
_cell_volume 2369.206723
_symmetry_space_group_name_H-M "C 2/M"
_symmetry_group_IT_number 12
_symmetry_cell_setting 'monoclinic'
loop_
_space_group_symop_operation_xyz
x,y,z
-x,y,-z
-x,-y,-z
x,-y,z
1/2+x,1/2+y,z
1/2-x,1/2+y,-z
1/2-x,1/2-y,-z
1/2+x,1/2-y,z
loop_
_atom_site_type_symbol
_atom_site_label
_atom_site_fract_x
_atom_site_fract_y
_atom_site_fract_z
Si Si1 0.951006 0.805068 0.281890
Si Si2 0.974067 0.583766 0.334830
Si Si3 0.770484 0.179556 0.241444
Si Si4 0.838468 0.348925 0.615811
Si Si5 0.345566 0.313343 0.619400
Si Si6 0.776374 0.415666 0.270953
O O1 0.000000 0.794785 0.500000
O O2 0.101431 0.802543 0.552896
O O3 0.847552 0.742501 0.018021
O O4 0.868954 0.879572 0.085488
O O5 0.982582 0.500000 0.355190
O O6 0.000000 0.616208 0.500000
O O7 0.090935 0.611992 0.508757
O O8 0.812742 0.606544 0.960069
O O9 0.844410 0.161271 0.505477
O O10 0.747589 0.368246 0.516411
O O11 0.788886 0.267906 0.488569
O O12 0.804680 0.396042 0.446687
O O13 0.000000 0.359652 0.000000
O O14 0.500000 0.313187 0.000000
O O15 0.755456 0.500000 0.217106
#
# Coordination Sequence:
#
# PCOD8101762 Si02
#       6
#     8   8   8   8   8   8
#     4  12  25  40  62  94 126 163 210 260 314 369
#     4  10  22  41  64  91 126 170 212 253 311 374
#     4  12  23  39  65  90 126 161 207 263 312 370
#     4  10  20  36  59  85 118 156 204 249 303 368
#     4  10  21  35  59  86 117 157 198 252 310 367
#     4  11  23  41  64  91 128 167 209 259 308 370
#
# _framework density 20.259947
#
# number of rings (size 3 to 8) (size 9 to 14) (size 15 to 20)
#    0.000    1.167    1.667    5.000    4.667    1.333 
#    0.000    0.833    0.000    2.000    0.000    0.000 
#    0.000    0.000    0.000    0.000    0.000    0.000 
#
# Total GULP energy -297471.154196 kJ/mol
# GULP energy per Si atom -12394.631425 kJ/mol
# Density = 2.021383 g / cm^3
# Si number density = 20.259947 Si / 1000 Ang^3
#
#
#
# Elastic Constant Matrix: (Units=GPa)
#
#
# Indices 1 2 3 4 5 6 
#
# 1 160.4888 21.7362 49.1780 0.0001 -3.4576 0.0000
# 2 21.7362 37.7919 23.6587 0.0001 1.3281 0.0000
# 3 49.1780 23.6587 100.0400 0.0007 -0.7946 -0.0001
# 4 0.0001 0.0001 0.0007 50.9587 0.0000 -1.0215
# 5 -3.4576 1.3281 -0.7946 0.0000 53.2201 0.0000
# 6 0.0000 0.0000 -0.0001 -1.0215 0.0000 27.8210
#
#
#
# Elastic Compliance Matrix: (Units=1/GPa)
#
#
# Indices 1 2 3 4 5 6 
#
# 1 0.007524 -0.002385 -0.003131 0.000000 0.000502 0.000000
# 2 -0.002385 0.031857 -0.006370 0.000000 -0.001045 0.000000
# 3 -0.003131 -0.006370 0.013043 0.000000 0.000150 0.000000
# 4 0.000000 0.000000 0.000000 0.019638 0.000000 0.000721
# 5 0.000502 -0.001045 0.000150 0.000000 0.018851 0.000000
# 6 0.000000 0.000000 0.000000 0.000721 0.000000 0.035971
#
#
# Mechanical properties :
#
#
# Convention : Reuss Voigt Hill
#
# Bulk Modulus (GPa) = 34.90108 54.16292 44.53200
# Shear Modulus (GPa) = 31.20999 39.98315 35.59657
#
# Velocity S-wave (km/s) = 3.92915 4.44724 4.19620
# Velocity P-wave (km/s) = 6.15210 7.29127 6.74577
#
# Compressibility (1/GPa) = 0.02865241
#
# Stress axis : x y z
#
# Youngs Moduli (GPa) = 132.90545 31.39039 76.67217
#
# Poissons Ratio (x) = 0.07488 0.24003
# Poissons Ratio (y) = 0.31702 0.48837
# Poissons Ratio (z) = 0.41608 0.19994
#
# Static dielectric constant tensor:
#      x y z
#    x 4.103720 0.000000 -0.022680 
#    y 0.000000 3.541610 0.000000 
#    z -0.022680 0.000000 3.756820 
# 
# 
# High freq. dielectric constant tensor:
#      x y z
#    x 1.816330 0.000000 -0.003000 
#    y 0.000000 1.766060 0.000000 
#    z -0.003000 0.000000 1.803080 
# 
# From -- ./inp_files/184791.got.cif
#   From: 2010.06.25/outbox.cif.g09.slc.cpg/sg12_93_cif.got.tgz:184791.got - 2010.06.28 00:19:55.
