data_PCOD8101146
_publ_section_title
;
Structure prediction by ZEFSAII (Michael W. Deem and Ramdas Pophale) SiO2 
 PCOD8101146
Probable space group: C 2/M
;
_chemical_formula_sum "Si O2"
_cell_formula_units_Z 48
_cell_length_a 26.758010
_cell_length_b 12.947685
_cell_length_c 20.963418
_cell_angle_alpha 90.000000
_cell_angle_beta 20.700289
_cell_angle_gamma 90.000000
_cell_volume 2567.274690
_symmetry_space_group_name_H-M "C 2/M"
_symmetry_group_IT_number 12
_symmetry_cell_setting 'monoclinic'
loop_
_space_group_symop_operation_xyz
x,y,z
-x,y,-z
-x,-y,-z
x,-y,z
1/2+x,1/2+y,z
1/2-x,1/2+y,-z
1/2-x,1/2-y,-z
1/2+x,1/2-y,z
loop_
_atom_site_type_symbol
_atom_site_label
_atom_site_fract_x
_atom_site_fract_y
_atom_site_fract_z
Si Si1 0.461878 0.243669 0.268155
Si Si2 0.024474 0.882087 0.624114
Si Si3 0.147362 0.219625 0.354901
Si Si4 0.728551 0.116460 0.912983
Si Si5 0.339981 0.382138 0.186265
Si Si6 0.708458 0.383275 0.611847
O O1 0.449267 0.314031 0.345407
O O2 0.423359 0.312927 0.252735
O O3 0.351192 0.150157 0.405710
O O4 0.615868 0.197039 0.074537
O O5 0.122754 0.841631 0.449644
O O6 0.860867 0.874054 0.801689
O O7 0.067548 0.000000 0.587193
O O8 0.226268 0.142079 0.212962
O O9 0.247388 0.318030 0.246674
O O10 0.000000 0.258674 0.500000
O O11 0.667928 0.000000 0.986044
O O12 0.342750 0.500000 0.158087
O O13 0.267111 0.372996 0.342008
O O14 0.500000 0.339318 0.000000
O O15 0.672862 0.500000 0.635037
#
# Coordination Sequence:
#
# PCOD8101146 Si02
#       6
#     8   8   8   8   8   8
#     4  11  20  35  57  81 111 144 184 234 272 335
#     4  10  20  36  58  84 112 147 186 228 280 333
#     4  10  20  37  59  83 114 149 189 232 280 334
#     4  10  21  36  57  83 113 147 184 229 282 335
#     4  10  20  36  57  80 111 149 189 231 282 335
#     4  10  21  35  54  78 108 147 183 225 280 332
#
# _framework density 18.696870000000001
#
# number of rings (size 3 to 8) (size 9 to 14) (size 15 to 20)
#    0.000    1.833    1.667    3.000    0.000    2.333 
#    0.000    0.833    0.000    3.000    0.000    0.000 
#    0.000    0.000    0.000    0.000    0.000    0.000 
#
# Total GULP energy -297673.006458 kJ/mol
# GULP energy per Si atom -12403.041936 kJ/mol
# Density = 1.865431 g / cm^3
# Si number density = 18.696870 Si / 1000 Ang^3
#
#
#
# Elastic Constant Matrix: (Units=GPa)
#
#
# Indices 1 2 3 4 5 6 
#
# 1 65.4487 30.0776 9.5841 0.0001 -0.8988 0.0000
# 2 30.0776 98.0838 31.4218 0.0000 -9.2264 0.0000
# 3 9.5841 31.4218 71.4141 0.0002 -2.6696 -0.0001
# 4 0.0001 0.0000 0.0002 25.6031 -0.0001 -1.3774
# 5 -0.8988 -9.2264 -2.6696 -0.0001 22.2271 0.0000
# 6 0.0000 0.0000 -0.0001 -1.3774 0.0000 34.5365
#
#
#
# Elastic Compliance Matrix: (Units=1/GPa)
#
#
# Indices 1 2 3 4 5 6 
#
# 1 0.017841 -0.005630 0.000022 0.000000 -0.001613 0.000000
# 2 -0.005630 0.014072 -0.005250 0.000000 0.004983 0.000000
# 3 0.000022 -0.005250 0.016302 0.000000 -0.000220 0.000000
# 4 0.000000 0.000000 0.000000 0.039142 0.000000 0.001561
# 5 -0.001613 0.004983 -0.000220 0.000000 0.046967 0.000000
# 6 0.000000 0.000000 0.000000 0.001561 0.000000 0.029017
#
#
# Mechanical properties :
#
#
# Convention : Reuss Voigt Hill
#
# Bulk Modulus (GPa) = 37.73557 41.90153 39.81855
# Shear Modulus (GPa) = 25.78798 27.39753 26.59275
#
# Velocity S-wave (km/s) = 3.71788 3.83215 3.77544
# Velocity P-wave (km/s) = 6.21746 6.48383 6.35204
#
# Compressibility (1/GPa) = 0.02650019
#
# Stress axis : x y z
#
# Youngs Moduli (GPa) = 56.05080 71.06116 61.34397
#
# Poissons Ratio (x) = 0.40007 -0.00138
# Poissons Ratio (y) = 0.31556 0.32205
# Poissons Ratio (z) = -0.00126 0.37307
#
# Static dielectric constant tensor:
#      x y z
#    x 3.378760 0.000000 0.000690 
#    y 0.000000 3.468960 0.000000 
#    z 0.000690 0.000000 3.355330 
# 
# 
# High freq. dielectric constant tensor:
#      x y z
#    x 1.726200 0.000000 0.004250 
#    y 0.000000 1.731100 0.000000 
#    z 0.004250 0.000000 1.726220 
# 
# From -- ./inp_files/153706.got.cif
#   From: 2010.06.25/outbox.cif.g09.slc.cpg/sg12_77_cif.got.tgz:153706.got - 2010.06.28 00:19:55.
