data_PCOD8101321
_publ_section_title
;
Structure prediction by ZEFSAII (Michael W. Deem and Ramdas Pophale) SiO2 
 PCOD8101321
Probable space group: C 2/M
;
_chemical_formula_sum "Si O2"
_cell_formula_units_Z 56
_cell_length_a 17.833727
_cell_length_b 9.167484
_cell_length_c 18.521983
_cell_angle_alpha 90.000000
_cell_angle_beta 76.116540
_cell_angle_gamma 90.000000
_cell_volume 2939.701043
_symmetry_space_group_name_H-M "C 2/M"
_symmetry_group_IT_number 12
_symmetry_cell_setting 'monoclinic'
loop_
_space_group_symop_operation_xyz
x,y,z
-x,y,-z
-x,-y,-z
x,-y,z
1/2+x,1/2+y,z
1/2-x,1/2+y,-z
1/2-x,1/2-y,-z
1/2+x,1/2-y,z
loop_
_atom_site_type_symbol
_atom_site_label
_atom_site_fract_x
_atom_site_fract_y
_atom_site_fract_z
Si Si1 0.865685 0.827202 0.360655
Si Si2 0.909862 0.167660 0.507998
Si Si3 0.196227 0.326967 0.355677
Si Si4 0.655771 0.331198 0.220573
Si Si5 0.483809 0.671637 0.213535
Si Si6 0.773662 0.330439 0.066473
Si Si7 0.558463 0.171244 0.923120
O O1 0.889417 0.768262 0.433931
O O2 0.779850 0.772607 0.362953
O O3 0.924339 0.765798 0.286879
O O4 0.871962 0.000000 0.359344
O O5 0.868021 0.263763 0.577017
O O6 0.000000 0.182519 0.500000
O O7 0.882908 0.000000 0.522067
O O8 0.190480 0.500000 0.356964
O O9 0.183582 0.269713 0.278584
O O10 0.661712 0.500000 0.242662
O O11 0.569071 0.288524 0.220233
O O12 0.709851 0.295561 0.140761
O O13 0.473606 0.500000 0.204480
O O14 0.468318 0.748163 0.141971
O O15 0.778500 0.500000 0.047019
O O16 0.856423 0.273452 0.074941
O O17 0.750000 0.250000 0.000000
O O18 0.557933 0.000000 0.907439
O O19 0.500000 0.214180 0.000000
#
# Coordination Sequence:
#
# PCOD8101321 Si02
#       7
#     8   8   8   8   8   8   8
#     4   9  19  35  54  79 108 138 175 218 266 317
#     4  10  20  37  60  80 105 144 181 216 263 316
#     4  11  22  35  54  81 111 140 174 220 268 315
#     4  10  21  37  56  79 107 141 182 223 265 319
#     4  10  20  36  58  80 103 136 181 225 261 310
#     4  10  21  36  55  80 109 142 182 225 268 319
#     4  10  21  36  53  77 111 145 175 215 271 326
#
# _framework density 19.049557
#
# number of rings (size 3 to 8) (size 9 to 14) (size 15 to 20)
#    0.000    2.000    0.000    3.429    0.000    4.571 
#    0.000    2.143    0.000    0.000    0.000    0.000 
#    0.000    0.000    0.000    0.000    0.000    0.000 
#
# Total GULP energy -347323.010696 kJ/mol
# GULP energy per Si atom -12404.393239 kJ/mol
# Density = 1.900620 g / cm^3
# Si number density = 19.049557 Si / 1000 Ang^3
#
#
#
# Elastic Constant Matrix: (Units=GPa)
#
#
# Indices 1 2 3 4 5 6 
#
# 1 122.7584 47.7968 54.2677 0.0000 6.0863 0.0000
# 2 47.7968 53.0267 50.6903 0.0000 7.9395 0.0000
# 3 54.2677 50.6903 110.8323 0.0000 12.9041 0.0000
# 4 0.0000 0.0000 0.0000 21.4146 0.0000 18.4193
# 5 6.0863 7.9395 12.9041 0.0000 41.7344 0.0000
# 6 0.0000 0.0000 0.0000 18.4193 0.0000 3.5744
#
#
#
# Elastic Compliance Matrix: (Units=1/GPa)
#
#
# Indices 1 2 3 4 5 6 
#
# 1 0.012753 -0.009858 -0.001802 0.000000 0.000573 0.000000
# 2 -0.009858 0.041245 -0.013787 0.000000 -0.002146 0.000000
# 3 -0.001802 -0.013787 0.016468 0.000000 -0.002206 0.000000
# 4 0.000000 0.000000 0.000000 -0.013605 0.000000 0.070108
# 5 0.000573 -0.002146 -0.002206 0.000000 0.024968 0.000000
# 6 0.000000 0.000000 0.000000 0.070108 0.000000 -0.081509
#
#
# Mechanical properties :
#
#
# Convention : Reuss Voigt Hill
#
# Bulk Modulus (GPa) = 51.09678 65.79188 58.44433
# Shear Modulus (GPa) = 86.59913 22.26885 54.43399
#
# Velocity S-wave (km/s) = 6.74971 3.42277 5.35135
# Velocity P-wave (km/s) = 9.36088 7.08750 8.30237
#
# Compressibility (1/GPa) = 0.01957071
#
# Stress axis : x y z
#
# Youngs Moduli (GPa) = 78.41553 24.24543 60.72478
#
# Poissons Ratio (x) = 0.23900 0.10945
# Poissons Ratio (y) = 0.77299 0.83723
# Poissons Ratio (z) = 0.14133 0.33428
#
# Static dielectric constant tensor:
#      x y z
#    x 3.577160 0.000000 0.065870 
#    y 0.000000 3.338580 0.000000 
#    z 0.065870 0.000000 3.477540 
# 
# 
# High freq. dielectric constant tensor:
#      x y z
#    x 1.761060 0.000000 -0.001930 
#    y 0.000000 1.718870 0.000000 
#    z -0.001930 0.000000 1.758480 
# 
# From -- ./inp_files/275063.got.cif
#   From: 2010.06.25/outbox.cif.g09.slc.cpg/sg12_138_cif.got.tgz:275063.got - 2010.06.28 00:19:55.
