data_PCOD8101776
_publ_section_title
;
Structure prediction by ZEFSAII (Michael W. Deem and Ramdas Pophale) SiO2 
 PCOD8101776
Probable space group: C 2/M
;
_chemical_formula_sum "Si O2"
_cell_formula_units_Z 48
_cell_length_a 18.169569
_cell_length_b 15.409554
_cell_length_c 8.737267
_cell_angle_alpha 90.000000
_cell_angle_beta 98.543281
_cell_angle_gamma 90.000000
_cell_volume 2419.158944
_symmetry_space_group_name_H-M "C 2/M"
_symmetry_group_IT_number 12
_symmetry_cell_setting 'monoclinic'
loop_
_space_group_symop_operation_xyz
x,y,z
-x,y,-z
-x,-y,-z
x,-y,z
1/2+x,1/2+y,z
1/2-x,1/2+y,-z
1/2-x,1/2-y,-z
1/2+x,1/2-y,z
loop_
_atom_site_type_symbol
_atom_site_label
_atom_site_fract_x
_atom_site_fract_y
_atom_site_fract_z
Si Si1 0.702996 0.902082 0.110734
Si Si2 0.441032 0.742053 0.202180
Si Si3 0.343618 0.097425 0.239966
Si Si4 0.218840 0.165984 0.405451
Si Si5 0.895587 0.250129 0.845836
Si Si6 0.350652 0.599095 0.322775
O O1 0.636057 0.847741 0.164132
O O2 0.782214 0.868504 0.196192
O O3 0.689353 0.000000 0.161613
O O4 0.704746 0.892586 0.928892
O O5 0.409817 0.832547 0.259300
O O6 0.529821 0.750057 0.231479
O O7 0.419189 0.662517 0.306220
O O8 0.410976 0.720030 0.023709
O O9 0.289290 0.112701 0.365781
O O10 0.377453 0.000000 0.261588
O O11 0.250000 0.250000 0.500000
O O12 0.164873 0.187063 0.247407
O O13 0.172688 0.106388 0.507734
O O14 0.373783 0.500000 0.294124
#
# Coordination Sequence:
#
# PCOD8101776 Si02
#       6
#     8   8   8   8   8   8
#     4   9  18  34  59  86 111 144 189 235 274 327
#     4  10  21  39  59  84 114 150 186 231 277 333
#     4  10  20  36  59  86 115 147 187 229 276 332
#     4  12  21  36  57  83 112 149 186 231 278 328
#     4  10  21  37  59  83 115 150 186 228 282 331
#     4  11  22  38  58  83 112 148 192 235 280 328
#
# _framework density 19.841605999999999
#
# number of rings (size 3 to 8) (size 9 to 14) (size 15 to 20)
#    0.000    1.667    3.333    1.500    0.000    4.000 
#    0.000    8.333    0.000    1.000    0.000    0.000 
#    0.000    0.000    0.000    0.000    0.000    0.000 
#
# Total GULP energy -297661.778558 kJ/mol
# GULP energy per Si atom -12402.574107 kJ/mol
# Density = 1.979645 g / cm^3
# Si number density = 19.841606 Si / 1000 Ang^3
#
#
#
# Elastic Constant Matrix: (Units=GPa)
#
#
# Indices 1 2 3 4 5 6 
#
# 1 92.6916 46.1169 19.1100 0.0000 -28.6169 0.0000
# 2 46.1169 107.7547 27.1660 0.0000 -19.0541 0.0000
# 3 19.1100 27.1660 49.5235 0.0000 -19.7105 0.0000
# 4 0.0000 0.0000 0.0000 29.7569 0.0000 -6.5433
# 5 -28.6169 -19.0541 -19.7105 0.0000 35.7060 0.0000
# 6 0.0000 0.0000 0.0000 -6.5433 0.0000 19.3502
#
#
#
# Elastic Compliance Matrix: (Units=1/GPa)
#
#
# Indices 1 2 3 4 5 6 
#
# 1 0.016694 -0.005432 0.000909 0.000000 0.010983 0.000000
# 2 -0.005432 0.012828 -0.005061 0.000000 -0.000302 0.000000
# 3 0.000909 -0.005061 0.027980 0.000000 0.013474 0.000000
# 4 0.000000 0.000000 0.000000 0.036305 0.000000 0.012277
# 5 0.010983 -0.000302 0.013474 0.000000 0.044086 0.000000
# 6 0.000000 0.000000 0.000000 0.012277 0.000000 0.055830
#
#
# Mechanical properties :
#
#
# Convention : Reuss Voigt Hill
#
# Bulk Modulus (GPa) = 26.08582 48.30618 37.19600
# Shear Modulus (GPa) = 22.15637 27.46775 24.81206
#
# Velocity S-wave (km/s) = 3.34527 3.72472 3.54009
# Velocity P-wave (km/s) = 5.30063 6.54957 5.95792
#
# Compressibility (1/GPa) = 0.03833500
#
# Stress axis : x y z
#
# Youngs Moduli (GPa) = 59.90023 77.95708 35.73958
#
# Poissons Ratio (x) = 0.42346 -0.03248
# Poissons Ratio (y) = 0.32538 0.18086
# Poissons Ratio (z) = -0.05445 0.39451
#
# Static dielectric constant tensor:
#      x y z
#    x 3.484090 0.000000 -0.041990 
#    y 0.000000 3.570010 0.000000 
#    z -0.041990 0.000000 3.680890 
# 
# 
# High freq. dielectric constant tensor:
#      x y z
#    x 1.759480 0.000000 -0.009340 
#    y 0.000000 1.773420 0.000000 
#    z -0.009340 0.000000 1.775060 
# 
# From -- ./inp_files/73601.got.cif
#   From: 2010.06.25/outbox.cif.g09.slc.cpg/sg12_37_cif.got.tgz:73601.got - 2010.06.28 00:19:55.
