data_PCOD8101247
_publ_section_title
;
Structure prediction by ZEFSAII (Michael W. Deem and Ramdas Pophale) SiO2 
 PCOD8101247
Probable space group: C 2/M
;
_chemical_formula_sum "Si O2"
_cell_formula_units_Z 64
_cell_length_a 14.042940
_cell_length_b 16.587972
_cell_length_c 17.741912
_cell_angle_alpha 90.000000
_cell_angle_beta 47.651754
_cell_angle_gamma 90.000000
_cell_volume 3054.456007
_symmetry_space_group_name_H-M "C 2/M"
_symmetry_group_IT_number 12
_symmetry_cell_setting 'monoclinic'
loop_
_space_group_symop_operation_xyz
x,y,z
-x,y,-z
-x,-y,-z
x,-y,z
1/2+x,1/2+y,z
1/2-x,1/2+y,-z
1/2-x,1/2-y,-z
1/2+x,1/2-y,z
loop_
_atom_site_type_symbol
_atom_site_label
_atom_site_fract_x
_atom_site_fract_y
_atom_site_fract_z
Si Si1 0.289216 0.593721 0.536279
Si Si2 0.019399 0.090302 0.310710
Si Si3 0.995668 0.158927 0.840681
Si Si4 0.754103 0.852391 0.720685
Si Si5 0.262878 0.830027 0.762922
Si Si6 0.991629 0.593094 0.334879
Si Si7 0.525721 0.843256 0.154616
Si Si8 0.279699 0.408097 0.055628
O O1 0.310355 0.500000 0.546703
O O2 0.405665 0.626860 0.423387
O O3 0.285093 0.645398 0.615013
O O4 0.155996 0.604037 0.558980
O O5 0.152876 0.086831 0.285347
O O6 0.037226 0.144668 0.228374
O O7 0.982505 0.000000 0.305674
O O8 0.145786 0.138075 0.773855
O O9 0.962455 0.250975 0.877323
O O10 0.911110 0.103300 0.940148
O O11 0.782166 0.764319 0.738990
O O12 0.604587 0.878875 0.814522
O O13 0.396795 0.875496 0.667465
O O14 0.226381 0.848775 0.869399
O O15 0.018326 0.500000 0.300041
O O16 0.008407 0.649081 0.253194
O O17 0.658657 0.889380 0.063275
O O18 0.272381 0.500000 0.087600
#
# Coordination Sequence:
#
# PCOD8101247 Si02
#       8
#     8   8   8   8   8   8   8   8
#     4   9  19  37  60  84 111 150 193 230 277 334
#     4  11  22  36  56  83 118 153 187 232 279 331
#     4  11  23  38  55  82 119 152 186 231 282 334
#     4  10  20  36  57  84 114 145 187 231 281 338
#     4  10  21  37  57  84 112 145 187 233 283 335
#     4   9  17  34  60  84 108 142 189 237 278 329
#     4   9  19  36  57  81 109 144 186 235 281 329
#     4  11  22  38  62  85 109 148 194 235 278 334
#
# _framework density 20.952995000000001
#
# number of rings (size 3 to 8) (size 9 to 14) (size 15 to 20)
#    0.000    2.000    0.000    4.875    0.000    5.000 
#    0.000   15.000    0.000    3.750    0.000    0.000 
#    0.000    0.000    0.000    0.000    0.000    0.000 
#
# Total GULP energy -396628.004010 kJ/mol
# GULP energy per Si atom -12394.625125 kJ/mol
# Density = 2.090531 g / cm^3
# Si number density = 20.952995 Si / 1000 Ang^3
#
#
#
# Elastic Constant Matrix: (Units=GPa)
#
#
# Indices 1 2 3 4 5 6 
#
# 1 74.9426 17.8268 20.6673 0.0000 -17.4599 0.0000
# 2 17.8268 72.9792 30.4377 0.0000 -2.5504 0.0000
# 3 20.6673 30.4377 67.4867 0.0000 -1.8983 0.0000
# 4 0.0000 0.0000 0.0000 18.7200 0.0000 -3.0577
# 5 -17.4599 -2.5504 -1.8983 0.0000 27.4800 0.0000
# 6 0.0000 0.0000 0.0000 -3.0577 0.0000 34.0124
#
#
#
# Elastic Compliance Matrix: (Units=1/GPa)
#
#
# Indices 1 2 3 4 5 6 
#
# 1 0.017457 -0.002203 -0.004054 0.000000 0.010607 0.000000
# 2 -0.002203 0.017185 -0.007084 0.000000 -0.000294 0.000000
# 3 -0.004054 -0.007084 0.019201 0.000000 -0.001907 0.000000
# 4 0.000000 0.000000 0.000000 0.054215 0.000000 0.004874
# 5 0.010607 -0.000294 -0.001907 0.000000 0.042970 0.000000
# 6 0.000000 0.000000 0.000000 0.004874 0.000000 0.029839
#
#
# Mechanical properties :
#
#
# Convention : Reuss Voigt Hill
#
# Bulk Modulus (GPa) = 36.81881 39.25244 38.03563
# Shear Modulus (GPa) = 23.08371 25.80761 24.44566
#
# Velocity S-wave (km/s) = 3.32277 3.51335 3.41939
# Velocity P-wave (km/s) = 5.68607 5.93569 5.81222
#
# Compressibility (1/GPa) = 0.02716003
#
# Stress axis : x y z
#
# Youngs Moduli (GPa) = 57.28465 58.19016 52.08095
#
# Poissons Ratio (x) = 0.12817 0.21115
# Poissons Ratio (y) = 0.12617 0.36897
# Poissons Ratio (z) = 0.23224 0.41225
#
# Static dielectric constant tensor:
#      x y z
#    x 4.258510 0.000000 -0.516550 
#    y 0.000000 3.594330 0.000000 
#    z -0.516550 0.000000 3.605330 
# 
# 
# High freq. dielectric constant tensor:
#      x y z
#    x 1.833960 0.000000 -0.033360 
#    y 0.000000 1.813230 0.000000 
#    z -0.033360 0.000000 1.794270 
# 
# From -- ./inp_files/270673.got.cif
#   From: 2010.06.25/outbox.cif.g09.slc.cpg/sg12_136_cif.got.tgz:270673.got - 2010.06.28 00:19:55.
