data_PCOD8101791
_publ_section_title
;
Structure prediction by ZEFSAII (Michael W. Deem and Ramdas Pophale) SiO2 
 PCOD8101791
Probable space group: C 2/M
;
_chemical_formula_sum "Si O2"
_cell_formula_units_Z 64
_cell_length_a 17.971887
_cell_length_b 8.851910
_cell_length_c 30.122262
_cell_angle_alpha 90.000000
_cell_angle_beta 137.978949
_cell_angle_gamma 90.000000
_cell_volume 3207.792694
_symmetry_space_group_name_H-M "C 2/M"
_symmetry_group_IT_number 12
_symmetry_cell_setting 'monoclinic'
loop_
_space_group_symop_operation_xyz
x,y,z
-x,y,-z
-x,-y,-z
x,-y,z
1/2+x,1/2+y,z
1/2-x,1/2+y,-z
1/2-x,1/2-y,-z
1/2+x,1/2-y,z
loop_
_atom_site_type_symbol
_atom_site_label
_atom_site_fract_x
_atom_site_fract_y
_atom_site_fract_z
Si Si1 0.586805 0.326785 0.425821
Si Si2 0.276975 0.177776 0.185954
Si Si3 0.131047 0.823990 0.942037
Si Si4 0.309673 0.323827 0.687707
Si Si5 0.264016 0.175486 0.576897
Si Si6 0.836164 0.824544 0.302966
Si Si7 0.565371 0.326366 0.812831
Si Si8 0.539770 0.825047 0.067350
O O1 0.608829 0.500000 0.421653
O O2 0.628274 0.223900 0.403604
O O3 0.652694 0.287044 0.499937
O O4 0.457559 0.296457 0.377942
O O5 0.333454 0.239985 0.255181
O O6 0.353602 0.218273 0.178285
O O7 0.156910 0.247564 0.126176
O O8 0.264286 0.000000 0.184092
O O9 0.082169 0.793679 0.871894
O O10 0.049390 0.749650 0.940564
O O11 0.141358 0.000000 0.957027
O O12 0.250000 0.750000 0.000000
O O13 0.287012 0.500000 0.684108
O O14 0.254198 0.268528 0.617722
O O15 0.256876 0.237923 0.705649
O O16 0.439834 0.286466 0.744125
O O17 0.274341 0.000000 0.593304
O O18 0.813195 0.000000 0.284456
O O19 0.593667 0.500000 0.813742
O O20 0.550897 0.000000 0.084372
O O21 0.500000 0.799716 0.000000
#
# Coordination Sequence:
#
# PCOD8101791 Si02
#       8
#     8   8   8   8   8   8   8   8
#     4   9  20  38  59  84 115 153 195 241 294 351
#     4  12  25  40  62  91 120 152 194 243 294 350
#     4  11  23  40  63  91 123 158 199 247 297 349
#     4  11  23  39  59  85 118 154 196 244 294 349
#     4  10  20  36  59  86 116 151 194 242 294 353
#     4  11  23  40  61  84 116 156 196 240 292 350
#     4  10  23  42  61  83 116 156 194 237 290 347
#     4  11  24  42  64  90 122 160 201 244 292 347
#
# _framework density 19.951415000000001
#
# number of rings (size 3 to 8) (size 9 to 14) (size 15 to 20)
#    0.000    1.375    0.000    5.250    0.000   12.000 
#    0.000    2.500    0.000    0.000    0.000    0.000 
#    0.000    0.000    0.000    0.000    0.000    0.000 
#
# Total GULP energy -397019.497356 kJ/mol
# GULP energy per Si atom -12406.859292 kJ/mol
# Density = 1.990600 g / cm^3
# Si number density = 19.951415 Si / 1000 Ang^3
#
#
#
# Elastic Constant Matrix: (Units=GPa)
#
#
# Indices 1 2 3 4 5 6 
#
# 1 105.2374 119.5718 2.5129 0.0000 5.6103 0.0001
# 2 119.5718 78.1685 135.8397 0.0000 4.1761 -0.0001
# 3 2.5129 135.8397 22.1850 -0.0001 3.3638 0.0002
# 4 0.0000 0.0000 -0.0001 31.3605 0.0000 -1.9293
# 5 5.6103 4.1761 3.3638 0.0000 35.0753 0.0000
# 6 0.0001 -0.0001 0.0002 -1.9293 0.0000 42.7846
#
#
#
# Elastic Compliance Matrix: (Units=1/GPa)
#
#
# Indices 1 2 3 4 5 6 
#
# 1 0.008396 0.001176 -0.008045 0.000000 -0.000711 0.000000
# 2 0.001176 -0.001149 0.007009 0.000000 -0.000724 0.000000
# 3 -0.008045 0.007009 0.003043 0.000000 0.000160 0.000000
# 4 0.000000 0.000000 0.000000 0.031976 0.000000 0.001442
# 5 -0.000711 -0.000724 0.000160 0.000000 0.028695 0.000000
# 6 0.000000 0.000000 0.000000 0.001442 0.000000 0.023438
#
#
# Mechanical properties :
#
#
# Convention : Reuss Voigt Hill
#
# Bulk Modulus (GPa) = 94.59609 80.15994 87.37802
# Shear Modulus (GPa) = 51.20724 18.35517 34.78120
#
# Velocity S-wave (km/s) = 5.07166 3.03643 4.17981
# Velocity P-wave (km/s) = 9.04498 7.24969 8.19664
#
# Compressibility (1/GPa) = 0.01057126
#
# Stress axis : x y z
#
# Youngs Moduli (GPa) = 119.10600 -870.62251 328.57769
#
# Poissons Ratio (x) = 1.02408 2.64354
# Poissons Ratio (y) = -0.14010 -2.30314
# Poissons Ratio (z) = 0.95826 6.10257
#
# Static dielectric constant tensor:
#      x y z
#    x 3.616230 0.000000 -0.039820 
#    y 0.000000 3.819740 0.000000 
#    z -0.039820 0.000000 3.825250 
# 
# 
# High freq. dielectric constant tensor:
#      x y z
#    x 1.785190 0.000000 0.000160 
#    y 0.000000 1.789660 0.000000 
#    z 0.000160 0.000000 1.795200 
# 
# From -- ./inp_files/378318.got.cif
#   From: 2010.06.25/outbox.cif.g09.slc.cpg/sg12_190_cif.got.tgz:378318.got - 2010.06.28 00:19:55.
