data_PCOD8101351
_publ_section_title
;
Structure prediction by ZEFSAII (Michael W. Deem and Ramdas Pophale) SiO2 
 PCOD8101351
Probable space group: C 2/M
;
_chemical_formula_sum "Si O2"
_cell_formula_units_Z 40
_cell_length_a 27.375907
_cell_length_b 8.629307
_cell_length_c 18.631743
_cell_angle_alpha 90.000000
_cell_angle_beta 27.085470
_cell_angle_gamma 90.000000
_cell_volume 2004.074337
_symmetry_space_group_name_H-M "C 2/M"
_symmetry_group_IT_number 12
_symmetry_cell_setting 'monoclinic'
loop_
_space_group_symop_operation_xyz
x,y,z
-x,y,-z
-x,-y,-z
x,-y,z
1/2+x,1/2+y,z
1/2-x,1/2+y,-z
1/2-x,1/2-y,-z
1/2+x,1/2-y,z
loop_
_atom_site_type_symbol
_atom_site_label
_atom_site_fract_x
_atom_site_fract_y
_atom_site_fract_z
Si Si1 0.815393 0.183705 0.565563
Si Si2 0.991746 0.818517 0.221940
Si Si3 0.919204 0.320251 0.170666
Si Si4 0.882750 0.815149 0.632348
Si Si5 0.782690 0.682337 0.032902
O O1 0.696961 0.243407 0.700842
O O2 0.850712 0.252170 0.596343
O O3 0.897862 0.241299 0.397229
O O4 0.813828 0.000000 0.572060
O O5 0.958969 0.783627 0.183879
O O6 0.012996 0.000000 0.204364
O O7 0.097520 0.726182 0.103593
O O8 0.915006 0.500000 0.199679
O O9 0.000000 0.295526 0.000000
O O10 0.797591 0.751652 0.801516
O O11 0.000000 0.751871 0.500000
O O12 0.882617 0.000000 0.630869
O O13 0.771616 0.500000 0.043150
O O14 0.750000 0.750000 0.000000
#
# Coordination Sequence:
#
# PCOD8101351 Si02
#       5
#     8   8   8   8   8
#     4   9  18  33  54  81 110 143 185 228 272 323
#     4  11  22  36  56  82 113 145 179 225 278 330
#     4  10  20  36  58  81 108 145 189 232 272 321
#     4   9  17  32  56  82 106 138 182 226 268 319
#     4  11  22  37  59  84 111 144 182 225 272 324
#
# _framework density 19.959340000000001
#
# number of rings (size 3 to 8) (size 9 to 14) (size 15 to 20)
#    0.000    2.000    0.000    4.200    0.000    6.800 
#    0.000    1.000    0.000   15.600    0.000    0.000 
#    0.000    0.000    0.000    0.000    0.000    0.000 
#
# Total GULP energy -248067.223078 kJ/mol
# GULP energy per Si atom -12403.361154 kJ/mol
# Density = 1.991391 g / cm^3
# Si number density = 19.959340 Si / 1000 Ang^3
#
#
#
# Elastic Constant Matrix: (Units=GPa)
#
#
# Indices 1 2 3 4 5 6 
#
# 1 162.4879 17.3843 68.7339 -0.0023 -4.6097 0.0002
# 2 17.3843 29.4541 19.1943 0.0035 5.7082 -0.0002
# 3 68.7339 19.1943 167.9970 -0.0004 -5.8551 0.0000
# 4 -0.0023 0.0035 -0.0004 23.6874 -0.0004 -0.6939
# 5 -4.6097 5.7082 -5.8551 -0.0004 45.1340 -0.0001
# 6 0.0002 -0.0002 0.0000 -0.6939 -0.0001 29.6360
#
#
#
# Elastic Compliance Matrix: (Units=1/GPa)
#
#
# Indices 1 2 3 4 5 6 
#
# 1 0.007658 -0.002861 -0.002779 0.000001 0.000783 0.000000
# 2 -0.002861 0.039011 -0.003485 -0.000006 -0.005678 0.000000
# 3 -0.002779 -0.003485 0.007527 0.000000 0.001133 0.000000
# 4 0.000001 -0.000006 0.000000 0.042246 0.000001 0.000989
# 5 0.000783 -0.005678 0.001133 0.000001 0.023101 0.000000
# 6 0.000000 0.000000 0.000000 0.000989 0.000000 0.033766
#
#
# Mechanical properties :
#
#
# Convention : Reuss Voigt Hill
#
# Bulk Modulus (GPa) = 27.81853 63.39599 45.60726
# Shear Modulus (GPa) = 27.24197 36.66657 31.95427
#
# Velocity S-wave (km/s) = 3.69843 4.29075 4.00555
# Velocity P-wave (km/s) = 5.67500 7.50859 6.65524
#
# Compressibility (1/GPa) = 0.03594727
#
# Stress axis : x y z
#
# Youngs Moduli (GPa) = 130.57936 25.63391 132.85255
#
# Poissons Ratio (x) = 0.07333 0.36921
# Poissons Ratio (y) = 0.37356 0.46294
# Poissons Ratio (z) = 0.36289 0.08932
#
# Static dielectric constant tensor:
#      x y z
#    x 3.753030 0.000020 0.144790 
#    y 0.000020 3.542300 -0.000010 
#    z 0.144790 -0.000010 3.813430 
# 
# 
# High freq. dielectric constant tensor:
#      x y z
#    x 1.798100 0.000000 -0.000620 
#    y 0.000000 1.736790 0.000000 
#    z -0.000620 0.000000 1.800390 
# 
# From -- ./inp_files/151674.got.cif
#   From: 2010.06.25/outbox.cif.g09.slc.cpg/sg12_76_cif.got.tgz:151674.got - 2010.06.28 00:19:55.
