data_PCOD8101082
_publ_section_title
;
Structure prediction by ZEFSAII (Michael W. Deem and Ramdas Pophale) SiO2 
 PCOD8101082
Probable space group: C 2/M
;
_chemical_formula_sum "Si O2"
_cell_formula_units_Z 40
_cell_length_a 14.461102
_cell_length_b 9.115296
_cell_length_c 30.265545
_cell_angle_alpha 90.000000
_cell_angle_beta 147.147308
_cell_angle_gamma 90.000000
_cell_volume 2164.238916
_symmetry_space_group_name_H-M "C 2/M"
_symmetry_group_IT_number 12
_symmetry_cell_setting 'monoclinic'
loop_
_space_group_symop_operation_xyz
x,y,z
-x,y,-z
-x,-y,-z
x,-y,z
1/2+x,1/2+y,z
1/2-x,1/2+y,-z
1/2-x,1/2-y,-z
1/2+x,1/2-y,z
loop_
_atom_site_type_symbol
_atom_site_label
_atom_site_fract_x
_atom_site_fract_y
_atom_site_fract_z
Si Si1 0.181911 0.332773 0.591800
Si Si2 0.915518 0.670342 0.012176
Si Si3 0.122748 0.834135 0.417597
Si Si4 0.473075 0.329073 0.124027
Si Si5 0.746792 0.673272 0.705703
O O1 0.166670 0.500000 0.603528
O O2 0.324287 0.320527 0.611653
O O3 0.245387 0.222788 0.654521
O O4 0.000000 0.280294 0.500000
O O5 0.956894 0.500000 0.037102
O O6 0.996985 0.761589 0.084911
O O7 0.713575 0.699587 0.930473
O O8 0.000000 0.723116 0.000000
O O9 0.250000 0.750000 0.500000
O O10 0.930928 0.773980 0.344052
O O11 0.127854 0.000000 0.436657
O O12 0.514232 0.500000 0.137279
O O13 0.601693 0.253117 0.208768
O O14 0.775261 0.500000 0.720280
#
# Coordination Sequence:
#
# PCOD8101082 Si02
#       5
#     8   8   8   8   8
#     4  10  20  36  57  78 104 142 187 234 280 327
#     4   9  19  38  63  86 112 146 182 224 275 330
#     4  10  21  36  55  78 105 142 185 230 279 326
#     4  10  21  37  58  85 115 147 183 226 275 328
#     4  11  23  37  55  81 115 149 185 231 277 329
#
# _framework density 18.482247000000001
#
# number of rings (size 3 to 8) (size 9 to 14) (size 15 to 20)
#    0.000    2.000    2.000    1.200    0.000    4.800 
#    0.000    8.000    0.000    0.000    0.000    0.000 
#    0.000    0.000    0.000    0.000    0.000    0.000 
#
# Total GULP energy -248056.044705 kJ/mol
# GULP energy per Si atom -12402.802235 kJ/mol
# Density = 1.844018 g / cm^3
# Si number density = 18.482247 Si / 1000 Ang^3
#
#
#
# Elastic Constant Matrix: (Units=GPa)
#
#
# Indices 1 2 3 4 5 6 
#
# 1 116.0977 42.7983 49.9483 0.0000 -8.0896 -0.0001
# 2 42.7983 76.2177 62.3920 0.0000 -8.1670 0.0000
# 3 49.9483 62.3920 135.2412 0.0000 -12.9035 0.0000
# 4 0.0000 0.0000 0.0000 35.5412 0.0000 -6.8517
# 5 -8.0896 -8.1670 -12.9035 0.0000 23.3407 0.0000
# 6 -0.0001 0.0000 0.0000 -6.8517 0.0000 31.2322
#
#
#
# Elastic Compliance Matrix: (Units=1/GPa)
#
#
# Indices 1 2 3 4 5 6 
#
# 1 0.011216 -0.004614 -0.001897 0.000000 0.001224 0.000000
# 2 -0.004614 0.023079 -0.008789 0.000000 0.001618 0.000000
# 3 -0.001897 -0.008789 0.012450 0.000000 0.003150 0.000000
# 4 0.000000 0.000000 0.000000 0.029379 0.000000 0.006445
# 5 0.001224 0.001618 0.003150 0.000000 0.045575 0.000000
# 6 0.000000 0.000000 0.000000 0.006445 0.000000 0.033432
#
#
# Mechanical properties :
#
#
# Convention : Reuss Voigt Hill
#
# Bulk Modulus (GPa) = 61.93743 70.87042 66.40393
# Shear Modulus (GPa) = 26.16260 29.51734 27.83997
#
# Velocity S-wave (km/s) = 3.76647 4.00066 3.88533
# Velocity P-wave (km/s) = 7.24566 7.73103 7.49228
#
# Compressibility (1/GPa) = 0.01614533
#
# Stress axis : x y z
#
# Youngs Moduli (GPa) = 89.16058 43.32913 80.32142
#
# Poissons Ratio (x) = 0.19992 0.15236
# Poissons Ratio (y) = 0.41139 0.70594
# Poissons Ratio (z) = 0.16913 0.38082
#
# Static dielectric constant tensor:
#      x y z
#    x 3.539900 0.000000 0.129730 
#    y 0.000000 3.471420 0.000000 
#    z 0.129730 0.000000 3.331580 
# 
# 
# High freq. dielectric constant tensor:
#      x y z
#    x 1.725120 0.000000 0.002840 
#    y 0.000000 1.719810 0.000000 
#    z 0.002840 0.000000 1.716440 
# 
# From -- ./inp_files/211206.got.cif
#   From: 2010.06.25/outbox.cif.g09.slc.cpg/sg12_106_cif.got.tgz:211206.got - 2010.06.28 00:19:55.
