data_PCOD8101211
_publ_section_title
;
Structure prediction by ZEFSAII (Michael W. Deem and Ramdas Pophale) SiO2 
 PCOD8101211
Probable space group: C 2/M
;
_chemical_formula_sum "Si O2"
_cell_formula_units_Z 64
_cell_length_a 25.071323
_cell_length_b 8.727662
_cell_length_c 32.033326
_cell_angle_alpha 90.000000
_cell_angle_beta 152.535120
_cell_angle_gamma 90.000000
_cell_volume 3232.742004
_symmetry_space_group_name_H-M "C 2/M"
_symmetry_group_IT_number 12
_symmetry_cell_setting 'monoclinic'
loop_
_space_group_symop_operation_xyz
x,y,z
-x,y,-z
-x,-y,-z
x,-y,z
1/2+x,1/2+y,z
1/2-x,1/2+y,-z
1/2-x,1/2-y,-z
1/2+x,1/2-y,z
loop_
_atom_site_type_symbol
_atom_site_label
_atom_site_fract_x
_atom_site_fract_y
_atom_site_fract_z
Si Si1 0.936773 0.181119 0.818373
Si Si2 0.564264 0.319387 0.677135
Si Si3 0.613272 0.681391 0.308522
Si Si4 0.340610 0.674044 0.978381
Si Si5 0.757976 0.822271 0.763453
Si Si6 0.801794 0.181390 0.494091
Si Si7 0.592339 0.175963 0.784376
Si Si8 0.131564 0.664660 0.086550
O O1 0.914037 0.247100 0.756507
O O2 0.836683 0.244646 0.780122
O O3 0.926334 0.000000 0.810757
O O4 0.068703 0.227877 0.922889
O O5 0.565400 0.500000 0.682842
O O6 0.636733 0.267747 0.686204
O O7 0.433347 0.261356 0.580673
O O8 0.621932 0.243420 0.758742
O O9 0.626934 0.500000 0.318221
O O10 0.732626 0.756633 0.406126
O O11 0.510936 0.725277 0.268693
O O12 0.372123 0.500000 0.987218
O O13 0.202909 0.684844 0.892960
O O14 0.353006 0.789606 0.949850
O O15 0.830156 0.798590 0.855815
O O16 0.730668 0.000000 0.737615
O O17 0.750000 0.250000 0.500000
O O18 0.792282 0.000000 0.489569
O O19 0.552724 0.000000 0.751676
O O20 0.196788 0.500000 0.140472
O O21 0.000000 0.631338 0.000000
#
# Coordination Sequence:
#
# PCOD8101211 Si02
#       8
#     8   8   8   8   8   8   8   8
#     4   9  21  40  60  83 116 163 209 241 287 347
#     4  11  23  38  59  91 125 151 185 245 311 355
#     4  11  23  41  63  86 118 157 197 249 299 350
#     4  10  20  36  57  82 116 159 203 243 286 346
#     4  11  21  36  60  86 117 159 202 245 291 351
#     4  11  23  40  65  92 118 150 191 242 303 364
#     4  11  22  35  58  90 121 156 199 243 295 354
#     4  11  21  31  49  82 118 151 196 249 296 340
#
# _framework density 19.797435
#
# number of rings (size 3 to 8) (size 9 to 14) (size 15 to 20)
#    0.000    1.375    3.750    2.250    0.000    3.000 
#    0.000    4.375    0.000    3.750    0.000    0.000 
#    0.000    0.000    0.000    0.000    0.000    0.000 
#
# Total GULP energy -396601.329576 kJ/mol
# GULP energy per Si atom -12393.791549 kJ/mol
# Density = 1.975237 g / cm^3
# Si number density = 19.797435 Si / 1000 Ang^3
#
#
#
# Elastic Constant Matrix: (Units=GPa)
#
#
# Indices 1 2 3 4 5 6 
#
# 1 64.8543 16.0649 41.7648 -0.0001 1.1769 -0.0008
# 2 16.0649 63.2081 25.3971 0.0010 2.9131 -0.0032
# 3 41.7648 25.3971 142.7965 -0.0003 8.1433 -0.0009
# 4 -0.0001 0.0010 -0.0003 26.7027 -0.0003 4.2633
# 5 1.1769 2.9131 8.1433 -0.0003 34.1164 -0.0004
# 6 -0.0008 -0.0032 -0.0009 4.2633 -0.0004 24.6298
#
#
#
# Elastic Compliance Matrix: (Units=1/GPa)
#
#
# Indices 1 2 3 4 5 6 
#
# 1 0.019490 -0.002889 -0.005234 0.000000 0.000824 0.000000
# 2 -0.002889 0.017485 -0.002216 -0.000001 -0.000865 0.000002
# 3 -0.005234 -0.002216 0.009030 0.000000 -0.001786 0.000000
# 4 0.000000 -0.000001 0.000000 0.038514 0.000000 -0.006667
# 5 0.000824 -0.000865 -0.001786 0.000000 0.029783 0.000000
# 6 0.000000 0.000002 0.000000 -0.006667 0.000000 0.041755
#
#
# Mechanical properties :
#
#
# Convention : Reuss Voigt Hill
#
# Bulk Modulus (GPa) = 39.48064 48.59028 44.03546
# Shear Modulus (GPa) = 27.00140 29.59857 28.29999
#
# Velocity S-wave (km/s) = 3.69709 3.87081 3.78494
# Velocity P-wave (km/s) = 6.18144 6.67642 6.43369
#
# Compressibility (1/GPa) = 0.02532887
#
# Stress axis : x y z
#
# Youngs Moduli (GPa) = 51.30802 57.19182 110.74717
#
# Poissons Ratio (x) = 0.16521 0.57961
# Poissons Ratio (y) = 0.14821 0.24537
# Poissons Ratio (z) = 0.26853 0.12672
#
# Static dielectric constant tensor:
#      x y z
#    x 3.680590 -0.000010 0.148290 
#    y -0.000010 3.572830 -0.000020 
#    z 0.148290 -0.000020 4.090120 
# 
# 
# High freq. dielectric constant tensor:
#      x y z
#    x 1.757420 0.000000 0.021500 
#    y 0.000000 1.770070 0.000000 
#    z 0.021500 0.000000 1.777630 
# 
# From -- ./inp_files/382496.got.cif
#   From: 2010.06.25/outbox.cif.g09.slc.cpg/sg12_192_cif.got.tgz:382496.got - 2010.06.28 00:19:55.
