data_PCOD8101766
_publ_section_title
;
Structure prediction by ZEFSAII (Michael W. Deem and Ramdas Pophale) SiO2 
 PCOD8101766
Probable space group: C 2/M
;
_chemical_formula_sum "Si O2"
_cell_formula_units_Z 40
_cell_length_a 26.319205
_cell_length_b 17.242243
_cell_length_c 10.070354
_cell_angle_alpha 90.000000
_cell_angle_beta 154.465522
_cell_angle_gamma 90.000000
_cell_volume 1969.895101
_symmetry_space_group_name_H-M "C 2/M"
_symmetry_group_IT_number 12
_symmetry_cell_setting 'monoclinic'
loop_
_space_group_symop_operation_xyz
x,y,z
-x,y,-z
-x,-y,-z
x,-y,z
1/2+x,1/2+y,z
1/2-x,1/2+y,-z
1/2-x,1/2-y,-z
1/2+x,1/2-y,z
loop_
_atom_site_type_symbol
_atom_site_label
_atom_site_fract_x
_atom_site_fract_y
_atom_site_fract_z
Si Si1 0.800207 0.591243 0.737785
Si Si2 0.130076 0.186073 0.841346
Si Si3 0.528560 0.185226 0.217228
Si Si4 0.752298 0.910334 0.683289
Si Si5 0.812646 0.814540 0.309953
O O1 0.830737 0.500000 0.823573
O O2 0.737966 0.608987 0.449835
O O3 0.706361 0.616084 0.629418
O O4 0.918917 0.642567 0.029500
O O5 0.186057 0.151995 0.836486
O O6 0.000000 0.212970 0.500000
O O7 0.134487 0.121775 0.968829
O O8 0.199703 0.259763 0.060177
O O9 0.636091 0.125430 0.475004
O O10 0.566844 0.265092 0.380455
O O11 0.500000 0.208458 0.000000
O O12 0.744216 0.000000 0.689361
#
# Coordination Sequence:
#
# PCOD8101766 Si02
#       5
#     8   8   8   8   8
#     4  10  20  36  59  86 113 140 179 234 282 319
#     4  10  21  36  54  75 109 151 187 220 269 333
#     4   9  18  33  58  83 109 144 182 225 279 331
#     4   9  19  35  54  79 109 144 185 224 270 332
#     4  10  21  35  55  84 110 139 186 235 271 319
#
# _framework density 20.305651999999998
#
# number of rings (size 3 to 8) (size 9 to 14) (size 15 to 20)
#    0.000    2.400    0.000    1.800    0.000   12.400 
#    0.000    0.000    0.000   15.600    0.000    0.000 
#    0.000    0.000    0.000    0.000    0.000    0.000 
#
# Total GULP energy -247915.241823 kJ/mol
# GULP energy per Si atom -12395.762091 kJ/mol
# Density = 2.025944 g / cm^3
# Si number density = 20.305652 Si / 1000 Ang^3
#
#
#
# Elastic Constant Matrix: (Units=GPa)
#
#
# Indices 1 2 3 4 5 6 
#
# 1 85.3765 45.1947 12.9259 0.0000 -18.7005 0.0000
# 2 45.1947 71.0115 40.6308 0.0000 -8.9490 0.0000
# 3 12.9259 40.6308 100.3756 0.0000 -13.1124 0.0000
# 4 0.0000 0.0000 0.0000 21.5641 0.0000 0.6072
# 5 -18.7005 -8.9490 -13.1124 0.0000 24.0444 0.0000
# 6 0.0000 0.0000 0.0000 0.6072 0.0000 30.8606
#
#
#
# Elastic Compliance Matrix: (Units=1/GPa)
#
#
# Indices 1 2 3 4 5 6 
#
# 1 0.022159 -0.015269 0.005207 0.000000 0.014391 0.000000
# 2 -0.015269 0.029050 -0.010693 0.000000 -0.006895 0.000000
# 3 0.005207 -0.010693 0.014675 0.000000 0.008073 0.000000
# 4 0.000000 0.000000 0.000000 0.046399 0.000000 -0.000913
# 5 0.014391 -0.006895 0.008073 0.000000 0.054619 0.000000
# 6 0.000000 0.000000 0.000000 -0.000913 0.000000 0.032422
#
#
# Mechanical properties :
#
#
# Convention : Reuss Voigt Hill
#
# Bulk Modulus (GPa) = 41.02789 50.47403 45.75096
# Shear Modulus (GPa) = 20.08368 25.82797 22.95582
#
# Velocity S-wave (km/s) = 3.14836 3.57032 3.36596
# Velocity P-wave (km/s) = 5.78491 6.47359 6.13892
#
# Compressibility (1/GPa) = 0.02437366
#
# Stress axis : x y z
#
# Youngs Moduli (GPa) = 45.12760 34.42398 68.14234
#
# Poissons Ratio (x) = 0.52562 -0.35482
# Poissons Ratio (y) = 0.68905 0.72867
# Poissons Ratio (z) = -0.23498 0.36811
#
# Static dielectric constant tensor:
#      x y z
#    x 3.649790 0.000000 -0.240010 
#    y 0.000000 3.495140 0.000000 
#    z -0.240010 0.000000 3.913790 
# 
# 
# High freq. dielectric constant tensor:
#      x y z
#    x 1.793740 0.000000 -0.014900 
#    y 0.000000 1.772020 0.000000 
#    z -0.014900 0.000000 1.794910 
# 
# From -- ./inp_files/75523.got.cif
#   From: 2010.06.25/outbox.cif.g09.slc.cpg/sg12_38_cif.got.tgz:75523.got - 2010.06.28 00:19:55.
