data_PCOD8101839
_publ_section_title
;
Structure prediction by ZEFSAII (Michael W. Deem and Ramdas Pophale) SiO2 
 PCOD8101839
Probable space group: C 2/M
;
_chemical_formula_sum "Si O2"
_cell_formula_units_Z 56
_cell_length_a 26.822120
_cell_length_b 8.737182
_cell_length_c 12.518091
_cell_angle_alpha 90.000000
_cell_angle_beta 109.754034
_cell_angle_gamma 90.000000
_cell_volume 2760.974906
_symmetry_space_group_name_H-M "C 2/M"
_symmetry_group_IT_number 12
_symmetry_cell_setting 'monoclinic'
loop_
_space_group_symop_operation_xyz
x,y,z
-x,y,-z
-x,-y,-z
x,-y,z
1/2+x,1/2+y,z
1/2-x,1/2+y,-z
1/2-x,1/2-y,-z
1/2+x,1/2-y,z
loop_
_atom_site_type_symbol
_atom_site_label
_atom_site_fract_x
_atom_site_fract_y
_atom_site_fract_z
Si Si1 0.500235 0.680319 0.378850
Si Si2 0.911797 0.327581 0.697348
Si Si3 0.390575 0.818773 0.924719
Si Si4 0.793906 0.674423 0.603080
Si Si5 0.411885 0.318144 0.150581
Si Si6 0.283878 0.676987 0.811693
Si Si7 0.206112 0.820376 0.890180
O O1 0.500000 0.750138 0.500000
O O2 0.497073 0.500000 0.386638
O O3 0.553006 0.721695 0.352328
O O4 0.450554 0.740532 0.272908
O O5 0.934414 0.500000 0.712010
O O6 0.911322 0.269674 0.821576
O O7 0.853502 0.325261 0.600182
O O8 0.334188 0.740159 0.915115
O O9 0.382888 0.000000 0.920700
O O10 0.428689 0.760601 0.048813
O O11 0.778160 0.500000 0.623186
O O12 0.750000 0.750000 0.500000
O O13 0.798266 0.792396 0.701758
O O14 0.415576 0.500000 0.139297
O O15 0.353483 0.259163 0.140923
O O16 0.276497 0.500000 0.833093
O O17 0.228718 0.767027 0.792112
O O18 0.206337 0.000000 0.903995
O O19 0.250000 0.750000 0.000000
#
# Coordination Sequence:
#
# PCOD8101839 Si02
#       7
#     8   8   8   8   8   8   8
#     4  10  23  43  63  85 115 155 202 248 295 353
#     4   9  21  40  61  87 118 153 191 243 301 352
#     4  10  20  36  59  87 119 151 192 242 299 363
#     4  10  21  38  59  87 120 154 198 246 294 354
#     4  10  22  38  58  86 119 156 201 250 299 358
#     4  11  21  34  54  83 120 159 195 239 295 354
#     4  11  21  34  54  83 120 158 196 241 295 356
#
# _framework density 20.282692999999998
#
# number of rings (size 3 to 8) (size 9 to 14) (size 15 to 20)
#    0.000    1.857    1.429    3.429    0.000    6.571 
#    0.000    4.286    0.000    0.000    0.000    0.000 
#    0.000    0.000    0.000    0.000    0.000    0.000 
#
# Total GULP energy -346943.573978 kJ/mol
# GULP energy per Si atom -12390.841928 kJ/mol
# Density = 2.023653 g / cm^3
# Si number density = 20.282693 Si / 1000 Ang^3
#
#
#
# Elastic Constant Matrix: (Units=GPa)
#
#
# Indices 1 2 3 4 5 6 
#
# 1 105.6214 24.5794 60.9427 0.0000 0.4775 0.0000
# 2 24.5794 51.7933 33.2949 0.0000 4.1343 0.0000
# 3 60.9427 33.2949 141.3347 0.0000 11.7401 0.0000
# 4 0.0000 0.0000 0.0000 30.9350 0.0000 -3.3482
# 5 0.4775 4.1343 11.7401 0.0000 27.9400 0.0000
# 6 0.0000 0.0000 0.0000 -3.3482 0.0000 30.8462
#
#
#
# Elastic Compliance Matrix: (Units=1/GPa)
#
#
# Indices 1 2 3 4 5 6 
#
# 1 0.013145 -0.003132 -0.005129 0.000000 0.002394 0.000000
# 2 -0.003132 0.023536 -0.004050 0.000000 -0.001727 0.000000
# 3 -0.005129 -0.004050 0.010552 0.000000 -0.003747 0.000000
# 4 0.000000 0.000000 0.000000 0.032710 0.000000 0.003551
# 5 0.002394 -0.001727 -0.003747 0.000000 0.037580 0.000000
# 6 0.000000 0.000000 0.000000 0.003551 0.000000 0.032804
#
#
# Mechanical properties :
#
#
# Convention : Reuss Voigt Hill
#
# Bulk Modulus (GPa) = 44.22833 59.59817 51.91325
# Shear Modulus (GPa) = 27.39905 29.93973 28.66939
#
# Velocity S-wave (km/s) = 3.67939 3.84620 3.76372
# Velocity P-wave (km/s) = 6.31695 7.01227 6.67367
#
# Compressibility (1/GPa) = 0.02260994
#
# Stress axis : x y z
#
# Youngs Moduli (GPa) = 76.07241 42.48891 94.76429
#
# Poissons Ratio (x) = 0.13308 0.48607
# Poissons Ratio (y) = 0.23827 0.38383
# Poissons Ratio (z) = 0.39019 0.17209
#
# Static dielectric constant tensor:
#      x y z
#    x -15.902310 0.000000 2.342560 
#    y 0.000000 3.684330 0.000000 
#    z 2.342560 0.000000 3.557420 
# 
# 
# High freq. dielectric constant tensor:
#      x y z
#    x 1.788120 0.000000 -0.003030 
#    y 0.000000 1.786300 0.000000 
#    z -0.003030 0.000000 1.792200 
# 
# From -- ./inp_files/181023.got.cif
#   From: 2010.06.25/outbox.cif.g09.slc.cpg/sg12_91_cif.got.tgz:181023.got - 2010.06.28 00:19:55.
