data_PCOD8101664
_publ_section_title
;
Structure prediction by ZEFSAII (Michael W. Deem and Ramdas Pophale) SiO2 
 PCOD8101664
Probable space group: C 2/M
;
_chemical_formula_sum "Si O2"
_cell_formula_units_Z 56
_cell_length_a 25.103838
_cell_length_b 9.045132
_cell_length_c 13.726986
_cell_angle_alpha 90.000000
_cell_angle_beta 67.353788
_cell_angle_gamma 90.000000
_cell_volume 2876.635608
_symmetry_space_group_name_H-M "C 2/M"
_symmetry_group_IT_number 12
_symmetry_cell_setting 'monoclinic'
loop_
_space_group_symop_operation_xyz
x,y,z
-x,y,-z
-x,-y,-z
x,-y,z
1/2+x,1/2+y,z
1/2-x,1/2+y,-z
1/2-x,1/2-y,-z
1/2+x,1/2-y,z
loop_
_atom_site_type_symbol
_atom_site_label
_atom_site_fract_x
_atom_site_fract_y
_atom_site_fract_z
Si Si1 0.916986 0.832105 0.819164
Si Si2 0.285485 0.325734 0.890930
Si Si3 0.992788 0.324606 0.114706
Si Si4 0.844474 0.675398 0.529289
Si Si5 0.375699 0.825723 0.292769
Si Si6 0.439379 0.668763 0.582984
Si Si7 0.254863 0.825743 0.292701
O O1 0.851345 0.777613 0.858750
O O2 0.945208 0.818035 0.693936
O O3 0.950951 0.726252 0.867351
O O4 0.920524 0.000000 0.855062
O O5 0.277364 0.500000 0.903882
O O6 0.263176 0.269735 0.801684
O O7 0.250000 0.250000 0.000000
O O8 0.990507 0.500000 0.117712
O O9 0.934164 0.258140 0.204427
O O10 0.000000 0.264918 0.000000
O O11 0.838461 0.500000 0.533882
O O12 0.865408 0.735445 0.409212
O O13 0.889715 0.725335 0.578896
O O14 0.782563 0.744718 0.598346
O O15 0.321637 0.783049 0.262519
O O16 0.382595 0.000000 0.293812
O O17 0.500000 0.725117 0.500000
O O18 0.425459 0.500000 0.561418
O O19 0.244100 0.000000 0.311675
#
# Coordination Sequence:
#
# PCOD8101664 Si02
#       7
#     8   8   8   8   8   8   8
#     4  10  21  39  58  84 117 147 185 233 283 332
#     4  10  22  38  60  86 114 149 190 236 285 337
#     4  10  22  39  61  86 111 148 196 235 277 340
#     4  11  21  34  55  86 120 147 184 237 287 337
#     4   9  20  37  57  84 116 149 189 237 284 331
#     4  10  20  36  59  83 112 153 194 228 275 345
#     4  10  20  39  62  81 114 156 189 231 283 338
#
# _framework density 19.467186000000002
#
# number of rings (size 3 to 8) (size 9 to 14) (size 15 to 20)
#    0.000    2.000    1.429    1.714    2.000    2.286 
#    0.000    2.143    0.000    0.000    0.000    0.000 
#    0.000    0.000    0.000    0.000    0.000    0.000 
#
# Total GULP energy -347269.876167 kJ/mol
# GULP energy per Si atom -12402.495577 kJ/mol
# Density = 1.942288 g / cm^3
# Si number density = 19.467186 Si / 1000 Ang^3
#
#
#
# Elastic Constant Matrix: (Units=GPa)
#
#
# Indices 1 2 3 4 5 6 
#
# 1 110.7770 21.9579 48.7401 0.0000 9.4847 0.0000
# 2 21.9579 29.3659 25.6967 0.0000 -0.4810 0.0000
# 3 48.7401 25.6967 127.5494 0.0000 -0.8321 0.0000
# 4 0.0000 0.0000 0.0000 27.5664 0.0000 -1.9815
# 5 9.4847 -0.4810 -0.8321 0.0000 30.8246 0.0000
# 6 0.0000 0.0000 0.0000 -1.9815 0.0000 28.9281
#
#
#
# Elastic Compliance Matrix: (Units=1/GPa)
#
#
# Indices 1 2 3 4 5 6 
#
# 1 0.012071 -0.006108 -0.003408 0.000000 -0.003902 0.000000
# 2 -0.006108 0.044438 -0.006603 0.000000 0.002395 0.000000
# 3 -0.003408 -0.006603 0.010481 0.000000 0.001228 0.000000
# 4 0.000000 0.000000 0.000000 0.036456 0.000000 0.002497
# 5 -0.003902 0.002395 0.001228 0.000000 0.033713 0.000000
# 6 0.000000 0.000000 0.000000 0.002497 0.000000 0.034740
#
#
# Mechanical properties :
#
#
# Convention : Reuss Voigt Hill
#
# Bulk Modulus (GPa) = 28.77535 51.16462 39.96998
# Shear Modulus (GPa) = 23.17838 28.88366 26.03102
#
# Velocity S-wave (km/s) = 3.45431 3.85607 3.66071
# Velocity P-wave (km/s) = 5.54285 6.79451 6.20034
#
# Compressibility (1/GPa) = 0.03475197
#
# Stress axis : x y z
#
# Youngs Moduli (GPa) = 82.84158 22.50350 95.41528
#
# Poissons Ratio (x) = 0.13745 0.32514
# Poissons Ratio (y) = 0.50601 0.63002
# Poissons Ratio (z) = 0.28229 0.14859
#
# Static dielectric constant tensor:
#      x y z
#    x 3.670460 0.000000 -0.133050 
#    y 0.000000 3.275040 0.000000 
#    z -0.133050 0.000000 3.775940 
# 
# 
# High freq. dielectric constant tensor:
#      x y z
#    x 1.770430 0.000000 -0.003950 
#    y 0.000000 1.730580 0.000000 
#    z -0.003950 0.000000 1.770100 
# 
# From -- ./inp_files/180678.got.cif
#   From: 2010.06.25/outbox.cif.g09.slc.cpg/sg12_91_cif.got.tgz:180678.got - 2010.06.28 00:19:55.
