data_PCOD8101447
_publ_section_title
;
Structure prediction by ZEFSAII (Michael W. Deem and Ramdas Pophale) SiO2 
 PCOD8101447
Probable space group: C 2/M
;
_chemical_formula_sum "Si O2"
_cell_formula_units_Z 56
_cell_length_a 29.465204
_cell_length_b 8.848033
_cell_length_c 21.659416
_cell_angle_alpha 90.000000
_cell_angle_beta 31.305745
_cell_angle_gamma 90.000000
_cell_volume 2934.107831
_symmetry_space_group_name_H-M "C 2/M"
_symmetry_group_IT_number 12
_symmetry_cell_setting 'monoclinic'
loop_
_space_group_symop_operation_xyz
x,y,z
-x,y,-z
-x,-y,-z
x,-y,z
1/2+x,1/2+y,z
1/2-x,1/2+y,-z
1/2-x,1/2-y,-z
1/2+x,1/2-y,z
loop_
_atom_site_type_symbol
_atom_site_label
_atom_site_fract_x
_atom_site_fract_y
_atom_site_fract_z
Si Si1 0.676267 0.673354 0.358335
Si Si2 0.712676 0.678247 0.981911
Si Si3 0.025324 0.178852 0.623293
Si Si4 0.515248 0.321190 0.883105
Si Si5 0.974936 0.678616 0.807099
Si Si6 0.137214 0.822548 0.851293
Si Si7 0.857170 0.826300 0.740363
O O1 0.699083 0.500000 0.343069
O O2 0.611785 0.732381 0.486628
O O3 0.766510 0.760125 0.254354
O O4 0.625902 0.695153 0.351994
O O5 0.706730 0.500000 0.996615
O O6 0.775427 0.721272 0.852599
O O7 0.750000 0.750000 0.000000
O O8 0.617688 0.741218 0.079145
O O9 0.025346 0.266537 0.687673
O O10 0.941667 0.226896 0.680050
O O11 0.025088 0.000000 0.635182
O O12 0.514017 0.500000 0.871175
O O13 0.530138 0.229144 0.802688
O O14 0.595229 0.275241 0.834670
O O15 0.424614 0.267752 0.020655
O O16 0.963199 0.500000 0.818416
O O17 0.142426 0.000000 0.848886
O O18 0.834472 0.000000 0.782551
#
# Coordination Sequence:
#
# PCOD8101447 Si02
#       7
#     8   8   8   8   8   8   8
#     4  10  21  36  57  85 113 147 191 234 280 335
#     4  12  23  36  55  81 114 149 185 228 277 328
#     4  10  21  38  57  77 112 157 193 230 277 331
#     4   9  19  38  62  86 113 146 184 226 283 343
#     4  12  24  37  56  85 116 148 189 232 282 334
#     4   9  19  37  61  87 113 144 183 231 283 337
#     4  10  20  36  58  83 112 149 192 234 279 332
#
# _framework density 19.08587
#
# number of rings (size 3 to 8) (size 9 to 14) (size 15 to 20)
#    0.000    1.714    1.429    4.714    0.000    6.286 
#    0.000    2.143    0.000    2.571    0.000    0.000 
#    0.000    0.000    0.000    0.000    0.000    0.000 
#
# Total GULP energy -347258.508936 kJ/mol
# GULP energy per Si atom -12402.089605 kJ/mol
# Density = 1.904243 g / cm^3
# Si number density = 19.085870 Si / 1000 Ang^3
#
#
#
# Elastic Constant Matrix: (Units=GPa)
#
#
# Indices 1 2 3 4 5 6 
#
# 1 110.0403 35.7231 45.0830 -0.0063 20.3839 0.0032
# 2 35.7231 71.1945 24.4842 0.0001 11.8625 0.0007
# 3 45.0830 24.4842 92.2926 0.0021 13.3107 0.0000
# 4 -0.0063 0.0001 0.0021 30.2477 0.0031 -1.0185
# 5 20.3839 11.8625 13.3107 0.0031 27.1351 -0.0026
# 6 0.0032 0.0007 0.0000 -1.0185 -0.0026 26.7297
#
#
#
# Elastic Compliance Matrix: (Units=1/GPa)
#
#
# Indices 1 2 3 4 5 6 
#
# 1 0.013434 -0.004159 -0.004590 0.000004 -0.006022 -0.000002
# 2 -0.004159 0.017430 -0.002092 0.000000 -0.003470 0.000000
# 3 -0.004590 -0.002092 0.013993 -0.000002 -0.002501 0.000000
# 4 0.000004 0.000000 -0.000002 0.033103 -0.000005 0.001261
# 5 -0.006022 -0.003470 -0.002501 -0.000005 0.044120 0.000005
# 6 -0.000002 0.000000 0.000000 0.001261 0.000005 0.037460
#
#
# Mechanical properties :
#
#
# Convention : Reuss Voigt Hill
#
# Bulk Modulus (GPa) = 43.15050 53.78978 48.47014
# Shear Modulus (GPa) = 26.46244 28.03831 27.25037
#
# Velocity S-wave (km/s) = 3.72760 3.83699 3.78269
# Velocity P-wave (km/s) = 6.41751 6.91912 6.67303
#
# Compressibility (1/GPa) = 0.02317470
#
# Stress axis : x y z
#
# Youngs Moduli (GPa) = 74.43939 57.37121 71.46325
#
# Poissons Ratio (x) = 0.23858 0.32805
# Poissons Ratio (y) = 0.30956 0.14952
# Poissons Ratio (z) = 0.34171 0.12004
#
# Static dielectric constant tensor:
#      x y z
#    x 3.777700 -0.000020 -0.098720 
#    y -0.000020 3.498860 0.000050 
#    z -0.098720 0.000050 4.056950 
# 
# 
# High freq. dielectric constant tensor:
#      x y z
#    x 1.749360 0.000000 0.009950 
#    y 0.000000 1.733460 0.000000 
#    z 0.009950 0.000000 1.738090 
# 
# From -- ./inp_files/287851.got.cif
#   From: 2010.06.25/outbox.cif.g09.slc.cpg/sg12_144_cif.got.tgz:287851.got - 2010.06.28 00:19:55.
