data_PCOD8101387
_publ_section_title
;
Structure prediction by ZEFSAII (Michael W. Deem and Ramdas Pophale) SiO2 
 PCOD8101387
Probable space group: C 2/M
;
_chemical_formula_sum "Si O2"
_cell_formula_units_Z 64
_cell_length_a 9.233727
_cell_length_b 29.563253
_cell_length_c 15.319636
_cell_angle_alpha 90.000000
_cell_angle_beta 127.066246
_cell_angle_gamma 90.000000
_cell_volume 3336.932880
_symmetry_space_group_name_H-M "C 2/M"
_symmetry_group_IT_number 12
_symmetry_cell_setting 'monoclinic'
loop_
_space_group_symop_operation_xyz
x,y,z
-x,y,-z
-x,-y,-z
x,-y,z
1/2+x,1/2+y,z
1/2-x,1/2+y,-z
1/2-x,1/2-y,-z
1/2+x,1/2-y,z
loop_
_atom_site_type_symbol
_atom_site_label
_atom_site_fract_x
_atom_site_fract_y
_atom_site_fract_z
Si Si1 0.957097 0.551437 0.789687
Si Si2 0.407455 0.797917 0.237307
Si Si3 0.622277 0.551437 0.789687
Si Si4 0.164564 0.204666 1.000000
Si Si5 0.206636 0.629222 0.373672
Si Si6 0.459292 0.629222 0.626328
Si Si7 0.838023 0.946229 1.000000
Si Si8 0.567160 0.702083 0.237307
O O1 0.973771 0.500000 0.761074
O O2 0.823157 0.553892 0.823157
O O3 0.887215 0.581732 0.684486
O O4 0.149004 0.571129 0.891923
O O5 0.560511 0.831282 0.327366
O O6 0.497749 0.750000 0.247749
O O7 0.259459 0.790807 0.259458
O O8 0.313766 0.820475 0.115597
O O9 0.548378 0.500000 0.761074
O O10 0.481756 0.581732 0.684486
O O11 0.634841 0.571129 0.891923
O O12 0.082571 0.179525 0.884403
O O13 0.250000 0.250000 0.000000
O O14 0.000000 0.220127 0.000000
O O15 0.295316 0.622403 0.500000
O O16 0.355727 0.642883 0.355726
O O17 0.405779 0.668718 0.672634
O O18 0.839420 0.000000 1.000000
O O19 0.000000 0.925873 0.000000
#
# Coordination Sequence:
#
# PCOD8101387 Si02
#       8
#     8   8   8   8   8   8   8   8
#     4   9  18  34  56  80 107 140 177 219 267 317
#     4  10  20  36  58  82 109 140 174 215 265 318
#     4   9  18  34  56  80 107 140 177 219 267 317
#     4   8  16  31  52  79 106 131 163 206 256 312
#     4  10  22  38  54  76 106 140 182 226 265 311
#     4  10  22  38  54  76 106 140 182 226 265 311
#     4   9  17  30  51  80 111 140 172 214 265 320
#     4  10  20  36  58  82 109 140 174 215 265 318
#
# _framework density 19.179289000000001
#
# number of rings (size 3 to 8) (size 9 to 14) (size 15 to 20)
#    0.000    2.625    0.000    1.125    0.000    6.000 
#    0.000    5.000    0.000    0.000    0.000    5.250 
#    0.000    0.000    0.000    0.000    0.000    0.000 
#
# Total GULP energy -396622.955051 kJ/mol
# GULP energy per Si atom -12394.467345 kJ/mol
# Density = 1.913564 g / cm^3
# Si number density = 19.179289 Si / 1000 Ang^3
#
#
#
# Elastic Constant Matrix: (Units=GPa)
#
#
# Indices 1 2 3 4 5 6 
#
# 1 95.5276 51.5623 75.8652 0.0000 2.0861 0.0000
# 2 51.5623 90.0609 69.2472 0.0000 1.0690 0.0000
# 3 75.8652 69.2472 175.3478 0.0000 2.7389 0.0000
# 4 0.0000 0.0000 0.0000 48.4709 0.0000 1.4516
# 5 2.0861 1.0690 2.7389 0.0000 27.1258 0.0000
# 6 0.0000 0.0000 0.0000 1.4516 0.0000 24.4568
#
#
#
# Elastic Compliance Matrix: (Units=1/GPa)
#
#
# Indices 1 2 3 4 5 6 
#
# 1 0.018105 -0.006236 -0.005361 0.000000 -0.000605 0.000000
# 2 -0.006236 0.018094 -0.004451 0.000000 0.000216 0.000000
# 3 -0.005361 -0.004451 0.009786 0.000000 -0.000400 0.000000
# 4 0.000000 0.000000 0.000000 0.020668 0.000000 -0.001227
# 5 -0.000605 0.000216 -0.000400 0.000000 0.036944 0.000000
# 6 0.000000 0.000000 0.000000 -0.001227 0.000000 0.040961
#
#
# Mechanical properties :
#
#
# Convention : Reuss Voigt Hill
#
# Bulk Modulus (GPa) = 71.99945 83.80952 77.90449
# Shear Modulus (GPa) = 27.58117 30.96148 29.27132
#
# Velocity S-wave (km/s) = 3.79630 4.02222 3.91089
# Velocity P-wave (km/s) = 7.53907 8.08479 7.81669
#
# Compressibility (1/GPa) = 0.01388900
#
# Stress axis : x y z
#
# Youngs Moduli (GPa) = 55.23293 55.26830 102.18449
#
# Poissons Ratio (x) = 0.34468 0.54781
# Poissons Ratio (y) = 0.34446 0.45477
# Poissons Ratio (z) = 0.29610 0.24597
#
# Static dielectric constant tensor:
#      x y z
#    x 3.560900 0.000000 0.013920 
#    y 0.000000 3.247280 0.000000 
#    z 0.013920 0.000000 3.791190 
# 
# 
# High freq. dielectric constant tensor:
#      x y z
#    x 1.747760 0.000000 0.000200 
#    y 0.000000 1.730440 0.000000 
#    z 0.000200 0.000000 1.751060 
# 
# From -- ./inp_files/200930.got.cif
#   From: 2010.06.25/outbox.cif.g09.slc.cpg/sg12_101_cif.got.tgz:200930.got - 2010.06.28 00:19:55.
