data_PCOD8101638
_publ_section_title
;
Structure prediction by ZEFSAII (Michael W. Deem and Ramdas Pophale) SiO2 
 PCOD8101638
Probable space group: C 2/M
;
_chemical_formula_sum "Si O2"
_cell_formula_units_Z 56
_cell_length_a 32.779996
_cell_length_b 8.888492
_cell_length_c 13.915542
_cell_angle_alpha 90.000000
_cell_angle_beta 46.624686
_cell_angle_gamma 90.000000
_cell_volume 2947.095664
_symmetry_space_group_name_H-M "C 2/M"
_symmetry_group_IT_number 12
_symmetry_cell_setting 'monoclinic'
loop_
_space_group_symop_operation_xyz
x,y,z
-x,y,-z
-x,-y,-z
x,-y,z
1/2+x,1/2+y,z
1/2-x,1/2+y,-z
1/2-x,1/2-y,-z
1/2+x,1/2-y,z
loop_
_atom_site_type_symbol
_atom_site_label
_atom_site_fract_x
_atom_site_fract_y
_atom_site_fract_z
Si Si1 0.411996 0.329517 0.161088
Si Si2 0.863353 0.323138 0.532723
Si Si3 0.690019 0.675996 0.992084
Si Si4 0.301925 0.671183 0.464427
Si Si5 0.593222 0.827176 0.031193
Si Si6 0.694454 0.676308 0.205503
Si Si7 0.467717 0.172641 0.240105
O O1 0.426278 0.500000 0.106789
O O2 0.352540 0.320394 0.308611
O O3 0.408753 0.220810 0.075918
O O4 0.459710 0.272896 0.157624
O O5 0.855859 0.500000 0.553893
O O6 0.815846 0.259397 0.539125
O O7 0.854587 0.249642 0.651188
O O8 0.925120 0.278026 0.393719
O O9 0.699797 0.500000 0.962357
O O10 0.635510 0.724539 0.021854
O O11 0.744854 0.759156 0.862547
O O12 0.680471 0.719056 0.118529
O O13 0.287016 0.500000 0.515380
O O14 0.250000 0.750000 0.500000
O O15 0.612610 0.000000 0.006387
O O16 0.530904 0.805818 0.176451
O O17 0.695109 0.500000 0.222000
O O18 0.455818 0.000000 0.230229
#
# Coordination Sequence:
#
# PCOD8101638 Si02
#       7
#     8   8   8   8   8   8   8
#     4  10  21  35  53  79 111 148 188 229 275 324
#     4  10  20  36  59  81 108 146 184 226 276 329
#     4  10  22  39  59  84 112 142 182 229 276 331
#     4  10  21  35  51  76 111 146 185 228 272 328
#     4  11  22  36  57  82 112 148 188 231 274 325
#     4  10  21  39  61  84 111 143 180 226 281 336
#     4   9  20  38  56  80 112 149 190 227 270 326
#
# _framework density 19.001757999999999
#
# number of rings (size 3 to 8) (size 9 to 14) (size 15 to 20)
#    0.000    2.000    0.000    3.000    2.000    6.857 
#    0.000    0.714    0.000    4.286    0.000    0.000 
#    0.000    0.000    0.000    0.000    0.000    0.000 
#
# Total GULP energy -347315.750908 kJ/mol
# GULP energy per Si atom -12404.133961 kJ/mol
# Density = 1.895851 g / cm^3
# Si number density = 19.001758 Si / 1000 Ang^3
#
#
#
# Elastic Constant Matrix: (Units=GPa)
#
#
# Indices 1 2 3 4 5 6 
#
# 1 69.8206 18.4775 36.1115 0.0000 -7.8035 0.0000
# 2 18.4775 78.8314 35.5428 0.0000 3.6450 0.0002
# 3 36.1115 35.5428 81.5859 0.0000 14.1734 0.0000
# 4 0.0000 0.0000 0.0000 33.0270 0.0000 2.9382
# 5 -7.8035 3.6450 14.1734 0.0000 21.1093 0.0000
# 6 0.0000 0.0002 0.0000 2.9382 0.0000 33.1069
#
#
#
# Elastic Compliance Matrix: (Units=1/GPa)
#
#
# Indices 1 2 3 4 5 6 
#
# 1 0.023149 -0.000307 -0.013141 0.000000 0.017434 0.000000
# 2 -0.000307 0.015876 -0.007114 0.000000 0.001922 0.000000
# 3 -0.013141 -0.007114 0.024682 0.000000 -0.020202 0.000000
# 4 0.000000 0.000000 0.000000 0.030519 0.000000 -0.002709
# 5 0.017434 0.001922 -0.020202 0.000000 0.067050 0.000000
# 6 0.000000 0.000000 0.000000 -0.002709 0.000000 0.030446
#
#
# Mechanical properties :
#
#
# Convention : Reuss Voigt Hill
#
# Bulk Modulus (GPa) = 44.28230 45.61127 44.94678
# Shear Modulus (GPa) = 20.80091 26.78905 23.79498
#
# Velocity S-wave (km/s) = 3.31219 3.75883 3.54256
# Velocity P-wave (km/s) = 6.16298 6.54937 6.35911
#
# Compressibility (1/GPa) = 0.02258239
#
# Stress axis : x y z
#
# Youngs Moduli (GPa) = 43.19886 62.98787 40.51468
#
# Poissons Ratio (x) = 0.01934 0.53240
# Poissons Ratio (y) = 0.01327 0.28824
# Poissons Ratio (z) = 0.56767 0.44812
#
# Static dielectric constant tensor:
#      x y z
#    x 3.322360 0.000000 -0.049650 
#    y 0.000000 3.632280 0.000000 
#    z -0.049650 0.000000 3.641610 
# 
# 
# High freq. dielectric constant tensor:
#      x y z
#    x 1.723410 0.000000 -0.005460 
#    y 0.000000 1.754020 0.000000 
#    z -0.005460 0.000000 1.745070 
# 
# From -- ./inp_files/248915.got.cif
#   From: 2010.06.25/outbox.cif.g09.slc.cpg/sg12_125_cif.got.tgz:248915.got - 2010.06.28 00:19:55.
