data_PCOD8101088
_publ_section_title
;
Structure prediction by ZEFSAII (Michael W. Deem and Ramdas Pophale) SiO2 
 PCOD8101088
Probable space group: C 2/M
;
_chemical_formula_sum "Si O2"
_cell_formula_units_Z 56
_cell_length_a 13.297771
_cell_length_b 14.408218
_cell_length_c 16.367356
_cell_angle_alpha 90.000000
_cell_angle_beta 101.008855
_cell_angle_gamma 90.000000
_cell_volume 3078.230759
_symmetry_space_group_name_H-M "C 2/M"
_symmetry_group_IT_number 12
_symmetry_cell_setting 'monoclinic'
loop_
_space_group_symop_operation_xyz
x,y,z
-x,y,-z
-x,-y,-z
x,-y,z
1/2+x,1/2+y,z
1/2-x,1/2+y,-z
1/2-x,1/2-y,-z
1/2+x,1/2-y,z
loop_
_atom_site_type_symbol
_atom_site_label
_atom_site_fract_x
_atom_site_fract_y
_atom_site_fract_z
Si Si1 0.659937 0.307626 0.524944
Si Si2 0.663980 0.897155 0.365500
Si Si3 0.112316 0.391496 0.176047
Si Si4 0.048750 0.757244 0.809173
Si Si5 0.991707 0.758248 0.617266
Si Si6 0.230285 0.249762 0.093092
Si Si7 0.558074 0.394984 0.093716
O O1 0.750000 0.250000 0.500000
O O2 0.720183 0.390267 0.580175
O O3 0.595889 0.246540 0.581258
O O4 0.580340 0.336655 0.439550
O O5 0.673793 0.876819 0.270118
O O6 0.577586 0.834446 0.395209
O O7 0.622875 0.000000 0.373798
O O8 0.092367 0.500000 0.153233
O O9 0.175201 0.345800 0.111042
O O10 0.005112 0.336988 0.167952
O O11 0.168044 0.738702 0.838152
O O12 0.020764 0.785251 0.712844
O O13 0.017778 0.848131 0.854005
O O14 0.163541 0.160774 0.106155
O O15 0.250000 0.250000 0.000000
O O16 0.582462 0.500000 0.124723
O O17 0.500000 0.392497 0.000000
#
# Coordination Sequence:
#
# PCOD8101088 Si02
#       7
#     8   8   8   8   8   8   8
#     4   9  17  32  53  76 107 140 177 210 258 318
#     4   9  17  33  55  80 107 139 179 223 266 314
#     4   9  20  35  54  80 111 143 179 226 277 323
#     4  10  20  36  57  78 109 143 183 228 275 324
#     4   9  18  33  54  78 105 146 180 216 269 328
#     4  11  21  34  55  80 106 139 185 224 271 328
#     4  10  21  38  56  77 108 141 178 227 276 326
#
# _framework density 18.192267999999999
#
# number of rings (size 3 to 8) (size 9 to 14) (size 15 to 20)
#    0.000    2.429    1.429    0.857    0.000    2.857 
#    0.000    9.286    0.000    0.000    0.000    0.000 
#    0.000    0.000    0.000    0.000    0.000    0.000 
#
# Total GULP energy -346946.779407 kJ/mol
# GULP energy per Si atom -12390.956407 kJ/mol
# Density = 1.815086 g / cm^3
# Si number density = 18.192268 Si / 1000 Ang^3
#
#
#
# Elastic Constant Matrix: (Units=GPa)
#
#
# Indices 1 2 3 4 5 6 
#
# 1 110.8771 46.4662 38.4624 0.0000 -0.2243 0.0000
# 2 46.4662 115.1459 37.4674 0.0000 -1.2130 0.0000
# 3 38.4624 37.4674 88.7832 0.0000 -1.4627 0.0000
# 4 0.0000 0.0000 0.0000 17.4545 0.0000 3.7500
# 5 -0.2243 -1.2130 -1.4627 0.0000 32.5779 0.0000
# 6 0.0000 0.0000 0.0000 3.7500 0.0000 16.9730
#
#
#
# Elastic Compliance Matrix: (Units=1/GPa)
#
#
# Indices 1 2 3 4 5 6 
#
# 1 0.011765 -0.003582 -0.003588 0.000000 -0.000214 0.000000
# 2 -0.003582 0.011159 -0.003153 0.000000 0.000249 0.000000
# 3 -0.003588 -0.003153 0.014157 0.000000 0.000494 0.000000
# 4 0.000000 0.000000 0.000000 0.060147 0.000000 -0.013289
# 5 -0.000214 0.000249 0.000494 0.000000 0.030726 0.000000
# 6 0.000000 0.000000 0.000000 -0.013289 0.000000 0.061853
#
#
# Mechanical properties :
#
#
# Convention : Reuss Voigt Hill
#
# Bulk Modulus (GPa) = 60.85439 62.17758 61.51599
# Shear Modulus (GPa) = 23.15559 26.22844 24.69202
#
# Velocity S-wave (km/s) = 3.57154 3.80114 3.68813
# Velocity P-wave (km/s) = 7.10853 7.31554 7.21278
#
# Compressibility (1/GPa) = 0.01643267
#
# Stress axis : x y z
#
# Youngs Moduli (GPa) = 85.00122 89.61537 70.63761
#
# Poissons Ratio (x) = 0.32101 0.25348
# Poissons Ratio (y) = 0.30448 0.22273
# Poissons Ratio (z) = 0.30502 0.28257
#
# Static dielectric constant tensor:
#      x y z
#    x 3.625620 0.000000 0.165570 
#    y 0.000000 3.271730 0.000000 
#    z 0.165570 0.000000 3.626340 
# 
# 
# High freq. dielectric constant tensor:
#      x y z
#    x 1.715330 0.000000 0.002940 
#    y 0.000000 1.677910 0.000000 
#    z 0.002940 0.000000 1.718380 
# 
# From -- ./inp_files/204993.got.cif
#   From: 2010.06.25/outbox.cif.g09.slc.cpg/sg12_103_cif.got.tgz:204993.got - 2010.06.28 00:19:55.
