data_PCOD8101199
_publ_section_title
;
Structure prediction by ZEFSAII (Michael W. Deem and Ramdas Pophale) SiO2 
 PCOD8101199
Probable space group: C 2/M
;
_chemical_formula_sum "Si O2"
_cell_formula_units_Z 56
_cell_length_a 21.809770
_cell_length_b 8.904105
_cell_length_c 20.137118
_cell_angle_alpha 90.000000
_cell_angle_beta 128.912019
_cell_angle_gamma 90.000000
_cell_volume 3042.849363
_symmetry_space_group_name_H-M "C 2/M"
_symmetry_group_IT_number 12
_symmetry_cell_setting 'monoclinic'
loop_
_space_group_symop_operation_xyz
x,y,z
-x,y,-z
-x,-y,-z
x,-y,z
1/2+x,1/2+y,z
1/2-x,1/2+y,-z
1/2-x,1/2-y,-z
1/2+x,1/2-y,z
loop_
_atom_site_type_symbol
_atom_site_label
_atom_site_fract_x
_atom_site_fract_y
_atom_site_fract_z
Si Si1 0.619391 0.331450 0.043166
Si Si2 0.074580 0.176362 0.750827
Si Si3 0.454330 0.331024 0.868369
Si Si4 0.522481 0.676917 0.442633
Si Si5 0.664781 0.677042 0.449054
Si Si6 0.759881 0.826274 0.077551
Si Si7 0.062063 0.674525 0.272316
O O1 0.645218 0.500000 0.040015
O O2 0.605982 0.324331 0.112258
O O3 0.685975 0.212101 0.072558
O O4 0.541270 0.284930 0.950773
O O5 0.164215 0.222368 0.827267
O O6 0.047187 0.219044 0.657039
O O7 0.026246 0.276186 0.769981
O O8 0.058709 0.000000 0.752520
O O9 0.455802 0.500000 0.839579
O O10 0.423946 0.209302 0.795276
O O11 0.500000 0.747399 0.500000
O O12 0.528378 0.500000 0.454549
O O13 0.608265 0.733222 0.472364
O O14 0.676075 0.500000 0.461473
O O15 0.750000 0.750000 0.500000
O O16 0.621561 0.720853 0.352488
O O17 0.763932 0.000000 0.065162
O O18 0.750000 0.750000 0.000000
O O19 0.077030 0.500000 0.297649
#
# Coordination Sequence:
#
# PCOD8101199 Si02
#       7
#     8   8   8   8   8   8   8
#     4   9  19  35  54  74 102 139 178 218 267 324
#     4   9  19  35  53  75 105 140 176 216 266 324
#     4   9  18  35  55  74 101 140 177 215 268 325
#     4   8  15  32  58  81 102 137 179 220 270 325
#     4  10  20  36  57  82 113 143 178 225 275 332
#     4  11  22  34  50  75 107 142 179 221 268 317
#     4  11  21  33  54  81 105 136 179 222 264 315
#
# _framework density 18.403804000000001
#
# number of rings (size 3 to 8) (size 9 to 14) (size 15 to 20)
#    0.000    2.429    0.000    4.714    0.000    5.714 
#    2.571    1.429    0.000   10.714    0.000    0.000 
#    0.000    0.000    0.000    0.000    0.000    0.000 
#
# Total GULP energy -347034.597300 kJ/mol
# GULP energy per Si atom -12394.092761 kJ/mol
# Density = 1.836192 g / cm^3
# Si number density = 18.403804 Si / 1000 Ang^3
#
#
#
# Elastic Constant Matrix: (Units=GPa)
#
#
# Indices 1 2 3 4 5 6 
#
# 1 120.0770 33.6898 73.4015 0.0000 6.4896 0.0000
# 2 33.6898 48.7616 29.0032 0.0000 2.0596 0.0000
# 3 73.4015 29.0032 99.1721 0.0000 -3.1364 0.0000
# 4 0.0000 0.0000 0.0000 26.3681 0.0000 3.6776
# 5 6.4896 2.0596 -3.1364 0.0000 33.1734 0.0000
# 6 0.0000 0.0000 0.0000 3.6776 0.0000 30.0741
#
#
#
# Elastic Compliance Matrix: (Units=1/GPa)
#
#
# Indices 1 2 3 4 5 6 
#
# 1 0.016629 -0.004750 -0.011045 0.000000 -0.004002 0.000000
# 2 -0.004750 0.026350 -0.004225 0.000000 -0.001106 0.000000
# 3 -0.011045 -0.004225 0.019629 0.000000 0.004279 0.000000
# 4 0.000000 0.000000 0.000000 0.038583 0.000000 -0.004718
# 5 -0.004002 -0.001106 0.004279 0.000000 0.031401 0.000000
# 6 0.000000 0.000000 0.000000 -0.004718 0.000000 0.033828
#
#
# Mechanical properties :
#
#
# Convention : Reuss Voigt Hill
#
# Bulk Modulus (GPa) = 44.31257 60.02220 52.16738
# Shear Modulus (GPa) = 23.36635 26.71750 25.04193
#
# Velocity S-wave (km/s) = 3.56708 3.81430 3.69276
# Velocity P-wave (km/s) = 6.41059 7.21688 6.82565
#
# Compressibility (1/GPa) = 0.02256696
#
# Stress axis : x y z
#
# Youngs Moduli (GPa) = 60.13681 37.95088 50.94430
#
# Poissons Ratio (x) = 0.18028 0.56268
# Poissons Ratio (y) = 0.28567 0.21524
# Poissons Ratio (z) = 0.66421 0.16035
#
# Static dielectric constant tensor:
#      x y z
#    x 3.660150 0.000000 0.035620 
#    y 0.000000 3.379490 0.000000 
#    z 0.035620 0.000000 3.567350 
# 
# 
# High freq. dielectric constant tensor:
#      x y z
#    x 1.713770 0.000000 -0.003060 
#    y 0.000000 1.696840 0.000000 
#    z -0.003060 0.000000 1.713180 
# 
# From -- ./inp_files/281634.got.cif
#   From: 2010.06.25/outbox.cif.g09.slc.cpg/sg12_141_cif.got.tgz:281634.got - 2010.06.28 00:19:55.
