data_PCOD8101269
_publ_section_title
;
Structure prediction by ZEFSAII (Michael W. Deem and Ramdas Pophale) SiO2 
 PCOD8101269
Probable space group: C 2/M
;
_chemical_formula_sum "Si O2"
_cell_formula_units_Z 48
_cell_length_a 24.329454
_cell_length_b 9.075698
_cell_length_c 11.425395
_cell_angle_alpha 90.000000
_cell_angle_beta 111.203150
_cell_angle_gamma 90.000000
_cell_volume 2352.020657
_symmetry_space_group_name_H-M "C 2/M"
_symmetry_group_IT_number 12
_symmetry_cell_setting 'monoclinic'
loop_
_space_group_symop_operation_xyz
x,y,z
-x,y,-z
-x,-y,-z
x,-y,z
1/2+x,1/2+y,z
1/2-x,1/2+y,-z
1/2-x,1/2-y,-z
1/2+x,1/2-y,z
loop_
_atom_site_type_symbol
_atom_site_label
_atom_site_fract_x
_atom_site_fract_y
_atom_site_fract_z
Si Si1 0.764340 0.675169 0.134182
Si Si2 0.938458 0.166903 0.007295
Si Si3 0.664603 0.172462 0.194117
Si Si4 0.883868 0.330377 0.347569
Si Si5 0.018931 0.833821 0.705256
Si Si6 0.102315 0.669022 0.380340
O O1 0.757258 0.500000 0.117168
O O2 0.721392 0.734120 0.201890
O O3 0.829934 0.721225 0.224553
O O4 0.750000 0.750000 0.000000
O O5 0.889408 0.281589 0.929833
O O6 0.923287 0.000000 0.953925
O O7 0.941165 0.174579 0.148704
O O8 0.000000 0.218425 0.000000
O O9 0.649747 0.211272 0.317411
O O10 0.677158 0.000000 0.184879
O O11 0.897758 0.500000 0.334964
O O12 0.944261 0.244338 0.368601
O O13 0.867642 0.301282 0.470844
O O14 0.956250 0.762469 0.682368
O O15 0.007407 0.000000 0.656658
O O16 0.083208 0.500000 0.351533
#
# Coordination Sequence:
#
# PCOD8101269 Si02
#       6
#     8   8   8   8   8   8
#     4  11  24  43  66  89 117 154 197 245 296 352
#     4  10  20  36  57  84 120 156 192 240 295 347
#     4  11  23  38  61  91 121 155 198 245 293 349
#     4  10  23  42  61  83 116 160 201 238 292 355
#     4  11  22  36  59  90 121 154 197 247 296 345
#     4  10  22  40  60  85 120 159 197 239 291 354
#
# _framework density 20.407983999999999
#
# number of rings (size 3 to 8) (size 9 to 14) (size 15 to 20)
#    0.000    1.500    1.667    3.000    0.000    9.667 
#    0.000    0.000    0.000    0.000    0.000    0.000 
#    0.000    0.000    0.000    0.000    0.000    0.000 
#
# Total GULP energy -297699.263875 kJ/mol
# GULP energy per Si atom -12404.135995 kJ/mol
# Density = 2.036153 g / cm^3
# Si number density = 20.407984 Si / 1000 Ang^3
#
#
#
# Elastic Constant Matrix: (Units=GPa)
#
#
# Indices 1 2 3 4 5 6 
#
# 1 113.2818 55.4933 30.2327 0.0000 -15.6349 0.0000
# 2 55.4933 93.7219 43.1566 0.0000 -4.2916 0.0000
# 3 30.2327 43.1566 92.4674 0.0000 -10.6016 0.0000
# 4 0.0000 0.0000 0.0000 26.7775 0.0000 -2.7172
# 5 -15.6349 -4.2916 -10.6016 0.0000 31.3830 0.0000
# 6 0.0000 0.0000 0.0000 -2.7172 0.0000 36.2877
#
#
#
# Elastic Compliance Matrix: (Units=1/GPa)
#
#
# Indices 1 2 3 4 5 6 
#
# 1 0.013349 -0.007557 -0.000201 0.000000 0.005549 0.000000
# 2 -0.007557 0.017872 -0.006264 0.000000 -0.003437 0.000000
# 3 -0.000201 -0.006264 0.014246 0.000000 0.003856 0.000000
# 4 0.000000 0.000000 0.000000 0.037631 0.000000 0.002818
# 5 0.005549 -0.003437 0.003856 0.000000 0.035461 0.000000
# 6 0.000000 0.000000 0.000000 0.002818 0.000000 0.027769
#
#
# Mechanical properties :
#
#
# Convention : Reuss Voigt Hill
#
# Bulk Modulus (GPa) = 57.40076 61.91515 59.65796
# Shear Modulus (GPa) = 27.74989 30.26222 29.00606
#
# Velocity S-wave (km/s) = 3.69149 3.85497 3.77412
# Velocity P-wave (km/s) = 6.80861 7.08653 6.94896
#
# Compressibility (1/GPa) = 0.01742137
#
# Stress axis : x y z
#
# Youngs Moduli (GPa) = 74.91048 55.95391 70.19435
#
# Poissons Ratio (x) = 0.42287 0.01412
# Poissons Ratio (y) = 0.56613 0.43972
# Poissons Ratio (z) = 0.01507 0.35051
#
# Static dielectric constant tensor:
#      x y z
#    x 3.751720 0.000000 -0.138270 
#    y 0.000000 3.732740 0.000000 
#    z -0.138270 0.000000 3.796720 
# 
# 
# High freq. dielectric constant tensor:
#      x y z
#    x 1.798020 0.000000 -0.012220 
#    y 0.000000 1.800000 0.000000 
#    z -0.012220 0.000000 1.804950 
# 
# From -- ./inp_files/172923.got.cif
#   From: 2010.06.25/outbox.cif.g09.slc.cpg/sg12_87_cif.got.tgz:172923.got - 2010.06.28 00:19:55.
