data_PCOD8101409
_publ_section_title
;
Structure prediction by ZEFSAII (Michael W. Deem and Ramdas Pophale) SiO2 
 PCOD8101409
Probable space group: C 2/M
;
_chemical_formula_sum "Si O2"
_cell_formula_units_Z 56
_cell_length_a 13.164440
_cell_length_b 17.575056
_cell_length_c 14.378544
_cell_angle_alpha 90.000000
_cell_angle_beta 57.821242
_cell_angle_gamma 90.000000
_cell_volume 2815.690296
_symmetry_space_group_name_H-M "C 2/M"
_symmetry_group_IT_number 12
_symmetry_cell_setting 'monoclinic'
loop_
_space_group_symop_operation_xyz
x,y,z
-x,y,-z
-x,-y,-z
x,-y,z
1/2+x,1/2+y,z
1/2-x,1/2+y,-z
1/2-x,1/2-y,-z
1/2+x,1/2-y,z
loop_
_atom_site_type_symbol
_atom_site_label
_atom_site_fract_x
_atom_site_fract_y
_atom_site_fract_z
Si Si1 0.487553 0.661566 0.895466
Si Si2 0.061408 0.333296 0.119513
Si Si3 0.766002 0.086577 0.915472
Si Si4 0.199508 0.589340 0.549055
Si Si5 0.796892 0.088103 0.313930
Si Si6 0.187850 0.587777 0.758314
Si Si7 0.069803 0.412624 0.301736
O O1 0.445573 0.742824 0.879676
O O2 0.388601 0.601651 0.909842
O O3 0.613454 0.640199 0.787659
O O4 0.500000 0.658422 0.000000
O O5 0.109631 0.360397 0.195968
O O6 0.932391 0.367254 0.157482
O O7 0.158621 0.358437 0.996748
O O8 0.783488 0.099040 0.795057
O O9 0.727813 0.000000 0.954725
O O10 0.208749 0.500000 0.531893
O O11 0.286258 0.621269 0.425009
O O12 0.241978 0.615632 0.632099
O O13 0.061490 0.614510 0.600381
O O14 0.663704 0.097528 0.338193
O O15 0.839135 0.000000 0.288707
O O16 0.150346 0.500000 0.765189
O O17 0.065134 0.500000 0.269593
#
# Coordination Sequence:
#
# PCOD8101409 Si02
#       7
#     8   8   8   8   8   8   8
#     4  12  26  39  52  77 113 149 182 219 270 334
#     4  11  21  36  57  81 109 143 177 223 279 324
#     4  11  22  37  58  81 107 142 184 227 270 319
#     4   8  15  31  57  87 112 136 177 230 272 308
#     4  10  20  36  58  82 111 147 182 220 270 322
#     4   9  18  34  58  85 107 133 179 232 272 312
#     4   9  17  32  59  90 113 138 180 228 267 311
#
# _framework density 19.888551
#
# number of rings (size 3 to 8) (size 9 to 14) (size 15 to 20)
#    0.000    2.000    0.000    5.571    0.000    6.286 
#    0.000    3.571    0.000    6.857    0.000    0.000 
#    0.000    0.000    0.000    0.000    0.000    0.286 
#
# Total GULP energy -347103.354820 kJ/mol
# GULP energy per Si atom -12396.548386 kJ/mol
# Density = 1.984328 g / cm^3
# Si number density = 19.888551 Si / 1000 Ang^3
#
#
#
# Elastic Constant Matrix: (Units=GPa)
#
#
# Indices 1 2 3 4 5 6 
#
# 1 62.9795 23.2511 38.1532 0.0000 18.0699 0.0000
# 2 23.2511 68.5087 41.5100 0.0000 2.9679 0.0000
# 3 38.1532 41.5100 152.7456 0.0000 15.9811 0.0000
# 4 0.0000 0.0000 0.0000 8.0724 0.0000 0.0588
# 5 18.0699 2.9679 15.9811 0.0000 26.1014 0.0000
# 6 0.0000 0.0000 0.0000 0.0588 0.0000 20.2080
#
#
#
# Elastic Compliance Matrix: (Units=1/GPa)
#
#
# Indices 1 2 3 4 5 6 
#
# 1 0.023773 -0.005688 -0.002925 0.000000 -0.014020 0.000000
# 2 -0.005688 0.018859 -0.004158 0.000000 0.004340 0.000000
# 3 -0.002925 -0.004158 0.008704 0.000000 -0.002831 0.000000
# 4 0.000000 0.000000 0.000000 0.123881 0.000000 -0.000360
# 5 -0.014020 0.004340 -0.002831 0.000000 0.049258 0.000000
# 6 0.000000 0.000000 0.000000 -0.000360 0.000000 0.049486
#
#
# Mechanical properties :
#
#
# Convention : Reuss Voigt Hill
#
# Bulk Modulus (GPa) = 38.77232 54.45137 46.61185
# Shear Modulus (GPa) = 16.22838 22.96433 19.59636
#
# Velocity S-wave (km/s) = 2.85961 3.40170 3.14237
# Velocity P-wave (km/s) = 5.51727 6.54725 6.05420
#
# Compressibility (1/GPa) = 0.02579160
#
# Stress axis : x y z
#
# Youngs Moduli (GPa) = 42.06441 53.02569 114.89271
#
# Poissons Ratio (x) = 0.30163 0.33610
# Poissons Ratio (y) = 0.23928 0.47775
# Poissons Ratio (z) = 0.12305 0.22049
#
# Static dielectric constant tensor:
#      x y z
#    x 3.555410 0.000000 0.280570 
#    y 0.000000 3.399350 0.000000 
#    z 0.280570 0.000000 3.837860 
# 
# 
# High freq. dielectric constant tensor:
#      x y z
#    x 1.768870 0.000000 0.019590 
#    y 0.000000 1.750950 0.000000 
#    z 0.019590 0.000000 1.781610 
# 
# From -- ./inp_files/206601.got.cif
#   From: 2010.06.25/outbox.cif.g09.slc.cpg/sg12_104_cif.got.tgz:206601.got - 2010.06.28 00:19:55.
