data_PCOD8101549
_publ_section_title
;
Structure prediction by ZEFSAII (Michael W. Deem and Ramdas Pophale) SiO2 
 PCOD8101549
Probable space group: C 2/M
;
_chemical_formula_sum "Si O2"
_cell_formula_units_Z 56
_cell_length_a 28.949916
_cell_length_b 8.876454
_cell_length_c 11.206110
_cell_angle_alpha 90.000000
_cell_angle_beta 69.592553
_cell_angle_gamma 90.000000
_cell_volume 2698.925962
_symmetry_space_group_name_H-M "C 2/M"
_symmetry_group_IT_number 12
_symmetry_cell_setting 'monoclinic'
loop_
_space_group_symop_operation_xyz
x,y,z
-x,y,-z
-x,-y,-z
x,-y,z
1/2+x,1/2+y,z
1/2-x,1/2+y,-z
1/2-x,1/2-y,-z
1/2+x,1/2-y,z
loop_
_atom_site_type_symbol
_atom_site_label
_atom_site_fract_x
_atom_site_fract_y
_atom_site_fract_z
Si Si1 0.791131 0.828252 0.887506
Si Si2 0.171135 0.675767 0.755728
Si Si3 0.627613 0.324650 0.588650
Si Si4 0.625850 0.672236 0.011470
Si Si5 0.977731 0.322355 0.891821
Si Si6 0.979681 0.824457 0.389709
Si Si7 0.280879 0.322838 0.637855
O O1 0.790898 0.752176 0.758269
O O2 0.774070 0.000000 0.892893
O O3 0.750000 0.750000 0.000000
O O4 0.846622 0.815725 0.887036
O O5 0.166159 0.500000 0.788028
O O6 0.125995 0.729841 0.712639
O O7 0.166139 0.769057 0.881283
O O8 0.224743 0.715508 0.649105
O O9 0.632770 0.500000 0.616246
O O10 0.579064 0.296418 0.553741
O O11 0.676333 0.254767 0.483053
O O12 0.610088 0.500000 0.998292
O O13 0.579332 0.780795 0.053925
O O14 0.984874 0.500000 0.874502
O O15 0.000379 0.250893 0.750206
O O16 0.000000 0.265467 0.000000
O O17 0.000000 0.761436 0.500000
O O18 0.993449 0.000000 0.367522
O O19 0.289900 0.500000 0.631994
#
# Coordination Sequence:
#
# PCOD8101549 Si02
#       7
#     8   8   8   8   8   8   8
#     4  10  20  36  58  85 119 156 195 241 294 352
#     4  11  21  36  58  86 124 160 195 241 295 355
#     4  10  21  38  61  85 116 155 199 246 295 353
#     4  11  23  37  62  92 120 155 200 249 299 359
#     4  11  25  44  66  92 125 163 206 259 318 376
#     4  10  23  42  66  93 122 160 209 261 311 367
#     4   9  19  35  57  84 117 156 194 237 288 347
#
# _framework density 20.748995000000001
#
# number of rings (size 3 to 8) (size 9 to 14) (size 15 to 20)
#    0.000    1.714    1.429    2.571    2.000    4.857 
#    0.000    1.429    0.000    0.000    0.000    0.000 
#    0.000    0.000    0.000    0.000    0.000    0.000 
#
# Total GULP energy -347003.479683 kJ/mol
# GULP energy per Si atom -12392.981417 kJ/mol
# Density = 2.070177 g / cm^3
# Si number density = 20.748995 Si / 1000 Ang^3
#
#
#
# Elastic Constant Matrix: (Units=GPa)
#
#
# Indices 1 2 3 4 5 6 
#
# 1 118.8177 32.5361 46.7496 0.0000 15.1872 0.0000
# 2 32.5361 48.2798 30.0324 0.0000 8.0793 0.0000
# 3 46.7496 30.0324 105.0649 0.0000 11.3983 0.0000
# 4 0.0000 0.0000 0.0000 31.0945 0.0000 -1.9570
# 5 15.1872 8.0793 11.3983 0.0000 39.7462 0.0000
# 6 0.0000 0.0000 0.0000 -1.9570 0.0000 26.8490
#
#
#
# Elastic Compliance Matrix: (Units=1/GPa)
#
#
# Indices 1 2 3 4 5 6 
#
# 1 0.011474 -0.005256 -0.003347 0.000000 -0.002356 0.000000
# 2 -0.005256 0.027988 -0.005431 0.000000 -0.002123 0.000000
# 3 -0.003347 -0.005431 0.012696 0.000000 -0.001258 0.000000
# 4 0.000000 0.000000 0.000000 0.032308 0.000000 0.002355
# 5 -0.002356 -0.002123 -0.001258 0.000000 0.026852 0.000000
# 6 0.000000 0.000000 0.000000 0.002355 0.000000 0.037417
#
#
# Mechanical properties :
#
#
# Convention : Reuss Voigt Hill
#
# Bulk Modulus (GPa) = 41.51202 54.53318 48.02260
# Shear Modulus (GPa) = 27.05119 30.39421 28.72270
#
# Velocity S-wave (km/s) = 3.61464 3.83149 3.72465
# Velocity P-wave (km/s) = 6.12136 6.77592 6.45694
#
# Compressibility (1/GPa) = 0.02408941
#
# Stress axis : x y z
#
# Youngs Moduli (GPa) = 87.15662 35.72905 78.76239
#
# Poissons Ratio (x) = 0.18778 0.26365
# Poissons Ratio (y) = 0.45807 0.42779
# Poissons Ratio (z) = 0.29175 0.19406
#
# Static dielectric constant tensor:
#      x y z
#    x 3.996130 0.000000 0.212160 
#    y 0.000000 3.704780 0.000000 
#    z 0.212160 0.000000 4.148460 
# 
# 
# High freq. dielectric constant tensor:
#      x y z
#    x 1.826290 0.000000 0.006800 
#    y 0.000000 1.789990 0.000000 
#    z 0.006800 0.000000 1.818880 
# 
# From -- ./inp_files/180730.got.cif
#   From: 2010.06.25/outbox.cif.g09.slc.cpg/sg12_91_cif.got.tgz:180730.got - 2010.06.28 00:19:55.
