data_PCOD8101017
_publ_section_title
;
Structure prediction by ZEFSAII (Michael W. Deem and Ramdas Pophale) SiO2 
 PCOD8101017
Probable space group: C 2/M
;
_chemical_formula_sum "Si O2"
_cell_formula_units_Z 40
_cell_length_a 9.257594
_cell_length_b 28.540763
_cell_length_c 14.469567
_cell_angle_alpha 90.000000
_cell_angle_beta 146.999427
_cell_angle_gamma 90.000000
_cell_volume 2082.258758
_symmetry_space_group_name_H-M "C 2/M"
_symmetry_group_IT_number 12
_symmetry_cell_setting 'monoclinic'
loop_
_space_group_symop_operation_xyz
x,y,z
-x,y,-z
-x,-y,-z
x,-y,z
1/2+x,1/2+y,z
1/2-x,1/2+y,-z
1/2-x,1/2-y,-z
1/2+x,1/2-y,z
loop_
_atom_site_type_symbol
_atom_site_label
_atom_site_fract_x
_atom_site_fract_y
_atom_site_fract_z
Si Si1 0.708069 0.885804 0.842361
Si Si2 0.939410 0.210016 0.725911
Si Si3 0.018205 0.296077 0.660048
Si Si4 0.760724 0.945740 0.697976
Si Si5 0.252466 0.116444 0.929912
O O1 0.511850 0.848546 0.693883
O O2 0.713330 0.931967 0.780043
O O3 0.628704 0.895102 0.905122
O O4 0.000000 0.862773 0.000000
O O5 0.770594 0.204108 0.541457
O O6 0.751840 0.213039 0.713251
O O7 0.068848 0.260897 0.774194
O O8 0.161150 0.170033 0.860836
O O9 0.500000 0.933809 0.500000
O O10 0.997658 0.916619 0.777335
O O11 0.835307 0.000000 0.733860
O O12 0.500000 0.102553 0.000000
#
# Coordination Sequence:
#
# PCOD8101017 Si02
#       5
#     8   8   8   8   8
#     4  10  20  36  58  85 116 153 195 239 291 348
#     4  10  21  36  55  79 119 159 202 239 287 342
#     4  10  20  36  56  81 112 161 205 245 279 338
#     4  10  21  42  70  89 109 152 200 241 293 360
#     4  11  24  38  56  90 126 154 189 245 301 344
#
# _framework density 19.209909
#
# number of rings (size 3 to 8) (size 9 to 14) (size 15 to 20)
#    0.000    1.800    4.000    1.200    2.800    5.600 
#    0.000    3.000    0.000    2.400    0.000    0.000 
#    0.000    0.000    0.000    0.000    0.000    0.000 
#
# Total GULP energy -247851.999174 kJ/mol
# GULP energy per Si atom -12392.599959 kJ/mol
# Density = 1.916619 g / cm^3
# Si number density = 19.209909 Si / 1000 Ang^3
#
#
#
# Elastic Constant Matrix: (Units=GPa)
#
#
# Indices 1 2 3 4 5 6 
#
# 1 122.2356 26.5411 38.2770 0.0000 2.9279 0.0000
# 2 26.5411 81.5821 26.0457 0.0000 3.8313 0.0000
# 3 38.2770 26.0457 58.5251 0.0000 -4.2331 0.0000
# 4 0.0000 0.0000 0.0000 21.8795 0.0000 -9.6611
# 5 2.9279 3.8313 -4.2331 0.0000 23.7209 0.0000
# 6 0.0000 0.0000 0.0000 -9.6611 0.0000 22.6804
#
#
#
# Elastic Compliance Matrix: (Units=1/GPa)
#
#
# Indices 1 2 3 4 5 6 
#
# 1 0.010542 -0.001247 -0.006503 0.000000 -0.002260 0.000000
# 2 -0.001247 0.014726 -0.005976 0.000000 -0.003291 0.000000
# 3 -0.006503 -0.005976 0.024443 0.000000 0.006130 0.000000
# 4 0.000000 0.000000 0.000000 0.056293 0.000000 0.023979
# 5 -0.002260 -0.003291 0.006130 0.000000 0.044061 0.000000
# 6 0.000000 0.000000 0.000000 0.023979 0.000000 0.054305
#
#
# Mechanical properties :
#
#
# Convention : Reuss Voigt Hill
#
# Bulk Modulus (GPa) = 44.92746 49.34114 47.13430
# Shear Modulus (GPa) = 20.89928 25.08810 22.99369
#
# Velocity S-wave (km/s) = 3.30198 3.61778 3.46348
# Velocity P-wave (km/s) = 6.16245 6.57207 6.37055
#
# Compressibility (1/GPa) = 0.02225810
#
# Stress axis : x y z
#
# Youngs Moduli (GPa) = 94.85529 67.90838 40.91182
#
# Poissons Ratio (x) = 0.08471 0.26606
# Poissons Ratio (y) = 0.11832 0.24448
# Poissons Ratio (z) = 0.61688 0.40580
#
# Static dielectric constant tensor:
#      x y z
#    x 3.560680 0.000000 -0.252670 
#    y 0.000000 3.475480 0.000000 
#    z -0.252670 0.000000 3.660210 
# 
# 
# High freq. dielectric constant tensor:
#      x y z
#    x 1.740790 0.000000 -0.013260 
#    y 0.000000 1.741140 0.000000 
#    z -0.013260 0.000000 1.749670 
# 
# From -- ./inp_files/40309.got.cif
#   From: 2010.06.25/outbox.cif.g09.slc.cpg/sg12_21_cif.got.tgz:40309.got - 2010.06.28 00:19:55.
