data_PCOD8101180
_publ_section_title
;
Structure prediction by ZEFSAII (Michael W. Deem and Ramdas Pophale) SiO2 
 PCOD8101180
Probable space group: C 2/M
;
_chemical_formula_sum "Si O2"
_cell_formula_units_Z 64
_cell_length_a 10.415242
_cell_length_b 27.891775
_cell_length_c 9.528741
_cell_angle_alpha 90.000000
_cell_angle_beta 97.471948
_cell_angle_gamma 90.000000
_cell_volume 2744.590448
_symmetry_space_group_name_H-M "C 2/M"
_symmetry_group_IT_number 12
_symmetry_cell_setting 'monoclinic'
loop_
_space_group_symop_operation_xyz
x,y,z
-x,y,-z
-x,-y,-z
x,-y,z
1/2+x,1/2+y,z
1/2-x,1/2+y,-z
1/2-x,1/2-y,-z
1/2+x,1/2-y,z
loop_
_atom_site_type_symbol
_atom_site_label
_atom_site_fract_x
_atom_site_fract_y
_atom_site_fract_z
Si Si1 0.641221 0.944855 0.963843
Si Si2 0.069865 0.679938 0.224200
Si Si3 0.803175 0.363405 0.220756
Si Si4 0.732856 0.306223 0.968301
Si Si5 0.416742 0.553308 0.128134
Si Si6 0.049479 0.851422 0.717888
Si Si7 0.388970 0.732573 0.593477
Si Si8 0.257075 0.846318 0.523708
O O1 0.662949 0.916411 0.824084
O O2 0.639272 0.000000 0.921291
O O3 0.500000 0.928775 0.000000
O O4 0.763253 0.934320 0.084699
O O5 0.133544 0.671599 0.080252
O O6 0.115153 0.733669 0.272492
O O7 0.123030 0.644191 0.354341
O O8 0.917376 0.674766 0.205878
O O9 0.774637 0.372929 0.379101
O O10 0.696526 0.337275 0.104191
O O11 0.622675 0.316522 0.838024
O O12 0.750000 0.250000 0.000000
O O13 0.426512 0.500000 0.199934
O O14 0.482550 0.595436 0.228753
O O15 0.500000 0.551762 0.000000
O O16 0.128526 0.861735 0.586862
O O17 0.921381 0.821726 0.658714
O O18 0.500000 0.749508 0.500000
O O19 0.250091 0.713137 0.504408
#
# Coordination Sequence:
#
# PCOD8101180 Si02
#       8
#     8   8   8   8   8   8   8   8
#     4  10  22  41  66  96 127 162 205 259 321 380
#     4  11  22  37  56  83 122 164 211 258 309 369
#     4  12  22  37  60  88 122 161 206 259 311 376
#     4  11  22  35  55  89 121 156 204 261 313 365
#     4  10  22  41  68  98 126 161 208 258 316 382
#     4  10  22  39  60  87 124 161 204 259 313 373
#     4  10  20  36  57  81 117 165 210 250 305 373
#     4  10  23  38  57  84 121 168 210 252 310 370
#
# _framework density 23.318598999999999
#
# number of rings (size 3 to 8) (size 9 to 14) (size 15 to 20)
#    0.000    1.500    1.250    4.125    3.500    3.000 
#    0.000    0.625    0.000    4.875    0.000    0.000 
#    0.000    0.000    0.000    0.000    0.000    0.000 
#
# Total GULP energy -396509.184794 kJ/mol
# GULP energy per Si atom -12390.912025 kJ/mol
# Density = 2.326552 g / cm^3
# Si number density = 23.318599 Si / 1000 Ang^3
#
#
#
# Elastic Constant Matrix: (Units=GPa)
#
#
# Indices 1 2 3 4 5 6 
#
# 1 43.8156 -24.4019 -8.8958 0.0000 2.6014 0.0000
# 2 -24.4019 92.3451 25.7488 0.0000 -2.3293 0.0000
# 3 -8.8958 25.7488 123.6759 0.0000 -15.1147 0.0000
# 4 0.0000 0.0000 0.0000 35.6592 0.0000 -5.9842
# 5 2.6014 -2.3293 -15.1147 0.0000 21.1193 0.0000
# 6 0.0000 0.0000 0.0000 -5.9842 0.0000 18.4879
#
#
#
# Elastic Compliance Matrix: (Units=1/GPa)
#
#
# Indices 1 2 3 4 5 6 
#
# 1 0.026900 0.006996 0.000184 0.000000 -0.002410 0.000000
# 2 0.006996 0.013320 -0.002406 0.000000 -0.001115 0.000000
# 3 0.000184 -0.002406 0.009386 0.000000 0.006429 0.000000
# 4 0.000000 0.000000 0.000000 0.029654 0.000000 0.009599
# 5 -0.002410 -0.001115 0.006429 0.000000 0.052125 0.000000
# 6 0.000000 0.000000 0.000000 0.009599 0.000000 0.057196
#
#
# Mechanical properties :
#
#
# Convention : Reuss Voigt Hill
#
# Bulk Modulus (GPa) = 16.90539 27.19320 22.04930
# Shear Modulus (GPa) = 25.15702 32.87898 29.01800
#
# Velocity S-wave (km/s) = 3.28813 3.75906 3.53145
# Velocity P-wave (km/s) = 4.65631 5.52518 5.10925
#
# Compressibility (1/GPa) = 0.05915273
#
# Stress axis : x y z
#
# Youngs Moduli (GPa) = 37.17525 75.07242 106.54677
#
# Poissons Ratio (x) = -0.52521 -0.01957
# Poissons Ratio (y) = -0.26008 0.25638
# Poissons Ratio (z) = -0.00683 0.18065
#
# Static dielectric constant tensor:
#      x y z
#    x 4.470550 0.000000 0.182960 
#    y 0.000000 4.200890 0.000000 
#    z 0.182960 0.000000 4.267110 
# 
# 
# High freq. dielectric constant tensor:
#      x y z
#    x 1.938560 0.000000 0.007690 
#    y 0.000000 1.906610 0.000000 
#    z 0.007690 0.000000 1.925150 
# 
# From -- ./inp_files/54738.got.cif
#   From: 2010.06.25/outbox.cif.g09.slc.cpg/sg12_28_cif.got.tgz:54738.got - 2010.06.28 00:19:55.
