data_PCOD8101534
_publ_section_title
;
Structure prediction by ZEFSAII (Michael W. Deem and Ramdas Pophale) SiO2 
 PCOD8101534
Probable space group: C 2/M
;
_chemical_formula_sum "Si O2"
_cell_formula_units_Z 64
_cell_length_a 9.337337
_cell_length_b 19.029916
_cell_length_c 19.110281
_cell_angle_alpha 90.000000
_cell_angle_beta 100.793872
_cell_angle_gamma 90.000000
_cell_volume 3335.602904
_symmetry_space_group_name_H-M "C 2/M"
_symmetry_group_IT_number 12
_symmetry_cell_setting 'monoclinic'
loop_
_space_group_symop_operation_xyz
x,y,z
-x,y,-z
-x,-y,-z
x,-y,z
1/2+x,1/2+y,z
1/2-x,1/2+y,-z
1/2-x,1/2-y,-z
1/2+x,1/2-y,z
loop_
_atom_site_type_symbol
_atom_site_label
_atom_site_fract_x
_atom_site_fract_y
_atom_site_fract_z
Si Si1 0.441037 0.174371 0.728252
Si Si2 0.712931 0.920594 0.560238
Si Si3 0.690751 0.081438 0.806643
Si Si4 0.586939 0.704920 0.913369
Si Si5 0.093520 0.083278 0.299447
Si Si6 0.713215 0.667634 0.061447
Si Si7 0.630153 0.690479 0.758391
Si Si8 0.395092 0.919088 0.593620
O O1 0.537928 0.120832 0.782086
O O2 0.540407 0.242345 0.721645
O O3 0.299988 0.200007 0.757633
O O4 0.376360 0.135700 0.654308
O O5 0.832212 0.886164 0.622540
O O6 0.562002 0.918053 0.587059
O O7 0.701134 0.888765 0.480648
O O8 0.760370 0.000000 0.552376
O O9 0.806573 0.104458 0.757895
O O10 0.752776 0.098179 0.889928
O O11 0.656213 0.000000 0.797838
O O12 0.414803 0.710182 0.910969
O O13 0.644537 0.783883 0.927917
O O14 0.618431 0.677355 0.839632
O O15 0.662417 0.651589 0.976966
O O16 0.936859 0.120379 0.282155
O O17 0.070146 0.000000 0.299788
O O18 0.352402 0.000000 0.609905
#
# Coordination Sequence:
#
# PCOD8101534 Si02
#       8
#     8   8   8   8   8   8   8   8
#     4  12  24  37  59  85 116 155 193 244 286 342
#     4   8  15  31  60  88 112 149 192 234 279 346
#     4  11  21  37  60  87 118 151 193 238 289 344
#     4  10  20  36  58  85 113 148 191 238 282 337
#     4  10  20  37  61  87 117 150 191 238 288 345
#     4  10  20  36  59  87 111 147 194 236 287 340
#     4  12  24  39  59  85 118 151 195 239 290 344
#     4   9  17  33  59  89 115 148 194 236 284 342
#
# _framework density 19.186935999999999
#
# number of rings (size 3 to 8) (size 9 to 14) (size 15 to 20)
#    0.000    1.750    3.750    2.625    0.000    1.000 
#    0.000    3.125    0.000    3.000    0.000    0.000 
#    0.000    0.000    0.000    0.000    0.000    0.000 
#
# Total GULP energy -396585.168874 kJ/mol
# GULP energy per Si atom -12393.286527 kJ/mol
# Density = 1.914327 g / cm^3
# Si number density = 19.186936 Si / 1000 Ang^3
#
#
#
# Elastic Constant Matrix: (Units=GPa)
#
#
# Indices 1 2 3 4 5 6 
#
# 1 84.3790 35.7862 7.1318 0.0000 -0.4322 0.0000
# 2 35.7862 71.5685 35.3217 0.0000 5.7380 0.0000
# 3 7.1318 35.3217 114.3749 0.0000 5.2844 0.0000
# 4 0.0000 0.0000 0.0000 32.4461 0.0000 4.5955
# 5 -0.4322 5.7380 5.2844 0.0000 20.9318 0.0000
# 6 0.0000 0.0000 0.0000 4.5955 0.0000 27.3638
#
#
#
# Elastic Compliance Matrix: (Units=1/GPa)
#
#
# Indices 1 2 3 4 5 6 
#
# 1 0.015411 -0.008687 0.001616 0.000000 0.002292 0.000000
# 2 -0.008687 0.021607 -0.005918 0.000000 -0.004608 0.000000
# 3 0.001616 -0.005918 0.010516 0.000000 -0.000999 0.000000
# 4 0.000000 0.000000 0.000000 0.031571 0.000000 -0.005302
# 5 0.002292 -0.004608 -0.000999 0.000000 0.049337 0.000000
# 6 0.000000 0.000000 0.000000 -0.005302 0.000000 0.037435
#
#
# Mechanical properties :
#
#
# Convention : Reuss Voigt Hill
#
# Bulk Modulus (GPa) = 46.39229 47.42241 46.90735
# Shear Modulus (GPa) = 25.12052 28.95385 27.03719
#
# Velocity S-wave (km/s) = 3.62228 3.88885 3.75793
# Velocity P-wave (km/s) = 6.45958 6.70327 6.58255
#
# Compressibility (1/GPa) = 0.02155531
#
# Stress axis : x y z
#
# Youngs Moduli (GPa) = 64.88986 46.28212 95.09122
#
# Poissons Ratio (x) = 0.40205 -0.15366
# Poissons Ratio (y) = 0.56370 0.56275
# Poissons Ratio (z) = -0.10486 0.27390
#
# Static dielectric constant tensor:
#      x y z
#    x 3.426170 0.000000 0.176090 
#    y 0.000000 3.239370 0.000000 
#    z 0.176090 0.000000 4.114680 
# 
# 
# High freq. dielectric constant tensor:
#      x y z
#    x 1.736410 0.000000 0.015940 
#    y 0.000000 1.713580 0.000000 
#    z 0.015940 0.000000 1.763900 
# 
# From -- ./inp_files/301437.got.cif
#   From: 2010.06.25/outbox.cif.g09.slc.cpg/sg12_151_cif.got.tgz:301437.got - 2010.06.28 00:19:55.
