data_PCOD8101055
_publ_section_title
;
Structure prediction by ZEFSAII (Michael W. Deem and Ramdas Pophale) SiO2 
 PCOD8101055
Probable space group: C 2/M
;
_chemical_formula_sum "Si O2"
_cell_formula_units_Z 64
_cell_length_a 30.249090
_cell_length_b 8.746489
_cell_length_c 14.508814
_cell_angle_alpha 90.000000
_cell_angle_beta 122.650844
_cell_angle_gamma 90.000000
_cell_volume 3232.039376
_symmetry_space_group_name_H-M "C 2/M"
_symmetry_group_IT_number 12
_symmetry_cell_setting 'monoclinic'
loop_
_space_group_symop_operation_xyz
x,y,z
-x,y,-z
-x,-y,-z
x,-y,z
1/2+x,1/2+y,z
1/2-x,1/2+y,-z
1/2-x,1/2-y,-z
1/2+x,1/2-y,z
loop_
_atom_site_type_symbol
_atom_site_label
_atom_site_fract_x
_atom_site_fract_y
_atom_site_fract_z
Si Si1 0.805707 0.178676 0.043167
Si Si2 0.534464 0.179750 0.753309
Si Si3 0.884726 0.318983 0.000807
Si Si4 0.889158 0.822993 0.293304
Si Si5 0.082050 0.319232 0.334108
Si Si6 0.374736 0.320412 0.794769
Si Si7 0.843541 0.818821 0.433019
Si Si8 0.242686 0.179619 0.391620
O O1 0.840752 0.211048 0.171900
O O2 0.801025 0.000000 0.015297
O O3 0.750000 0.250000 0.000000
O O4 0.829649 0.264491 0.981803
O O5 0.558194 0.242913 0.684582
O O6 0.475102 0.237719 0.697461
O O7 0.536664 0.000000 0.750343
O O8 0.568490 0.235650 0.879010
O O9 0.883976 0.500000 0.984506
O O10 0.894189 0.233252 0.916042
O O11 0.873936 0.758114 0.376678
O O12 0.902296 0.000000 0.314351
O O13 0.088825 0.500000 0.353358
O O14 0.089568 0.271717 0.237036
O O15 0.125599 0.232190 0.441867
O O16 0.384226 0.500000 0.793067
O O17 0.313926 0.276796 0.712397
O O18 0.785480 0.747447 0.369412
O O19 0.837704 0.000000 0.424896
O O20 0.250000 0.250000 0.500000
O O21 0.250561 0.000000 0.408828
#
# Coordination Sequence:
#
# PCOD8101055 Si02
#       8
#     8   8   8   8   8   8   8   8
#     4  10  20  36  56  84 116 152 197 242 290 348
#     4   9  21  41  63  87 116 152 197 245 292 345
#     4  10  21  39  61  85 116 155 194 241 295 348
#     4   9  21  39  59  84 117 154 192 238 292 347
#     4  11  23  40  62  87 116 154 198 245 295 347
#     4  11  24  40  59  89 121 153 196 242 291 353
#     4  11  23  39  59  88 121 155 198 241 290 354
#     4  11  23  39  60  85 118 157 196 241 294 347
#
# _framework density 19.801739999999999
#
# number of rings (size 3 to 8) (size 9 to 14) (size 15 to 20)
#    0.000    1.750    1.250    2.250    1.750    5.500 
#    0.000    5.000    0.000    0.000    0.000    0.000 
#    0.000    0.000    0.000    0.000    0.000    0.000 
#
# Total GULP energy -396958.864849 kJ/mol
# GULP energy per Si atom -12404.964527 kJ/mol
# Density = 1.975667 g / cm^3
# Si number density = 19.801740 Si / 1000 Ang^3
#
#
#
# Elastic Constant Matrix: (Units=GPa)
#
#
# Indices 1 2 3 4 5 6 
#
# 1 138.0202 31.7139 23.6221 0.0000 -5.8501 0.0000
# 2 31.7139 55.3528 15.3920 0.0000 3.9368 0.0000
# 3 23.6221 15.3920 43.8501 0.0000 -17.3728 0.0000
# 4 0.0000 0.0000 0.0000 26.9175 0.0000 -5.2383
# 5 -5.8501 3.9368 -17.3728 0.0000 36.5360 0.0000
# 6 0.0000 0.0000 0.0000 -5.2383 0.0000 37.2599
#
#
#
# Elastic Compliance Matrix: (Units=1/GPa)
#
#
# Indices 1 2 3 4 5 6 
#
# 1 0.008752 -0.004180 -0.003097 0.000000 0.000379 0.000000
# 2 -0.004180 0.023477 -0.008941 0.000000 -0.007450 0.000000
# 3 -0.003097 -0.008941 0.034249 0.000000 0.016753 0.000000
# 4 0.000000 0.000000 0.000000 0.038196 0.000000 0.005370
# 5 0.000379 -0.007450 0.016753 0.000000 0.036200 0.000000
# 6 0.000000 0.000000 0.000000 0.005370 0.000000 0.027593
#
#
# Mechanical properties :
#
#
# Convention : Reuss Voigt Hill
#
# Bulk Modulus (GPa) = 29.37552 42.07544 35.72548
# Shear Modulus (GPa) = 23.55720 31.24237 27.39978
#
# Velocity S-wave (km/s) = 3.45288 3.97641 3.72386
# Velocity P-wave (km/s) = 5.54649 6.50976 6.04733
#
# Compressibility (1/GPa) = 0.03404195
#
# Stress axis : x y z
#
# Youngs Moduli (GPa) = 114.26015 42.59518 29.19801
#
# Poissons Ratio (x) = 0.17805 0.09043
# Poissons Ratio (y) = 0.47761 0.26105
# Poissons Ratio (z) = 0.35389 0.38082
#
# Static dielectric constant tensor:
#      x y z
#    x 3.750310 0.000000 -0.098210 
#    y 0.000000 3.610140 0.000000 
#    z -0.098210 0.000000 3.586020 
# 
# 
# High freq. dielectric constant tensor:
#      x y z
#    x 1.785390 0.000000 -0.005370 
#    y 0.000000 1.777380 0.000000 
#    z -0.005370 0.000000 1.767780 
# 
# From -- ./inp_files/249162.got.cif
#   From: 2010.06.25/outbox.cif.g09.slc.cpg/sg12_125_cif.got.tgz:249162.got - 2010.06.28 00:19:55.
