data_PCOD8101411
_publ_section_title
;
Structure prediction by ZEFSAII (Michael W. Deem and Ramdas Pophale) SiO2 
 PCOD8101411
Probable space group: C 2/M
;
_chemical_formula_sum "Si O2"
_cell_formula_units_Z 40
_cell_length_a 16.951318
_cell_length_b 9.413993
_cell_length_c 24.529847
_cell_angle_alpha 90.000000
_cell_angle_beta 30.517133
_cell_angle_gamma 90.000000
_cell_volume 1987.748568
_symmetry_space_group_name_H-M "C 2/M"
_symmetry_group_IT_number 12
_symmetry_cell_setting 'monoclinic'
loop_
_space_group_symop_operation_xyz
x,y,z
-x,y,-z
-x,-y,-z
x,-y,z
1/2+x,1/2+y,z
1/2-x,1/2+y,-z
1/2-x,1/2-y,-z
1/2+x,1/2-y,z
loop_
_atom_site_type_symbol
_atom_site_label
_atom_site_fract_x
_atom_site_fract_y
_atom_site_fract_z
Si Si1 0.354428 0.664781 0.895879
Si Si2 0.583291 0.156492 0.243442
Si Si3 0.244700 0.212322 0.440497
Si Si4 0.211956 0.154654 0.693069
Si Si5 0.906427 0.156741 0.655045
O O1 0.301327 0.500000 0.921984
O O2 0.334555 0.743194 0.849742
O O3 0.529943 0.673316 0.812840
O O4 0.250000 0.750000 0.000000
O O5 0.402723 0.125101 0.335458
O O6 0.601642 0.235638 0.289893
O O7 0.663313 0.000000 0.198226
O O8 0.250000 0.250000 0.500000
O O9 0.252171 0.343133 0.393375
O O10 0.081808 0.132911 0.528271
O O11 0.302222 0.280701 0.668854
O O12 0.267273 0.000000 0.681324
O O13 0.843111 0.000000 0.708674
#
# Coordination Sequence:
#
# PCOD8101411 Si02
#       5
#     8   8   8   8   8
#     4  10  21  39  62  85 109 139 180 229 279 331
#     4  10  20  36  58  82 111 148 188 227 271 325
#     4   9  20  34  54  81 112 149 189 226 267 319
#     4  10  22  38  56  81 112 146 184 226 274 329
#     4  11  22  35  53  81 117 151 185 227 271 319
#
# _framework density 20.123270000000002
#
# number of rings (size 3 to 8) (size 9 to 14) (size 15 to 20)
#    0.000    2.000    0.000    3.000    0.000   15.200 
#    0.000    1.000    0.000    6.000    0.000    0.000 
#    0.000    0.000    0.000    0.000    0.000    0.000 
#
# Total GULP energy -247763.354831 kJ/mol
# GULP energy per Si atom -12388.167742 kJ/mol
# Density = 2.007747 g / cm^3
# Si number density = 20.123270 Si / 1000 Ang^3
#
#
#
# Elastic Constant Matrix: (Units=GPa)
#
#
# Indices 1 2 3 4 5 6 
#
# 1 92.9732 58.4955 42.6300 0.0002 8.3909 -0.0001
# 2 58.4955 186.7612 50.4827 0.0004 11.0409 0.0000
# 3 42.6300 50.4827 94.5010 0.0020 22.9510 -0.0002
# 4 0.0002 0.0004 0.0020 8.3773 -0.0003 9.0339
# 5 8.3909 11.0409 22.9510 -0.0003 26.0617 0.0001
# 6 -0.0001 0.0000 -0.0002 9.0339 0.0001 26.4904
#
#
#
# Elastic Compliance Matrix: (Units=1/GPa)
#
#
# Indices 1 2 3 4 5 6 
#
# 1 0.015240 -0.003397 -0.005365 0.000002 0.001258 -0.000001
# 2 -0.003397 0.007018 -0.002239 0.000000 0.000092 0.000000
# 3 -0.005365 -0.002239 0.017235 -0.000007 -0.012501 0.000002
# 4 0.000002 0.000000 -0.000007 0.188805 0.000008 -0.064387
# 5 0.001258 0.000092 -0.012501 0.000008 0.048936 -0.000003
# 6 -0.000001 0.000000 0.000002 -0.064387 -0.000003 0.059707
#
#
# Mechanical properties :
#
#
# Convention : Reuss Voigt Hill
#
# Bulk Modulus (GPa) = 57.17821 75.27243 66.22532
# Shear Modulus (GPa) = 13.70713 27.02770 20.36741
#
# Velocity S-wave (km/s) = 2.61273 3.66882 3.18485
# Velocity P-wave (km/s) = 6.13005 7.44539 6.81951
#
# Compressibility (1/GPa) = 0.01748918
#
# Stress axis : x y z
#
# Youngs Moduli (GPa) = 65.61725 142.48492 58.02311
#
# Poissons Ratio (x) = 0.48407 0.31131
# Poissons Ratio (y) = 0.22292 0.12992
# Poissons Ratio (z) = 0.35206 0.31903
#
# Static dielectric constant tensor:
#      x y z
#    x 3.677850 0.000000 -0.006350 
#    y 0.000000 3.646400 0.000000 
#    z -0.006350 0.000000 3.709430 
# 
# 
# High freq. dielectric constant tensor:
#      x y z
#    x 1.780590 0.000000 0.009450 
#    y 0.000000 1.794150 0.000000 
#    z 0.009450 0.000000 1.767940 
# 
# From -- ./inp_files/220268.got.cif
#   From: 2010.06.25/outbox.cif.g09.slc.cpg/sg12_111_cif.got.tgz:220268.got - 2010.06.28 00:19:55.
