data_PCOD8101895
_publ_section_title
;
Structure prediction by ZEFSAII (Michael W. Deem and Ramdas Pophale) SiO2 
 PCOD8101895
Probable space group: C 2/M
;
_chemical_formula_sum "Si O2"
_cell_formula_units_Z 56
_cell_length_a 23.809177
_cell_length_b 8.680124
_cell_length_c 14.084521
_cell_angle_alpha 90.000000
_cell_angle_beta 106.230524
_cell_angle_gamma 90.000000
_cell_volume 2794.790011
_symmetry_space_group_name_H-M "C 2/M"
_symmetry_group_IT_number 12
_symmetry_cell_setting 'monoclinic'
loop_
_space_group_symop_operation_xyz
x,y,z
-x,y,-z
-x,-y,-z
x,-y,z
1/2+x,1/2+y,z
1/2-x,1/2+y,-z
1/2-x,1/2-y,-z
1/2+x,1/2-y,z
loop_
_atom_site_type_symbol
_atom_site_label
_atom_site_fract_x
_atom_site_fract_y
_atom_site_fract_z
Si Si1 0.763156 0.818454 0.108017
Si Si2 0.913118 0.682563 0.519937
Si Si3 0.667331 0.317173 0.202133
Si Si4 0.384504 0.181300 0.146732
Si Si5 0.432869 0.181941 0.965327
Si Si6 0.034410 0.319145 0.649766
Si Si7 0.806838 0.820170 0.573563
O O1 0.719720 0.747340 0.163727
O O2 0.829834 0.774891 0.162787
O O3 0.753700 0.000000 0.102124
O O4 0.750000 0.750000 0.000000
O O5 0.901040 0.500000 0.524148
O O6 0.924233 0.735319 0.416809
O O7 0.858840 0.779965 0.528159
O O8 0.968268 0.740999 0.608808
O O9 0.667256 0.500000 0.195836
O O10 0.603712 0.257543 0.137516
O O11 0.679103 0.256021 0.314300
O O12 0.439558 0.231390 0.237035
O O13 0.371294 0.000000 0.149058
O O14 0.399841 0.228008 0.046747
O O15 0.433156 0.000000 0.949794
O O16 0.500000 0.242862 0.000000
O O17 0.030138 0.500000 0.637386
O O18 0.750000 0.750000 0.500000
O O19 0.797149 0.000000 0.575862
#
# Coordination Sequence:
#
# PCOD8101895 Si02
#       7
#     8   8   8   8   8   8   8
#     4  12  24  40  62  89 120 156 199 248 298 355
#     4   9  18  37  63  89 117 156 201 245 297 358
#     4  11  25  44  64  87 120 163 205 253 309 363
#     4  10  20  36  59  89 125 160 197 246 296 353
#     4  10  22  38  61  94 127 163 205 246 298 364
#     4   8  17  34  60  91 121 155 196 241 297 359
#     4  11  26  44  62  88 120 159 204 253 310 365
#
# _framework density 20.037285000000001
#
# number of rings (size 3 to 8) (size 9 to 14) (size 15 to 20)
#    0.000    1.857    1.429    3.000    4.000    2.571 
#    0.000    2.143    0.000    0.000    0.000    0.000 
#    0.000    0.000    0.000    0.000    0.000    0.000 
#
# Total GULP energy -347182.609450 kJ/mol
# GULP energy per Si atom -12399.378909 kJ/mol
# Density = 1.999168 g / cm^3
# Si number density = 20.037285 Si / 1000 Ang^3
#
#
#
# Elastic Constant Matrix: (Units=GPa)
#
#
# Indices 1 2 3 4 5 6 
#
# 1 141.0684 31.1859 54.5836 0.0000 11.8127 0.0000
# 2 31.1859 48.8903 36.3446 0.0000 4.6359 0.0000
# 3 54.5836 36.3446 139.8230 0.0000 19.9250 0.0000
# 4 0.0000 0.0000 0.0000 26.1553 0.0000 0.7461
# 5 11.8127 4.6359 19.9250 0.0000 28.5956 0.0000
# 6 0.0000 0.0000 0.0000 0.7461 0.0000 32.7454
#
#
#
# Elastic Compliance Matrix: (Units=1/GPa)
#
#
# Indices 1 2 3 4 5 6 
#
# 1 0.008950 -0.003878 -0.002275 0.000000 -0.001484 0.000000
# 2 -0.003878 0.027040 -0.005683 0.000000 0.001178 0.000000
# 3 -0.002275 -0.005683 0.010272 0.000000 -0.005296 0.000000
# 4 0.000000 0.000000 0.000000 0.038258 0.000000 -0.000872
# 5 -0.001484 0.001178 -0.005296 0.000000 0.039083 0.000000
# 6 0.000000 0.000000 0.000000 -0.000872 0.000000 0.030558
#
#
# Mechanical properties :
#
#
# Convention : Reuss Voigt Hill
#
# Bulk Modulus (GPa) = 44.26277 63.77887 54.02082
# Shear Modulus (GPa) = 26.97419 31.34376 29.15898
#
# Velocity S-wave (km/s) = 3.67304 3.95938 3.81889
# Velocity P-wave (km/s) = 6.33454 7.26646 6.81645
#
# Compressibility (1/GPa) = 0.02259235
#
# Stress axis : x y z
#
# Youngs Moduli (GPa) = 111.72741 36.98195 97.35450
#
# Poissons Ratio (x) = 0.14340 0.22145
# Poissons Ratio (y) = 0.43323 0.55324
# Poissons Ratio (z) = 0.25414 0.21016
#
# Static dielectric constant tensor:
#      x y z
#    x 13.837280 0.000000 -3.711740 
#    y 0.000000 3.554080 0.000000 
#    z -3.711740 0.000000 5.618260 
# 
# 
# High freq. dielectric constant tensor:
#      x y z
#    x 1.794240 0.000000 0.006720 
#    y 0.000000 1.759730 0.000000 
#    z 0.006720 0.000000 1.793520 
# 
# From -- ./inp_files/237831.got.cif
#   From: 2010.06.25/outbox.cif.g09.slc.cpg/sg12_119_cif.got.tgz:237831.got - 2010.06.28 00:19:55.
