data_PCOD8101754
_publ_section_title
;
Structure prediction by ZEFSAII (Michael W. Deem and Ramdas Pophale) SiO2 
 PCOD8101754
Probable space group: C 2/M
;
_chemical_formula_sum "Si O2"
_cell_formula_units_Z 64
_cell_length_a 28.646452
_cell_length_b 9.048110
_cell_length_c 25.598058
_cell_angle_alpha 90.000000
_cell_angle_beta 150.610738
_cell_angle_gamma 90.000000
_cell_volume 3256.024044
_symmetry_space_group_name_H-M "C 2/M"
_symmetry_group_IT_number 12
_symmetry_cell_setting 'monoclinic'
loop_
_space_group_symop_operation_xyz
x,y,z
-x,y,-z
-x,-y,-z
x,-y,z
1/2+x,1/2+y,z
1/2-x,1/2+y,-z
1/2-x,1/2-y,-z
1/2+x,1/2-y,z
loop_
_atom_site_type_symbol
_atom_site_label
_atom_site_fract_x
_atom_site_fract_y
_atom_site_fract_z
Si Si1 0.608086 0.669641 0.730411
Si Si2 0.436997 0.827480 0.987881
Si Si3 0.727646 0.329213 0.747698
Si Si4 0.398927 0.326998 0.559943
Si Si5 0.943094 0.830192 0.812351
Si Si6 0.958457 0.672501 0.719922
Si Si7 0.264166 0.169376 0.350165
Si Si8 0.830793 0.329017 0.110960
O O1 0.627274 0.500000 0.764360
O O2 0.644112 0.703512 0.707389
O O3 0.496482 0.707347 0.624088
O O4 0.667450 0.768065 0.828583
O O5 0.469111 0.737674 0.070093
O O6 0.450339 0.000000 0.013135
O O7 0.500000 0.778940 0.000000
O O8 0.328071 0.785633 0.871163
O O9 0.729278 0.500000 0.731758
O O10 0.704086 0.230703 0.674815
O O11 0.383190 0.500000 0.553010
O O12 0.398495 0.249568 0.615773
O O13 0.312411 0.262485 0.442835
O O14 0.926332 0.742180 0.742848
O O15 0.848989 0.813782 0.755508
O O16 0.965935 0.000000 0.821512
O O17 0.934086 0.500000 0.695891
O O18 0.069883 0.702706 0.820700
O O19 0.296835 0.000000 0.386755
O O20 0.806239 0.500000 0.089774
O O21 0.750000 0.250000 0.000000
#
# Coordination Sequence:
#
# PCOD8101754 Si02
#       8
#     8   8   8   8   8   8   8   8
#     4   9  20  38  59  85 116 150 191 238 288 342
#     4  10  20  36  59  85 116 154 193 236 287 343
#     4  10  21  38  60  86 118 154 193 236 286 345
#     4  10  21  40  64  86 114 151 193 243 293 342
#     4  11  24  39  58  86 119 154 194 239 289 346
#     4  10  22  40  61  85 116 152 193 239 288 343
#     4  11  24  40  59  85 117 153 195 241 291 345
#     4  10  21  36  56  83 115 152 192 235 283 339
#
# _framework density 19.655875000000002
#
# number of rings (size 3 to 8) (size 9 to 14) (size 15 to 20)
#    0.000    1.875    1.250    1.875    1.750    5.750 
#    0.000    2.500    0.000    0.000    0.000    0.000 
#    0.000    0.000    0.000    0.000    0.000    0.000 
#
# Total GULP energy -397002.010918 kJ/mol
# GULP energy per Si atom -12406.312841 kJ/mol
# Density = 1.961114 g / cm^3
# Si number density = 19.655875 Si / 1000 Ang^3
#
#
#
# Elastic Constant Matrix: (Units=GPa)
#
#
# Indices 1 2 3 4 5 6 
#
# 1 74.6916 32.5261 12.8164 0.0000 -21.4239 0.0000
# 2 32.5261 105.0480 48.1887 0.0000 -18.9176 0.0000
# 3 12.8164 48.1887 91.9055 0.0000 -21.8533 0.0000
# 4 0.0000 0.0000 0.0000 37.9603 0.0000 -9.7793
# 5 -21.4239 -18.9176 -21.8533 0.0000 27.2981 0.0000
# 6 0.0000 0.0000 0.0000 -9.7793 0.0000 31.9007
#
#
#
# Elastic Compliance Matrix: (Units=1/GPa)
#
#
# Indices 1 2 3 4 5 6 
#
# 1 0.018993 -0.004819 0.003246 0.000000 0.014165 0.000000
# 2 -0.004819 0.014165 -0.006571 0.000000 0.000774 0.000000
# 3 0.003246 -0.006571 0.016546 0.000000 0.011240 0.000000
# 4 0.000000 0.000000 0.000000 0.028602 0.000000 0.008768
# 5 0.014165 0.000774 0.011240 0.000000 0.057284 0.000000
# 6 0.000000 0.000000 0.000000 0.008768 0.000000 0.034035
#
#
# Mechanical properties :
#
#
# Convention : Reuss Voigt Hill
#
# Bulk Modulus (GPa) = 29.92534 50.96751 40.44642
# Shear Modulus (GPa) = 25.37397 31.30610 28.34004
#
# Velocity S-wave (km/s) = 3.59682 3.99521 3.80124
# Velocity P-wave (km/s) = 5.70151 6.87520 6.31568
#
# Compressibility (1/GPa) = 0.03341650
#
# Stress axis : x y z
#
# Youngs Moduli (GPa) = 52.65123 70.59447 60.43716
#
# Poissons Ratio (x) = 0.34020 -0.19620
# Poissons Ratio (y) = 0.25373 0.39715
# Poissons Ratio (z) = -0.17092 0.46389
#
# Static dielectric constant tensor:
#      x y z
#    x 3.599840 0.000000 0.013850 
#    y 0.000000 3.654280 0.000000 
#    z 0.013850 0.000000 3.519720 
# 
# 
# High freq. dielectric constant tensor:
#      x y z
#    x 1.766870 0.000000 -0.004530 
#    y 0.000000 1.772290 0.000000 
#    z -0.004530 0.000000 1.767160 
# 
# From -- ./inp_files/353505.got.cif
#   From: 2010.06.25/outbox.cif.g09.slc.cpg/sg12_177_cif.got.tgz:353505.got - 2010.06.28 00:19:55.
