data_PCOD8101959
_publ_section_title
;
Structure prediction by ZEFSAII (Michael W. Deem and Ramdas Pophale) SiO2 
 PCOD8101959
Probable space group: C 2/M
;
_chemical_formula_sum "Si O2"
_cell_formula_units_Z 64
_cell_length_a 18.856047
_cell_length_b 8.945137
_cell_length_c 30.358903
_cell_angle_alpha 90.000000
_cell_angle_beta 141.246463
_cell_angle_gamma 90.000000
_cell_volume 3205.371443
_symmetry_space_group_name_H-M "C 2/M"
_symmetry_group_IT_number 12
_symmetry_cell_setting 'monoclinic'
loop_
_space_group_symop_operation_xyz
x,y,z
-x,y,-z
-x,-y,-z
x,-y,z
1/2+x,1/2+y,z
1/2-x,1/2+y,-z
1/2-x,1/2-y,-z
1/2+x,1/2-y,z
loop_
_atom_site_type_symbol
_atom_site_label
_atom_site_fract_x
_atom_site_fract_y
_atom_site_fract_z
Si Si1 0.801272 0.177128 0.803304
Si Si2 0.106790 0.667881 0.578462
Si Si3 0.872567 0.177430 0.934386
Si Si4 0.856495 0.825311 0.574215
Si Si5 0.047416 0.324490 0.198241
Si Si6 0.285831 0.176195 0.062813
Si Si7 0.148165 0.168310 0.330756
Si Si8 0.399591 0.673535 0.337402
O O1 0.827259 0.231612 0.865244
O O2 0.891634 0.244537 0.813013
O O3 0.674241 0.233178 0.732961
O O4 0.807368 0.000000 0.801229
O O5 0.079871 0.500000 0.583173
O O6 0.215907 0.665955 0.600565
O O7 0.139498 0.779988 0.633178
O O8 0.000000 0.731798 0.500000
O O9 0.792734 0.238742 0.935253
O O10 0.873342 0.000000 0.937122
O O11 0.000000 0.241185 0.000000
O O12 0.750000 0.750000 0.500000
O O13 0.885102 0.768482 0.637423
O O14 0.968305 0.785636 0.600983
O O15 0.830478 0.000000 0.563084
O O16 0.066310 0.500000 0.201728
O O17 0.099609 0.275159 0.269886
O O18 0.915510 0.280977 0.135263
O O19 0.269754 0.000000 0.050284
O O20 0.250000 0.250000 0.000000
O O21 0.101798 0.000000 0.300006
O O22 0.375907 0.500000 0.317547
#
# Coordination Sequence:
#
# PCOD8101959 Si02
#       8
#     8   8   8   8   8   8   8   8
#     4  11  22  38  63  88 116 160 205 243 293 355
#     4  10  20  36  60  86 112 150 201 249 292 349
#     4   9  19  37  62  90 119 153 196 242 284 341
#     4  10  23  41  60  85 117 157 199 248 303 359
#     4  11  23  38  59  88 124 157 193 249 303 348
#     4  10  22  40  62  92 124 157 197 239 292 350
#     4  10  21  38  59  84 116 157 204 241 290 359
#     4  11  23  38  57  86 123 156 194 248 305 353
#
# _framework density 19.966484000000001
#
# number of rings (size 3 to 8) (size 9 to 14) (size 15 to 20)
#    0.000    1.750    1.250    2.625    1.750    4.750 
#    0.000    1.250    0.000    3.375    0.000    0.000 
#    0.000    0.000    0.000    0.000    0.000    0.000 
#
# Total GULP energy -396821.648491 kJ/mol
# GULP energy per Si atom -12400.676515 kJ/mol
# Density = 1.992104 g / cm^3
# Si number density = 19.966484 Si / 1000 Ang^3
#
#
#
# Elastic Constant Matrix: (Units=GPa)
#
#
# Indices 1 2 3 4 5 6 
#
# 1 112.5372 36.1353 47.5056 -0.0001 -5.0037 0.0003
# 2 36.1353 61.0268 43.4984 -0.0001 -0.4585 0.0002
# 3 47.5056 43.4984 141.2396 -0.0001 -2.1850 0.0001
# 4 -0.0001 -0.0001 -0.0001 26.6272 0.0000 0.5120
# 5 -5.0037 -0.4585 -2.1850 0.0000 38.6639 0.0000
# 6 0.0003 0.0002 0.0001 0.5120 0.0000 23.6574
#
#
#
# Elastic Compliance Matrix: (Units=1/GPa)
#
#
# Indices 1 2 3 4 5 6 
#
# 1 0.011580 -0.005234 -0.002263 0.000000 0.001309 0.000000
# 2 -0.005234 0.023361 -0.005445 0.000000 -0.000708 0.000000
# 3 -0.002263 -0.005445 0.009521 0.000000 0.000181 0.000000
# 4 0.000000 0.000000 0.000000 0.037571 0.000000 -0.000813
# 5 0.001309 -0.000708 0.000181 0.000000 0.026035 0.000000
# 6 0.000000 0.000000 0.000000 -0.000813 0.000000 0.042288
#
#
# Mechanical properties :
#
#
# Convention : Reuss Voigt Hill
#
# Bulk Modulus (GPa) = 53.82616 63.23134 58.52875
# Shear Modulus (GPa) = 27.40732 30.30066 28.85399
#
# Velocity S-wave (km/s) = 3.70897 3.89983 3.80560
# Velocity P-wave (km/s) = 6.73489 7.21220 6.97762
#
# Compressibility (1/GPa) = 0.01857833
#
# Stress axis : x y z
#
# Youngs Moduli (GPa) = 86.35617 42.80568 105.03110
#
# Poissons Ratio (x) = 0.22405 0.23765
# Poissons Ratio (y) = 0.45200 0.57192
# Poissons Ratio (z) = 0.19539 0.23309
#
# Static dielectric constant tensor:
#      x y z
#    x 3.876370 0.000000 0.092380 
#    y 0.000000 3.473820 0.000000 
#    z 0.092380 0.000000 3.738020 
# 
# 
# High freq. dielectric constant tensor:
#      x y z
#    x 1.790670 0.000000 0.003090 
#    y 0.000000 1.761530 0.000000 
#    z 0.003090 0.000000 1.791430 
# 
# From -- ./inp_files/378403.got.cif
#   From: 2010.06.25/outbox.cif.g09.slc.cpg/sg12_190_cif.got.tgz:378403.got - 2010.06.28 00:19:55.
