data_PCOD8101406
_publ_section_title
;
Structure prediction by ZEFSAII (Michael W. Deem and Ramdas Pophale) SiO2 
 PCOD8101406
Probable space group: C 2/M
;
_chemical_formula_sum "Si O2"
_cell_formula_units_Z 40
_cell_length_a 32.720853
_cell_length_b 14.426228
_cell_length_c 9.614660
_cell_angle_alpha 90.000000
_cell_angle_beta 25.674541
_cell_angle_gamma 90.000000
_cell_volume 1966.339873
_symmetry_space_group_name_H-M "C 2/M"
_symmetry_group_IT_number 12
_symmetry_cell_setting 'monoclinic'
loop_
_space_group_symop_operation_xyz
x,y,z
-x,y,-z
-x,-y,-z
x,-y,z
1/2+x,1/2+y,z
1/2-x,1/2+y,-z
1/2-x,1/2-y,-z
1/2+x,1/2-y,z
loop_
_atom_site_type_symbol
_atom_site_label
_atom_site_fract_x
_atom_site_fract_y
_atom_site_fract_z
Si Si1 0.248901 0.354599 0.963038
Si Si2 0.230153 0.107565 0.520970
Si Si3 0.608018 0.298241 0.688105
Si Si4 0.305532 0.101389 0.583687
Si Si5 0.896112 0.393563 0.819054
O O1 0.336999 0.366524 0.588592
O O2 0.250000 0.250000 0.000000
O O3 0.256019 0.410642 0.085922
O O4 0.151384 0.381411 0.186147
O O5 0.143455 0.170377 0.732093
O O6 0.236039 0.122788 0.668339
O O7 0.213276 0.000000 0.534131
O O8 0.326631 0.146091 0.152095
O O9 0.622357 0.187321 0.620771
O O10 0.500000 0.321717 0.000000
O O11 0.355385 0.000000 0.404431
O O12 0.912273 0.500000 0.805574
O O13 0.000000 0.344576 0.500000
#
# Coordination Sequence:
#
# PCOD8101406 Si02
#       5
#     8   8   8   8   8
#     4   9  19  35  52  76 109 144 180 218 267 324
#     4   9  19  35  55  80 111 148 187 228 274 326
#     4  10  21  37  57  82 113 150 188 223 269 335
#     4  10  20  36  58  82 111 144 181 234 289 325
#     4   9  17  31  52  76 103 138 179 221 267 321
#
# _framework density 20.342362999999999
#
# number of rings (size 3 to 8) (size 9 to 14) (size 15 to 20)
#    0.000    2.600    0.000    1.200    0.000    4.800 
#    0.000    3.000    0.000    2.400    0.000    0.000 
#    0.000    0.000    0.000    0.000    0.000    0.000 
#
# Total GULP energy -247765.170086 kJ/mol
# GULP energy per Si atom -12388.258504 kJ/mol
# Density = 2.029606 g / cm^3
# Si number density = 20.342363 Si / 1000 Ang^3
#
#
#
# Elastic Constant Matrix: (Units=GPa)
#
#
# Indices 1 2 3 4 5 6 
#
# 1 162.6891 23.7869 88.3502 0.0000 9.5085 0.0000
# 2 23.7869 64.0989 24.9830 0.0000 -6.5754 0.0000
# 3 88.3502 24.9830 101.1280 0.0000 -27.0763 0.0000
# 4 0.0000 0.0000 0.0000 20.1169 0.0000 0.9783
# 5 9.5085 -6.5754 -27.0763 0.0000 36.6280 0.0000
# 6 0.0000 0.0000 0.0000 0.9783 0.0000 33.9881
#
#
#
# Elastic Compliance Matrix: (Units=1/GPa)
#
#
# Indices 1 2 3 4 5 6 
#
# 1 0.020830 -0.000659 -0.024330 0.000000 -0.023511 0.000000
# 2 -0.000659 0.017284 -0.003513 0.000000 0.000677 0.000000
# 3 -0.024330 -0.003513 0.041810 0.000000 0.036592 0.000000
# 4 0.000000 0.000000 0.000000 0.049779 0.000000 -0.001433
# 5 -0.023511 0.000677 0.036592 0.000000 0.060576 0.000000
# 6 0.000000 0.000000 0.000000 -0.001433 0.000000 0.029463
#
#
# Mechanical properties :
#
#
# Convention : Reuss Voigt Hill
#
# Bulk Modulus (GPa) = 43.63121 66.90624 55.26873
# Shear Modulus (GPa) = 17.58173 30.86633 24.22403
#
# Velocity S-wave (km/s) = 2.94307 3.89953 3.45457
# Velocity P-wave (km/s) = 5.74838 7.29635 6.56813
#
# Compressibility (1/GPa) = 0.02291937
#
# Stress axis : x y z
#
# Youngs Moduli (GPa) = 48.00783 57.85670 23.91796
#
# Poissons Ratio (x) = 0.03812 0.58193
# Poissons Ratio (y) = 0.03163 0.08403
# Poissons Ratio (z) = 1.16804 0.20325
#
# Static dielectric constant tensor:
#      x y z
#    x 4.203970 0.000000 0.712760 
#    y 0.000000 4.121360 0.000000 
#    z 0.712760 0.000000 4.177100 
# 
# 
# High freq. dielectric constant tensor:
#      x y z
#    x 1.802030 0.000000 0.021070 
#    y 0.000000 1.794190 0.000000 
#    z 0.021070 0.000000 1.758420 
# 
# From -- ./inp_files/59195.got.cif
#   From: 2010.06.25/outbox.cif.g09.slc.cpg/sg12_30_cif.got.tgz:59195.got - 2010.06.28 00:19:55.
