data_PCOD8101712
_publ_section_title
;
Structure prediction by ZEFSAII (Michael W. Deem and Ramdas Pophale) SiO2 
 PCOD8101712
Probable space group: C 2/M
;
_chemical_formula_sum "Si O2"
_cell_formula_units_Z 56
_cell_length_a 18.317600
_cell_length_b 8.893634
_cell_length_c 25.025887
_cell_angle_alpha 90.000000
_cell_angle_beta 135.100459
_cell_angle_gamma 90.000000
_cell_volume 2877.792675
_symmetry_space_group_name_H-M "C 2/M"
_symmetry_group_IT_number 12
_symmetry_cell_setting 'monoclinic'
loop_
_space_group_symop_operation_xyz
x,y,z
-x,y,-z
-x,-y,-z
x,-y,z
1/2+x,1/2+y,z
1/2-x,1/2+y,-z
1/2-x,1/2-y,-z
1/2+x,1/2-y,z
loop_
_atom_site_type_symbol
_atom_site_label
_atom_site_fract_x
_atom_site_fract_y
_atom_site_fract_z
Si Si1 0.277038 0.174065 0.593106
Si Si2 0.494744 0.670271 0.149332
Si Si3 0.413151 0.674590 0.578766
Si Si4 0.704812 0.175172 0.274909
Si Si5 0.689137 0.325967 0.015895
Si Si6 0.379640 0.822521 0.296832
Si Si7 0.163147 0.825720 0.836218
O O1 0.363993 0.272516 0.609203
O O2 0.164726 0.208440 0.510182
O O3 0.274077 0.221160 0.653097
O O4 0.307038 0.000000 0.600994
O O5 0.537550 0.500000 0.175222
O O6 0.587567 0.787841 0.198292
O O7 0.419277 0.702518 0.159799
O O8 0.432752 0.692053 0.061045
O O9 0.440033 0.500000 0.597707
O O10 0.517798 0.763948 0.620023
O O11 0.779345 0.271527 0.276735
O O12 0.725785 0.000000 0.276069
O O13 0.720116 0.500000 0.035340
O O14 0.724944 0.244535 0.089171
O O15 0.750000 0.250000 0.000000
O O16 0.379927 0.756092 0.237827
O O17 0.381846 0.000000 0.294687
O O18 0.179874 0.000000 0.832343
#
# Coordination Sequence:
#
# PCOD8101712 Si02
#       7
#     8   8   8   8   8   8   8
#     4   9  20  38  60  86 113 144 182 226 276 326
#     4   9  19  35  56  83 113 144 179 223 274 325
#     4  10  20  37  61  86 113 143 181 228 274 325
#     4  11  23  38  56  79 110 147 187 228 272 325
#     4   9  17  31  53  82 114 146 183 228 276 325
#     4  12  25  39  55  78 112 149 186 227 276 333
#     4  10  20  36  59  85 112 143 184 231 279 330
#
# _framework density 19.45936
#
# number of rings (size 3 to 8) (size 9 to 14) (size 15 to 20)
#    0.000    2.000    0.000    4.714    0.000    8.000 
#    0.000    3.571    0.000    4.286    0.000    0.000 
#    0.000    0.000    0.000    0.000    0.000    0.000 
#
# Total GULP energy -347246.038751 kJ/mol
# GULP energy per Si atom -12401.644241 kJ/mol
# Density = 1.941507 g / cm^3
# Si number density = 19.459360 Si / 1000 Ang^3
#
#
#
# Elastic Constant Matrix: (Units=GPa)
#
#
# Indices 1 2 3 4 5 6 
#
# 1 61.9771 40.4286 35.9282 0.0000 15.3894 0.0000
# 2 40.4286 122.3107 46.9648 0.0000 15.1468 0.0000
# 3 35.9282 46.9648 97.7375 0.0000 22.5886 0.0000
# 4 0.0000 0.0000 0.0000 36.7287 0.0000 4.5285
# 5 15.3894 15.1468 22.5886 0.0000 13.1011 0.0000
# 6 0.0000 0.0000 0.0000 4.5285 0.0000 32.3230
#
#
#
# Elastic Compliance Matrix: (Units=1/GPa)
#
#
# Indices 1 2 3 4 5 6 
#
# 1 0.025925 -0.005138 -0.002320 0.000000 -0.020512 0.000000
# 2 -0.005138 0.011285 -0.003181 0.000000 -0.001527 0.000000
# 3 -0.002320 -0.003181 0.018508 0.000000 -0.025508 0.000000
# 4 0.000000 0.000000 0.000000 0.027705 0.000000 -0.003882
# 5 -0.020512 -0.001527 -0.025508 0.000000 0.146170 0.000000
# 6 0.000000 0.000000 0.000000 -0.003882 0.000000 0.031482
#
#
# Mechanical properties :
#
#
# Convention : Reuss Voigt Hill
#
# Bulk Modulus (GPa) = 29.03659 58.74093 43.88876
# Shear Modulus (GPa) = 17.01643 27.01081 22.01362
#
# Velocity S-wave (km/s) = 2.96033 3.72971 3.36707
# Velocity P-wave (km/s) = 5.16128 6.98568 6.14160
#
# Compressibility (1/GPa) = 0.03443931
#
# Stress axis : x y z
#
# Youngs Moduli (GPa) = 38.57252 88.61530 54.02992
#
# Poissons Ratio (x) = 0.45532 0.12537
# Poissons Ratio (y) = 0.19819 0.17187
# Poissons Ratio (z) = 0.08950 0.28188
#
# Static dielectric constant tensor:
#      x y z
#    x 3.249880 0.000000 0.085060 
#    y 0.000000 3.688960 0.000000 
#    z 0.085060 0.000000 3.972680 
# 
# 
# High freq. dielectric constant tensor:
#      x y z
#    x 1.728530 0.000000 0.007670 
#    y 0.000000 1.768730 0.000000 
#    z 0.007670 0.000000 1.775460 
# 
# From -- ./inp_files/342608.got.cif
#   From: 2010.06.25/outbox.cif.g09.slc.cpg/sg12_172_cif.got.tgz:342608.got - 2010.06.28 00:19:55.
