data_PCOD8101933
_publ_section_title
;
Structure prediction by ZEFSAII (Michael W. Deem and Ramdas Pophale) SiO2 
 PCOD8101933
Probable space group: C 2/M
;
_chemical_formula_sum "Si O2"
_cell_formula_units_Z 56
_cell_length_a 9.441552
_cell_length_b 25.048000
_cell_length_c 16.342706
_cell_angle_alpha 90.000000
_cell_angle_beta 47.164483
_cell_angle_gamma 90.000000
_cell_volume 2834.178232
_symmetry_space_group_name_H-M "C 2/M"
_symmetry_group_IT_number 12
_symmetry_cell_setting 'monoclinic'
loop_
_space_group_symop_operation_xyz
x,y,z
-x,y,-z
-x,-y,-z
x,-y,z
1/2+x,1/2+y,z
1/2-x,1/2+y,-z
1/2-x,1/2-y,-z
1/2+x,1/2-y,z
loop_
_atom_site_type_symbol
_atom_site_label
_atom_site_fract_x
_atom_site_fract_y
_atom_site_fract_z
Si Si1 0.793298 0.799331 0.540879
Si Si2 0.669676 0.937096 0.992999
Si Si3 0.227747 0.639308 0.415853
Si Si4 0.800099 0.764592 0.113538
Si Si5 0.102075 0.937007 0.773695
Si Si6 0.210032 0.890264 0.894203
Si Si7 0.608945 0.259470 0.743718
O O1 0.750000 0.750000 0.500000
O O2 0.777703 0.853320 0.493197
O O3 0.639070 0.793940 0.676028
O O4 0.000000 0.793554 0.500000
O O5 0.878086 0.920453 0.874242
O O6 0.651839 0.000000 0.008771
O O7 0.500000 0.915131 0.000000
O O8 0.641602 0.912717 0.095549
O O9 0.327603 0.586071 0.341360
O O10 0.308476 0.688559 0.332245
O O11 0.000000 0.635194 0.500000
O O12 0.785160 0.827007 0.102977
O O13 0.618184 0.734316 0.144035
O O14 0.775979 0.751591 0.218236
O O15 0.000000 0.740884 0.000000
O O16 0.242822 0.912209 0.789072
O O17 0.129495 0.000000 0.761308
O O18 0.000000 0.913122 0.000000
#
# Coordination Sequence:
#
# PCOD8101933 Si02
#       7
#     8   8   8   8   8   8   8
#     4  10  20  36  60  84 106 147 202 251 290 338
#     4   9  18  36  61  89 122 156 195 237 286 359
#     4  11  22  39  61  83 114 149 205 255 293 346
#     4  11  22  36  54  85 123 156 188 239 288 352
#     4  10  20  37  63  89 119 155 192 246 302 349
#     4   9  18  35  57  86 119 158 200 235 286 350
#     4  11  20  38  57  79 112 157 194 235 290 344
#
# _framework density 19.758814000000001
#
# number of rings (size 3 to 8) (size 9 to 14) (size 15 to 20)
#    0.000    1.857    1.429    5.143    0.000    2.000 
#    5.143    0.000    0.000    0.429    0.000    0.000 
#    0.000    0.000    0.000    0.000    0.000    0.000 
#
# Total GULP energy -347061.740768 kJ/mol
# GULP energy per Si atom -12395.062170 kJ/mol
# Density = 1.971384 g / cm^3
# Si number density = 19.758814 Si / 1000 Ang^3
#
#
#
# Elastic Constant Matrix: (Units=GPa)
#
#
# Indices 1 2 3 4 5 6 
#
# 1 136.8134 19.6959 31.6197 0.0000 1.8752 0.0000
# 2 19.6959 37.9492 30.1894 0.0000 7.2493 0.0000
# 3 31.6197 30.1894 79.7065 0.0000 -9.5482 0.0000
# 4 0.0000 0.0000 0.0000 32.0265 0.0000 7.1282
# 5 1.8752 7.2493 -9.5482 0.0000 32.5555 0.0000
# 6 0.0000 0.0000 0.0000 7.1282 0.0000 20.4783
#
#
#
# Elastic Compliance Matrix: (Units=1/GPa)
#
#
# Indices 1 2 3 4 5 6 
#
# 1 0.008211 -0.002079 -0.002561 0.000000 -0.000761 0.000000
# 2 -0.002079 0.044470 -0.017817 0.000000 -0.015008 0.000000
# 3 -0.002561 -0.017817 0.021561 0.000000 0.010438 0.000000
# 4 0.000000 0.000000 0.000000 0.033846 0.000000 -0.011781
# 5 -0.000761 -0.015008 0.010438 0.000000 0.037164 0.000000
# 6 0.000000 0.000000 0.000000 -0.011781 0.000000 0.052933
#
#
# Mechanical properties :
#
#
# Convention : Reuss Voigt Hill
#
# Bulk Modulus (GPa) = 34.09607 46.38654 40.24131
# Shear Modulus (GPa) = 19.77265 28.54299 24.15782
#
# Velocity S-wave (km/s) = 3.16682 3.80487 3.50041
# Velocity P-wave (km/s) = 5.53762 6.54447 6.06198
#
# Compressibility (1/GPa) = 0.02932889
#
# Stress axis : x y z
#
# Youngs Moduli (GPa) = 121.79050 22.48692 46.38071
#
# Poissons Ratio (x) = 0.04674 0.11879
# Poissons Ratio (y) = 0.25315 0.82635
# Poissons Ratio (z) = 0.31192 0.40064
#
# Static dielectric constant tensor:
#      x y z
#    x 3.903220 0.000000 0.206370 
#    y 0.000000 3.399030 0.000000 
#    z 0.206370 0.000000 3.918460 
# 
# 
# High freq. dielectric constant tensor:
#      x y z
#    x 1.780440 0.000000 0.008610 
#    y 0.000000 1.737580 0.000000 
#    z 0.008610 0.000000 1.768200 
# 
# From -- ./inp_files/259143.got.cif
#   From: 2010.06.25/outbox.cif.g09.slc.cpg/sg12_130_cif.got.tgz:259143.got - 2010.06.28 00:19:55.
