data_PCOD8101914
_publ_section_title
;
Structure prediction by ZEFSAII (Michael W. Deem and Ramdas Pophale) SiO2 
 PCOD8101914
Probable space group: C 2/M
;
_chemical_formula_sum "Si O2"
_cell_formula_units_Z 64
_cell_length_a 9.757260
_cell_length_b 27.690129
_cell_length_c 15.247790
_cell_angle_alpha 90.000000
_cell_angle_beta 130.517723
_cell_angle_gamma 90.000000
_cell_volume 3131.774637
_symmetry_space_group_name_H-M "C 2/M"
_symmetry_group_IT_number 12
_symmetry_cell_setting 'monoclinic'
loop_
_space_group_symop_operation_xyz
x,y,z
-x,y,-z
-x,-y,-z
x,-y,z
1/2+x,1/2+y,z
1/2-x,1/2+y,-z
1/2-x,1/2-y,-z
1/2+x,1/2-y,z
loop_
_atom_site_type_symbol
_atom_site_label
_atom_site_fract_x
_atom_site_fract_y
_atom_site_fract_z
Si Si1 0.382863 0.726780 0.123661
Si Si2 0.427953 0.889551 0.825907
Si Si3 0.974421 0.350133 0.591325
Si Si4 0.765222 0.879507 0.080471
Si Si5 0.784403 0.730222 0.260491
Si Si6 0.028529 0.445915 0.706418
Si Si7 0.198823 0.182157 0.607104
Si Si8 0.547733 0.554786 0.115139
O O1 0.329678 0.673534 0.130599
O O2 0.573122 0.729449 0.153903
O O3 0.392449 0.754969 0.218728
O O4 0.250000 0.750000 0.000000
O O5 0.321421 0.903855 0.869201
O O6 0.463399 0.935932 0.778923
O O7 0.316317 0.849181 0.725635
O O8 0.626972 0.873088 0.941320
O O9 0.807860 0.317970 0.559846
O O10 0.000000 0.349164 0.500000
O O11 0.157639 0.325226 0.700970
O O12 0.943289 0.405463 0.608188
O O13 0.938998 0.912245 0.136784
O O14 0.829455 0.764699 0.362620
O O15 0.963346 0.500000 0.653732
O O16 0.241026 0.441513 0.781614
O O17 0.000000 0.161066 0.500000
O O18 0.478772 0.500000 0.097198
O O19 0.500000 0.574796 0.000000
#
# Coordination Sequence:
#
# PCOD8101914 Si02
#       8
#     8   8   8   8   8   8   8   8
#     4  12  26  39  62  93 136 177 210 252 314 384
#     4  10  22  39  62  93 123 168 215 252 319 382
#     4  11  26  43  67  96 119 164 225 268 324 384
#     4  11  22  37  64  89 132 168 210 260 304 382
#     4  12  24  43  63  94 132 170 218 256 316 380
#     4  10  22  43  67  93 130 163 203 267 326 386
#     4  11  24  42  64  86 127 168 210 272 324 369
#     4  10  20  36  59  92 127 161 201 251 318 378
#
# _framework density 20.435699
#
# number of rings (size 3 to 8) (size 9 to 14) (size 15 to 20)
#    0.000    1.125    3.750    2.250    5.250    3.750 
#    0.000    1.250    0.000    6.000    0.000    0.000 
#    0.000    0.000    0.000    0.000    0.000    0.000 
#
# Total GULP energy -396647.610027 kJ/mol
# GULP energy per Si atom -12395.237813 kJ/mol
# Density = 2.038919 g / cm^3
# Si number density = 20.435699 Si / 1000 Ang^3
#
#
#
# Elastic Constant Matrix: (Units=GPa)
#
#
# Indices 1 2 3 4 5 6 
#
# 1 118.8595 41.7288 34.6296 0.0000 -10.6752 0.0000
# 2 41.7288 112.8900 25.1748 0.0000 -8.9503 0.0000
# 3 34.6296 25.1748 72.4745 0.0000 -3.1031 0.0000
# 4 0.0000 0.0000 0.0000 8.6784 0.0000 -15.4388
# 5 -10.6752 -8.9503 -3.1031 0.0000 39.2803 0.0000
# 6 0.0000 0.0000 0.0000 -15.4388 0.0000 -12.9182
#
#
#
# Elastic Compliance Matrix: (Units=1/GPa)
#
#
# Indices 1 2 3 4 5 6 
#
# 1 0.010800 -0.002933 -0.004058 0.000000 0.001946 0.000000
# 2 -0.002933 0.010547 -0.002201 0.000000 0.001432 0.000000
# 3 -0.004058 -0.002201 0.016489 0.000000 -0.000302 0.000000
# 4 0.000000 0.000000 0.000000 0.036860 0.000000 -0.044052
# 5 0.001946 0.001432 -0.000302 0.000000 0.026290 0.000000
# 6 0.000000 0.000000 0.000000 -0.044052 0.000000 -0.024762
#
#
# Mechanical properties :
#
#
# Convention : Reuss Voigt Hill
#
# Bulk Modulus (GPa) = 51.41031 56.36561 53.88796
# Shear Modulus (GPa) = 49.46068 20.52082 34.99075
#
# Velocity S-wave (km/s) = 4.92500 3.17229 4.14241
# Velocity P-wave (km/s) = 7.58634 6.40779 7.02183
#
# Compressibility (1/GPa) = 0.01945135
#
# Stress axis : x y z
#
# Youngs Moduli (GPa) = 92.59111 94.81718 60.64761
#
# Poissons Ratio (x) = 0.27808 0.24613
# Poissons Ratio (y) = 0.27155 0.13347
# Poissons Ratio (z) = 0.37577 0.20867
#
# Static dielectric constant tensor:
#      x y z
#    x 4.035250 0.000000 -0.047140 
#    y 0.000000 0.349440 0.000000 
#    z -0.047140 0.000000 3.614250 
# 
# 
# High freq. dielectric constant tensor:
#      x y z
#    x 1.817590 0.000000 -0.001190 
#    y 0.000000 1.790180 0.000000 
#    z -0.001190 0.000000 1.785480 
# 
# From -- ./inp_files/201342.got.cif
#   From: 2010.06.25/outbox.cif.g09.slc.cpg/sg12_101_cif.got.tgz:201342.got - 2010.06.28 00:19:55.
