data_PCOD8101930
_publ_section_title
;
Structure prediction by ZEFSAII (Michael W. Deem and Ramdas Pophale) SiO2 
 PCOD8101930
Probable space group: C 2/M
;
_chemical_formula_sum "Si O2"
_cell_formula_units_Z 56
_cell_length_a 9.033413
_cell_length_b 13.482287
_cell_length_c 30.328443
_cell_angle_alpha 90.000000
_cell_angle_beta 132.620282
_cell_angle_gamma 90.000000
_cell_volume 2718.061203
_symmetry_space_group_name_H-M "C 2/M"
_symmetry_group_IT_number 12
_symmetry_cell_setting 'monoclinic'
loop_
_space_group_symop_operation_xyz
x,y,z
-x,y,-z
-x,-y,-z
x,-y,z
1/2+x,1/2+y,z
1/2-x,1/2+y,-z
1/2-x,1/2-y,-z
1/2+x,1/2-y,z
loop_
_atom_site_type_symbol
_atom_site_label
_atom_site_fract_x
_atom_site_fract_y
_atom_site_fract_z
Si Si1 0.983226 0.889172 0.628808
Si Si2 0.381504 0.116288 0.654790
Si Si3 0.632623 0.295400 0.740872
Si Si4 0.381531 0.887180 0.020636
Si Si5 0.009048 0.199389 0.905957
Si Si6 0.075905 0.751248 0.824817
Si Si7 0.725339 0.275596 0.545139
O O1 0.781062 0.826404 0.580881
O O2 0.172152 0.853803 0.636919
O O3 0.033945 0.879349 0.690746
O O4 0.925849 0.000000 0.605185
O O5 0.558640 0.184421 0.711180
O O6 0.356932 0.139826 0.597128
O O7 0.433974 0.000000 0.672022
O O8 0.580853 0.317525 0.781394
O O9 0.870948 0.310529 0.782882
O O10 0.454147 0.815470 0.074360
O O11 0.419943 0.000000 0.043060
O O12 0.500000 0.859524 0.000000
O O13 0.142316 0.871152 0.963906
O O14 0.076098 0.180727 0.868789
O O15 0.771034 0.177835 0.864022
O O16 0.500000 0.312311 0.500000
O O17 0.750000 0.250000 0.500000
#
# Coordination Sequence:
#
# PCOD8101930 Si02
#       7
#     8   8   8   8   8   8   8
#     4  10  21  38  60  85 115 151 191 232 285 342
#     4  10  21  38  61  85 113 153 192 228 285 348
#     4  10  20  39  58  83 113 154 184 240 280 341
#     4  10  20  37  60  85 118 153 189 232 287 342
#     4  10  20  38  58  85 116 156 183 238 278 345
#     4  10  20  36  60  83 117 149 191 232 291 322
#     4  11  22  38  59  86 118 150 187 238 284 335
#
# _framework density 20.602920999999998
#
# number of rings (size 3 to 8) (size 9 to 14) (size 15 to 20)
#    0.000    1.857    4.286    0.000    0.000    1.143 
#    0.000   12.143    0.000    0.000    0.000    0.000 
#    0.000    0.000    0.000    0.000    0.000    0.000 
#
# Total GULP energy -346905.472662 kJ/mol
# GULP energy per Si atom -12389.481167 kJ/mol
# Density = 2.055603 g / cm^3
# Si number density = 20.602921 Si / 1000 Ang^3
#
#
#
# Elastic Constant Matrix: (Units=GPa)
#
#
# Indices 1 2 3 4 5 6 
#
# 1 80.5003 8.6579 27.4266 0.0000 -8.5628 0.0000
# 2 8.6579 80.3548 23.5590 0.0000 0.8761 0.0000
# 3 27.4266 23.5590 111.9053 0.0000 -5.0133 0.0000
# 4 0.0000 0.0000 0.0000 14.8544 0.0000 -0.3676
# 5 -8.5628 0.8761 -5.0133 0.0000 40.4185 0.0000
# 6 0.0000 0.0000 0.0000 -0.3676 0.0000 18.3862
#
#
#
# Elastic Compliance Matrix: (Units=1/GPa)
#
#
# Indices 1 2 3 4 5 6 
#
# 1 0.013831 -0.000594 -0.003150 0.000000 0.002552 0.000000
# 2 -0.000594 0.013305 -0.002689 0.000000 -0.000748 0.000000
# 3 -0.003150 -0.002689 0.010304 0.000000 0.000669 0.000000
# 4 0.000000 0.000000 0.000000 0.067354 0.000000 0.001347
# 5 0.002552 -0.000748 0.000669 0.000000 0.025381 0.000000
# 6 0.000000 0.000000 0.000000 0.001347 0.000000 0.054416
#
#
# Mechanical properties :
#
#
# Convention : Reuss Voigt Hill
#
# Bulk Modulus (GPa) = 40.69456 43.56082 42.12769
# Shear Modulus (GPa) = 24.31322 28.93961 26.62641
#
# Velocity S-wave (km/s) = 3.43896 3.75191 3.59884
# Velocity P-wave (km/s) = 5.96350 6.32124 6.14497
#
# Compressibility (1/GPa) = 0.02457331
#
# Stress axis : x y z
#
# Youngs Moduli (GPa) = 72.30100 75.15764 97.04683
#
# Poissons Ratio (x) = 0.04468 0.30573
# Poissons Ratio (y) = 0.04298 0.26095
# Poissons Ratio (z) = 0.22777 0.20209
#
# Static dielectric constant tensor:
#      x y z
#    x 3.879350 0.000000 -0.134680 
#    y 0.000000 3.195250 0.000000 
#    z -0.134680 0.000000 4.272020 
# 
# 
# High freq. dielectric constant tensor:
#      x y z
#    x 1.806460 0.000000 -0.002170 
#    y 0.000000 1.756090 0.000000 
#    z -0.002170 0.000000 1.830390 
# 
# From -- ./inp_files/332580.got.cif
#   From: 2010.06.25/outbox.cif.g09.slc.cpg/sg12_167_cif.got.tgz:332580.got - 2010.06.28 00:19:55.
