data_PCOD8101894
_publ_section_title
;
Structure prediction by ZEFSAII (Michael W. Deem and Ramdas Pophale) SiO2 
 PCOD8101894
Probable space group: C 2/M
;
_chemical_formula_sum "Si O2"
_cell_formula_units_Z 48
_cell_length_a 23.036299
_cell_length_b 8.534686
_cell_length_c 12.091498
_cell_angle_alpha 90.000000
_cell_angle_beta 104.333221
_cell_angle_gamma 90.000000
_cell_volume 2303.281010
_symmetry_space_group_name_H-M "C 2/M"
_symmetry_group_IT_number 12
_symmetry_cell_setting 'monoclinic'
loop_
_space_group_symop_operation_xyz
x,y,z
-x,y,-z
-x,-y,-z
x,-y,z
1/2+x,1/2+y,z
1/2-x,1/2+y,-z
1/2-x,1/2-y,-z
1/2+x,1/2-y,z
loop_
_atom_site_type_symbol
_atom_site_label
_atom_site_fract_x
_atom_site_fract_y
_atom_site_fract_z
Si Si1 0.337815 0.182576 0.758520
Si Si2 0.739729 0.816869 0.873184
Si Si3 0.500271 0.182915 0.685983
Si Si4 0.131536 0.318605 0.672675
Si Si5 0.542641 0.318197 0.115685
Si Si6 0.118166 0.817566 0.444221
O O1 0.281705 0.238757 0.802027
O O2 0.396711 0.218025 0.858625
O O3 0.341513 0.269501 0.642022
O O4 0.332530 0.000000 0.732237
O O5 0.672294 0.779926 0.799159
O O6 0.753200 0.000000 0.884082
O O7 0.750000 0.750000 0.000000
O O8 0.563383 0.230600 0.663856
O O9 0.492823 0.292470 0.788307
O O10 0.444543 0.221103 0.579162
O O11 0.498768 0.000000 0.717369
O O12 0.137359 0.500000 0.645388
O O13 0.153161 0.222044 0.574497
O O14 0.558910 0.500000 0.107631
O O15 0.500000 0.254391 0.000000
O O16 0.104042 0.000000 0.428183
#
# Coordination Sequence:
#
# PCOD8101894 Si02
#       6
#     8   8   8   8   8   8
#     4  11  23  41  64  88 120 162 204 252 305 361
#     4  11  25  45  65  90 123 162 207 255 304 361
#     4  10  20  36  59  89 124 161 200 246 300 366
#     4  10  23  41  62  89 123 164 205 246 301 366
#     4  10  21  36  57  88 121 158 200 252 307 358
#     4  11  22  38  63  94 125 158 200 253 309 361
#
# _framework density 20.839836999999999
#
# number of rings (size 3 to 8) (size 9 to 14) (size 15 to 20)
#    0.000    1.500    0.000    7.000    2.333    6.667 
#    0.000    0.000    0.000    0.000    0.000    0.000 
#    0.000    0.000    0.000    0.000    0.000    0.000 
#
# Total GULP energy -297633.173012 kJ/mol
# GULP energy per Si atom -12401.382209 kJ/mol
# Density = 2.079240 g / cm^3
# Si number density = 20.839837 Si / 1000 Ang^3
#
#
#
# Elastic Constant Matrix: (Units=GPa)
#
#
# Indices 1 2 3 4 5 6 
#
# 1 94.5808 30.1021 36.6766 0.0000 -15.6603 0.0000
# 2 30.1021 83.5944 21.4792 0.0000 2.3009 0.0000
# 3 36.6766 21.4792 109.1047 0.0000 13.0586 0.0000
# 4 0.0000 0.0000 0.0000 37.1248 0.0000 -2.9441
# 5 -15.6603 2.3009 13.0586 0.0000 13.2309 0.0000
# 6 0.0000 0.0000 0.0000 -2.9441 0.0000 30.8473
#
#
#
# Elastic Compliance Matrix: (Units=1/GPa)
#
#
# Indices 1 2 3 4 5 6 
#
# 1 0.024117 -0.006813 -0.011707 0.000000 0.041285 0.000000
# 2 -0.006813 0.014525 0.000792 0.000000 -0.011371 0.000000
# 3 -0.011707 0.000792 0.016579 0.000000 -0.030357 0.000000
# 4 0.000000 0.000000 0.000000 0.027142 0.000000 0.002590
# 5 0.041285 -0.011371 -0.030357 0.000000 0.156385 0.000000
# 6 0.000000 0.000000 0.000000 0.002590 0.000000 0.032665
#
#
# Mechanical properties :
#
#
# Convention : Reuss Voigt Hill
#
# Bulk Modulus (GPa) = 50.59684 51.53286 51.06485
# Shear Modulus (GPa) = 15.95116 29.50873 22.72994
#
# Velocity S-wave (km/s) = 2.76962 3.76703 3.30615
# Velocity P-wave (km/s) = 5.87872 6.61078 6.25547
#
# Compressibility (1/GPa) = 0.01976408
#
# Stress axis : x y z
#
# Youngs Moduli (GPa) = 41.46489 68.84520 60.31873
#
# Poissons Ratio (x) = 0.46902 0.70616
# Poissons Ratio (y) = 0.28249 -0.04774
# Poissons Ratio (z) = 0.48544 -0.05449
#
# Static dielectric constant tensor:
#      x y z
#    x 3.786910 0.000000 0.134810 
#    y 0.000000 3.832800 0.000000 
#    z 0.134810 0.000000 3.928930 
# 
# 
# High freq. dielectric constant tensor:
#      x y z
#    x 1.809610 0.000000 -0.000300 
#    y 0.000000 1.822100 0.000000 
#    z -0.000300 0.000000 1.825330 
# 
# From -- ./inp_files/173043.got.cif
#   From: 2010.06.25/outbox.cif.g09.slc.cpg/sg12_87_cif.got.tgz:173043.got - 2010.06.28 00:19:55.
