data_PCOD8101953
_publ_section_title
;
Structure prediction by ZEFSAII (Michael W. Deem and Ramdas Pophale) SiO2 
 PCOD8101953
Probable space group: C 2/M
;
_chemical_formula_sum "Si O2"
_cell_formula_units_Z 64
_cell_length_a 23.814254
_cell_length_b 9.428887
_cell_length_c 15.231531
_cell_angle_alpha 90.000000
_cell_angle_beta 89.936013
_cell_angle_gamma 90.000000
_cell_volume 3420.114929
_symmetry_space_group_name_H-M "C 2/M"
_symmetry_group_IT_number 12
_symmetry_cell_setting 'monoclinic'
loop_
_space_group_symop_operation_xyz
x,y,z
-x,y,-z
-x,-y,-z
x,-y,z
1/2+x,1/2+y,z
1/2-x,1/2+y,-z
1/2-x,1/2-y,-z
1/2+x,1/2-y,z
loop_
_atom_site_type_symbol
_atom_site_label
_atom_site_fract_x
_atom_site_fract_y
_atom_site_fract_z
Si Si1 0.126222 0.658887 0.669519
Si Si2 0.490320 0.168321 0.402920
Si Si3 0.122591 0.159367 0.831531
Si Si4 0.801150 0.666051 0.741896
Si Si5 0.743226 0.162310 0.587345
Si Si6 0.432864 0.165641 0.758057
Si Si7 0.002427 0.832334 0.898795
Si Si8 0.236842 0.840543 0.916311
O O1 0.113093 0.500000 0.701627
O O2 0.070314 0.725728 0.627245
O O3 0.145553 0.748152 0.752340
O O4 0.176547 0.661904 0.601038
O O5 0.500000 0.233991 0.500000
O O6 0.537103 0.218014 0.332172
O O7 0.490535 0.000000 0.410285
O O8 0.063662 0.217234 0.866790
O O9 0.169707 0.167468 0.906134
O O10 0.115395 0.000000 0.796963
O O11 0.789120 0.500000 0.722235
O O12 0.777424 0.761609 0.664123
O O13 0.867112 0.696393 0.750062
O O14 0.770180 0.715478 0.830933
O O15 0.750000 0.250000 0.500000
O O16 0.764944 0.000000 0.578037
O O17 0.455947 0.251379 0.841697
O O18 0.445093 0.000000 0.774033
O O19 0.992503 0.000000 0.888581
O O20 0.000000 0.785940 0.000000
O O21 0.256827 0.000000 0.934946
O O22 0.250000 0.750000 0.000000
#
# Coordination Sequence:
#
# PCOD8101953 Si02
#       8
#     8   8   8   8   8   8   8   8
#     4  10  20  36  60  86 109 143 193 237 277 332
#     4   9  18  33  56  84 111 141 180 226 277 328
#     4  10  20  37  59  81 111 150 188 234 291 336
#     4  10  22  40  59  83 117 153 192 237 287 342
#     4  11  24  39  60  88 117 153 193 235 286 341
#     4  10  21  37  59  84 113 149 187 234 284 331
#     4  10  22  38  57  82 114 153 191 230 283 346
#     4  10  22  38  57  83 114 149 191 238 287 341
#
# _framework density 18.712821999999999
#
# number of rings (size 3 to 8) (size 9 to 14) (size 15 to 20)
#    0.000    2.000    2.500    0.375    3.500    2.250 
#    0.000    0.000    0.000    0.750    0.000    0.000 
#    0.000    0.000    0.000    0.000    0.000    0.000 
#
# Total GULP energy -396800.151048 kJ/mol
# GULP energy per Si atom -12400.004720 kJ/mol
# Density = 1.867023 g / cm^3
# Si number density = 18.712822 Si / 1000 Ang^3
#
#
#
# Elastic Constant Matrix: (Units=GPa)
#
#
# Indices 1 2 3 4 5 6 
#
# 1 116.1895 40.4295 48.0278 0.0000 2.9392 0.0000
# 2 40.4295 76.0225 68.1099 0.0000 5.1663 0.0000
# 3 48.0278 68.1099 150.5802 0.0000 5.8973 0.0000
# 4 0.0000 0.0000 0.0000 33.9834 0.0000 6.1959
# 5 2.9392 5.1663 5.8973 0.0000 26.2629 0.0000
# 6 0.0000 0.0000 0.0000 6.1959 0.0000 21.9456
#
#
#
# Elastic Compliance Matrix: (Units=1/GPa)
#
#
# Indices 1 2 3 4 5 6 
#
# 1 0.010737 -0.004442 -0.001415 0.000000 -0.000010 0.000000
# 2 -0.004442 0.024072 -0.009388 0.000000 -0.002130 0.000000
# 3 -0.001415 -0.009388 0.011360 0.000000 -0.000546 0.000000
# 4 0.000000 0.000000 0.000000 0.031023 0.000000 -0.008759
# 5 -0.000010 -0.002130 -0.000546 0.000000 0.038619 0.000000
# 6 0.000000 0.000000 0.000000 -0.008759 0.000000 0.048040
#
#
# Mechanical properties :
#
#
# Convention : Reuss Voigt Hill
#
# Bulk Modulus (GPa) = 63.77750 72.88072 68.32911
# Shear Modulus (GPa) = 25.05414 28.85336 26.95375
#
# Velocity S-wave (km/s) = 3.66303 3.93097 3.79936
# Velocity P-wave (km/s) = 7.21434 7.72236 7.47267
#
# Compressibility (1/GPa) = 0.01567951
#
# Stress axis : x y z
#
# Youngs Moduli (GPa) = 93.13221 41.54263 88.02746
#
# Poissons Ratio (x) = 0.18451 0.12459
# Poissons Ratio (y) = 0.41365 0.82640
# Poissons Ratio (z) = 0.13181 0.39000
#
# Static dielectric constant tensor:
#      x y z
#    x 3.869590 0.000000 -0.659640 
#    y 0.000000 3.320480 0.000000 
#    z -0.659640 0.000000 4.900740 
# 
# 
# High freq. dielectric constant tensor:
#      x y z
#    x 1.741430 0.000000 -0.002410 
#    y 0.000000 1.709770 0.000000 
#    z -0.002410 0.000000 1.728620 
# 
# From -- ./inp_files/238585.got.cif
#   From: 2010.06.25/outbox.cif.g09.slc.cpg/sg12_120_cif.got.tgz:238585.got - 2010.06.28 00:19:55.
