data_PCOD8101340
_publ_section_title
;
Structure prediction by ZEFSAII (Michael W. Deem and Ramdas Pophale) SiO2 
 PCOD8101340
Probable space group: C 2/M
;
_chemical_formula_sum "Si O2"
_cell_formula_units_Z 48
_cell_length_a 24.417287
_cell_length_b 8.390135
_cell_length_c 12.062991
_cell_angle_alpha 90.000000
_cell_angle_beta 78.311348
_cell_angle_gamma 90.000000
_cell_volume 2420.029647
_symmetry_space_group_name_H-M "C 2/M"
_symmetry_group_IT_number 12
_symmetry_cell_setting 'monoclinic'
loop_
_space_group_symop_operation_xyz
x,y,z
-x,y,-z
-x,-y,-z
x,-y,z
1/2+x,1/2+y,z
1/2-x,1/2+y,-z
1/2-x,1/2-y,-z
1/2+x,1/2-y,z
loop_
_atom_site_type_symbol
_atom_site_label
_atom_site_fract_x
_atom_site_fract_y
_atom_site_fract_z
Si Si1 0.283273 0.314825 0.760156
Si Si2 0.164611 0.185028 0.838072
Si Si3 0.042700 0.189152 0.252857
Si Si4 0.384774 0.311517 0.573076
Si Si5 0.858370 0.316376 0.915833
Si Si6 0.583285 0.689575 0.678554
O O1 0.267283 0.500000 0.758099
O O2 0.228124 0.208847 0.773060
O O3 0.323907 0.259531 0.643345
O O4 0.314512 0.288344 0.864102
O O5 0.124216 0.249899 0.757950
O O6 0.153461 0.000000 0.867516
O O7 0.151834 0.287899 0.951074
O O8 0.067518 0.246450 0.360884
O O9 0.078083 0.268146 0.139342
O O10 0.979225 0.250270 0.269933
O O11 0.047129 0.000000 0.238288
O O12 0.387572 0.500000 0.564772
O O13 0.395969 0.236962 0.447372
O O14 0.847691 0.500000 0.892197
O O15 0.583881 0.500000 0.670585
#
# Coordination Sequence:
#
# PCOD8101340 Si02
#       6
#     8   8   8   8   8   8
#     4  10  20  36  58  81 105 135 175 219 263 311
#     4  11  22  35  52  77 110 143 177 215 259 311
#     4   9  17  33  58  83 106 135 176 220 259 304
#     4   8  15  30  55  83 106 133 174 218 257 304
#     4  11  22  37  56  77 104 137 177 221 267 314
#     4   9  18  32  53  81 110 142 176 211 255 311
#
# _framework density 19.834467
#
# number of rings (size 3 to 8) (size 9 to 14) (size 15 to 20)
#    0.000    2.333    0.000    4.500    0.000    3.333 
#    0.000    5.000    0.000   18.000    0.000    0.000 
#    0.000    0.000    0.000    0.000    0.000    0.000 
#
# Total GULP energy -297632.021046 kJ/mol
# GULP energy per Si atom -12401.334210 kJ/mol
# Density = 1.978932 g / cm^3
# Si number density = 19.834467 Si / 1000 Ang^3
#
#
#
# Elastic Constant Matrix: (Units=GPa)
#
#
# Indices 1 2 3 4 5 6 
#
# 1 144.1282 5.5878 69.8089 0.0000 -13.2857 0.0000
# 2 5.5878 37.2106 8.5567 0.0000 -3.7667 0.0000
# 3 69.8089 8.5567 67.3765 0.0000 -15.1720 0.0000
# 4 0.0000 0.0000 0.0000 16.6595 0.0000 -7.4175
# 5 -13.2857 -3.7667 -15.1720 0.0000 25.3279 0.0000
# 6 0.0000 0.0000 0.0000 -7.4175 0.0000 23.9944
#
#
#
# Elastic Compliance Matrix: (Units=1/GPa)
#
#
# Indices 1 2 3 4 5 6 
#
# 1 0.014032 0.001199 -0.015019 0.000000 -0.001458 0.000000
# 2 0.001199 0.027904 -0.004288 0.000000 0.002210 0.000000
# 3 -0.015019 -0.004288 0.033557 0.000000 0.011585 0.000000
# 4 0.000000 0.000000 0.000000 0.069607 0.000000 0.021518
# 5 -0.001458 0.002210 0.011585 0.000000 0.045986 0.000000
# 6 0.000000 0.000000 0.000000 0.021518 0.000000 0.048328
#
#
# Mechanical properties :
#
#
# Convention : Reuss Voigt Hill
#
# Bulk Modulus (GPa) = 25.46119 46.29133 35.87626
# Shear Modulus (GPa) = 17.31769 24.18048 20.74909
#
# Velocity S-wave (km/s) = 2.95805 3.49537 3.23788
# Velocity P-wave (km/s) = 4.95292 6.29918 5.66618
#
# Compressibility (1/GPa) = 0.03927546
#
# Stress axis : x y z
#
# Youngs Moduli (GPa) = 71.26613 35.83740 29.80030
#
# Poissons Ratio (x) = -0.04297 0.44757
# Poissons Ratio (y) = -0.08545 0.12779
# Poissons Ratio (z) = 1.07035 0.15368
#
# Static dielectric constant tensor:
#      x y z
#    x 3.709040 0.000000 -0.084280 
#    y 0.000000 3.197270 0.000000 
#    z -0.084280 0.000000 3.784860 
# 
# 
# High freq. dielectric constant tensor:
#      x y z
#    x 1.774640 0.000000 -0.011450 
#    y 0.000000 1.741370 0.000000 
#    z -0.011450 0.000000 1.778300 
# 
# From -- ./inp_files/172120.got.cif
#   From: 2010.06.25/outbox.cif.g09.slc.cpg/sg12_87_cif.got.tgz:172120.got - 2010.06.28 00:19:55.
