data_PCOD8101334
_publ_section_title
;
Structure prediction by ZEFSAII (Michael W. Deem and Ramdas Pophale) SiO2 
 PCOD8101334
Probable space group: C 2/M
;
_chemical_formula_sum "Si O2"
_cell_formula_units_Z 56
_cell_length_a 15.941221
_cell_length_b 8.886428
_cell_length_c 19.400745
_cell_angle_alpha 90.000000
_cell_angle_beta 89.745295
_cell_angle_gamma 90.000000
_cell_volume 2748.292326
_symmetry_space_group_name_H-M "C 2/M"
_symmetry_group_IT_number 12
_symmetry_cell_setting 'monoclinic'
loop_
_space_group_symop_operation_xyz
x,y,z
-x,y,-z
-x,-y,-z
x,-y,z
1/2+x,1/2+y,z
1/2-x,1/2+y,-z
1/2-x,1/2-y,-z
1/2+x,1/2-y,z
loop_
_atom_site_type_symbol
_atom_site_label
_atom_site_fract_x
_atom_site_fract_y
_atom_site_fract_z
Si Si1 0.161225 0.177879 0.339573
Si Si2 0.000479 0.178569 0.421304
Si Si3 0.158408 0.326942 0.920615
Si Si4 0.833707 0.326395 0.925326
Si Si5 0.093916 0.169799 0.198163
Si Si6 0.152114 0.323050 0.659028
Si Si7 0.096370 0.169245 0.791431
O O1 0.151878 0.231815 0.260164
O O2 0.253819 0.223459 0.366842
O O3 0.086218 0.245037 0.387112
O O4 0.151317 0.000000 0.339964
O O5 0.916750 0.239853 0.386087
O O6 0.000000 0.232649 0.500000
O O7 0.997198 0.000000 0.414974
O O8 0.149074 0.500000 0.899354
O O9 0.254932 0.280845 0.913775
O O10 0.103651 0.227050 0.869571
O O11 0.126806 0.299311 0.999054
O O12 0.806919 0.500000 0.917235
O O13 0.900953 0.280550 0.867321
O O14 0.000593 0.172134 0.229050
O O15 0.118693 0.000000 0.175854
O O16 0.137841 0.500000 0.653015
O O17 0.146444 0.275499 0.738967
O O18 0.132229 0.000000 0.786360
#
# Coordination Sequence:
#
# PCOD8101334 Si02
#       7
#     8   8   8   8   8   8   8
#     4   9  19  38  60  86 120 159 198 239 299 358
#     4  10  21  41  66  89 121 163 202 242 293 360
#     4  10  21  37  55  78 113 153 193 247 308 355
#     4  10  21  36  55  80 111 149 199 249 296 362
#     4  10  20  36  58  80 113 155 196 246 302 361
#     4  11  22  37  62  91 123 160 198 248 303 357
#     4  11  22  37  59  85 114 152 202 250 294 360
#
# _framework density 20.376287999999999
#
# number of rings (size 3 to 8) (size 9 to 14) (size 15 to 20)
#    0.000    1.857    1.429    2.571    0.000    5.429 
#    0.000    5.000    0.000    0.000    0.000    0.000 
#    0.000    0.000    0.000    0.000    0.000    0.000 
#
# Total GULP energy -347191.055421 kJ/mol
# GULP energy per Si atom -12399.680551 kJ/mol
# Density = 2.032991 g / cm^3
# Si number density = 20.376288 Si / 1000 Ang^3
#
#
#
# Elastic Constant Matrix: (Units=GPa)
#
#
# Indices 1 2 3 4 5 6 
#
# 1 108.3701 16.9386 55.8430 0.0000 -0.1864 0.0000
# 2 16.9386 43.0651 30.8101 0.0000 -0.9542 0.0000
# 3 55.8430 30.8101 125.6972 0.0000 -2.1023 0.0000
# 4 0.0000 0.0000 0.0000 28.3392 0.0000 3.4875
# 5 -0.1864 -0.9542 -2.1023 0.0000 28.3130 0.0000
# 6 0.0000 0.0000 0.0000 3.4875 0.0000 30.1019
#
#
#
# Elastic Compliance Matrix: (Units=1/GPa)
#
#
# Indices 1 2 3 4 5 6 
#
# 1 0.012013 -0.001104 -0.005072 0.000000 -0.000335 0.000000
# 2 -0.001104 0.028265 -0.006430 0.000000 0.000468 0.000000
# 3 -0.005072 -0.006430 0.011796 0.000000 0.000626 0.000000
# 4 0.000000 0.000000 0.000000 0.035797 0.000000 -0.004147
# 5 -0.000335 0.000468 0.000626 0.000000 0.035380 0.000000
# 6 0.000000 0.000000 0.000000 -0.004147 0.000000 0.033701
#
#
# Mechanical properties :
#
#
# Convention : Reuss Voigt Hill
#
# Bulk Modulus (GPa) = 37.22687 53.81287 45.51987
# Shear Modulus (GPa) = 26.16186 28.92020 27.54103
#
# Velocity S-wave (km/s) = 3.58709 3.77146 3.68043
# Velocity P-wave (km/s) = 5.95531 6.74033 6.35994
#
# Compressibility (1/GPa) = 0.02686232
#
# Stress axis : x y z
#
# Youngs Moduli (GPa) = 83.24145 35.37894 84.77762
#
# Poissons Ratio (x) = 0.03905 0.43000
# Poissons Ratio (y) = 0.09188 0.54512
# Poissons Ratio (z) = 0.42221 0.22749
#
# Static dielectric constant tensor:
#      x y z
#    x 3.666190 0.000000 -0.050510 
#    y 0.000000 3.516170 0.000000 
#    z -0.050510 0.000000 3.784310 
# 
# 
# High freq. dielectric constant tensor:
#      x y z
#    x 1.795680 0.000000 0.001480 
#    y 0.000000 1.781490 0.000000 
#    z 0.001480 0.000000 1.798160 
# 
# From -- ./inp_files/309049.got.cif
#   From: 2010.06.25/outbox.cif.g09.slc.cpg/sg12_155_cif.got.tgz:309049.got - 2010.06.28 00:19:55.
