data_PCOD8101072
_publ_section_title
;
Structure prediction by ZEFSAII (Michael W. Deem and Ramdas Pophale) SiO2 
 PCOD8101072
Probable space group: C 2/M
;
_chemical_formula_sum "Si O2"
_cell_formula_units_Z 64
_cell_length_a 15.874274
_cell_length_b 9.103854
_cell_length_c 22.144145
_cell_angle_alpha 90.000000
_cell_angle_beta 89.054405
_cell_angle_gamma 90.000000
_cell_volume 3199.771200
_symmetry_space_group_name_H-M "C 2/M"
_symmetry_group_IT_number 12
_symmetry_cell_setting 'monoclinic'
loop_
_space_group_symop_operation_xyz
x,y,z
-x,y,-z
-x,-y,-z
x,-y,z
1/2+x,1/2+y,z
1/2-x,1/2+y,-z
1/2-x,1/2-y,-z
1/2+x,1/2-y,z
loop_
_atom_site_type_symbol
_atom_site_label
_atom_site_fract_x
_atom_site_fract_y
_atom_site_fract_z
Si Si1 0.643212 0.666358 0.121793
Si Si2 0.906890 0.667759 0.761462
Si Si3 0.338657 0.833773 0.123295
Si Si4 0.332106 0.172827 0.369604
Si Si5 0.145052 0.172083 0.352642
Si Si6 0.516150 0.672824 0.568570
Si Si7 0.901094 0.332356 0.245282
Si Si8 0.900801 0.666584 0.997367
O O1 0.609002 0.500000 0.122582
O O2 0.595373 0.759016 0.172905
O O3 0.740513 0.671916 0.136675
O O4 0.629987 0.733670 0.056500
O O5 0.876697 0.500000 0.767486
O O6 0.850501 0.749206 0.712362
O O7 0.002125 0.680110 0.737445
O O8 0.381459 0.753678 0.181025
O O9 0.373434 0.000000 0.117407
O O10 0.364032 0.759430 0.059342
O O11 0.233677 0.205561 0.386288
O O12 0.395782 0.252657 0.414193
O O13 0.348899 0.235004 0.301687
O O14 0.351946 0.000000 0.372727
O O15 0.065442 0.228976 0.392691
O O16 0.136906 0.000000 0.339977
O O17 0.500000 0.716623 0.500000
O O18 0.527367 0.500000 0.576861
O O19 0.871831 0.500000 0.237025
O O20 0.866998 0.500000 0.988258
O O21 0.000000 0.668186 0.000000
#
# Coordination Sequence:
#
# PCOD8101072 Si02
#       8
#     8   8   8   8   8   8   8   8
#     4  11  22  35  53  78 111 147 183 230 292 351
#     4  11  21  35  58  85 113 147 193 242 289 343
#     4   9  18  33  53  77 106 142 182 227 282 343
#     4  10  20  37  61  88 117 157 204 246 289 347
#     4  10  21  38  61  87 120 158 198 243 297 351
#     4  10  22  40  60  87 126 163 194 239 297 349
#     4   9  17  32  55  81 108 140 185 238 285 333
#     4  10  20  36  57  77 101 139 188 235 283 340
#
# _framework density 20.001429999999999
#
# number of rings (size 3 to 8) (size 9 to 14) (size 15 to 20)
#    0.000    2.000    1.250    2.625    0.000    5.500 
#    0.000    0.625    0.000    4.500    0.000    0.000 
#    0.000    0.000    0.000    0.000    0.000    0.000 
#
# Total GULP energy -396732.590109 kJ/mol
# GULP energy per Si atom -12397.893441 kJ/mol
# Density = 1.995591 g / cm^3
# Si number density = 20.001430 Si / 1000 Ang^3
#
#
#
# Elastic Constant Matrix: (Units=GPa)
#
#
# Indices 1 2 3 4 5 6 
#
# 1 85.0923 27.7210 34.4380 0.0000 14.9993 0.0000
# 2 27.7210 62.5419 37.8921 0.0000 10.1188 0.0000
# 3 34.4380 37.8921 128.3694 0.0000 17.1835 0.0000
# 4 0.0000 0.0000 0.0000 28.8653 0.0000 -1.5600
# 5 14.9993 10.1188 17.1835 0.0000 32.8674 0.0000
# 6 0.0000 0.0000 0.0000 -1.5600 0.0000 26.9297
#
#
#
# Elastic Compliance Matrix: (Units=1/GPa)
#
#
# Indices 1 2 3 4 5 6 
#
# 1 0.014846 -0.004655 -0.002036 0.000000 -0.004278 0.000000
# 2 -0.004655 0.021252 -0.004767 0.000000 -0.001927 0.000000
# 3 -0.002036 -0.004767 0.010132 0.000000 -0.002900 0.000000
# 4 0.000000 0.000000 0.000000 0.034752 0.000000 0.002013
# 5 -0.004278 -0.001927 -0.002900 0.000000 0.034487 0.000000
# 6 0.000000 0.000000 0.000000 0.002013 0.000000 0.037250
#
#
# Mechanical properties :
#
#
# Convention : Reuss Voigt Hill
#
# Bulk Modulus (GPa) = 42.89109 52.90066 47.89588
# Shear Modulus (GPa) = 27.26186 29.46265 28.36225
#
# Velocity S-wave (km/s) = 3.69588 3.84217 3.76973
# Velocity P-wave (km/s) = 6.30105 6.79624 6.55333
#
# Compressibility (1/GPa) = 0.02331486
#
# Stress axis : x y z
#
# Youngs Moduli (GPa) = 67.35598 47.05433 98.70191
#
# Poissons Ratio (x) = 0.21902 0.20099
# Poissons Ratio (y) = 0.31352 0.47047
# Poissons Ratio (z) = 0.13716 0.22429
#
# Static dielectric constant tensor:
#      x y z
#    x 2.757350 0.000000 -0.647210 
#    y 0.000000 3.424410 0.000000 
#    z -0.647210 0.000000 3.337960 
# 
# 
# High freq. dielectric constant tensor:
#      x y z
#    x 1.788010 0.000000 -0.000400 
#    y 0.000000 1.745890 0.000000 
#    z -0.000400 0.000000 1.789880 
# 
# From -- ./inp_files/314089.got.cif
#   From: 2010.06.25/outbox.cif.g09.slc.cpg/sg12_158_cif.got.tgz:314089.got - 2010.06.28 00:19:55.
