data_PCOD8101954
_publ_section_title
;
Structure prediction by ZEFSAII (Michael W. Deem and Ramdas Pophale) SiO2 
 PCOD8101954
Probable space group: C 2/M
;
_chemical_formula_sum "Si O2"
_cell_formula_units_Z 56
_cell_length_a 18.774185
_cell_length_b 8.970553
_cell_length_c 17.903530
_cell_angle_alpha 90.000000
_cell_angle_beta 105.258480
_cell_angle_gamma 90.000000
_cell_volume 2908.928438
_symmetry_space_group_name_H-M "C 2/M"
_symmetry_group_IT_number 12
_symmetry_cell_setting 'monoclinic'
loop_
_space_group_symop_operation_xyz
x,y,z
-x,y,-z
-x,-y,-z
x,-y,z
1/2+x,1/2+y,z
1/2-x,1/2+y,-z
1/2-x,1/2-y,-z
1/2+x,1/2-y,z
loop_
_atom_site_type_symbol
_atom_site_label
_atom_site_fract_x
_atom_site_fract_y
_atom_site_fract_z
Si Si1 0.823473 0.825764 0.493304
Si Si2 0.062685 0.326464 0.075794
Si Si3 0.502938 0.673701 0.804119
Si Si4 0.535421 0.328459 0.373470
Si Si5 0.608051 0.171434 0.625616
Si Si6 0.650417 0.172806 0.806487
Si Si7 0.273543 0.824551 0.929825
O O1 0.750000 0.750000 0.500000
O O2 0.885704 0.786216 0.571233
O O3 0.843150 0.765255 0.417489
O O4 0.810330 0.000000 0.483178
O O5 0.057002 0.500000 0.094549
O O6 0.141502 0.285549 0.062634
O O7 0.052411 0.232738 0.148317
O O8 0.000000 0.278808 0.000000
O O9 0.518794 0.500000 0.820172
O O10 0.463335 0.705704 0.714265
O O11 0.580596 0.759606 0.831076
O O12 0.514726 0.500000 0.383408
O O13 0.475831 0.227966 0.399482
O O14 0.642560 0.196695 0.716354
O O15 0.609184 0.000000 0.601958
O O16 0.724566 0.257544 0.849861
O O17 0.655931 0.000000 0.830338
O O18 0.260502 0.000000 0.931459
O O19 0.250000 0.750000 0.000000
#
# Coordination Sequence:
#
# PCOD8101954 Si02
#       7
#     8   8   8   8   8   8   8
#     4  11  23  38  56  80 114 151 187 232 284 336
#     4  10  22  39  57  80 113 148 181 224 278 330
#     4  10  20  36  60  86 111 142 185 232 277 333
#     4   9  20  38  58  82 112 146 183 228 282 334
#     4  10  21  37  59  85 111 145 189 232 277 333
#     4  10  21  38  59  83 115 150 184 229 281 332
#     4  11  23  38  59  86 115 149 189 232 279 334
#
# _framework density 19.251075
#
# number of rings (size 3 to 8) (size 9 to 14) (size 15 to 20)
#    0.000    1.857    0.000    3.429    0.000    8.857 
#    0.000    4.286    0.000    0.000    0.000    0.000 
#    0.000    0.000    0.000    0.000    0.000    0.000 
#
# Total GULP energy -347376.234515 kJ/mol
# GULP energy per Si atom -12406.294090 kJ/mol
# Density = 1.920726 g / cm^3
# Si number density = 19.251075 Si / 1000 Ang^3
#
#
#
# Elastic Constant Matrix: (Units=GPa)
#
#
# Indices 1 2 3 4 5 6 
#
# 1 163.0247 87.1255 78.5887 0.0000 -0.0644 0.0000
# 2 87.1255 115.8171 62.7110 0.0000 -0.3640 0.0000
# 3 78.5887 62.7110 91.8091 0.0000 -0.6586 0.0000
# 4 0.0000 0.0000 0.0000 35.5414 0.0000 -3.3312
# 5 -0.0644 -0.3640 -0.6586 0.0000 37.2583 0.0000
# 6 0.0000 0.0000 0.0000 -3.3312 0.0000 39.0167
#
#
#
# Elastic Compliance Matrix: (Units=1/GPa)
#
#
# Indices 1 2 3 4 5 6 
#
# 1 0.012435 -0.005698 -0.006753 0.000000 -0.000154 0.000000
# 2 -0.005698 0.016313 -0.006265 0.000000 0.000039 0.000000
# 3 -0.006753 -0.006265 0.020954 0.000000 0.000298 0.000000
# 4 0.000000 0.000000 0.000000 0.028363 0.000000 0.002422
# 5 -0.000154 0.000039 0.000298 0.000000 0.026845 0.000000
# 6 0.000000 0.000000 0.000000 0.002422 0.000000 0.025837
#
#
# Mechanical properties :
#
#
# Convention : Reuss Voigt Hill
#
# Bulk Modulus (GPa) = 81.50077 91.94458 86.72267
# Shear Modulus (GPa) = 29.02430 31.84498 30.43464
#
# Velocity S-wave (km/s) = 3.88709 4.07159 3.98041
# Velocity P-wave (km/s) = 7.91034 8.36470 8.14069
#
# Compressibility (1/GPa) = 0.01226982
#
# Stress axis : x y z
#
# Youngs Moduli (GPa) = 80.42060 61.29982 47.72302
#
# Poissons Ratio (x) = 0.34929 0.32227
# Poissons Ratio (y) = 0.45825 0.29899
# Poissons Ratio (z) = 0.54308 0.38405
#
# Static dielectric constant tensor:
#      x y z
#    x 3.361130 0.000000 0.150600 
#    y 0.000000 3.618210 0.000000 
#    z 0.150600 0.000000 3.600190 
# 
# 
# High freq. dielectric constant tensor:
#      x y z
#    x 1.749010 0.000000 -0.000120 
#    y 0.000000 1.760330 0.000000 
#    z -0.000120 0.000000 1.758970 
# 
# From -- ./inp_files/275198.got.cif
#   From: 2010.06.25/outbox.cif.g09.slc.cpg/sg12_138_cif.got.tgz:275198.got - 2010.06.28 00:19:55.
