data_PCOD8101629
_publ_section_title
;
Structure prediction by ZEFSAII (Michael W. Deem and Ramdas Pophale) SiO2 
 PCOD8101629
Probable space group: C 2/M
;
_chemical_formula_sum "Si O2"
_cell_formula_units_Z 64
_cell_length_a 18.749914
_cell_length_b 22.556586
_cell_length_c 14.960337
_cell_angle_alpha 90.000000
_cell_angle_beta 151.280181
_cell_angle_gamma 90.000000
_cell_volume 3040.406914
_symmetry_space_group_name_H-M "C 2/M"
_symmetry_group_IT_number 12
_symmetry_cell_setting 'monoclinic'
loop_
_space_group_symop_operation_xyz
x,y,z
-x,y,-z
-x,-y,-z
x,-y,z
1/2+x,1/2+y,z
1/2-x,1/2+y,-z
1/2-x,1/2-y,-z
1/2+x,1/2-y,z
loop_
_atom_site_type_symbol
_atom_site_label
_atom_site_fract_x
_atom_site_fract_y
_atom_site_fract_z
Si Si1 0.834093 0.068073 0.847271
Si Si2 0.776242 0.935348 0.122201
Si Si3 0.913966 0.064937 0.600103
Si Si4 0.304001 0.933578 0.491843
Si Si5 0.953137 0.659014 0.191686
Si Si6 0.846587 0.864987 0.360436
Si Si7 0.850838 0.331260 0.276350
Si Si8 0.617780 0.229108 0.055280
O O1 0.722072 0.074046 0.641160
O O2 0.751568 0.109159 0.830216
O O3 0.840839 0.000000 0.889515
O O4 0.000000 0.089074 0.000000
O O5 0.842449 0.923573 0.293561
O O6 0.909198 0.930697 0.197007
O O7 0.700968 0.000000 0.036785
O O8 0.663422 0.885428 0.975724
O O9 0.855015 0.072954 0.635451
O O10 0.846142 0.115730 0.462817
O O11 0.868344 0.000000 0.512360
O O12 0.398611 0.879292 0.634418
O O13 0.371946 0.000000 0.584842
O O14 0.900661 0.682608 0.229869
O O15 0.961936 0.712799 0.128111
O O16 0.698908 0.827658 0.185257
O O17 0.000000 0.830754 0.500000
O O18 0.743216 0.278491 0.185782
O O19 0.000000 0.334590 0.500000
O O20 0.500000 0.250717 0.000000
#
# Coordination Sequence:
#
# PCOD8101629 Si02
#       8
#     8   8   8   8   8   8   8   8
#     4  10  23  42  66  94 126 163 204 249 304 364
#     4   9  18  31  53  86 122 161 202 246 299 358
#     4   9  17  30  53  85 123 161 200 246 296 357
#     4  10  20  36  58  91 129 162 199 246 303 365
#     4  11  23  40  62  91 123 159 204 253 306 369
#     4   9  17  33  56  83 118 161 205 248 299 357
#     4  12  25  45  67  90 122 160 205 257 309 362
#     4  11  24  43  65  88 120 159 205 257 308 364
#
# _framework density 21.049814000000001
#
# number of rings (size 3 to 8) (size 9 to 14) (size 15 to 20)
#    0.000    1.875    1.250    2.625    1.750    2.750 
#    0.000    0.625    0.000    6.000    0.000    0.000 
#    0.000    0.000    0.000    0.000    0.000    0.000 
#
# Total GULP energy -396530.385747 kJ/mol
# GULP energy per Si atom -12391.574555 kJ/mol
# Density = 2.100190 g / cm^3
# Si number density = 21.049814 Si / 1000 Ang^3
#
#
#
# Elastic Constant Matrix: (Units=GPa)
#
#
# Indices 1 2 3 4 5 6 
#
# 1 102.6137 26.1649 10.9707 0.0000 7.6715 0.0000
# 2 26.1649 72.5864 20.0610 0.0000 9.5941 0.0000
# 3 10.9707 20.0610 64.6810 0.0000 7.4080 0.0000
# 4 0.0000 0.0000 0.0000 31.7786 0.0000 7.1855
# 5 7.6715 9.5941 7.4080 0.0000 28.3470 0.0000
# 6 0.0000 0.0000 0.0000 7.1855 0.0000 26.8929
#
#
#
# Elastic Compliance Matrix: (Units=1/GPa)
#
#
# Indices 1 2 3 4 5 6 
#
# 1 0.010826 -0.003539 -0.000557 0.000000 -0.001587 0.000000
# 2 -0.003539 0.016678 -0.004160 0.000000 -0.003600 0.000000
# 3 -0.000557 -0.004160 0.017181 0.000000 -0.002931 0.000000
# 4 0.000000 0.000000 0.000000 0.033491 0.000000 -0.008949
# 5 -0.001587 -0.003600 -0.002931 0.000000 0.037691 0.000000
# 6 0.000000 0.000000 0.000000 -0.008949 0.000000 0.039575
#
#
# Mechanical properties :
#
#
# Convention : Reuss Voigt Hill
#
# Bulk Modulus (GPa) = 35.49508 39.36381 37.42944
# Shear Modulus (GPa) = 27.57183 29.58267 28.57725
#
# Velocity S-wave (km/s) = 3.62309 3.75289 3.68856
# Velocity P-wave (km/s) = 5.86527 6.12534 5.99672
#
# Compressibility (1/GPa) = 0.02817292
#
# Stress axis : x y z
#
# Youngs Moduli (GPa) = 92.37230 59.95987 58.20392
#
# Poissons Ratio (x) = 0.21218 0.03242
# Poissons Ratio (y) = 0.32688 0.24214
# Poissons Ratio (z) = 0.05144 0.24944
#
# Static dielectric constant tensor:
#      x y z
#    x 4.319300 0.000000 -0.032810 
#    y 0.000000 3.866270 0.000000 
#    z -0.032810 0.000000 3.839770 
# 
# 
# High freq. dielectric constant tensor:
#      x y z
#    x 1.827970 0.000000 0.002600 
#    y 0.000000 1.813700 0.000000 
#    z 0.002600 0.000000 1.822230 
# 
# From -- ./inp_files/228167.got.cif
#   From: 2010.06.25/outbox.cif.g09.slc.cpg/sg12_115_cif.got.tgz:228167.got - 2010.06.28 00:19:55.
