data_PCOD8101865
_publ_section_title
;
Structure prediction by ZEFSAII (Michael W. Deem and Ramdas Pophale) SiO2 
 PCOD8101865
Probable space group: C 2/M
;
_chemical_formula_sum "Si O2"
_cell_formula_units_Z 56
_cell_length_a 19.381535
_cell_length_b 8.700558
_cell_length_c 18.597347
_cell_angle_alpha 90.000000
_cell_angle_beta 66.826497
_cell_angle_gamma 90.000000
_cell_volume 2883.047262
_symmetry_space_group_name_H-M "C 2/M"
_symmetry_group_IT_number 12
_symmetry_cell_setting 'monoclinic'
loop_
_space_group_symop_operation_xyz
x,y,z
-x,y,-z
-x,-y,-z
x,-y,z
1/2+x,1/2+y,z
1/2-x,1/2+y,-z
1/2-x,1/2-y,-z
1/2+x,1/2-y,z
loop_
_atom_site_type_symbol
_atom_site_label
_atom_site_fract_x
_atom_site_fract_y
_atom_site_fract_z
Si Si1 0.787885 0.681735 0.699920
Si Si2 0.444366 0.172659 0.456619
Si Si3 0.791332 0.820246 0.550284
Si Si4 0.774491 0.682433 0.136276
Si Si5 0.923729 0.681239 0.996184
Si Si6 0.118822 0.176186 0.132715
Si Si7 0.558763 0.678050 0.311669
O O1 0.795157 0.500000 0.697767
O O2 0.758199 0.738909 0.635094
O O3 0.729871 0.736893 0.784534
O O4 0.869165 0.754113 0.678472
O O5 0.500000 0.171869 0.500000
O O6 0.378942 0.288104 0.504667
O O7 0.484912 0.233087 0.367992
O O8 0.413883 0.000000 0.454582
O O9 0.750000 0.750000 0.500000
O O10 0.776173 0.000000 0.562306
O O11 0.772621 0.500000 0.148810
O O12 0.703442 0.732547 0.116329
O O13 0.850553 0.743258 0.068260
O O14 0.925614 0.500000 0.001641
O O15 0.917515 0.725151 0.915578
O O16 0.000000 0.750546 0.000000
O O17 0.065648 0.200091 0.223338
O O18 0.120771 0.000000 0.107228
O O19 0.553044 0.500000 0.335039
#
# Coordination Sequence:
#
# PCOD8101865 Si02
#       7
#     8   8   8   8   8   8   8
#     4  11  21  36  59  88 117 149 195 244 292 347
#     4  11  22  37  61  91 121 154 199 244 288 347
#     4  12  25  42  62  85 119 159 199 244 297 350
#     4   9  19  37  59  83 112 147 191 236 284 344
#     4  10  21  37  57  83 115 150 185 229 286 347
#     4   9  19  35  57  84 112 146 189 236 282 336
#     4  10  20  36  59  88 118 153 194 242 296 342
#
# _framework density 19.423891999999999
#
# number of rings (size 3 to 8) (size 9 to 14) (size 15 to 20)
#    0.000    1.714    1.429    4.714    0.000    4.286 
#    2.571    0.000    0.000    0.000    0.000    0.000 
#    0.000    0.000    0.000    0.000    0.000    0.000 
#
# Total GULP energy -347281.315977 kJ/mol
# GULP energy per Si atom -12402.904142 kJ/mol
# Density = 1.937968 g / cm^3
# Si number density = 19.423892 Si / 1000 Ang^3
#
#
#
# Elastic Constant Matrix: (Units=GPa)
#
#
# Indices 1 2 3 4 5 6 
#
# 1 79.9021 15.7252 51.8952 0.0000 8.7403 -0.0002
# 2 15.7252 34.2295 32.8274 -0.0001 -1.1321 -0.0005
# 3 51.8952 32.8274 130.1697 0.0000 7.7335 0.0000
# 4 0.0000 -0.0001 0.0000 32.0917 0.0000 5.8239
# 5 8.7403 -1.1321 7.7335 0.0000 30.9487 -0.0001
# 6 -0.0002 -0.0005 0.0000 5.8239 -0.0001 24.2408
#
#
#
# Elastic Compliance Matrix: (Units=1/GPa)
#
#
# Indices 1 2 3 4 5 6 
#
# 1 0.017313 -0.002167 -0.006152 0.000000 -0.003431 0.000000
# 2 -0.002167 0.039274 -0.009300 0.000000 0.004373 0.000001
# 3 -0.006152 -0.009300 0.012584 0.000000 -0.001747 0.000000
# 4 0.000000 0.000000 0.000000 0.032581 0.000000 -0.007828
# 5 -0.003431 0.004373 -0.001747 0.000000 0.033877 0.000000
# 6 0.000000 0.000001 0.000000 -0.007828 0.000000 0.043133
#
#
# Mechanical properties :
#
#
# Convention : Reuss Voigt Hill
#
# Bulk Modulus (GPa) = 29.47044 49.46632 39.46838
# Shear Modulus (GPa) = 22.19149 27.04648 24.61898
#
# Velocity S-wave (km/s) = 3.38373 3.73558 3.56400
# Velocity P-wave (km/s) = 5.52009 6.64290 6.10735
#
# Compressibility (1/GPa) = 0.03393231
#
# Stress axis : x y z
#
# Youngs Moduli (GPa) = 57.76143 25.46207 79.46597
#
# Poissons Ratio (x) = 0.05519 0.48884
# Poissons Ratio (y) = 0.12519 0.73905
# Poissons Ratio (z) = 0.35533 0.23680
#
# Static dielectric constant tensor:
#      x y z
#    x 3.337720 0.000000 -0.072830 
#    y 0.000000 3.615520 0.000000 
#    z -0.072830 0.000000 3.759970 
# 
# 
# High freq. dielectric constant tensor:
#      x y z
#    x 1.736360 0.000000 -0.001070 
#    y 0.000000 1.758620 0.000000 
#    z -0.001070 0.000000 1.770640 
# 
# From -- ./inp_files/275165.got.cif
#   From: 2010.06.25/outbox.cif.g09.slc.cpg/sg12_138_cif.got.tgz:275165.got - 2010.06.28 00:19:55.
