data_PCOD8101121
_publ_section_title
;
Structure prediction by ZEFSAII (Michael W. Deem and Ramdas Pophale) SiO2 
 PCOD8101121
Probable space group: C 2/M
;
_chemical_formula_sum "Si O2"
_cell_formula_units_Z 64
_cell_length_a 19.719096
_cell_length_b 9.146124
_cell_length_c 31.192837
_cell_angle_alpha 90.000000
_cell_angle_beta 36.784304
_cell_angle_gamma 90.000000
_cell_volume 3368.711454
_symmetry_space_group_name_H-M "C 2/M"
_symmetry_group_IT_number 12
_symmetry_cell_setting 'monoclinic'
loop_
_space_group_symop_operation_xyz
x,y,z
-x,y,-z
-x,-y,-z
x,-y,z
1/2+x,1/2+y,z
1/2-x,1/2+y,-z
1/2-x,1/2-y,-z
1/2+x,1/2-y,z
loop_
_atom_site_type_symbol
_atom_site_label
_atom_site_fract_x
_atom_site_fract_y
_atom_site_fract_z
Si Si1 0.190696 0.331292 0.937474
Si Si2 0.048718 0.168724 0.077682
Si Si3 0.088197 0.326621 0.685886
Si Si4 0.678338 0.826985 0.426071
Si Si5 0.674120 0.330734 0.861346
Si Si6 0.043189 0.672961 0.412771
Si Si7 0.448160 0.331353 0.826163
Si Si8 0.910273 0.326309 0.704885
O O1 0.157251 0.500000 0.953372
O O2 0.138355 0.254161 0.922321
O O3 0.324875 0.306982 0.868693
O O4 0.139978 0.262910 0.006047
O O5 0.051302 0.221850 0.125192
O O6 0.922497 0.194854 0.124610
O O7 0.084929 0.000000 0.055434
O O8 0.096051 0.500000 0.684699
O O9 0.211191 0.260155 0.615787
O O10 0.037611 0.266800 0.755716
O O11 0.010012 0.274810 0.685916
O O12 0.580138 0.776820 0.508579
O O13 0.640503 0.779840 0.397185
O O14 0.701137 0.000000 0.417031
O O15 0.687337 0.500000 0.867129
O O16 0.790556 0.266729 0.783019
O O17 0.042896 0.500000 0.410272
O O18 0.068123 0.741259 0.353348
O O19 0.486303 0.500000 0.803613
O O20 0.905145 0.500000 0.704660
#
# Coordination Sequence:
#
# PCOD8101121 Si02
#       8
#     8   8   8   8   8   8   8   8
#     4  11  22  37  57  80 112 145 173 221 282 328
#     4  10  22  37  58  83 104 138 188 228 267 321
#     4  11  22  35  54  80 111 148 180 218 272 325
#     4   9  18  34  59  86 111 140 180 227 268 312
#     4  10  20  36  57  80 106 143 185 226 265 315
#     4   8  16  33  58  85 109 142 184 224 264 310
#     4  10  22  39  57  80 107 141 184 229 271 318
#     4   9  18  33  54  79 108 143 185 224 262 315
#
# _framework density 18.998363000000001
#
# number of rings (size 3 to 8) (size 9 to 14) (size 15 to 20)
#    0.000    2.250    1.250    2.250    1.750    3.500 
#    0.000    1.250    0.000    3.000    0.000    0.000 
#    0.000    0.000    0.000    0.000    0.000    0.000 
#
# Total GULP energy -396878.505037 kJ/mol
# GULP energy per Si atom -12402.453282 kJ/mol
# Density = 1.895512 g / cm^3
# Si number density = 18.998363 Si / 1000 Ang^3
#
#
#
# Elastic Constant Matrix: (Units=GPa)
#
#
# Indices 1 2 3 4 5 6 
#
# 1 69.2913 22.8402 25.1088 -0.0003 15.1561 0.0183
# 2 22.8402 50.9639 25.4982 -0.0005 0.9689 0.0081
# 3 25.1088 25.4982 82.3126 -0.0020 8.7335 0.0007
# 4 -0.0003 -0.0005 -0.0020 27.5301 -0.0013 -6.9041
# 5 15.1561 0.9689 8.7335 -0.0013 38.7331 0.0015
# 6 0.0183 0.0081 0.0007 -6.9041 0.0015 21.5678
#
#
#
# Elastic Compliance Matrix: (Units=1/GPa)
#
#
# Indices 1 2 3 4 5 6 
#
# 1 0.019299 -0.007020 -0.003002 -0.000004 -0.006699 -0.000015
# 2 -0.007020 0.025817 -0.006228 -0.000001 0.003505 -0.000004
# 3 -0.003002 -0.006228 0.015217 0.000002 -0.002101 0.000005
# 4 -0.000004 -0.000001 0.000002 0.039494 0.000002 0.012643
# 5 -0.006699 0.003505 -0.002101 0.000002 0.028825 0.000003
# 6 -0.000015 -0.000004 0.000005 0.012643 0.000003 0.050413
#
#
# Mechanical properties :
#
#
# Convention : Reuss Voigt Hill
#
# Bulk Modulus (GPa) = 35.92790 38.82912 37.37851
# Shear Modulus (GPa) = 22.64070 26.17424 24.40747
#
# Velocity S-wave (km/s) = 3.45587 3.71578 3.58818
# Velocity P-wave (km/s) = 5.90561 6.23633 6.07322
#
# Compressibility (1/GPa) = 0.02783352
#
# Stress axis : x y z
#
# Youngs Moduli (GPa) = 51.81692 38.73396 65.71782
#
# Poissons Ratio (x) = 0.27191 0.19726
# Poissons Ratio (y) = 0.36375 0.40929
# Poissons Ratio (z) = 0.15553 0.24124
#
# Static dielectric constant tensor:
#      x y z
#    x 3.627320 -0.000020 0.125910 
#    y -0.000020 3.176260 -0.000010 
#    z 0.125910 -0.000010 3.636310 
# 
# 
# High freq. dielectric constant tensor:
#      x y z
#    x 1.749250 0.000000 0.000400 
#    y 0.000000 1.706710 0.000000 
#    z 0.000400 0.000000 1.746530 
# 
# From -- ./inp_files/377970.got.cif
#   From: 2010.06.25/outbox.cif.g09.slc.cpg/sg12_189_cif.got.tgz:377970.got - 2010.06.28 00:19:55.
