data_PCOD8101493
_publ_section_title
;
Structure prediction by ZEFSAII (Michael W. Deem and Ramdas Pophale) SiO2 
 PCOD8101493
Probable space group: C 2/M
;
_chemical_formula_sum "Si O2"
_cell_formula_units_Z 56
_cell_length_a 18.770468
_cell_length_b 8.732329
_cell_length_c 19.549782
_cell_angle_alpha 90.000000
_cell_angle_beta 114.672360
_cell_angle_gamma 90.000000
_cell_volume 2911.871810
_symmetry_space_group_name_H-M "C 2/M"
_symmetry_group_IT_number 12
_symmetry_cell_setting 'monoclinic'
loop_
_space_group_symop_operation_xyz
x,y,z
-x,y,-z
-x,-y,-z
x,-y,z
1/2+x,1/2+y,z
1/2-x,1/2+y,-z
1/2-x,1/2-y,-z
1/2+x,1/2-y,z
loop_
_atom_site_type_symbol
_atom_site_label
_atom_site_fract_x
_atom_site_fract_y
_atom_site_fract_z
Si Si1 0.200765 0.180925 0.919260
Si Si2 0.678304 0.820160 0.428800
Si Si3 0.596096 0.330181 0.704439
Si Si4 0.455165 0.822484 0.185580
Si Si5 0.484469 0.166984 0.572157
Si Si6 0.766365 0.327295 0.797819
Si Si7 0.875319 0.179635 0.736095
O O1 0.112355 0.247407 0.888829
O O2 0.244401 0.226396 0.865971
O O3 0.194987 0.000000 0.923860
O O4 0.250000 0.250000 0.000000
O O5 0.750000 0.750000 0.500000
O O6 0.602832 0.779873 0.444296
O O7 0.665273 0.753649 0.347109
O O8 0.692691 0.000000 0.426573
O O9 0.577993 0.500000 0.727413
O O10 0.572260 0.199020 0.747857
O O11 0.544881 0.298812 0.617607
O O12 0.687052 0.320442 0.721133
O O13 0.538858 0.742271 0.211938
O O14 0.463513 0.000000 0.170172
O O15 0.500000 0.147515 0.500000
O O16 0.499589 0.000000 0.613087
O O17 0.800806 0.500000 0.812348
O O18 0.826466 0.213849 0.785418
O O19 0.879524 0.000000 0.724978
#
# Coordination Sequence:
#
# PCOD8101493 Si02
#       7
#     8   8   8   8   8   8   8
#     4  10  21  40  66  96 128 159 196 241 292 353
#     4  11  24  41  59  83 118 159 199 252 309 360
#     4  10  20  36  58  84 112 148 196 245 295 352
#     4  11  21  37  62  88 118 158 198 241 293 350
#     4  10  22  38  56  80 111 149 197 246 298 356
#     4   9  21  39  59  88 122 156 196 242 293 352
#     4  12  24  39  61  88 120 159 204 253 300 357
#
# _framework density 19.231615000000001
#
# number of rings (size 3 to 8) (size 9 to 14) (size 15 to 20)
#    0.000    1.571    1.429    4.714    2.000    4.286 
#    0.000    0.714    0.000    4.286    0.000    0.000 
#    0.000    0.000    0.000    0.000    0.000    0.000 
#
# Total GULP energy -347051.295632 kJ/mol
# GULP energy per Si atom -12394.689130 kJ/mol
# Density = 1.918784 g / cm^3
# Si number density = 19.231615 Si / 1000 Ang^3
#
#
#
# Elastic Constant Matrix: (Units=GPa)
#
#
# Indices 1 2 3 4 5 6 
#
# 1 109.9137 53.0117 60.7087 0.0000 8.7370 0.0000
# 2 53.0117 123.2418 59.9993 0.0000 11.3892 0.0000
# 3 60.7087 59.9993 133.3692 0.0000 24.4795 0.0000
# 4 0.0000 0.0000 0.0000 32.3634 0.0000 3.5703
# 5 8.7370 11.3892 24.4795 0.0000 26.7173 0.0000
# 6 0.0000 0.0000 0.0000 3.5703 0.0000 31.0376
#
#
#
# Elastic Compliance Matrix: (Units=1/GPa)
#
#
# Indices 1 2 3 4 5 6 
#
# 1 0.013309 -0.003560 -0.004732 0.000000 0.001501 0.000000
# 2 -0.003560 0.011342 -0.003376 0.000000 -0.000578 0.000000
# 3 -0.004732 -0.003376 0.012771 0.000000 -0.008714 0.000000
# 4 0.000000 0.000000 0.000000 0.031296 0.000000 -0.003600
# 5 0.001501 -0.000578 -0.008714 0.000000 0.045168 0.000000
# 6 0.000000 0.000000 0.000000 -0.003600 0.000000 0.032633
#
#
# Mechanical properties :
#
#
# Convention : Reuss Voigt Hill
#
# Bulk Modulus (GPa) = 70.99553 79.32935 75.16244
# Shear Modulus (GPa) = 28.64472 30.87733 29.76102
#
# Velocity S-wave (km/s) = 3.86354 4.01128 3.93810
# Velocity P-wave (km/s) = 7.54313 7.92419 7.73601
#
# Compressibility (1/GPa) = 0.01408539
#
# Stress axis : x y z
#
# Youngs Moduli (GPa) = 75.13435 88.16457 78.30546
#
# Poissons Ratio (x) = 0.31384 0.37058
# Poissons Ratio (y) = 0.26746 0.26438
# Poissons Ratio (z) = 0.35557 0.29767
#
# Static dielectric constant tensor:
#      x y z
#    x 3.473910 0.000000 0.160790 
#    y 0.000000 3.793450 0.000000 
#    z 0.160790 0.000000 3.452980 
# 
# 
# High freq. dielectric constant tensor:
#      x y z
#    x 1.747990 0.000000 0.013280 
#    y 0.000000 1.759510 0.000000 
#    z 0.013280 0.000000 1.739600 
# 
# From -- ./inp_files/314376.got.cif
#   From: 2010.06.25/outbox.cif.g09.slc.cpg/sg12_158_cif.got.tgz:314376.got - 2010.06.28 00:19:55.
