data_PCOD8101081
_publ_section_title
;
Structure prediction by ZEFSAII (Michael W. Deem and Ramdas Pophale) SiO2 
 PCOD8101081
Probable space group: C 2/M
;
_chemical_formula_sum "Si O2"
_cell_formula_units_Z 40
_cell_length_a 18.218681
_cell_length_b 9.025864
_cell_length_c 26.144793
_cell_angle_alpha 90.000000
_cell_angle_beta 150.211895
_cell_angle_gamma 90.000000
_cell_volume 2135.831998
_symmetry_space_group_name_H-M "C 2/M"
_symmetry_group_IT_number 12
_symmetry_cell_setting 'monoclinic'
loop_
_space_group_symop_operation_xyz
x,y,z
-x,y,-z
-x,-y,-z
x,-y,z
1/2+x,1/2+y,z
1/2-x,1/2+y,-z
1/2-x,1/2-y,-z
1/2+x,1/2-y,z
loop_
_atom_site_type_symbol
_atom_site_label
_atom_site_fract_x
_atom_site_fract_y
_atom_site_fract_z
Si Si1 0.600377 0.171820 0.217236
Si Si2 0.421220 0.825460 0.206491
Si Si3 0.926235 0.170487 0.400564
Si Si4 0.406568 0.825337 0.588145
Si Si5 0.683097 0.172517 0.008577
O O1 0.526835 0.236540 0.224744
O O2 0.761054 0.240691 0.303278
O O3 0.626903 0.000000 0.244262
O O4 0.494467 0.196927 0.103465
O O5 0.490132 0.779540 0.301990
O O6 0.258951 0.747980 0.104002
O O7 0.397453 0.000000 0.186735
O O8 0.000000 0.183419 0.500000
O O9 0.019031 0.270010 0.418400
O O10 0.925746 0.000000 0.381255
O O11 0.250000 0.750000 0.500000
O O12 0.382955 0.000000 0.571638
O O13 0.721925 0.000000 0.031613
O O14 0.750000 0.250000 0.000000
#
# Coordination Sequence:
#
# PCOD8101081 Si02
#       5
#     8   8   8   8   8
#     4   8  15  30  52  76 102 135 175 213 253 307
#     4   9  18  34  54  76 104 138 177 219 261 309
#     4  10  20  36  57  78 104 141 179 216 265 321
#     4  11  23  38  56  79 107 138 175 221 270 322
#     4   9  16  28  49  77 107 139 176 216 258 308
#
# _framework density 18.728064
#
# number of rings (size 3 to 8) (size 9 to 14) (size 15 to 20)
#    0.000    2.600    0.000    3.600    0.000    5.200 
#    0.000    6.000    0.000    6.000    0.000    0.000 
#    0.000    0.000    0.000    0.000    0.000    0.000 
#
# Total GULP energy -247890.381837 kJ/mol
# GULP energy per Si atom -12394.519092 kJ/mol
# Density = 1.868544 g / cm^3
# Si number density = 18.728064 Si / 1000 Ang^3
#
#
#
# Elastic Constant Matrix: (Units=GPa)
#
#
# Indices 1 2 3 4 5 6 
#
# 1 80.7437 28.4621 51.1640 0.0000 1.5926 0.0000
# 2 28.4621 62.3903 57.6212 0.0006 -6.4050 0.0001
# 3 51.1640 57.6212 158.0029 0.0010 2.4182 0.0001
# 4 0.0000 0.0006 0.0010 32.5306 0.0002 -2.4921
# 5 1.5926 -6.4050 2.4182 0.0002 31.3011 0.0000
# 6 0.0000 0.0001 0.0001 -2.4921 0.0000 23.8401
#
#
#
# Elastic Compliance Matrix: (Units=1/GPa)
#
#
# Indices 1 2 3 4 5 6 
#
# 1 0.016224 -0.004086 -0.003743 0.000000 -0.001372 0.000000
# 2 -0.004086 0.026232 -0.008338 0.000000 0.006220 0.000000
# 3 -0.003743 -0.008338 0.010618 0.000000 -0.002336 0.000000
# 4 0.000000 0.000000 0.000000 0.030988 0.000000 0.003239
# 5 -0.001372 0.006220 -0.002336 0.000000 0.033471 0.000000
# 6 0.000000 0.000000 0.000000 0.003239 0.000000 0.042285
#
#
# Mechanical properties :
#
#
# Convention : Reuss Voigt Hill
#
# Bulk Modulus (GPa) = 48.21690 63.95903 56.08797
# Shear Modulus (GPa) = 25.11769 28.46033 26.78901
#
# Velocity S-wave (km/s) = 3.66618 3.90251 3.78619
# Velocity P-wave (km/s) = 6.61233 7.38456 7.00909
#
# Compressibility (1/GPa) = 0.02073961
#
# Stress axis : x y z
#
# Youngs Moduli (GPa) = 61.63880 38.12209 94.18370
#
# Poissons Ratio (x) = 0.15575 0.35249
# Poissons Ratio (y) = 0.25183 0.78535
# Poissons Ratio (z) = 0.23068 0.31788
#
# Static dielectric constant tensor:
#      x y z
#    x 3.226040 0.000000 0.069540 
#    y 0.000000 3.283790 -0.000010 
#    z 0.069540 -0.000010 4.069720 
# 
# 
# High freq. dielectric constant tensor:
#      x y z
#    x 1.696430 0.000000 -0.001700 
#    y 0.000000 1.709420 0.000000 
#    z -0.001700 0.000000 1.753570 
# 
# From -- ./inp_files/151932.got.cif
#   From: 2010.06.25/outbox.cif.g09.slc.cpg/sg12_76_cif.got.tgz:151932.got - 2010.06.28 00:19:55.
