data_PCOD8101397
_publ_section_title
;
Structure prediction by ZEFSAII (Michael W. Deem and Ramdas Pophale) SiO2 
 PCOD8101397
Probable space group: C 2/M
;
_chemical_formula_sum "Si O2"
_cell_formula_units_Z 64
_cell_length_a 18.909492
_cell_length_b 8.863537
_cell_length_c 31.141423
_cell_angle_alpha 90.000000
_cell_angle_beta 139.304289
_cell_angle_gamma 90.000000
_cell_volume 3403.303774
_symmetry_space_group_name_H-M "C 2/M"
_symmetry_group_IT_number 12
_symmetry_cell_setting 'monoclinic'
loop_
_space_group_symop_operation_xyz
x,y,z
-x,y,-z
-x,-y,-z
x,-y,z
1/2+x,1/2+y,z
1/2-x,1/2+y,-z
1/2-x,1/2-y,-z
1/2+x,1/2-y,z
loop_
_atom_site_type_symbol
_atom_site_label
_atom_site_fract_x
_atom_site_fract_y
_atom_site_fract_z
Si Si1 0.913906 0.678452 0.564470
Si Si2 0.004999 0.323811 0.165910
Si Si3 0.373823 0.324256 0.941028
Si Si4 0.222398 0.821014 0.941656
Si Si5 0.743209 0.823476 0.433097
Si Si6 0.160186 0.177410 0.171861
Si Si7 0.698460 0.174118 0.316981
Si Si8 0.654378 0.822464 0.680605
O O1 0.917891 0.500000 0.562166
O O2 0.858336 0.743384 0.495697
O O3 0.845610 0.733651 0.573926
O O4 0.033910 0.747147 0.626592
O O5 0.979753 0.500000 0.148291
O O6 0.895532 0.236113 0.126830
O O7 0.058651 0.263152 0.146617
O O8 0.082662 0.291966 0.242191
O O9 0.356003 0.500000 0.943485
O O10 0.310580 0.227109 0.946973
O O11 0.329582 0.282713 0.873441
O O12 0.500000 0.281869 0.000000
O O13 0.222876 0.000000 0.945986
O O14 0.250000 0.750000 0.000000
O O15 0.695200 0.777997 0.364986
O O16 0.763353 0.000000 0.446054
O O17 0.271991 0.233520 0.245497
O O18 0.139894 0.000000 0.169524
O O19 0.791789 0.273447 0.338909
O O20 0.729687 0.000000 0.325231
O O21 0.645892 0.000000 0.678276
#
# Coordination Sequence:
#
# PCOD8101397 Si02
#       8
#     8   8   8   8   8   8   8   8
#     4   9  18  32  49  70  97 132 175 219 262 308
#     4  10  20  36  58  82 110 142 177 218 264 315
#     4  10  21  37  58  84 112 142 178 219 264 315
#     4  12  25  40  59  83 112 144 180 220 262 310
#     4   9  18  33  51  71  98 133 173 215 261 312
#     4   9  18  34  56  80 109 144 178 216 266 321
#     4   9  19  34  53  77 104 136 171 211 259 312
#     4   9  18  32  51  75 103 137 174 213 258 311
#
# _framework density 18.805256
#
# number of rings (size 3 to 8) (size 9 to 14) (size 15 to 20)
#    0.000    2.375    0.000    2.250    0.000    4.750 
#    0.000    6.250    0.000    3.000    0.000    0.000 
#    0.000    0.000    0.000    0.000    0.000    0.000 
#
# Total GULP energy -396824.243770 kJ/mol
# GULP energy per Si atom -12400.757618 kJ/mol
# Density = 1.876245 g / cm^3
# Si number density = 18.805256 Si / 1000 Ang^3
#
#
#
# Elastic Constant Matrix: (Units=GPa)
#
#
# Indices 1 2 3 4 5 6 
#
# 1 112.1950 46.2410 75.1930 0.0000 2.8462 -0.0001
# 2 46.2410 63.3644 41.4241 0.0001 3.6943 -0.0004
# 3 75.1930 41.4241 127.2693 0.0000 4.3655 0.0000
# 4 0.0000 0.0001 0.0000 28.1592 0.0000 1.1596
# 5 2.8462 3.6943 4.3655 0.0000 38.5589 0.0000
# 6 -0.0001 -0.0004 0.0000 1.1596 0.0000 32.4497
#
#
#
# Elastic Compliance Matrix: (Units=1/GPa)
#
#
# Indices 1 2 3 4 5 6 
#
# 1 0.017165 -0.007505 -0.007710 0.000000 0.000325 0.000000
# 2 -0.007505 0.023383 -0.003131 0.000000 -0.001332 0.000000
# 3 -0.007710 -0.003131 0.013454 0.000000 -0.000654 0.000000
# 4 0.000000 0.000000 0.000000 0.035565 0.000000 -0.001271
# 5 0.000325 -0.001332 -0.000654 0.000000 0.026112 0.000000
# 6 0.000000 0.000000 0.000000 -0.001271 0.000000 0.030862
#
#
# Mechanical properties :
#
#
# Convention : Reuss Voigt Hill
#
# Bulk Modulus (GPa) = 57.76868 69.83831 63.80350
# Shear Modulus (GPa) = 26.45451 29.16494 27.80972
#
# Velocity S-wave (km/s) = 3.75475 3.94241 3.84972
# Velocity P-wave (km/s) = 7.04157 7.61195 7.33231
#
# Compressibility (1/GPa) = 0.01731042
#
# Stress axis : x y z
#
# Youngs Moduli (GPa) = 58.25742 42.76562 74.32738
#
# Poissons Ratio (x) = 0.32096 0.57305
# Poissons Ratio (y) = 0.43723 0.23272
# Poissons Ratio (z) = 0.44916 0.13390
#
# Static dielectric constant tensor:
#      x y z
#    x 3.457200 0.000000 0.083200 
#    y 0.000000 3.365370 0.000000 
#    z 0.083200 0.000000 3.821010 
# 
# 
# High freq. dielectric constant tensor:
#      x y z
#    x 1.724320 0.000000 0.000990 
#    y 0.000000 1.721740 0.000000 
#    z 0.000990 0.000000 1.745530 
# 
# From -- ./inp_files/378326.got.cif
#   From: 2010.06.25/outbox.cif.g09.slc.cpg/sg12_190_cif.got.tgz:378326.got - 2010.06.28 00:19:55.
