data_PCOD8101492
_publ_section_title
;
Structure prediction by ZEFSAII (Michael W. Deem and Ramdas Pophale) SiO2 
 PCOD8101492
Probable space group: C 2/M
;
_chemical_formula_sum "Si O2"
_cell_formula_units_Z 64
_cell_length_a 24.197749
_cell_length_b 9.278365
_cell_length_c 31.491781
_cell_angle_alpha 90.000000
_cell_angle_beta 28.735538
_cell_angle_gamma 90.000000
_cell_volume 3399.215577
_symmetry_space_group_name_H-M "C 2/M"
_symmetry_group_IT_number 12
_symmetry_cell_setting 'monoclinic'
loop_
_space_group_symop_operation_xyz
x,y,z
-x,y,-z
-x,-y,-z
x,-y,z
1/2+x,1/2+y,z
1/2-x,1/2+y,-z
1/2-x,1/2-y,-z
1/2+x,1/2-y,z
loop_
_atom_site_type_symbol
_atom_site_label
_atom_site_fract_x
_atom_site_fract_y
_atom_site_fract_z
Si Si1 0.419389 0.666715 0.826392
Si Si2 0.121994 0.166835 0.628271
Si Si3 0.715945 0.830377 0.761039
Si Si4 0.298025 0.670490 0.055379
Si Si5 0.531359 0.671462 0.432307
Si Si6 0.016030 0.166799 0.853074
Si Si7 0.633265 0.168036 0.909722
Si Si8 0.346668 0.331038 0.489337
O O1 0.381016 0.500000 0.850074
O O2 0.503519 0.707227 0.731020
O O3 0.308342 0.766992 0.899222
O O4 0.483700 0.700733 0.826667
O O5 0.225174 0.255735 0.579884
O O6 0.107116 0.206131 0.588806
O O7 0.152135 0.000000 0.614410
O O8 0.843079 0.771998 0.665339
O O9 0.629043 0.756883 0.787104
O O10 0.686121 0.787875 0.829155
O O11 0.705677 0.000000 0.760887
O O12 0.284595 0.500000 0.068017
O O13 0.298964 0.739727 0.101289
O O14 0.413171 0.715711 0.953171
O O15 0.500000 0.731219 0.500000
O O16 0.530413 0.500000 0.432403
O O17 0.438844 0.730305 0.460775
O O18 0.044343 0.000000 0.840889
O O19 0.651401 0.000000 0.907717
O O20 0.500000 0.210348 0.000000
O O21 0.327754 0.500000 0.508170
#
# Coordination Sequence:
#
# PCOD8101492 Si02
#       8
#     8   8   8   8   8   8   8   8
#     4  10  22  38  58  80 108 148 188 228 275 329
#     4   9  19  35  56  80 105 140 181 224 272 323
#     4  10  21  36  59  85 109 147 193 228 268 330
#     4  11  23  37  56  83 114 146 182 230 281 326
#     4   9  19  34  54  83 114 142 178 226 276 323
#     4  10  22  39  56  79 114 148 181 227 282 330
#     4  10  20  36  58  84 112 147 189 228 270 331
#     4   9  18  34  56  79 108 141 176 222 273 324
#
# _framework density 18.827873
#
# number of rings (size 3 to 8) (size 9 to 14) (size 15 to 20)
#    0.000    2.250    1.250    0.750    3.500    2.250 
#    0.000    0.625    0.000    0.750    0.000    0.000 
#    0.000    0.000    0.000    0.000    0.000    0.000 
#
# Total GULP energy -396941.270735 kJ/mol
# GULP energy per Si atom -12404.414710 kJ/mol
# Density = 1.878502 g / cm^3
# Si number density = 18.827873 Si / 1000 Ang^3
#
#
#
# Elastic Constant Matrix: (Units=GPa)
#
#
# Indices 1 2 3 4 5 6 
#
# 1 128.9381 40.5745 61.7533 0.0094 -9.5462 -0.0570
# 2 40.5745 42.2736 30.2971 0.0351 -6.8497 -0.0330
# 3 61.7533 30.2971 110.8578 -0.0163 -4.5589 0.0412
# 4 0.0094 0.0351 -0.0163 16.9733 0.0069 -8.6865
# 5 -9.5462 -6.8497 -4.5589 0.0069 31.3830 0.0260
# 6 -0.0570 -0.0330 0.0412 -8.6865 0.0260 33.2752
#
#
#
# Elastic Compliance Matrix: (Units=1/GPa)
#
#
# Indices 1 2 3 4 5 6 
#
# 1 0.012870 -0.008755 -0.004722 0.000018 0.001318 0.000023
# 2 -0.008755 0.036270 -0.004849 -0.000075 0.004549 0.000004
# 3 -0.004722 -0.004849 0.012951 0.000012 -0.000613 -0.000025
# 4 0.000018 -0.000075 0.000012 0.068001 -0.000039 0.017752
# 5 0.001318 0.004549 -0.000613 -0.000039 0.033169 -0.000028
# 6 0.000023 0.000004 -0.000025 0.017752 -0.000028 0.034687
#
#
# Mechanical properties :
#
#
# Convention : Reuss Voigt Hill
#
# Bulk Modulus (GPa) = 39.30830 60.81325 50.06078
# Shear Modulus (GPa) = 20.56939 26.28928 23.42933
#
# Velocity S-wave (km/s) = 3.30888 3.74076 3.53143
# Velocity P-wave (km/s) = 5.95997 7.14335 6.57832
#
# Compressibility (1/GPa) = 0.02543992
#
# Stress axis : x y z
#
# Youngs Moduli (GPa) = 77.70079 27.57069 77.21355
#
# Poissons Ratio (x) = 0.24137 0.36463
# Poissons Ratio (y) = 0.68024 0.37439
# Poissons Ratio (z) = 0.36693 0.13368
#
# Static dielectric constant tensor:
#      x y z
#    x 3.508470 -0.000030 0.060640 
#    y -0.000030 3.228190 0.000050 
#    z 0.060640 0.000050 3.568620 
# 
# 
# High freq. dielectric constant tensor:
#      x y z
#    x 1.741740 -0.000010 0.002810 
#    y -0.000010 1.709260 0.000000 
#    z 0.002810 0.000000 1.738820 
# 
# From -- ./inp_files/382236.got.cif
#   From: 2010.06.25/outbox.cif.g09.slc.cpg/sg12_192_cif.got.tgz:382236.got - 2010.06.28 00:19:55.
