data_PCOD8101780
_publ_section_title
;
Structure prediction by ZEFSAII (Michael W. Deem and Ramdas Pophale) SiO2 
 PCOD8101780
Probable space group: C 2/M
;
_chemical_formula_sum "Si O2"
_cell_formula_units_Z 64
_cell_length_a 24.601987
_cell_length_b 8.832517
_cell_length_c 32.154112
_cell_angle_alpha 90.000000
_cell_angle_beta 151.821307
_cell_angle_gamma 90.000000
_cell_volume 3299.425439
_symmetry_space_group_name_H-M "C 2/M"
_symmetry_group_IT_number 12
_symmetry_cell_setting 'monoclinic'
loop_
_space_group_symop_operation_xyz
x,y,z
-x,y,-z
-x,-y,-z
x,-y,z
1/2+x,1/2+y,z
1/2-x,1/2+y,-z
1/2-x,1/2-y,-z
1/2+x,1/2-y,z
loop_
_atom_site_type_symbol
_atom_site_label
_atom_site_fract_x
_atom_site_fract_y
_atom_site_fract_z
Si Si1 0.930037 0.179786 0.678849
Si Si2 0.972479 0.680058 0.935675
Si Si3 0.493403 0.321482 0.358851
Si Si4 0.723994 0.679289 0.737194
Si Si5 0.892295 0.821873 0.131275
Si Si6 0.701354 0.320293 0.555025
Si Si7 0.368060 0.820702 0.408367
Si Si8 0.134312 0.321162 0.971639
O O1 0.986519 0.238711 0.674119
O O2 0.810723 0.266175 0.602889
O O3 0.014490 0.231180 0.772523
O O4 0.909537 0.000000 0.665116
O O5 0.974865 0.500000 0.939179
O O6 0.847524 0.736108 0.836471
O O7 0.068171 0.740682 0.967744
O O8 0.000000 0.746805 0.000000
O O9 0.503681 0.500000 0.365260
O O10 0.367773 0.270833 0.289626
O O11 0.589591 0.258069 0.455236
O O12 0.721288 0.500000 0.727537
O O13 0.693338 0.761898 0.674107
O O14 0.924776 0.745461 0.109498
O O15 0.893498 0.000000 0.125503
O O16 0.767074 0.768421 0.063222
O O17 0.701552 0.500000 0.559588
O O18 0.703937 0.246253 0.602061
O O19 0.500000 0.763291 0.500000
O O20 0.361348 0.000000 0.405183
O O21 0.122873 0.500000 0.961609
#
# Coordination Sequence:
#
# PCOD8101780 Si02
#       8
#     8   8   8   8   8   8   8   8
#     4  10  21  36  55  81 110 146 189 231 282 334
#     4   9  19  33  56  89 116 141 180 232 282 329
#     4   9  19  35  56  80 110 147 186 226 276 335
#     4  10  20  36  59  86 115 151 191 234 280 337
#     4   9  19  34  54  77 105 144 181 224 276 327
#     4  11  22  37  57  82 112 147 187 234 281 330
#     4  11  23  39  59  84 115 152 190 234 284 340
#     4   9  18  34  54  78 109 140 178 225 272 326
#
# _framework density 19.397316
#
# number of rings (size 3 to 8) (size 9 to 14) (size 15 to 20)
#    0.000    2.250    1.250    1.125    3.500    1.000 
#    0.000    1.250    0.000    1.500    0.000    0.000 
#    0.000    0.000    0.000    0.000    0.000    0.000 
#
# Total GULP energy -396858.908493 kJ/mol
# GULP energy per Si atom -12401.840890 kJ/mol
# Density = 1.935317 g / cm^3
# Si number density = 19.397316 Si / 1000 Ang^3
#
#
#
# Elastic Constant Matrix: (Units=GPa)
#
#
# Indices 1 2 3 4 5 6 
#
# 1 162.9486 22.7457 61.4629 0.0005 -8.2628 -0.0005
# 2 22.7457 29.4994 24.4923 -0.0023 -4.0362 -0.0041
# 3 61.4629 24.4923 120.9172 -0.0064 -5.3675 -0.0016
# 4 0.0005 -0.0023 -0.0064 21.6598 -0.0008 0.6508
# 5 -8.2628 -4.0362 -5.3675 -0.0008 33.4354 0.0003
# 6 -0.0005 -0.0041 -0.0016 0.6508 0.0003 23.5197
#
#
#
# Elastic Compliance Matrix: (Units=1/GPa)
#
#
# Indices 1 2 3 4 5 6 
#
# 1 0.007885 -0.003185 -0.003317 -0.000001 0.001032 -0.000001
# 2 -0.003185 0.042478 -0.006842 0.000003 0.003243 0.000007
# 3 -0.003317 -0.006842 0.011350 0.000003 0.000176 -0.000001
# 4 -0.000001 0.000003 0.000003 0.046207 0.000001 -0.001278
# 5 0.001032 0.003243 0.000176 0.000001 0.030583 0.000000
# 6 -0.000001 0.000007 -0.000001 -0.001278 0.000000 0.042553
#
#
# Mechanical properties :
#
#
# Convention : Reuss Voigt Hill
#
# Bulk Modulus (GPa) = 28.54952 58.97412 43.76182
# Shear Modulus (GPa) = 22.78754 29.36726 26.07740
#
# Velocity S-wave (km/s) = 3.43122 3.89522 3.67056
# Velocity P-wave (km/s) = 5.51797 7.12036 6.36975
#
# Compressibility (1/GPa) = 0.03502686
#
# Stress axis : x y z
#
# Youngs Moduli (GPa) = 126.82419 23.54136 88.10692
#
# Poissons Ratio (x) = 0.07497 0.29226
# Poissons Ratio (y) = 0.40387 0.60279
# Poissons Ratio (z) = 0.42069 0.16106
#
# Static dielectric constant tensor:
#      x y z
#    x 3.946140 0.000000 0.066070 
#    y 0.000000 3.181530 0.000000 
#    z 0.066070 0.000000 3.697610 
# 
# 
# High freq. dielectric constant tensor:
#      x y z
#    x 1.771130 0.000000 -0.000860 
#    y 0.000000 1.720610 0.000000 
#    z -0.000860 0.000000 1.761930 
# 
# From -- ./inp_files/382488.got.cif
#   From: 2010.06.25/outbox.cif.g09.slc.cpg/sg12_192_cif.got.tgz:382488.got - 2010.06.28 00:19:55.
