data_PCOD8101181
_publ_section_title
;
Structure prediction by ZEFSAII (Michael W. Deem and Ramdas Pophale) SiO2 
 PCOD8101181
Probable space group: C 2/M
;
_chemical_formula_sum "Si O2"
_cell_formula_units_Z 48
_cell_length_a 15.249632
_cell_length_b 8.690249
_cell_length_c 18.933570
_cell_angle_alpha 90.000000
_cell_angle_beta 91.057088
_cell_angle_gamma 90.000000
_cell_volume 2508.708346
_symmetry_space_group_name_H-M "C 2/M"
_symmetry_group_IT_number 12
_symmetry_cell_setting 'monoclinic'
loop_
_space_group_symop_operation_xyz
x,y,z
-x,y,-z
-x,-y,-z
x,-y,z
1/2+x,1/2+y,z
1/2-x,1/2+y,-z
1/2-x,1/2-y,-z
1/2+x,1/2-y,z
loop_
_atom_site_type_symbol
_atom_site_label
_atom_site_fract_x
_atom_site_fract_y
_atom_site_fract_z
Si Si1 0.742427 0.318787 0.076699
Si Si2 0.905655 0.818484 0.332893
Si Si3 0.420039 0.317608 0.833514
Si Si4 0.742402 0.817638 0.577031
Si Si5 0.602763 0.680864 0.324138
Si Si6 0.102929 0.681905 0.819295
O O1 0.745766 0.500000 0.070633
O O2 0.650584 0.265915 0.109611
O O3 0.822280 0.260541 0.126125
O O4 0.750000 0.250000 0.000000
O O5 0.849213 0.732316 0.390590
O O6 0.878885 0.764943 0.254452
O O7 0.006411 0.771799 0.350126
O O8 0.891144 0.000000 0.338581
O O9 0.437612 0.500000 0.833921
O O10 0.384738 0.263348 0.756330
O O11 0.510516 0.231246 0.852043
O O12 0.750000 0.750000 0.500000
O O13 0.822066 0.746883 0.625152
O O14 0.747148 0.000000 0.572883
O O15 0.613905 0.500000 0.326536
O O16 0.106503 0.500000 0.806962
#
# Coordination Sequence:
#
# PCOD8101181 Si02
#       6
#     8   8   8   8   8   8
#     4  10  22  37  54  77 111 148 181 216 266 323
#     4  10  20  37  59  82 105 138 181 222 264 319
#     4   9  18  36  58  79 102 138 182 221 262 318
#     4  11  22  37  55  79 111 146 180 220 267 318
#     4   8  17  35  58  77 102 140 178 214 264 322
#     4  10  20  36  57  82 108 138 175 223 273 316
#
# _framework density 19.133351999999999
#
# number of rings (size 3 to 8) (size 9 to 14) (size 15 to 20)
#    0.000    2.333    0.000    3.500    0.000    6.000 
#    0.000   18.333    0.000    0.000    0.000    0.000 
#    0.000    0.000    0.000    0.000    0.000    0.000 
#
# Total GULP energy -297615.999729 kJ/mol
# GULP energy per Si atom -12400.666655 kJ/mol
# Density = 1.908980 g / cm^3
# Si number density = 19.133352 Si / 1000 Ang^3
#
#
#
# Elastic Constant Matrix: (Units=GPa)
#
#
# Indices 1 2 3 4 5 6 
#
# 1 104.4007 26.6672 67.0145 0.0000 -22.7879 0.0000
# 2 26.6672 44.9282 27.5422 0.0000 -3.7952 0.0000
# 3 67.0145 27.5422 114.2610 0.0000 -21.8423 0.0000
# 4 0.0000 0.0000 0.0000 34.6570 0.0000 -3.7054
# 5 -22.7879 -3.7952 -21.8423 0.0000 27.3829 0.0000
# 6 0.0000 0.0000 0.0000 -3.7054 0.0000 31.7258
#
#
#
# Elastic Compliance Matrix: (Units=1/GPa)
#
#
# Indices 1 2 3 4 5 6 
#
# 1 0.017375 -0.005070 -0.007479 0.000000 0.007791 0.000000
# 2 -0.005070 0.027660 -0.004445 0.000000 -0.003931 0.000000
# 3 -0.007479 -0.004445 0.015224 0.000000 0.005303 0.000000
# 4 0.000000 0.000000 0.000000 0.029219 0.000000 0.003413
# 5 0.007791 -0.003931 0.005303 0.000000 0.046688 0.000000
# 6 0.000000 0.000000 0.000000 0.003413 0.000000 0.031919
#
#
# Mechanical properties :
#
#
# Convention : Reuss Voigt Hill
#
# Bulk Modulus (GPa) = 38.06630 56.22640 47.14635
# Shear Modulus (GPa) = 23.71589 28.24422 25.98006
#
# Velocity S-wave (km/s) = 3.52448 3.84627 3.68889
# Velocity P-wave (km/s) = 6.04161 7.01252 6.54510
#
# Compressibility (1/GPa) = 0.02626996
#
# Stress axis : x y z
#
# Youngs Moduli (GPa) = 57.55480 36.15327 65.68723
#
# Poissons Ratio (x) = 0.18329 0.49127
# Poissons Ratio (y) = 0.29180 0.29200
# Poissons Ratio (z) = 0.43045 0.16071
#
# Static dielectric constant tensor:
#      x y z
#    x 3.632970 0.000000 -0.133270 
#    y 0.000000 3.342960 0.000000 
#    z -0.133270 0.000000 3.207420 
# 
# 
# High freq. dielectric constant tensor:
#      x y z
#    x 1.759020 0.000000 -0.002750 
#    y 0.000000 1.729960 0.000000 
#    z -0.002750 0.000000 1.742380 
# 
# From -- ./inp_files/267661.got.cif
#   From: 2010.06.25/outbox.cif.g09.slc.cpg/sg12_134_cif.got.tgz:267661.got - 2010.06.28 00:19:55.
