data_PCOD8101374
_publ_section_title
;
Structure prediction by ZEFSAII (Michael W. Deem and Ramdas Pophale) SiO2 
 PCOD8101374
Probable space group: C 2/M
;
_chemical_formula_sum "Si O2"
_cell_formula_units_Z 40
_cell_length_a 26.855100
_cell_length_b 13.059359
_cell_length_c 11.911258
_cell_angle_alpha 90.000000
_cell_angle_beta 32.506413
_cell_angle_gamma 90.000000
_cell_volume 2244.910766
_symmetry_space_group_name_H-M "C 2/M"
_symmetry_group_IT_number 12
_symmetry_cell_setting 'monoclinic'
loop_
_space_group_symop_operation_xyz
x,y,z
-x,y,-z
-x,-y,-z
x,-y,z
1/2+x,1/2+y,z
1/2-x,1/2+y,-z
1/2-x,1/2-y,-z
1/2+x,1/2-y,z
loop_
_atom_site_type_symbol
_atom_site_label
_atom_site_fract_x
_atom_site_fract_y
_atom_site_fract_z
Si Si1 0.122374 0.240597 0.518583
Si Si2 0.102669 0.387160 0.764025
Si Si3 0.281951 0.723445 0.062770
Si Si4 0.469893 0.383521 0.685027
Si Si5 0.290331 0.881809 0.223126
O O1 0.101452 0.311408 0.662820
O O2 0.180498 0.140011 0.446009
O O3 0.027054 0.199393 0.647818
O O4 0.187279 0.307533 0.309484
O O5 0.141772 0.500000 0.655587
O O6 0.161908 0.340747 0.754116
O O7 0.000000 0.401085 0.000000
O O8 0.359832 0.635441 0.909835
O O9 0.250000 0.750000 0.000000
O O10 0.327174 0.820915 0.042734
O O11 0.500000 0.368135 0.500000
O O12 0.490135 0.500000 0.685293
O O13 0.312094 0.000000 0.161421
#
# Coordination Sequence:
#
# PCOD8101374 Si02
#       5
#     8   8   8   8   8
#     4  10  21  35  61  85 116 152 195 244 293 346
#     4  10  20  36  58  81 112 154 197 241 298 353
#     4  10  21  35  57  88 118 152 192 242 288 351
#     4  11  21  37  60  85 117 156 193 235 292 350
#     4   9  19  36  58  79 109 155 196 234 291 352
#
# _framework density 17.818079000000001
#
# number of rings (size 3 to 8) (size 9 to 14) (size 15 to 20)
#    1.200    0.800    2.000    2.400    0.000    1.600 
#    0.000    0.000    0.000    3.600    0.000    0.000 
#    0.000    0.000    0.000    0.000    0.000    0.000 
#
# Total GULP energy -247767.978821 kJ/mol
# GULP energy per Si atom -12388.398941 kJ/mol
# Density = 1.777752 g / cm^3
# Si number density = 17.818079 Si / 1000 Ang^3
#
#
#
# Elastic Constant Matrix: (Units=GPa)
#
#
# Indices 1 2 3 4 5 6 
#
# 1 133.7705 53.3630 39.2650 0.0000 10.1492 0.0000
# 2 53.3630 79.2144 33.0109 0.0000 17.2414 0.0000
# 3 39.2650 33.0109 80.3956 0.0000 1.7085 0.0000
# 4 0.0000 0.0000 0.0000 28.7647 0.0000 -0.6610
# 5 10.1492 17.2414 1.7085 0.0000 34.7458 0.0000
# 6 0.0000 0.0000 0.0000 -0.6610 0.0000 30.3826
#
#
#
# Elastic Compliance Matrix: (Units=1/GPa)
#
#
# Indices 1 2 3 4 5 6 
#
# 1 0.010698 -0.006074 -0.002732 0.000000 0.000023 0.000000
# 2 -0.006074 0.020756 -0.005380 0.000000 -0.008261 0.000000
# 3 -0.002732 -0.005380 0.015925 0.000000 0.002685 0.000000
# 4 0.000000 0.000000 0.000000 0.034782 0.000000 0.000757
# 5 0.000023 -0.008261 0.002685 0.000000 0.032741 0.000000
# 6 0.000000 0.000000 0.000000 0.000757 0.000000 0.032930
#
#
# Mechanical properties :
#
#
# Convention : Reuss Voigt Hill
#
# Bulk Modulus (GPa) = 52.61153 60.51760 56.56456
# Shear Modulus (GPa) = 27.39132 29.96138 28.67635
#
# Velocity S-wave (km/s) = 3.92507 4.10508 4.01608
# Velocity P-wave (km/s) = 7.08044 7.51710 7.30204
#
# Compressibility (1/GPa) = 0.01900724
#
# Stress axis : x y z
#
# Youngs Moduli (GPa) = 93.47150 48.17948 62.79495
#
# Poissons Ratio (x) = 0.29263 0.17154
# Poissons Ratio (y) = 0.56772 0.33787
# Poissons Ratio (z) = 0.25533 0.25923
#
# Static dielectric constant tensor:
#      x y z
#    x 3.448620 0.000000 -0.127080 
#    y 0.000000 3.137170 0.000000 
#    z -0.127080 0.000000 2.910360 
# 
# 
# High freq. dielectric constant tensor:
#      x y z
#    x 1.705270 0.000000 -0.006810 
#    y 0.000000 1.671810 0.000000 
#    z -0.006810 0.000000 1.680350 
# 
# From -- ./inp_files/183157.got.cif
#   From: 2010.06.25/outbox.cif.g09.slc.cpg/sg12_92_cif.got.tgz:183157.got - 2010.06.28 00:19:55.
