data_PCOD8101878
_publ_section_title
;
Structure prediction by ZEFSAII (Michael W. Deem and Ramdas Pophale) SiO2 
 PCOD8101878
Probable space group: C 2/M
;
_chemical_formula_sum "Si O2"
_cell_formula_units_Z 32
_cell_length_a 12.279578
_cell_length_b 23.329215
_cell_length_c 7.593705
_cell_angle_alpha 90.000000
_cell_angle_beta 42.900960
_cell_angle_gamma 90.000000
_cell_volume 1480.860622
_symmetry_space_group_name_H-M "C 2/M"
_symmetry_group_IT_number 12
_symmetry_cell_setting 'monoclinic'
loop_
_space_group_symop_operation_xyz
x,y,z
-x,y,-z
-x,-y,-z
x,-y,z
1/2+x,1/2+y,z
1/2-x,1/2+y,-z
1/2-x,1/2-y,-z
1/2+x,1/2-y,z
loop_
_atom_site_type_symbol
_atom_site_label
_atom_site_fract_x
_atom_site_fract_y
_atom_site_fract_z
Si Si1 0.814990 0.281794 0.187024
Si Si2 0.878240 0.141054 0.803387
Si Si3 0.166030 0.161835 0.688895
Si Si4 0.810894 0.434511 0.735690
O O1 0.735713 0.303671 0.097967
O O2 0.776639 0.214926 0.257146
O O3 0.725371 0.323967 0.424890
O O4 0.000000 0.294135 0.000000
O O5 0.000000 0.124644 0.500000
O O6 0.972245 0.156048 0.878931
O O7 0.761460 0.088092 0.991741
O O8 0.240627 0.101810 0.657507
O O9 0.757835 0.500000 0.774535
O O10 0.000000 0.427709 0.500000
#
# Coordination Sequence:
#
# PCOD8101878 Si02
#       4
#     8   8   8   8
#     4  10  20  36  59  88 122 154 188 237 293 347
#     4  10  22  39  60  89 119 152 194 237 290 347
#     4  10  22  37  59  89 118 154 195 237 289 346
#     4  11  24  41  61  85 115 154 198 242 289 343
#
# _framework density 21.609057
#
# number of rings (size 3 to 8) (size 9 to 14) (size 15 to 20)
#    0.000    1.750    0.000    3.750    0.000   11.500 
#    0.000    3.750    0.000   13.500    0.000    0.000 
#    0.000    0.000    0.000    0.000    0.000    0.000 
#
# Total GULP energy -198292.452417 kJ/mol
# GULP energy per Si atom -12393.278276 kJ/mol
# Density = 2.155987 g / cm^3
# Si number density = 21.609057 Si / 1000 Ang^3
#
#
#
# Elastic Constant Matrix: (Units=GPa)
#
#
# Indices 1 2 3 4 5 6 
#
# 1 142.3271 80.6049 21.5090 0.0000 -15.6649 0.0000
# 2 80.6049 170.3295 55.0718 0.0000 -4.8298 0.0000
# 3 21.5090 55.0718 82.2298 0.0000 -8.3864 0.0000
# 4 0.0000 0.0000 0.0000 22.2134 0.0000 -11.3378
# 5 -15.6649 -4.8298 -8.3864 0.0000 33.4857 0.0000
# 6 0.0000 0.0000 0.0000 -11.3378 0.0000 20.5775
#
#
#
# Elastic Compliance Matrix: (Units=1/GPa)
#
#
# Indices 1 2 3 4 5 6 
#
# 1 0.010207 -0.005089 0.001181 0.000000 0.004337 0.000000
# 2 -0.005089 0.010032 -0.005627 0.000000 -0.002343 0.000000
# 3 0.001181 -0.005627 0.016003 0.000000 0.003749 0.000000
# 4 0.000000 0.000000 0.000000 0.062631 0.000000 0.034508
# 5 0.004337 -0.002343 0.003749 0.000000 0.032493 0.000000
# 6 0.000000 0.000000 0.000000 0.034508 0.000000 0.067610
#
#
# Mechanical properties :
#
#
# Convention : Reuss Voigt Hill
#
# Bulk Modulus (GPa) = 58.23410 78.80642 68.52026
# Shear Modulus (GPa) = 22.34435 31.10203 26.72319
#
# Velocity S-wave (km/s) = 3.21912 3.79793 3.52044
# Velocity P-wave (km/s) = 6.38940 7.46865 6.95000
#
# Compressibility (1/GPa) = 0.01717207
#
# Stress axis : x y z
#
# Youngs Moduli (GPa) = 97.97140 99.68062 62.48904
#
# Poissons Ratio (x) = 0.50728 -0.07378
# Poissons Ratio (y) = 0.49858 0.35160
# Poissons Ratio (z) = -0.11568 0.56086
#
# Static dielectric constant tensor:
#      x y z
#    x 4.254540 0.000000 -0.098860 
#    y 0.000000 3.717800 0.000000 
#    z -0.098860 0.000000 4.425400 
# 
# 
# High freq. dielectric constant tensor:
#      x y z
#    x 1.860160 0.000000 0.004200 
#    y 0.000000 1.829860 0.000000 
#    z 0.004200 0.000000 1.880370 
# 
# From -- ./inp_files/49044.got.cif
#   From: 2010.06.25/outbox.cif.g09.slc.cpg/sg12_25_cif.got.tgz:49044.got - 2010.06.28 00:19:55.
