data_PCOD8101370
_publ_section_title
;
Structure prediction by ZEFSAII (Michael W. Deem and Ramdas Pophale) SiO2 
 PCOD8101370
Probable space group: C 2/M
;
_chemical_formula_sum "Si O2"
_cell_formula_units_Z 56
_cell_length_a 18.913957
_cell_length_b 13.048057
_cell_length_c 15.178583
_cell_angle_alpha 90.000000
_cell_angle_beta 121.786803
_cell_angle_gamma 90.000000
_cell_volume 3184.091754
_symmetry_space_group_name_H-M "C 2/M"
_symmetry_group_IT_number 12
_symmetry_cell_setting 'monoclinic'
loop_
_space_group_symop_operation_xyz
x,y,z
-x,y,-z
-x,-y,-z
x,-y,z
1/2+x,1/2+y,z
1/2-x,1/2+y,-z
1/2-x,1/2-y,-z
1/2+x,1/2-y,z
loop_
_atom_site_type_symbol
_atom_site_label
_atom_site_fract_x
_atom_site_fract_y
_atom_site_fract_z
Si Si1 0.298325 0.620300 0.866289
Si Si2 0.907660 0.117471 0.104055
Si Si3 0.095593 0.881805 0.571981
Si Si4 0.845904 0.226246 0.553511
Si Si5 0.869863 0.744047 0.245202
Si Si6 0.980138 0.382495 0.589546
Si Si7 0.400918 0.617523 0.763565
O O1 0.280318 0.500000 0.854851
O O2 0.212125 0.677864 0.818843
O O3 0.342880 0.653547 0.805393
O O4 0.356970 0.652745 0.985326
O O5 0.880920 0.187042 0.167181
O O6 0.004262 0.131000 0.144208
O O7 0.888003 0.000000 0.116220
O O8 0.141827 0.863387 0.510124
O O9 0.139617 0.816849 0.676618
O O10 0.000000 0.845725 0.500000
O O11 0.100919 0.000000 0.602017
O O12 0.750000 0.250000 0.500000
O O13 0.892357 0.328491 0.551462
O O14 0.883679 0.189732 0.669943
O O15 0.947774 0.668425 0.305208
O O16 0.971593 0.500000 0.612857
O O17 0.000000 0.372296 0.500000
O O18 0.382252 0.500000 0.725194
#
# Coordination Sequence:
#
# PCOD8101370 Si02
#       7
#     8   8   8   8   8   8   8
#     4  10  22  36  55  85 112 143 186 234 277 323
#     4  10  20  36  59  84 110 140 185 237 284 325
#     4  11  21  36  57  82 111 142 183 227 274 327
#     4  12  22  37  55  83 114 147 184 224 271 330
#     4  12  19  37  56  85 110 150 181 225 277 335
#     4  11  23  39  57  80 114 153 186 221 268 334
#     4  10  20  36  58  81 111 144 182 229 280 325
#
# _framework density 17.587433000000001
#
# number of rings (size 3 to 8) (size 9 to 14) (size 15 to 20)
#    0.000    1.143    4.286    3.000    0.000    5.143 
#    0.000    0.000    0.000    0.000    0.000    1.000 
#    0.000    0.000    0.000    0.000    0.000    0.000 
#
# Total GULP energy -347343.238257 kJ/mol
# GULP energy per Si atom -12405.115652 kJ/mol
# Density = 1.754740 g / cm^3
# Si number density = 17.587433 Si / 1000 Ang^3
#
#
#
# Elastic Constant Matrix: (Units=GPa)
#
#
# Indices 1 2 3 4 5 6 
#
# 1 113.5604 39.6964 36.8372 0.0000 8.4932 0.0000
# 2 39.6964 80.2931 43.9696 0.0000 -1.7612 0.0000
# 3 36.8372 43.9696 83.6533 0.0000 2.7572 0.0000
# 4 0.0000 0.0000 0.0000 38.8591 0.0000 -19.6807
# 5 8.4932 -1.7612 2.7572 0.0000 34.1169 0.0000
# 6 0.0000 0.0000 0.0000 -19.6807 0.0000 65.2838
#
#
#
# Elastic Compliance Matrix: (Units=1/GPa)
#
#
# Indices 1 2 3 4 5 6 
#
# 1 0.011362 -0.004199 -0.002703 0.000000 -0.002827 0.000000
# 2 -0.004199 0.019133 -0.008297 0.000000 0.002704 0.000000
# 3 -0.002703 -0.008297 0.017544 0.000000 -0.001173 0.000000
# 4 0.000000 0.000000 0.000000 0.030371 0.000000 0.009156
# 5 -0.002827 0.002704 -0.001173 0.000000 0.030249 0.000000
# 6 0.000000 0.000000 0.000000 0.009156 0.000000 0.018078
#
#
# Mechanical properties :
#
#
# Convention : Reuss Voigt Hill
#
# Bulk Modulus (GPa) = 56.68488 57.61257 57.14872
# Shear Modulus (GPa) = 30.67204 38.11887 34.39546
#
# Velocity S-wave (km/s) = 4.18062 4.66058 4.42711
# Velocity P-wave (km/s) = 7.45679 7.86068 7.66140
#
# Compressibility (1/GPa) = 0.01764139
#
# Stress axis : x y z
#
# Youngs Moduli (GPa) = 88.01297 52.26567 56.99979
#
# Poissons Ratio (x) = 0.21947 0.15407
# Poissons Ratio (y) = 0.36957 0.47291
# Poissons Ratio (z) = 0.23790 0.43363
#
# Static dielectric constant tensor:
#      x y z
#    x 3.298540 0.000000 -0.026590 
#    y 0.000000 3.484860 0.000000 
#    z -0.026590 0.000000 3.350090 
# 
# 
# High freq. dielectric constant tensor:
#      x y z
#    x 1.684770 0.000000 -0.001590 
#    y 0.000000 1.680200 0.000000 
#    z -0.001590 0.000000 1.687680 
# 
# From -- ./inp_files/224650.got.cif
#   From: 2010.06.25/outbox.cif.g09.slc.cpg/sg12_113_cif.got.tgz:224650.got - 2010.06.28 00:19:55.
