data_PCOD8101034
_publ_section_title
;
Structure prediction by ZEFSAII (Michael W. Deem and Ramdas Pophale) SiO2 
 PCOD8101034
Probable space group: C 2/M
;
_chemical_formula_sum "Si O2"
_cell_formula_units_Z 56
_cell_length_a 14.040814
_cell_length_b 13.486268
_cell_length_c 14.440043
_cell_angle_alpha 90.000000
_cell_angle_beta 104.159696
_cell_angle_gamma 90.000000
_cell_volume 2651.264637
_symmetry_space_group_name_H-M "C 2/M"
_symmetry_group_IT_number 12
_symmetry_cell_setting 'monoclinic'
loop_
_space_group_symop_operation_xyz
x,y,z
-x,y,-z
-x,-y,-z
x,-y,z
1/2+x,1/2+y,z
1/2-x,1/2+y,-z
1/2-x,1/2-y,-z
1/2+x,1/2-y,z
loop_
_atom_site_type_symbol
_atom_site_label
_atom_site_fract_x
_atom_site_fract_y
_atom_site_fract_z
Si Si1 0.184767 0.389399 0.560396
Si Si2 0.067953 0.206152 0.595157
Si Si3 0.231621 0.612606 0.360844
Si Si4 0.740640 0.281254 0.892095
Si Si5 0.559899 0.888770 0.107647
Si Si6 0.680432 0.689398 0.255591
Si Si7 0.525057 0.722489 0.790990
O O1 0.141362 0.500000 0.557111
O O2 0.101035 0.311878 0.563058
O O3 0.225156 0.367303 0.468365
O O4 0.273420 0.379492 0.655199
O O5 0.154987 0.130044 0.638423
O O6 0.014336 0.230593 0.677849
O O7 0.000000 0.156815 0.500000
O O8 0.200217 0.500000 0.326805
O O9 0.169707 0.694598 0.289364
O O10 0.826879 0.356986 0.885037
O O11 0.753353 0.188579 0.822671
O O12 0.629606 0.323101 0.849379
O O13 0.750000 0.250000 0.000000
O O14 0.495769 0.827958 0.166504
O O15 0.563591 0.000000 0.145980
O O16 0.500000 0.878710 0.000000
O O17 0.569501 0.653449 0.203813
#
# Coordination Sequence:
#
# PCOD8101034 Si02
#       7
#     8   8   8   8   8   8   8
#     4  10  20  36  56  82 117 157 199 248 301 358
#     4  11  21  37  57  85 120 158 200 243 297 368
#     4  10  20  36  58  85 119 157 199 252 301 353
#     4  11  21  39  61  89 119 157 202 247 305 365
#     4  10  22  39  63  95 124 153 201 259 306 357
#     4  10  21  38  59  83 121 157 199 247 306 359
#     4  11  21  38  61  88 116 162 196 241 310 359
#
# _framework density 21.121994999999998
#
# number of rings (size 3 to 8) (size 9 to 14) (size 15 to 20)
#    0.000    1.571    4.286    3.429    0.000    3.429 
#    0.000    2.143    0.000    0.000    0.000    3.000 
#    0.000    0.000    0.000    0.000    0.000    0.000 
#
# Total GULP energy -346896.352043 kJ/mol
# GULP energy per Si atom -12389.155430 kJ/mol
# Density = 2.107392 g / cm^3
# Si number density = 21.121995 Si / 1000 Ang^3
#
#
#
# Elastic Constant Matrix: (Units=GPa)
#
#
# Indices 1 2 3 4 5 6 
#
# 1 103.1447 -11.1113 22.8363 0.0000 17.7355 0.0000
# 2 -11.1113 49.3794 3.9220 0.0000 -7.8743 0.0000
# 3 22.8363 3.9220 131.4830 0.0000 -9.8330 0.0000
# 4 0.0000 0.0000 0.0000 20.7413 0.0000 -5.4491
# 5 17.7355 -7.8743 -9.8330 0.0000 46.1775 0.0000
# 6 0.0000 0.0000 0.0000 -5.4491 0.0000 15.6537
#
#
#
# Elastic Compliance Matrix: (Units=1/GPa)
#
#
# Indices 1 2 3 4 5 6 
#
# 1 0.011194 0.001994 -0.002337 0.000000 -0.004457 0.000000
# 2 0.001994 0.021189 -0.000778 0.000000 0.002682 0.000000
# 3 -0.002337 -0.000778 0.008223 0.000000 0.002516 0.000000
# 4 0.000000 0.000000 0.000000 0.053066 0.000000 0.018473
# 5 -0.004457 0.002682 0.002516 0.000000 0.024360 0.000000
# 6 0.000000 0.000000 0.000000 0.018473 0.000000 0.070313
#
#
# Mechanical properties :
#
#
# Convention : Reuss Voigt Hill
#
# Bulk Modulus (GPa) = 26.06622 35.03347 30.54984
# Shear Modulus (GPa) = 24.58508 34.40518 29.49513
#
# Velocity S-wave (km/s) = 3.41538 4.04032 3.74092
# Velocity P-wave (km/s) = 5.28400 6.19579 5.75797
#
# Compressibility (1/GPa) = 0.03836384
#
# Stress axis : x y z
#
# Youngs Moduli (GPa) = 89.33659 47.19338 121.61343
#
# Poissons Ratio (x) = -0.09409 0.28420
# Poissons Ratio (y) = -0.17811 0.09459
# Poissons Ratio (z) = 0.20877 0.03671
#
# Static dielectric constant tensor:
#      x y z
#    x 3.983900 0.000000 0.018970 
#    y 0.000000 3.491850 0.000000 
#    z 0.018970 0.000000 4.177430 
# 
# 
# High freq. dielectric constant tensor:
#      x y z
#    x 1.840060 0.000000 0.005280 
#    y 0.000000 1.777490 0.000000 
#    z 0.005280 0.000000 1.854600 
# 
# From -- ./inp_files/214324.got.cif
#   From: 2010.06.25/outbox.cif.g09.slc.cpg/sg12_108_cif.got.tgz:214324.got - 2010.06.28 00:19:55.
