data_PCOD8101489
_publ_section_title
;
Structure prediction by ZEFSAII (Michael W. Deem and Ramdas Pophale) SiO2 
 PCOD8101489
Probable space group: C 2/M
;
_chemical_formula_sum "Si O2"
_cell_formula_units_Z 40
_cell_length_a 14.077863
_cell_length_b 9.183421
_cell_length_c 14.745366
_cell_angle_alpha 90.000000
_cell_angle_beta 92.086048
_cell_angle_gamma 90.000000
_cell_volume 1905.060962
_symmetry_space_group_name_H-M "C 2/M"
_symmetry_group_IT_number 12
_symmetry_cell_setting 'monoclinic'
loop_
_space_group_symop_operation_xyz
x,y,z
-x,y,-z
-x,-y,-z
x,-y,z
1/2+x,1/2+y,z
1/2-x,1/2+y,-z
1/2-x,1/2-y,-z
1/2+x,1/2-y,z
loop_
_atom_site_type_symbol
_atom_site_label
_atom_site_fract_x
_atom_site_fract_y
_atom_site_fract_z
Si Si1 0.597827 0.165398 0.615097
Si Si2 0.282158 0.826819 0.092115
Si Si3 0.075178 0.828882 0.788067
Si Si4 0.626733 0.836125 0.419403
Si Si5 0.357309 0.331548 0.752433
O O1 0.627009 0.271457 0.698312
O O2 0.485677 0.171998 0.597454
O O3 0.649200 0.218131 0.523311
O O4 0.628599 0.000000 0.640576
O O5 0.383118 0.758361 0.124542
O O6 0.207262 0.781170 0.166695
O O7 0.289964 0.000000 0.078847
O O8 0.250000 0.750000 0.000000
O O9 0.964433 0.789047 0.782111
O O10 0.093926 0.000000 0.799514
O O11 0.677253 0.740963 0.343289
O O12 0.663347 0.000000 0.409109
O O13 0.347457 0.500000 0.733320
#
# Coordination Sequence:
#
# PCOD8101489 Si02
#       5
#     8   8   8   8   8
#     4   8  14  27  48  78 113 147 179 217 263 311
#     4  11  24  42  60  80 107 140 178 226 278 328
#     4  10  20  36  58  84 111 143 181 222 267 320
#     4   8  14  26  49  79 111 145 182 219 259 310
#     4   9  20  37  57  81 112 145 178 220 272 321
#
# _framework density 20.996704000000001
#
# number of rings (size 3 to 8) (size 9 to 14) (size 15 to 20)
#    0.000    2.800    0.000    2.400    0.000    4.000 
#    0.000    9.000    0.000    0.000    0.000    0.000 
#    0.000    0.000    0.000    0.000    0.000    0.000 
#
# Total GULP energy -247947.005389 kJ/mol
# GULP energy per Si atom -12397.350269 kJ/mol
# Density = 2.094891 g / cm^3
# Si number density = 20.996704 Si / 1000 Ang^3
#
#
#
# Elastic Constant Matrix: (Units=GPa)
#
#
# Indices 1 2 3 4 5 6 
#
# 1 27.5030 11.1676 19.9859 0.0000 -2.9276 0.0000
# 2 11.1676 70.4184 39.9390 0.0000 1.6356 0.0000
# 3 19.9859 39.9390 115.4845 0.0000 8.4970 0.0000
# 4 0.0000 0.0000 0.0000 46.6287 0.0000 0.8846
# 5 -2.9276 1.6356 8.4970 0.0000 33.1915 0.0000
# 6 0.0000 0.0000 0.0000 0.8846 0.0000 19.8863
#
#
#
# Elastic Compliance Matrix: (Units=1/GPa)
#
#
# Indices 1 2 3 4 5 6 
#
# 1 0.043185 -0.003115 -0.006816 0.000000 0.005708 0.000000
# 2 -0.003115 0.017907 -0.005676 0.000000 0.000296 0.000000
# 3 -0.006816 -0.005676 0.012052 0.000000 -0.003407 0.000000
# 4 0.000000 0.000000 0.000000 0.021464 0.000000 -0.000955
# 5 0.005708 0.000296 -0.003407 0.000000 0.031489 0.000000
# 6 0.000000 0.000000 0.000000 -0.000955 0.000000 0.050328
#
#
# Mechanical properties :
#
#
# Convention : Reuss Voigt Hill
#
# Bulk Modulus (GPa) = 23.84906 39.51010 31.67958
# Shear Modulus (GPa) = 22.56138 29.42885 25.99512
#
# Velocity S-wave (km/s) = 3.28154 3.74785 3.52242
# Velocity P-wave (km/s) = 5.07358 6.13079 5.62707
#
# Compressibility (1/GPa) = 0.04193037
#
# Stress axis : x y z
#
# Youngs Moduli (GPa) = 23.15596 55.84402 82.97177
#
# Poissons Ratio (x) = 0.17398 0.56556
# Poissons Ratio (y) = 0.07214 0.47091
# Poissons Ratio (z) = 0.15784 0.31694
#
# Static dielectric constant tensor:
#      x y z
#    x 3.730310 0.000000 -0.074950 
#    y 0.000000 3.731080 0.000000 
#    z -0.074950 0.000000 4.128140 
# 
# 
# High freq. dielectric constant tensor:
#      x y z
#    x 1.816430 0.000000 0.006050 
#    y 0.000000 1.814470 0.000000 
#    z 0.006050 0.000000 1.827800 
# 
# From -- ./inp_files/211351.got.cif
#   From: 2010.06.25/outbox.cif.g09.slc.cpg/sg12_106_cif.got.tgz:211351.got - 2010.06.28 00:19:55.
