data_PCOD8101179
_publ_section_title
;
Structure prediction by ZEFSAII (Michael W. Deem and Ramdas Pophale) SiO2 
 PCOD8101179
Probable space group: C 2/M
;
_chemical_formula_sum "Si O2"
_cell_formula_units_Z 64
_cell_length_a 29.417471
_cell_length_b 8.641984
_cell_length_c 14.648071
_cell_angle_alpha 90.000000
_cell_angle_beta 61.638053
_cell_angle_gamma 90.000000
_cell_volume 3276.908117
_symmetry_space_group_name_H-M "C 2/M"
_symmetry_group_IT_number 12
_symmetry_cell_setting 'monoclinic'
loop_
_space_group_symop_operation_xyz
x,y,z
-x,y,-z
-x,-y,-z
x,-y,z
1/2+x,1/2+y,z
1/2-x,1/2+y,-z
1/2-x,1/2-y,-z
1/2+x,1/2-y,z
loop_
_atom_site_type_symbol
_atom_site_label
_atom_site_fract_x
_atom_site_fract_y
_atom_site_fract_z
Si Si1 0.723079 0.316068 0.267649
Si Si2 0.881500 0.179899 0.290414
Si Si3 0.134474 0.181868 0.225238
Si Si4 0.840086 0.318912 0.148679
Si Si5 0.906008 0.182231 0.927249
Si Si6 0.296357 0.680841 0.512871
Si Si7 0.467302 0.820302 0.616523
Si Si8 0.510128 0.820434 0.772338
O O1 0.719740 0.500000 0.272955
O O2 0.686001 0.247953 0.223222
O O3 0.781257 0.262804 0.190967
O O4 0.704235 0.250092 0.383843
O O5 0.856805 0.284469 0.235481
O O6 0.851110 0.219437 0.413003
O O7 0.941250 0.219879 0.244234
O O8 0.875705 0.000000 0.270026
O O9 0.126502 0.244660 0.129591
O O10 0.085755 0.226387 0.333609
O O11 0.139668 0.000000 0.217472
O O12 0.846624 0.500000 0.121860
O O13 0.875217 0.220621 0.047447
O O14 0.961068 0.267679 0.878861
O O15 0.915946 0.000000 0.910293
O O16 0.286239 0.500000 0.526900
O O17 0.250000 0.750000 0.500000
O O18 0.500000 0.759487 0.500000
O O19 0.499917 0.786360 0.676083
O O20 0.453575 0.000000 0.620471
O O21 0.521258 0.000000 0.780702
#
# Coordination Sequence:
#
# PCOD8101179 Si02
#       8
#     8   8   8   8   8   8   8   8
#     4   9  19  36  57  84 115 149 188 228 272 333
#     4  11  23  37  57  87 118 148 188 236 284 331
#     4   9  19  36  58  82 111 148 187 229 278 331
#     4  11  22  38  61  83 111 152 193 231 281 340
#     4  10  21  39  60  84 115 145 185 241 288 328
#     4  10  20  36  57  81 115 153 187 229 278 330
#     4   9  19  35  53  79 114 148 184 230 278 327
#     4  10  21  38  59  82 113 151 191 229 279 343
#
# _framework density 19.530605000000001
#
# number of rings (size 3 to 8) (size 9 to 14) (size 15 to 20)
#    0.000    2.125    1.250    1.500    1.750    2.750 
#    0.000    4.375    0.000    0.000    0.000    0.000 
#    0.000    0.000    0.000    0.000    0.000    0.000 
#
# Total GULP energy -396848.625539 kJ/mol
# GULP energy per Si atom -12401.519548 kJ/mol
# Density = 1.948615 g / cm^3
# Si number density = 19.530605 Si / 1000 Ang^3
#
#
#
# Elastic Constant Matrix: (Units=GPa)
#
#
# Indices 1 2 3 4 5 6 
#
# 1 103.9204 16.8994 17.5686 0.0000 -21.4845 0.0000
# 2 16.8994 25.8086 15.2420 0.0000 0.1905 0.0000
# 3 17.5686 15.2420 92.1964 0.0000 -14.3780 0.0000
# 4 0.0000 0.0000 0.0000 24.3730 0.0000 -0.9761
# 5 -21.4845 0.1905 -14.3780 0.0000 21.1514 0.0000
# 6 0.0000 0.0000 0.0000 -0.9761 0.0000 25.1850
#
#
#
# Elastic Compliance Matrix: (Units=1/GPa)
#
#
# Indices 1 2 3 4 5 6 
#
# 1 0.014272 -0.010290 0.001406 0.000000 0.015545 0.000000
# 2 -0.010290 0.051011 -0.009143 0.000000 -0.017127 0.000000
# 3 0.001406 -0.009143 0.013787 0.000000 0.010882 0.000000
# 4 0.000000 0.000000 0.000000 0.041093 0.000000 0.001593
# 5 0.015545 -0.017127 0.010882 0.000000 0.070620 0.000000
# 6 0.000000 0.000000 0.000000 0.001593 0.000000 0.039768
#
#
# Mechanical properties :
#
#
# Convention : Reuss Voigt Hill
#
# Bulk Modulus (GPa) = 23.24779 35.70506 29.47642
# Shear Modulus (GPa) = 17.79705 25.62292 21.70998
#
# Velocity S-wave (km/s) = 3.02195 3.62600 3.33767
# Velocity P-wave (km/s) = 4.90972 5.98763 5.47527
#
# Compressibility (1/GPa) = 0.04301485
#
# Stress axis : x y z
#
# Youngs Moduli (GPa) = 70.06544 19.60357 72.53115
#
# Poissons Ratio (x) = 0.20173 -0.10197
# Poissons Ratio (y) = 0.72101 0.66317
# Poissons Ratio (z) = -0.09850 0.17924
#
# Static dielectric constant tensor:
#      x y z
#    x 3.826430 0.000000 0.013340 
#    y 0.000000 3.377860 0.000000 
#    z 0.013340 0.000000 3.765780 
# 
# 
# High freq. dielectric constant tensor:
#      x y z
#    x 1.765490 0.000000 -0.002180 
#    y 0.000000 1.747240 0.000000 
#    z -0.002180 0.000000 1.765880 
# 
# From -- ./inp_files/249674.got.cif
#   From: 2010.06.25/outbox.cif.g09.slc.cpg/sg12_125_cif.got.tgz:249674.got - 2010.06.28 00:19:55.
