data_PCOD8101706
_publ_section_title
;
Structure prediction by ZEFSAII (Michael W. Deem and Ramdas Pophale) SiO2 
 PCOD8101706
Probable space group: C 2/M
;
_chemical_formula_sum "Si O2"
_cell_formula_units_Z 48
_cell_length_a 14.948286
_cell_length_b 8.875617
_cell_length_c 20.295931
_cell_angle_alpha 90.000000
_cell_angle_beta 68.033739
_cell_angle_gamma 90.000000
_cell_volume 2497.284531
_symmetry_space_group_name_H-M "C 2/M"
_symmetry_group_IT_number 12
_symmetry_cell_setting 'monoclinic'
loop_
_space_group_symop_operation_xyz
x,y,z
-x,y,-z
-x,-y,-z
x,-y,z
1/2+x,1/2+y,z
1/2-x,1/2+y,-z
1/2-x,1/2-y,-z
1/2+x,1/2-y,z
loop_
_atom_site_type_symbol
_atom_site_label
_atom_site_fract_x
_atom_site_fract_y
_atom_site_fract_z
Si Si1 0.174684 0.174388 0.936341
Si Si2 0.145025 0.821713 0.431620
Si Si3 0.888431 0.324987 0.917219
Si Si4 0.348875 0.178793 0.325205
Si Si5 0.543598 0.678379 0.589848
Si Si6 0.080018 0.823133 0.824642
O O1 0.288471 0.209405 0.907264
O O2 0.134865 0.220809 0.876433
O O3 0.154152 0.000000 0.958188
O O4 0.117718 0.272464 0.005496
O O5 0.247735 0.755985 0.380979
O O6 0.118458 0.766656 0.512608
O O7 0.063378 0.770325 0.402274
O O8 0.147039 0.000000 0.432008
O O9 0.914969 0.500000 0.908296
O O10 0.970226 0.233258 0.856503
O O11 0.434084 0.236945 0.348574
O O12 0.362245 0.241236 0.248704
O O13 0.349829 0.000000 0.322670
O O14 0.549877 0.500000 0.599360
O O15 0.080607 0.000000 0.811507
#
# Coordination Sequence:
#
# PCOD8101706 Si02
#       6
#     8   8   8   8   8   8
#     4   9  20  38  58  80 108 141 177 216 261 315
#     4   8  17  34  57  80 105 138 177 218 261 315
#     4  10  20  36  59  85 109 135 173 222 268 310
#     4  11  22  35  51  78 111 140 174 220 268 312
#     4   9  17  35  59  80 103 138 179 216 261 318
#     4  11  23  38  54  75 107 147 182 214 260 317
#
# _framework density 19.220877999999999
#
# number of rings (size 3 to 8) (size 9 to 14) (size 15 to 20)
#    0.000    2.333    0.000    3.500    0.000    5.333 
#    0.000    7.500    0.000    0.000    0.000    0.000 
#    0.000    0.000    0.000    0.000    0.000    0.000 
#
# Total GULP energy -297662.670425 kJ/mol
# GULP energy per Si atom -12402.611268 kJ/mol
# Density = 1.917713 g / cm^3
# Si number density = 19.220878 Si / 1000 Ang^3
#
#
#
# Elastic Constant Matrix: (Units=GPa)
#
#
# Indices 1 2 3 4 5 6 
#
# 1 76.7211 26.5205 36.7890 0.0000 1.8367 0.0000
# 2 26.5205 59.0564 28.2475 0.0000 1.5225 0.0000
# 3 36.7890 28.2475 81.7044 0.0000 2.2588 0.0000
# 4 0.0000 0.0000 0.0000 33.2078 0.0000 2.1149
# 5 1.8367 1.5225 2.2588 0.0000 23.1506 0.0000
# 6 0.0000 0.0000 0.0000 2.1149 0.0000 26.8056
#
#
#
# Elastic Compliance Matrix: (Units=1/GPa)
#
#
# Indices 1 2 3 4 5 6 
#
# 1 0.017770 -0.004969 -0.006270 0.000000 -0.000471 0.000000
# 2 -0.004969 0.021687 -0.005246 0.000000 -0.000520 0.000000
# 3 -0.006270 -0.005246 0.016899 0.000000 -0.000806 0.000000
# 4 0.000000 0.000000 0.000000 0.030265 0.000000 -0.002388
# 5 -0.000471 -0.000520 -0.000806 0.000000 0.043346 0.000000
# 6 0.000000 0.000000 0.000000 -0.002388 0.000000 0.037494
#
#
# Mechanical properties :
#
#
# Convention : Reuss Voigt Hill
#
# Bulk Modulus (GPa) = 42.76230 44.51065 43.63648
# Shear Modulus (GPa) = 24.01238 25.02779 24.52009
#
# Velocity S-wave (km/s) = 3.53836 3.61240 3.57557
# Velocity P-wave (km/s) = 6.24415 6.37236 6.30858
#
# Compressibility (1/GPa) = 0.02338508
#
# Stress axis : x y z
#
# Youngs Moduli (GPa) = 56.27543 46.11070 59.17621
#
# Poissons Ratio (x) = 0.22910 0.37106
# Poissons Ratio (y) = 0.27960 0.31045
# Poissons Ratio (z) = 0.35287 0.24191
#
# Static dielectric constant tensor:
#      x y z
#    x 3.726110 0.000000 -0.124620 
#    y 0.000000 3.324050 0.000000 
#    z -0.124620 0.000000 3.531520 
# 
# 
# High freq. dielectric constant tensor:
#      x y z
#    x 1.758280 0.000000 0.000320 
#    y 0.000000 1.735190 0.000000 
#    z 0.000320 0.000000 1.744880 
# 
# From -- ./inp_files/308284.got.cif
#   From: 2010.06.25/outbox.cif.g09.slc.cpg/sg12_155_cif.got.tgz:308284.got - 2010.06.28 00:19:55.
