data_PCOD8101187
_publ_section_title
;
Structure prediction by ZEFSAII (Michael W. Deem and Ramdas Pophale) SiO2 
 PCOD8101187
Probable space group: C 2/M
;
_chemical_formula_sum "Si O2"
_cell_formula_units_Z 52
_cell_length_a 12.811184
_cell_length_b 13.571934
_cell_length_c 22.092694
_cell_angle_alpha 90.000000
_cell_angle_beta 135.217657
_cell_angle_gamma 90.000000
_cell_volume 2705.880373
_symmetry_space_group_name_H-M "C 2/M"
_symmetry_group_IT_number 12
_symmetry_cell_setting 'monoclinic'
loop_
_space_group_symop_operation_xyz
x,y,z
-x,y,-z
-x,-y,-z
x,-y,z
1/2+x,1/2+y,z
1/2-x,1/2+y,-z
1/2-x,1/2-y,-z
1/2+x,1/2-y,z
loop_
_atom_site_type_symbol
_atom_site_label
_atom_site_fract_x
_atom_site_fract_y
_atom_site_fract_z
Si Si1 0.458794 0.112868 0.262994
Si Si2 0.036401 0.732205 0.950561
Si Si3 0.210252 0.615042 0.928287
Si Si4 0.000000 0.799404 0.500000
Si Si5 0.466203 0.385746 0.357023
Si Si6 0.816950 0.220549 0.642226
Si Si7 0.232512 0.220011 0.243689
O O1 0.381641 0.145710 0.168832
O O2 0.610015 0.172083 0.335398
O O3 0.346446 0.134466 0.271508
O O4 0.505430 0.000000 0.281770
O O5 0.112675 0.644569 0.945577
O O6 0.894023 0.773274 0.857944
O O7 0.136929 0.827112 0.005243
O O8 0.000000 0.683506 0.000000
O O9 0.246676 0.500000 0.944254
O O10 0.006697 0.867683 0.443583
O O11 0.142710 0.727981 0.556123
O O12 0.430487 0.500000 0.331789
O O13 0.603253 0.356300 0.369674
O O14 0.318465 0.324560 0.280625
O O15 0.835883 0.188059 0.720005
#
# Coordination Sequence:
#
# PCOD8101187 Si02
#       7
#     8   8   8   4   8   8   8
#     4  10  20  36  57  82 110 148 194 238 281 334
#     4  11  21  37  58  78 116 151 192 238 290 329
#     4  10  22  36  55  82 110 147 196 241 285 334
#     4  10  21  40  61  88 114 150 187 228 279 342
#     4  10  22  38  61  88 118 149 186 231 280 340
#     4  10  21  39  60  84 119 150 185 232 288 336
#     4  10  21  37  56  84 113 153 189 234 284 336
#
# _framework density 19.217404999999999
#
# number of rings (size 3 to 8) (size 9 to 14) (size 15 to 20)
#    0.000    1.846    3.077    0.692    0.000    5.538 
#    0.000    1.923    0.000    0.000    0.000    0.000 
#    0.000    0.000    0.000    0.000    0.000    0.000 
#
# Total GULP energy -322440.640634 kJ/mol
# GULP energy per Si atom -12401.563101 kJ/mol
# Density = 1.917367 g / cm^3
# Si number density = 19.217405 Si / 1000 Ang^3
#
#
#
# Elastic Constant Matrix: (Units=GPa)
#
#
# Indices 1 2 3 4 5 6 
#
# 1 123.3915 20.2038 31.1365 0.0000 -20.1532 0.0000
# 2 20.2038 62.6587 16.8971 0.0000 -4.4172 0.0000
# 3 31.1365 16.8971 85.0131 0.0000 2.9509 0.0000
# 4 0.0000 0.0000 0.0000 76.3118 0.0000 -16.2212
# 5 -20.1532 -4.4172 2.9509 0.0000 35.4046 0.0000
# 6 0.0000 0.0000 0.0000 -16.2212 0.0000 14.5978
#
#
#
# Elastic Compliance Matrix: (Units=1/GPa)
#
#
# Indices 1 2 3 4 5 6 
#
# 1 0.010294 -0.001933 -0.003591 0.000000 0.005917 0.000000
# 2 -0.001933 0.017431 -0.002802 0.000000 0.001308 0.000000
# 3 -0.003591 -0.002802 0.013758 0.000000 -0.003540 0.000000
# 4 0.000000 0.000000 0.000000 0.017157 0.000000 0.019065
# 5 0.005917 0.001308 -0.003540 0.000000 0.032071 0.000000
# 6 0.000000 0.000000 0.000000 0.019065 0.000000 0.089688
#
#
# Mechanical properties :
#
#
# Convention : Reuss Voigt Hill
#
# Bulk Modulus (GPa) = 40.27492 45.28201 42.77846
# Shear Modulus (GPa) = 24.35136 38.78457 31.56797
#
# Velocity S-wave (km/s) = 3.56357 4.49731 4.05739
# Velocity P-wave (km/s) = 6.15914 7.11210 6.65271
#
# Compressibility (1/GPa) = 0.02482935
#
# Stress axis : x y z
#
# Youngs Moduli (GPa) = 97.14835 57.37025 72.68533
#
# Poissons Ratio (x) = 0.11092 0.26103
# Poissons Ratio (y) = 0.18783 0.20364
# Poissons Ratio (z) = 0.34888 0.16074
#
# Static dielectric constant tensor:
#      x y z
#    x 3.892470 0.000000 -0.136950 
#    y 0.000000 3.163850 0.000000 
#    z -0.136950 0.000000 3.589580 
# 
# 
# High freq. dielectric constant tensor:
#      x y z
#    x 1.770280 0.000000 -0.004250 
#    y 0.000000 1.722860 0.000000 
#    z -0.004250 0.000000 1.754490 
# 
# From -- ./inp_files/305527.got.cif
#   From: 2010.06.25/outbox.cif.g09.slc.cpg/sg12_153_cif.got.tgz:305527.got - 2010.06.28 00:19:55.
