data_PCOD8101508
_publ_section_title
;
Structure prediction by ZEFSAII (Michael W. Deem and Ramdas Pophale) SiO2 
 PCOD8101508
Probable space group: C 2/M
;
_chemical_formula_sum "Si O2"
_cell_formula_units_Z 48
_cell_length_a 14.993833
_cell_length_b 8.529937
_cell_length_c 29.293838
_cell_angle_alpha 90.000000
_cell_angle_beta 139.775846
_cell_angle_gamma 90.000000
_cell_volume 2419.463666
_symmetry_space_group_name_H-M "C 2/M"
_symmetry_group_IT_number 12
_symmetry_cell_setting 'monoclinic'
loop_
_space_group_symop_operation_xyz
x,y,z
-x,y,-z
-x,-y,-z
x,-y,z
1/2+x,1/2+y,z
1/2-x,1/2+y,-z
1/2-x,1/2-y,-z
1/2+x,1/2-y,z
loop_
_atom_site_type_symbol
_atom_site_label
_atom_site_fract_x
_atom_site_fract_y
_atom_site_fract_z
Si Si1 0.914808 0.313543 0.184428
Si Si2 0.121664 0.817587 0.671087
Si Si3 0.391885 0.685261 0.921185
Si Si4 0.922409 0.683539 0.663360
Si Si5 0.094664 0.684213 0.170963
Si Si6 0.639764 0.182229 0.579423
O O1 0.915516 0.500000 0.185041
O O2 0.759919 0.244944 0.127218
O O3 0.003296 0.252638 0.261916
O O4 0.985951 0.252280 0.165915
O O5 0.251308 0.770685 0.753265
O O6 0.127187 0.715958 0.627856
O O7 0.982373 0.776866 0.643626
O O8 0.126667 0.000000 0.659706
O O9 0.386553 0.500000 0.923074
O O10 0.441223 0.731239 0.890164
O O11 0.500000 0.755245 0.000000
O O12 0.948809 0.500000 0.666462
O O13 0.760479 0.716853 0.603530
O O14 0.079503 0.500000 0.157903
O O15 0.500000 0.234371 0.500000
O O16 0.671470 0.000000 0.584180
#
# Coordination Sequence:
#
# PCOD8101508 Si02
#       6
#     8   8   8   8   8   8
#     4   9  18  35  57  83 115 151 192 239 293 348
#     4  11  22  38  62  92 120 155 203 248 298 360
#     4  10  21  37  57  84 119 156 194 240 295 354
#     4  11  21  38  64  90 119 158 199 248 302 351
#     4  10  20  36  58  84 114 151 195 243 293 349
#     4  11  25  43  62  89 124 158 196 247 302 357
#
# _framework density 19.839106999999998
#
# number of rings (size 3 to 8) (size 9 to 14) (size 15 to 20)
#    0.000    1.667    3.333    1.500    0.000    3.667 
#    0.000    0.833    0.000    0.000    0.000    0.000 
#    0.000    0.000    0.000    0.000    0.000    0.000 
#
# Total GULP energy -297714.175016 kJ/mol
# GULP energy per Si atom -12404.757292 kJ/mol
# Density = 1.979395 g / cm^3
# Si number density = 19.839107 Si / 1000 Ang^3
#
#
#
# Elastic Constant Matrix: (Units=GPa)
#
#
# Indices 1 2 3 4 5 6 
#
# 1 110.9617 6.3512 4.5906 0.0000 10.8450 0.0000
# 2 6.3512 25.5566 21.0390 0.0000 3.2977 0.0000
# 3 4.5906 21.0390 68.2680 0.0000 15.0952 0.0000
# 4 0.0000 0.0000 0.0000 24.3144 0.0000 -5.3099
# 5 10.8450 3.2977 15.0952 0.0000 31.4534 0.0000
# 6 0.0000 0.0000 0.0000 -5.3099 0.0000 30.8586
#
#
#
# Elastic Compliance Matrix: (Units=1/GPa)
#
#
# Indices 1 2 3 4 5 6 
#
# 1 0.009463 -0.002693 0.000954 0.000000 -0.003438 0.000000
# 2 -0.002693 0.053377 -0.017046 0.000000 0.003513 0.000000
# 3 0.000954 -0.017046 0.021831 0.000000 -0.009019 0.000000
# 4 0.000000 0.000000 0.000000 0.042734 0.000000 0.007353
# 5 -0.003438 0.003513 -0.009019 0.000000 0.036939 0.000000
# 6 0.000000 0.000000 0.000000 0.007353 0.000000 0.033671
#
#
# Mechanical properties :
#
#
# Convention : Reuss Voigt Hill
#
# Bulk Modulus (GPa) = 21.23068 29.86087 25.54577
# Shear Modulus (GPa) = 19.89770 28.84566 24.37168
#
# Velocity S-wave (km/s) = 3.17038 3.81725 3.50875
# Velocity P-wave (km/s) = 4.91186 5.87475 5.41475
#
# Compressibility (1/GPa) = 0.04710165
#
# Stress axis : x y z
#
# Youngs Moduli (GPa) = 105.67640 18.73460 45.80558
#
# Poissons Ratio (x) = 0.05046 -0.04370
# Poissons Ratio (y) = 0.28462 0.78078
# Poissons Ratio (z) = -0.10081 0.31934
#
# Static dielectric constant tensor:
#      x y z
#    x 3.766660 0.000000 0.101650 
#    y 0.000000 3.299110 0.000000 
#    z 0.101650 0.000000 3.716610 
# 
# 
# High freq. dielectric constant tensor:
#      x y z
#    x 1.789010 0.000000 0.000780 
#    y 0.000000 1.753890 0.000000 
#    z 0.000780 0.000000 1.771130 
# 
# From -- ./inp_files/267731.got.cif
#   From: 2010.06.25/outbox.cif.g09.slc.cpg/sg12_134_cif.got.tgz:267731.got - 2010.06.28 00:19:55.
