data_PCOD8101005
_publ_section_title
;
Structure prediction by ZEFSAII (Michael W. Deem and Ramdas Pophale) SiO2 
 PCOD8101005
Probable space group: C 2/M
;
_chemical_formula_sum "Si O2"
_cell_formula_units_Z 64
_cell_length_a 30.426560
_cell_length_b 8.473346
_cell_length_c 22.854686
_cell_angle_alpha 90.000000
_cell_angle_beta 32.041661
_cell_angle_gamma 90.000000
_cell_volume 3126.062916
_symmetry_space_group_name_H-M "C 2/M"
_symmetry_group_IT_number 12
_symmetry_cell_setting 'monoclinic'
loop_
_space_group_symop_operation_xyz
x,y,z
-x,y,-z
-x,-y,-z
x,-y,z
1/2+x,1/2+y,z
1/2-x,1/2+y,-z
1/2-x,1/2-y,-z
1/2+x,1/2-y,z
loop_
_atom_site_type_symbol
_atom_site_label
_atom_site_fract_x
_atom_site_fract_y
_atom_site_fract_z
Si Si1 0.135331 0.180824 0.475781
Si Si2 0.244690 0.319981 0.443863
Si Si3 0.990342 0.317202 0.706230
Si Si4 0.107549 0.317149 0.781542
Si Si5 0.185342 0.818933 0.118186
Si Si6 0.687495 0.181812 0.928481
Si Si7 0.021994 0.183427 0.153732
Si Si8 0.786947 0.684484 0.229374
O O1 0.183041 0.199139 0.482566
O O2 0.200354 0.254805 0.354423
O O3 0.048382 0.269364 0.585173
O O4 0.115039 0.000000 0.484440
O O5 0.212170 0.500000 0.477964
O O6 0.250000 0.250000 0.500000
O O7 0.336324 0.308230 0.315327
O O8 0.000503 0.500000 0.707178
O O9 0.898055 0.280546 0.789565
O O10 0.012836 0.233890 0.742971
O O11 0.127800 0.500000 0.744530
O O12 0.129882 0.285828 0.825025
O O13 0.016480 0.276113 0.859518
O O14 0.224288 0.803834 0.138919
O O15 0.165146 0.000000 0.125175
O O16 0.250000 0.750000 0.000000
O O17 0.697214 0.256566 0.852562
O O18 0.658338 0.000000 0.958592
O O19 0.619683 0.279254 0.041629
O O20 0.005360 0.000000 0.164355
O O21 0.770147 0.500000 0.242608
#
# Coordination Sequence:
#
# PCOD8101005 Si02
#       8
#     8   8   8   8   8   8   8   8
#     4  10  20  37  59  84 114 151 194 240 288 342
#     4  11  20  32  50  76 111 150 193 238 289 345
#     4  12  24  39  60  87 120 155 194 243 298 353
#     4  10  20  36  56  80 113 154 198 241 284 337
#     4  11  22  38  63  91 121 151 190 238 295 354
#     4  10  21  40  64  88 114 152 196 239 289 350
#     4  12  24  37  56  86 121 154 195 245 299 351
#     4   8  18  38  63  86 113 154 201 240 280 340
#
# _framework density 20.473037000000001
#
# number of rings (size 3 to 8) (size 9 to 14) (size 15 to 20)
#    0.000    1.500    1.250    6.000    0.000    1.000 
#    0.000    6.875    0.000    3.750    0.000    0.000 
#    0.000    0.000    0.000    0.000    0.000    0.000 
#
# Total GULP energy -396532.725955 kJ/mol
# GULP energy per Si atom -12391.647686 kJ/mol
# Density = 2.042644 g / cm^3
# Si number density = 20.473037 Si / 1000 Ang^3
#
#
#
# Elastic Constant Matrix: (Units=GPa)
#
#
# Indices 1 2 3 4 5 6 
#
# 1 86.3956 20.9198 16.9661 0.0031 0.3153 -0.0032
# 2 20.9198 85.8692 16.6358 0.0161 3.0727 0.0046
# 3 16.9661 16.6358 74.7955 0.0179 -9.8087 0.0007
# 4 0.0031 0.0161 0.0179 30.4341 0.0009 -6.1206
# 5 0.3153 3.0727 -9.8087 0.0009 29.6295 -0.0054
# 6 -0.0032 0.0046 0.0007 -6.1206 -0.0054 23.5217
#
#
#
# Elastic Compliance Matrix: (Units=1/GPa)
#
#
# Indices 1 2 3 4 5 6 
#
# 1 0.012675 -0.002603 -0.002382 0.000002 -0.000653 0.000003
# 2 -0.002603 0.012851 -0.002550 -0.000006 -0.002149 -0.000005
# 3 -0.002382 -0.002550 0.015174 -0.000008 0.005313 -0.000001
# 4 0.000002 -0.000006 -0.000008 0.034672 -0.000001 0.009022
# 5 -0.000653 -0.002149 0.005313 -0.000001 0.035739 0.000008
# 6 0.000003 -0.000005 -0.000001 0.009022 0.000008 0.044861
#
#
# Mechanical properties :
#
#
# Convention : Reuss Voigt Hill
#
# Bulk Modulus (GPa) = 39.01589 39.56709 39.29149
# Shear Modulus (GPa) = 27.84200 29.55298 28.69749
#
# Velocity S-wave (km/s) = 3.69173 3.80347 3.74802
# Velocity P-wave (km/s) = 6.10495 6.21747 6.16147
#
# Compressibility (1/GPa) = 0.02563058
#
# Stress axis : x y z
#
# Youngs Moduli (GPa) = 78.89475 77.81719 65.90272
#
# Poissons Ratio (x) = 0.20257 0.15697
# Poissons Ratio (y) = 0.20537 0.16802
# Poissons Ratio (z) = 0.18792 0.19840
#
# Static dielectric constant tensor:
#      x y z
#    x 3.801720 0.000040 0.011300 
#    y 0.000040 3.718820 0.000080 
#    z 0.011300 0.000080 3.865740 
# 
# 
# High freq. dielectric constant tensor:
#      x y z
#    x 1.793870 0.000000 -0.005830 
#    y 0.000000 1.790920 0.000010 
#    z -0.005830 0.000010 1.796180 
# 
# From -- ./inp_files/353347.got.cif
#   From: 2010.06.25/outbox.cif.g09.slc.cpg/sg12_177_cif.got.tgz:353347.got - 2010.06.28 00:19:55.
