data_PCOD8101078
_publ_section_title
;
Structure prediction by ZEFSAII (Michael W. Deem and Ramdas Pophale) SiO2 
 PCOD8101078
Probable space group: C 2/M
;
_chemical_formula_sum "Si O2"
_cell_formula_units_Z 64
_cell_length_a 27.577637
_cell_length_b 9.134693
_cell_length_c 14.295626
_cell_angle_alpha 90.000000
_cell_angle_beta 103.335181
_cell_angle_gamma 90.000000
_cell_volume 3504.158425
_symmetry_space_group_name_H-M "C 2/M"
_symmetry_group_IT_number 12
_symmetry_cell_setting 'monoclinic'
loop_
_space_group_symop_operation_xyz
x,y,z
-x,y,-z
-x,-y,-z
x,-y,z
1/2+x,1/2+y,z
1/2-x,1/2+y,-z
1/2-x,1/2-y,-z
1/2+x,1/2-y,z
loop_
_atom_site_type_symbol
_atom_site_label
_atom_site_fract_x
_atom_site_fract_y
_atom_site_fract_z
Si Si1 0.932088 0.332698 0.298621
Si Si2 0.158565 0.332478 0.106823
Si Si3 0.046908 0.672983 0.359152
Si Si4 0.301769 0.330863 0.535291
Si Si5 0.875513 0.172500 0.730224
Si Si6 0.265189 0.332896 0.099070
Si Si7 0.895264 0.172414 0.456167
Si Si8 0.356364 0.167061 0.111363
O O1 0.926149 0.500000 0.330613
O O2 0.901004 0.227637 0.353247
O O3 0.909823 0.313779 0.184282
O O4 0.989342 0.286926 0.319456
O O5 0.141522 0.500000 0.116755
O O6 0.132729 0.224650 0.168057
O O7 0.218501 0.319730 0.148911
O O8 0.141540 0.279621 0.995611
O O9 0.056475 0.500000 0.365197
O O10 0.076022 0.744780 0.286057
O O11 0.063949 0.742613 0.464322
O O12 0.288508 0.500000 0.528372
O O13 0.250000 0.250000 0.500000
O O14 0.327958 0.286540 0.644728
O O15 0.339587 0.291255 0.467741
O O16 0.885764 0.000000 0.731850
O O17 0.277068 0.500000 0.081143
O O18 0.316191 0.257109 0.156420
O O19 0.250000 0.250000 0.000000
O O20 0.905807 0.000000 0.468596
O O21 0.338007 0.000000 0.102836
#
# Coordination Sequence:
#
# PCOD8101078 Si02
#       8
#     8   8   8   8   8   8   8   8
#     4  10  21  36  55  79 105 136 174 216 263 312
#     4   9  18  33  53  75 101 138 178 212 252 305
#     4  10  20  36  57  78 101 133 175 217 259 313
#     4   9  20  36  52  75 106 137 168 205 251 301
#     4  10  21  36  54  77 104 135 173 215 260 310
#     4   9  17  30  49  73 101 134 172 211 253 303
#     4  10  21  36  54  79 109 138 171 212 259 312
#     4   9  19  35  52  75 108 139 173 219 263 305
#
# _framework density 18.264014
#
# number of rings (size 3 to 8) (size 9 to 14) (size 15 to 20)
#    0.000    2.500    0.000    3.375    0.000    9.500 
#    0.000    5.625    0.000    3.750    0.000    0.000 
#    0.000    0.000    0.000    0.000    0.000    0.000 
#
# Total GULP energy -396724.732197 kJ/mol
# GULP energy per Si atom -12397.647881 kJ/mol
# Density = 1.822244 g / cm^3
# Si number density = 18.264014 Si / 1000 Ang^3
#
#
#
# Elastic Constant Matrix: (Units=GPa)
#
#
# Indices 1 2 3 4 5 6 
#
# 1 120.2452 58.2272 63.8578 0.0000 7.7614 0.0000
# 2 58.2272 89.8553 45.2388 0.0000 -3.9218 0.0000
# 3 63.8578 45.2388 99.7385 0.0000 -6.1988 0.0000
# 4 0.0000 0.0000 0.0000 27.6677 0.0000 -4.4437
# 5 7.7614 -3.9218 -6.1988 0.0000 25.8931 0.0000
# 6 0.0000 0.0000 0.0000 -4.4437 0.0000 31.4039
#
#
#
# Elastic Compliance Matrix: (Units=1/GPa)
#
#
# Indices 1 2 3 4 5 6 
#
# 1 0.016347 -0.007025 -0.007766 0.000000 -0.007823 0.000000
# 2 -0.007025 0.017451 -0.003170 0.000000 0.003990 0.000000
# 3 -0.007766 -0.003170 0.016801 0.000000 0.005870 0.000000
# 4 0.000000 0.000000 0.000000 0.036984 0.000000 0.005233
# 5 -0.007823 0.003990 0.005870 0.000000 0.042975 0.000000
# 6 0.000000 0.000000 0.000000 0.005233 0.000000 0.032584
#
#
# Mechanical properties :
#
#
# Convention : Reuss Voigt Hill
#
# Bulk Modulus (GPa) = 68.12978 71.60962 69.86970
# Shear Modulus (GPa) = 24.51501 26.49395 25.50448
#
# Velocity S-wave (km/s) = 3.66766 3.81282 3.74094
# Velocity P-wave (km/s) = 7.43770 7.66007 7.54970
#
# Compressibility (1/GPa) = 0.01467787
#
# Stress axis : x y z
#
# Youngs Moduli (GPa) = 61.17187 57.30302 59.51909
#
# Poissons Ratio (x) = 0.40253 0.46225
# Poissons Ratio (y) = 0.42971 0.18867
# Poissons Ratio (z) = 0.47509 0.18164
#
# Static dielectric constant tensor:
#      x y z
#    x 3.381440 0.000000 -0.048690 
#    y 0.000000 3.526630 0.000000 
#    z -0.048690 0.000000 3.209050 
# 
# 
# High freq. dielectric constant tensor:
#      x y z
#    x 1.704880 0.000000 0.001250 
#    y 0.000000 1.715230 0.000000 
#    z 0.001250 0.000000 1.694170 
# 
# From -- ./inp_files/244092.got.cif
#   From: 2010.06.25/outbox.cif.g09.slc.cpg/sg12_123_cif.got.tgz:244092.got - 2010.06.28 00:19:55.
