data_PCOD8101876
_publ_section_title
;
Structure prediction by ZEFSAII (Michael W. Deem and Ramdas Pophale) SiO2 
 PCOD8101876
Probable space group: C 2/M
;
_chemical_formula_sum "Si O2"
_cell_formula_units_Z 64
_cell_length_a 29.864127
_cell_length_b 8.877382
_cell_length_c 22.240972
_cell_angle_alpha 90.000000
_cell_angle_beta 148.159541
_cell_angle_gamma 90.000000
_cell_volume 3110.691235
_symmetry_space_group_name_H-M "C 2/M"
_symmetry_group_IT_number 12
_symmetry_cell_setting 'monoclinic'
loop_
_space_group_symop_operation_xyz
x,y,z
-x,y,-z
-x,-y,-z
x,-y,z
1/2+x,1/2+y,z
1/2-x,1/2+y,-z
1/2-x,1/2-y,-z
1/2+x,1/2-y,z
loop_
_atom_site_type_symbol
_atom_site_label
_atom_site_fract_x
_atom_site_fract_y
_atom_site_fract_z
Si Si1 0.023049 0.821878 0.653342
Si Si2 0.127463 0.826865 0.980997
Si Si3 0.503543 0.177615 0.250942
Si Si4 0.179057 0.676483 0.775903
Si Si5 0.278141 0.824136 0.698548
Si Si6 0.375483 0.177045 0.420029
Si Si7 0.912383 0.172873 0.930609
Si Si8 0.327179 0.823484 0.622447
O O1 0.988180 0.759517 0.676204
O O2 0.119370 0.768556 0.752958
O O3 0.965693 0.756566 0.533849
O O4 0.018351 0.000000 0.648267
O O5 0.225057 0.777760 0.099101
O O6 0.079104 0.801577 0.988709
O O7 0.120754 0.000000 0.952795
O O8 0.083659 0.723726 0.881101
O O9 0.583068 0.232498 0.301482
O O10 0.503615 0.000000 0.261644
O O11 0.163328 0.500000 0.767547
O O12 0.159418 0.722883 0.685047
O O13 0.190335 0.734028 0.604669
O O14 0.339961 0.781119 0.823259
O O15 0.322798 0.776931 0.687266
O O16 0.257185 0.000000 0.677327
O O17 0.388363 0.000000 0.441292
O O18 0.886861 0.000000 0.887406
O O19 0.000000 0.218956 0.000000
O O20 0.250000 0.750000 0.500000
O O21 0.318182 0.000000 0.603840
#
# Coordination Sequence:
#
# PCOD8101876 Si02
#       8
#     8   8   8   8   8   8   8   8
#     4  12  26  42  63  93 124 158 207 262 317 373
#     4  10  21  40  63  91 125 162 206 257 305 362
#     4  11  24  43  64  89 123 167 213 255 310 372
#     4  10  22  42  66  91 124 164 206 252 310 372
#     4  11  22  36  58  90 126 159 200 252 308 363
#     4  11  22  41  66  93 127 164 205 253 310 375
#     4  10  20  36  59  88 121 161 206 248 301 365
#     4  10  23  40  59  87 122 162 208 254 303 364
#
# _framework density 20.574204999999999
#
# number of rings (size 3 to 8) (size 9 to 14) (size 15 to 20)
#    0.000    1.375    1.250    4.125    0.000    8.250 
#    0.000    0.000    0.000    0.000    0.000    0.000 
#    0.000    0.000    0.000    0.000    0.000    0.000 
#
# Total GULP energy -397017.367622 kJ/mol
# GULP energy per Si atom -12406.792738 kJ/mol
# Density = 2.052738 g / cm^3
# Si number density = 20.574205 Si / 1000 Ang^3
#
#
#
# Elastic Constant Matrix: (Units=GPa)
#
#
# Indices 1 2 3 4 5 6 
#
# 1 86.4559 33.5307 23.7928 0.0000 13.7558 0.0000
# 2 33.5307 71.6956 36.8748 0.0000 3.0529 0.0000
# 3 23.7928 36.8748 113.7277 0.0000 3.9056 0.0000
# 4 0.0000 0.0000 0.0000 38.6870 0.0000 -0.1162
# 5 13.7558 3.0529 3.9056 0.0000 34.9965 0.0000
# 6 0.0000 0.0000 0.0000 -0.1162 0.0000 31.5296
#
#
#
# Elastic Compliance Matrix: (Units=1/GPa)
#
#
# Indices 1 2 3 4 5 6 
#
# 1 0.015136 -0.006383 -0.000915 0.000000 -0.005290 0.000000
# 2 -0.006383 0.019457 -0.005020 0.000000 0.001372 0.000000
# 3 -0.000915 -0.005020 0.010626 0.000000 -0.000388 0.000000
# 4 0.000000 0.000000 0.000000 0.025849 0.000000 0.000095
# 5 -0.005290 0.001372 -0.000388 0.000000 0.030577 0.000000
# 6 0.000000 0.000000 0.000000 0.000095 0.000000 0.031717
#
#
# Mechanical properties :
#
#
# Convention : Reuss Voigt Hill
#
# Bulk Modulus (GPa) = 48.58820 51.14174 49.86497
# Shear Modulus (GPa) = 30.32925 32.88803 31.60864
#
# Velocity S-wave (km/s) = 3.84362 4.00247 3.92385
# Velocity P-wave (km/s) = 6.58523 6.80227 6.69463
#
# Compressibility (1/GPa) = 0.02058113
#
# Stress axis : x y z
#
# Youngs Moduli (GPa) = 66.06929 51.39650 94.11278
#
# Poissons Ratio (x) = 0.32804 0.08615
# Poissons Ratio (y) = 0.42169 0.47248
# Poissons Ratio (z) = 0.06048 0.25803
#
# Static dielectric constant tensor:
#      x y z
#    x 3.891100 0.000000 0.193390 
#    y 0.000000 3.623720 0.000000 
#    z 0.193390 0.000000 3.539020 
# 
# 
# High freq. dielectric constant tensor:
#      x y z
#    x 1.814410 0.000000 0.006160 
#    y 0.000000 1.799560 0.000000 
#    z 0.006160 0.000000 1.811440 
# 
# From -- ./inp_files/353490.got.cif
#   From: 2010.06.25/outbox.cif.g09.slc.cpg/sg12_177_cif.got.tgz:353490.got - 2010.06.28 00:19:55.
