data_PCOD8101023
_publ_section_title
;
Structure prediction by ZEFSAII (Michael W. Deem and Ramdas Pophale) SiO2 
 PCOD8101023
Probable space group: C 2/M
;
_chemical_formula_sum "Si O2"
_cell_formula_units_Z 64
_cell_length_a 24.471380
_cell_length_b 8.737670
_cell_length_c 29.462267
_cell_angle_alpha 90.000000
_cell_angle_beta 148.864146
_cell_angle_gamma 90.000000
_cell_volume 3257.382862
_symmetry_space_group_name_H-M "C 2/M"
_symmetry_group_IT_number 12
_symmetry_cell_setting 'monoclinic'
loop_
_space_group_symop_operation_xyz
x,y,z
-x,y,-z
-x,-y,-z
x,-y,z
1/2+x,1/2+y,z
1/2-x,1/2+y,-z
1/2-x,1/2-y,-z
1/2+x,1/2-y,z
loop_
_atom_site_type_symbol
_atom_site_label
_atom_site_fract_x
_atom_site_fract_y
_atom_site_fract_z
Si Si1 0.557524 0.181028 0.762224
Si Si2 0.865384 0.680684 0.087109
Si Si3 0.263820 0.677100 0.857193
Si Si4 0.638364 0.817630 0.434128
Si Si5 0.341629 0.818708 0.362047
Si Si6 0.558125 0.819166 0.473571
Si Si7 0.449106 0.323553 0.059211
Si Si8 0.159412 0.678378 0.178265
O O1 0.578858 0.246463 0.827742
O O2 0.650375 0.231990 0.794357
O O3 0.446349 0.240868 0.663367
O O4 0.556440 0.000000 0.763962
O O5 0.852458 0.500000 0.080716
O O6 0.940001 0.726230 0.098564
O O7 0.750000 0.750000 0.000000
O O8 0.263401 0.500000 0.841085
O O9 0.288872 0.784829 0.833023
O O10 0.346381 0.704121 0.955984
O O11 0.750000 0.750000 0.500000
O O12 0.602530 0.752296 0.457892
O O13 0.645278 0.000000 0.440159
O O14 0.438235 0.764201 0.398279
O O15 0.366002 0.769420 0.431132
O O16 0.236158 0.730548 0.273227
O O17 0.323733 0.000000 0.345154
O O18 0.554836 0.000000 0.468603
O O19 0.461274 0.500000 0.081081
O O20 0.550056 0.269237 0.102981
O O21 0.136147 0.500000 0.166075
#
# Coordination Sequence:
#
# PCOD8101023 Si02
#       8
#     8   8   8   8   8   8   8   8
#     4   9  19  37  62  87 113 152 195 233 286 347
#     4  11  21  38  61  88 119 153 194 241 289 345
#     4  10  20  39  63  83 107 147 198 241 285 348
#     4  10  20  36  56  81 115 149 185 233 282 336
#     4   9  17  35  61  85 106 140 189 239 287 342
#     4   8  16  33  61  86 105 138 191 243 284 329
#     4  11  23  40  61  84 110 151 199 243 290 342
#     4  12  25  37  52  84 123 154 185 231 295 355
#
# _framework density 19.647676000000001
#
# number of rings (size 3 to 8) (size 9 to 14) (size 15 to 20)
#    0.000    2.000    1.250    3.750    0.000    5.500 
#    0.000    8.125    0.000    0.000    0.000    0.000 
#    0.000    0.000    0.000    0.000    0.000    0.000 
#
# Total GULP energy -396847.846533 kJ/mol
# GULP energy per Si atom -12401.495204 kJ/mol
# Density = 1.960296 g / cm^3
# Si number density = 19.647676 Si / 1000 Ang^3
#
#
#
# Elastic Constant Matrix: (Units=GPa)
#
#
# Indices 1 2 3 4 5 6 
#
# 1 94.1838 14.8501 73.1346 0.0001 -14.0707 0.0001
# 2 14.8501 42.1980 44.0616 0.0003 -7.0586 0.0007
# 3 73.1346 44.0616 131.1581 -0.0001 8.2088 0.0000
# 4 0.0001 0.0003 -0.0001 25.5676 -0.0001 4.1800
# 5 -14.0707 -7.0586 8.2088 -0.0001 31.6248 0.0000
# 6 0.0001 0.0007 0.0000 4.1800 0.0000 30.6867
#
#
#
# Elastic Compliance Matrix: (Units=1/GPa)
#
#
# Indices 1 2 3 4 5 6 
#
# 1 0.031049 0.019938 -0.025570 0.000000 0.024902 -0.000001
# 2 0.019938 0.053958 -0.031058 -0.000001 0.028976 -0.000001
# 3 -0.025570 -0.031058 0.034014 0.000000 -0.027138 0.000001
# 4 0.000000 -0.000001 0.000000 0.040003 0.000000 -0.005449
# 5 0.024902 0.028976 -0.027138 0.000000 0.056212 -0.000001
# 6 -0.000001 -0.000001 0.000001 -0.005449 -0.000001 0.033330
#
#
# Mechanical properties :
#
#
# Convention : Reuss Voigt Hill
#
# Bulk Modulus (GPa) = 21.90965 59.07027 40.48996
# Shear Modulus (GPa) = 14.82982 26.60872 20.71927
#
# Velocity S-wave (km/s) = 2.75032 3.68407 3.25089
# Velocity P-wave (km/s) = 4.61098 6.94453 5.89439
#
# Compressibility (1/GPa) = 0.04564199
#
# Stress axis : x y z
#
# Youngs Moduli (GPa) = 32.20682 18.53308 29.39937
#
# Poissons Ratio (x) = -0.36951 0.75174
# Poissons Ratio (y) = -0.64213 0.91307
# Poissons Ratio (z) = 0.82352 0.57559
#
# Static dielectric constant tensor:
#      x y z
#    x 3.951590 0.000000 -0.204540 
#    y 0.000000 3.263320 0.000000 
#    z -0.204540 0.000000 3.812280 
# 
# 
# High freq. dielectric constant tensor:
#      x y z
#    x 1.773920 0.000000 -0.005300 
#    y 0.000000 1.733660 0.000000 
#    z -0.005300 0.000000 1.777410 
# 
# From -- ./inp_files/382442.got.cif
#   From: 2010.06.25/outbox.cif.g09.slc.cpg/sg12_192_cif.got.tgz:382442.got - 2010.06.28 00:19:55.
