data_PCOD8101826
_publ_section_title
;
Structure prediction by ZEFSAII (Michael W. Deem and Ramdas Pophale) SiO2 
 PCOD8101826
Probable space group: C 2/M
;
_chemical_formula_sum "Si O2"
_cell_formula_units_Z 44
_cell_length_a 13.094994
_cell_length_b 19.249636
_cell_length_c 21.711500
_cell_angle_alpha 90.000000
_cell_angle_beta 23.439773
_cell_angle_gamma 90.000000
_cell_volume 2177.037538
_symmetry_space_group_name_H-M "C 2/M"
_symmetry_group_IT_number 12
_symmetry_cell_setting 'monoclinic'
loop_
_space_group_symop_operation_xyz
x,y,z
-x,y,-z
-x,-y,-z
x,-y,z
1/2+x,1/2+y,z
1/2-x,1/2+y,-z
1/2-x,1/2-y,-z
1/2+x,1/2-y,z
loop_
_atom_site_type_symbol
_atom_site_label
_atom_site_fract_x
_atom_site_fract_y
_atom_site_fract_z
Si Si1 0.945373 0.578005 0.295240
Si Si2 0.000000 0.871685 0.000000
Si Si3 0.516981 0.581679 0.632451
Si Si4 0.295700 0.579878 0.338525
Si Si5 0.984878 0.819020 0.875292
Si Si6 0.901131 0.328172 0.202524
O O1 0.885351 0.500000 0.304531
O O2 0.768029 0.595623 0.451800
O O3 0.876651 0.633245 0.281013
O O4 0.245710 0.581012 0.146194
O O5 0.990323 0.822461 0.946072
O O6 0.440113 0.500000 0.672182
O O7 0.584443 0.606942 0.663809
O O8 0.279682 0.630216 0.744312
O O9 0.359043 0.500000 0.297181
O O10 0.408857 0.612549 0.214672
O O11 0.000000 0.596713 0.500000
O O12 0.163755 0.753936 0.754063
O O13 0.688933 0.820031 0.016368
#
# Coordination Sequence:
#
# PCOD8101826 Si02
#       6
#     8   4   8   8   8   8
#     4  10  20  36  59  87 117 149 192 239 284 341
#     4  10  21  38  60  82 109 154 196 238 289 338
#     4  10  21  37  60  88 118 153 192 239 292 343
#     4  10  22  40  60  84 116 152 192 240 290 343
#     4  10  23  40  58  82 115 151 193 237 286 348
#     4  10  22  38  57  84 117 151 189 239 291 339
#
# _framework density 20.210951000000001
#
# number of rings (size 3 to 8) (size 9 to 14) (size 15 to 20)
#    0.000    2.000    0.000    2.455    0.000   13.818 
#    0.000    4.545    0.000    0.000    0.000    0.000 
#    0.000    0.000    0.000    0.000    0.000    0.000 
#
# Total GULP energy -272698.988532 kJ/mol
# GULP energy per Si atom -12395.408570 kJ/mol
# Density = 2.016495 g / cm^3
# Si number density = 20.210951 Si / 1000 Ang^3
#
#
#
# Elastic Constant Matrix: (Units=GPa)
#
#
# Indices 1 2 3 4 5 6 
#
# 1 143.6085 67.1085 55.1464 -0.5861 -4.8937 5.8752
# 2 67.1085 113.4039 44.0056 -1.3407 9.6704 15.9952
# 3 55.1464 44.0056 88.1433 -1.3368 -2.3694 13.6271
# 4 -0.5861 -1.3407 -1.3368 33.9130 -0.0698 -35.2778
# 5 -4.8937 9.6704 -2.3694 -0.0698 34.2295 -1.1977
# 6 5.8752 15.9952 13.6271 -35.2778 -1.1977 311.6833
#
#
#
# Elastic Compliance Matrix: (Units=1/GPa)
#
#
# Indices 1 2 3 4 5 6 
#
# 1 0.011135 -0.005174 -0.004349 0.000101 0.002762 0.000268
# 2 -0.005174 0.013808 -0.003716 -0.000211 -0.004915 -0.000491
# 3 -0.004349 -0.003716 0.016028 -0.000030 0.001523 -0.000426
# 4 0.000101 -0.000211 -0.000030 0.033428 0.000273 0.003795
# 5 0.002762 -0.004915 0.001523 0.000273 0.031114 0.000284
# 6 0.000268 -0.000491 -0.000426 0.003795 0.000284 0.003678
#
#
# Mechanical properties :
#
#
# Convention : Reuss Voigt Hill
#
# Bulk Modulus (GPa) = 69.00081 75.29741 72.14911
# Shear Modulus (GPa) = 35.58795 87.89150 61.73972
#
# Velocity S-wave (km/s) = 4.20077 6.60163 5.53299
# Velocity P-wave (km/s) = 7.59889 9.76961 8.75181
#
# Compressibility (1/GPa) = 0.01449258
#
# Stress axis : x y z
#
# Youngs Moduli (GPa) = 89.80990 72.42440 62.39248
#
# Poissons Ratio (x) = 0.37469 0.27135
# Poissons Ratio (y) = 0.46464 0.23185
# Poissons Ratio (z) = 0.39059 0.26913
#
# Static dielectric constant tensor:
#      x y z
#    x 3.746110 0.000390 -0.137140 
#    y 0.000390 3.729400 0.000290 
#    z -0.137140 0.000290 3.674080 
# 
# 
# High freq. dielectric constant tensor:
#      x y z
#    x 1.794460 0.000020 -0.004220 
#    y 0.000020 1.790390 0.000020 
#    z -0.004220 0.000020 1.789390 
# 
# From -- ./inp_files/341053.got.cif
#   From: 2010.06.25/outbox.cif.g09.slc.cpg/sg12_171_cif.got.tgz:341053.got - 2010.06.28 00:19:55.
