data_PCOD8101548
_publ_section_title
;
Structure prediction by ZEFSAII (Michael W. Deem and Ramdas Pophale) SiO2 
 PCOD8101548
Probable space group: C 2/M
;
_chemical_formula_sum "Si O2"
_cell_formula_units_Z 64
_cell_length_a 25.187811
_cell_length_b 8.842610
_cell_length_c 15.187525
_cell_angle_alpha 90.000000
_cell_angle_beta 70.446204
_cell_angle_gamma 90.000000
_cell_volume 3187.570810
_symmetry_space_group_name_H-M "C 2/M"
_symmetry_group_IT_number 12
_symmetry_cell_setting 'monoclinic'
loop_
_space_group_symop_operation_xyz
x,y,z
-x,y,-z
-x,-y,-z
x,-y,z
1/2+x,1/2+y,z
1/2-x,1/2+y,-z
1/2-x,1/2-y,-z
1/2+x,1/2-y,z
loop_
_atom_site_type_symbol
_atom_site_label
_atom_site_fract_x
_atom_site_fract_y
_atom_site_fract_z
Si Si1 0.625458 0.176234 0.733748
Si Si2 0.036373 0.171952 0.393270
Si Si3 0.709712 0.174630 0.179364
Si Si4 0.499692 0.175718 0.244749
Si Si5 0.827713 0.320892 0.107472
Si Si6 0.188770 0.178067 0.536487
Si Si7 0.385108 0.179174 0.901237
Si Si8 0.353438 0.173492 0.612290
O O1 0.558485 0.203709 0.773941
O O2 0.649472 0.241070 0.812172
O O3 0.653990 0.267259 0.639463
O O4 0.639850 0.000000 0.712777
O O5 0.997501 0.227720 0.335054
O O6 0.089777 0.281145 0.369422
O O7 0.000000 0.187152 0.500000
O O8 0.056175 0.000000 0.366879
O O9 0.764438 0.269091 0.124524
O O10 0.658056 0.238385 0.149524
O O11 0.696972 0.195369 0.290089
O O12 0.720990 0.000000 0.150712
O O13 0.551574 0.234323 0.155705
O O14 0.507411 0.000000 0.264957
O O15 0.829294 0.500000 0.107415
O O16 0.867002 0.257277 0.006888
O O17 0.250000 0.250000 0.500000
O O18 0.155366 0.220853 0.466826
O O19 0.195627 0.000000 0.537879
O O20 0.383484 0.000000 0.903287
O O21 0.357368 0.000000 0.578796
#
# Coordination Sequence:
#
# PCOD8101548 Si02
#       8
#     8   8   8   8   8   8   8   8
#     4  10  22  39  60  88 118 156 203 246 298 358
#     4  11  23  37  55  84 118 151 192 241 293 348
#     4  10  20  36  58  85 118 153 193 238 295 359
#     4  10  20  38  61  83 116 158 198 244 296 356
#     4  10  21  36  58  87 118 152 196 248 297 351
#     4  12  25  41  61  86 120 160 201 248 297 350
#     4   9  18  36  59  86 118 152 195 246 298 350
#     4  11  22  38  61  87 116 154 195 240 296 355
#
# _framework density 20.077985999999999
#
# number of rings (size 3 to 8) (size 9 to 14) (size 15 to 20)
#    0.000    1.625    1.250    3.750    0.000    7.500 
#    0.000    3.125    0.000    0.000    0.000    2.625 
#    0.000    0.000    0.000    0.000    0.000    0.000 
#
# Total GULP energy -396918.884740 kJ/mol
# GULP energy per Si atom -12403.715148 kJ/mol
# Density = 2.003229 g / cm^3
# Si number density = 20.077986 Si / 1000 Ang^3
#
#
#
# Elastic Constant Matrix: (Units=GPa)
#
#
# Indices 1 2 3 4 5 6 
#
# 1 112.1610 27.9770 49.4654 0.0000 -8.9638 0.0000
# 2 27.9770 64.3919 43.2451 0.0000 -6.0911 0.0000
# 3 49.4654 43.2451 135.4538 0.0000 -0.9562 0.0000
# 4 0.0000 0.0000 0.0000 14.8309 0.0000 -4.8688
# 5 -8.9638 -6.0911 -0.9562 0.0000 33.6630 0.0000
# 6 0.0000 0.0000 0.0000 -4.8688 0.0000 29.7355
#
#
#
# Elastic Compliance Matrix: (Units=1/GPa)
#
#
# Indices 1 2 3 4 5 6 
#
# 1 0.011163 -0.002409 -0.003290 0.000000 0.002443 0.000000
# 2 -0.002409 0.020685 -0.005703 0.000000 0.002939 0.000000
# 3 -0.003290 -0.005703 0.010394 0.000000 -0.001613 0.000000
# 4 0.000000 0.000000 0.000000 0.071257 0.000000 0.011668
# 5 0.002443 0.002939 -0.001613 0.000000 0.030843 0.000000
# 6 0.000000 0.000000 0.000000 0.011668 0.000000 0.035540
#
#
# Mechanical properties :
#
#
# Convention : Reuss Voigt Hill
#
# Bulk Modulus (GPa) = 51.45084 61.48685 56.46884
# Shear Modulus (GPa) = 23.90444 28.40049 26.15246
#
# Velocity S-wave (km/s) = 3.45422 3.76508 3.61299
# Velocity P-wave (km/s) = 6.44903 7.04213 6.75209
#
# Compressibility (1/GPa) = 0.01943603
#
# Stress axis : x y z
#
# Youngs Moduli (GPa) = 89.58180 48.34400 96.21380
#
# Poissons Ratio (x) = 0.11648 0.31655
# Poissons Ratio (y) = 0.21584 0.54874
# Poissons Ratio (z) = 0.29473 0.27572
#
# Static dielectric constant tensor:
#      x y z
#    x 3.736280 0.000000 0.006190 
#    y 0.000000 3.496120 0.000000 
#    z 0.006190 0.000000 3.919470 
# 
# 
# High freq. dielectric constant tensor:
#      x y z
#    x 1.790720 0.000000 -0.002180 
#    y 0.000000 1.763960 0.000000 
#    z -0.002180 0.000000 1.795230 
# 
# From -- ./inp_files/243776.got.cif
#   From: 2010.06.25/outbox.cif.g09.slc.cpg/sg12_122_cif.got.tgz:243776.got - 2010.06.28 00:19:55.
