data_PCOD8101542
_publ_section_title
;
Structure prediction by ZEFSAII (Michael W. Deem and Ramdas Pophale) SiO2 
 PCOD8101542
Probable space group: C 2/M
;
_chemical_formula_sum "Si O2"
_cell_formula_units_Z 64
_cell_length_a 15.442978
_cell_length_b 8.703591
_cell_length_c 23.889806
_cell_angle_alpha 90.000000
_cell_angle_beta 90.809382
_cell_angle_gamma 90.000000
_cell_volume 3210.693258
_symmetry_space_group_name_H-M "C 2/M"
_symmetry_group_IT_number 12
_symmetry_cell_setting 'monoclinic'
loop_
_space_group_symop_operation_xyz
x,y,z
-x,y,-z
-x,-y,-z
x,-y,z
1/2+x,1/2+y,z
1/2-x,1/2+y,-z
1/2-x,1/2-y,-z
1/2+x,1/2-y,z
loop_
_atom_site_type_symbol
_atom_site_label
_atom_site_fract_x
_atom_site_fract_y
_atom_site_fract_z
Si Si1 0.413693 0.682883 0.367995
Si Si2 0.253424 0.317723 0.438802
Si Si3 0.842518 0.183714 0.129143
Si Si4 0.343181 0.679642 0.868467
Si Si5 0.351261 0.173686 0.752672
Si Si6 0.908997 0.681942 0.633748
Si Si7 0.849672 0.173007 0.252257
Si Si8 0.499360 0.823596 0.066034
O O1 0.410950 0.500000 0.365504
O O2 0.340085 0.743149 0.409352
O O3 0.505140 0.742871 0.391551
O O4 0.397768 0.753240 0.305144
O O5 0.252530 0.500000 0.442095
O O6 0.250000 0.250000 0.500000
O O7 0.171527 0.256159 0.402872
O O8 0.744168 0.232265 0.114188
O O9 0.867500 0.248797 0.191541
O O10 0.908116 0.256335 0.085900
O O11 0.846711 0.000000 0.126987
O O12 0.326169 0.500000 0.874190
O O13 0.371964 0.717574 0.805277
O O14 0.420549 0.727604 0.909738
O O15 0.402054 0.233914 0.698615
O O16 0.251384 0.177704 0.734791
O O17 0.378368 0.000000 0.769124
O O18 0.914341 0.500000 0.629831
O O19 0.883422 0.000000 0.248392
O O20 0.507879 0.000000 0.085046
O O21 0.500000 0.806405 0.000000
#
# Coordination Sequence:
#
# PCOD8101542 Si02
#       8
#     8   8   8   8   8   8   8   8
#     4  10  20  36  58  85 116 152 193 238 292 354
#     4  10  22  41  62  81 113 157 198 241 290 346
#     4  10  21  39  64  92 123 160 201 250 306 359
#     4  11  23  39  61  91 125 162 203 248 302 362
#     4   9  17  35  60  84 117 157 196 240 297 358
#     4  10  21  37  58  86 116 153 194 241 297 350
#     4   8  15  32  58  84 114 151 189 232 289 352
#     4  11  25  44  64  88 121 162 208 254 301 358
#
# _framework density 19.933389999999999
#
# number of rings (size 3 to 8) (size 9 to 14) (size 15 to 20)
#    0.000    2.125    1.250    2.625    1.750    3.500 
#    0.000    5.000    0.000    0.000    0.000    0.000 
#    0.000    0.000    0.000    0.000    0.000    0.000 
#
# Total GULP energy -396763.179530 kJ/mol
# GULP energy per Si atom -12398.849360 kJ/mol
# Density = 1.988802 g / cm^3
# Si number density = 19.933390 Si / 1000 Ang^3
#
#
#
# Elastic Constant Matrix: (Units=GPa)
#
#
# Indices 1 2 3 4 5 6 
#
# 1 131.3245 24.5736 66.7624 0.0000 -10.5867 0.0000
# 2 24.5736 52.4871 36.1994 0.0000 -1.7437 0.0000
# 3 66.7624 36.1994 109.6380 0.0000 -8.2146 0.0000
# 4 0.0000 0.0000 0.0000 27.4881 0.0000 -0.0666
# 5 -10.5867 -1.7437 -8.2146 0.0000 25.2764 0.0000
# 6 0.0000 0.0000 0.0000 -0.0666 0.0000 31.9825
#
#
#
# Elastic Compliance Matrix: (Units=1/GPa)
#
#
# Indices 1 2 3 4 5 6 
#
# 1 0.011208 -0.000761 -0.006381 0.000000 0.002568 0.000000
# 2 -0.000761 0.024745 -0.007792 0.000000 -0.001144 0.000000
# 3 -0.006381 -0.007792 0.015722 0.000000 0.001899 0.000000
# 4 0.000000 0.000000 0.000000 0.036380 0.000000 0.000076
# 5 0.002568 -0.001144 0.001899 0.000000 0.041177 0.000000
# 6 0.000000 0.000000 0.000000 0.000076 0.000000 0.031267
#
#
# Mechanical properties :
#
#
# Convention : Reuss Voigt Hill
#
# Bulk Modulus (GPa) = 45.86024 60.94672 53.40348
# Shear Modulus (GPa) = 25.29894 28.01034 26.65464
#
# Velocity S-wave (km/s) = 3.56641 3.75266 3.66072
# Velocity P-wave (km/s) = 6.32580 7.02981 6.68708
#
# Compressibility (1/GPa) = 0.02180538
#
# Stress axis : x y z
#
# Youngs Moduli (GPa) = 89.21914 40.41240 63.60537
#
# Poissons Ratio (x) = 0.03076 0.40590
# Poissons Ratio (y) = 0.06790 0.49564
# Poissons Ratio (z) = 0.56935 0.31491
#
# Static dielectric constant tensor:
#      x y z
#    x 3.725450 0.000000 -0.026280 
#    y 0.000000 3.390910 0.000000 
#    z -0.026280 0.000000 3.726730 
# 
# 
# High freq. dielectric constant tensor:
#      x y z
#    x 1.784640 0.000000 -0.002110 
#    y 0.000000 1.756450 0.000000 
#    z -0.002110 0.000000 1.779500 
# 
# From -- ./inp_files/338752.got.cif
#   From: 2010.06.25/outbox.cif.g09.slc.cpg/sg12_170_cif.got.tgz:338752.got - 2010.06.28 00:19:55.
