data_PCOD8101052
_publ_section_title
;
Structure prediction by ZEFSAII (Michael W. Deem and Ramdas Pophale) SiO2 
 PCOD8101052
Probable space group: C 2/M
;
_chemical_formula_sum "Si O2"
_cell_formula_units_Z 44
_cell_length_a 17.265833
_cell_length_b 12.644266
_cell_length_c 16.772523
_cell_angle_alpha 90.000000
_cell_angle_beta 141.421530
_cell_angle_gamma 90.000000
_cell_volume 2283.367574
_symmetry_space_group_name_H-M "C 2/M"
_symmetry_group_IT_number 12
_symmetry_cell_setting 'monoclinic'
loop_
_space_group_symop_operation_xyz
x,y,z
-x,y,-z
-x,-y,-z
x,-y,z
1/2+x,1/2+y,z
1/2-x,1/2+y,-z
1/2-x,1/2-y,-z
1/2+x,1/2-y,z
loop_
_atom_site_type_symbol
_atom_site_label
_atom_site_fract_x
_atom_site_fract_y
_atom_site_fract_z
Si Si1 0.964557 0.380880 0.848818
Si Si2 0.500000 0.768622 0.500000
Si Si3 0.745186 0.621760 0.277341
Si Si4 0.642594 0.281348 0.352218
Si Si5 0.682606 0.809779 0.125512
Si Si6 0.538087 0.623427 0.672409
O O1 0.000533 0.500000 0.855249
O O2 0.910784 0.327517 0.726377
O O3 0.862192 0.383120 0.837008
O O4 0.088321 0.318747 0.975969
O O5 0.611867 0.846030 0.608782
O O6 0.469766 0.691320 0.549204
O O7 0.728981 0.500000 0.241843
O O8 0.691683 0.643902 0.321596
O O9 0.677973 0.689209 0.153929
O O10 0.750000 0.250000 0.500000
O O11 0.530778 0.346809 0.301625
O O12 0.817178 0.847051 0.205093
O O13 0.521592 0.500000 0.640510
#
# Coordination Sequence:
#
# PCOD8101052 Si02
#       6
#     8   4   8   8   8   8
#     4  10  20  39  64  85 115 154 191 242 290 336
#     4  10  20  36  56  84 112 146 204 234 270 354
#     4  10  20  37  58  81 116 155 187 237 291 337
#     4  11  23  39  52  86 123 151 196 233 281 357
#     4   9  20  38  61  90 113 142 203 244 279 348
#     4  11  21  36  58  84 118 152 188 245 293 331
#
# _framework density 19.269784000000001
#
# number of rings (size 3 to 8) (size 9 to 14) (size 15 to 20)
#    0.000    1.818    1.818    3.273    0.000    2.182 
#    0.000    9.091    0.000    0.000    0.000    0.000 
#    0.000    0.000    0.000    0.000    0.000    0.000 
#
# Total GULP energy -272827.250018 kJ/mol
# GULP energy per Si atom -12401.238637 kJ/mol
# Density = 1.922593 g / cm^3
# Si number density = 19.269784 Si / 1000 Ang^3
#
#
#
# Elastic Constant Matrix: (Units=GPa)
#
#
# Indices 1 2 3 4 5 6 
#
# 1 71.3002 32.5083 14.9313 0.0000 5.5892 0.0000
# 2 32.5083 162.7899 57.4735 0.0000 -6.5281 0.0000
# 3 14.9313 57.4735 119.9925 0.0000 -5.3203 0.0000
# 4 0.0000 0.0000 0.0000 21.2844 0.0000 3.2557
# 5 5.5892 -6.5281 -5.3203 0.0000 26.8447 0.0000
# 6 0.0000 0.0000 0.0000 3.2557 0.0000 16.3333
#
#
#
# Elastic Compliance Matrix: (Units=1/GPa)
#
#
# Indices 1 2 3 4 5 6 
#
# 1 0.015913 -0.003107 -0.000678 0.000000 -0.004203 0.000000
# 2 -0.003107 0.008032 -0.003375 0.000000 0.001931 0.000000
# 3 -0.000678 -0.003375 0.010093 0.000000 0.001321 0.000000
# 4 0.000000 0.000000 0.000000 0.048460 0.000000 -0.009660
# 5 -0.004203 0.001931 0.001321 0.000000 0.038858 0.000000
# 6 0.000000 0.000000 0.000000 -0.009660 0.000000 0.063150
#
#
# Mechanical properties :
#
#
# Convention : Reuss Voigt Hill
#
# Bulk Modulus (GPa) = 50.71415 62.65654 56.68534
# Shear Modulus (GPa) = 24.34266 29.50378 26.92322
#
# Velocity S-wave (km/s) = 3.55809 3.91716 3.74193
# Velocity P-wave (km/s) = 6.57686 7.28319 6.93902
#
# Compressibility (1/GPa) = 0.01971836
#
# Stress axis : x y z
#
# Youngs Moduli (GPa) = 62.84051 124.49688 99.07449
#
# Poissons Ratio (x) = 0.38679 0.06722
# Poissons Ratio (y) = 0.19524 0.33438
# Poissons Ratio (z) = 0.04263 0.42018
#
# Static dielectric constant tensor:
#      x y z
#    x 3.546800 0.000000 0.090620 
#    y 0.000000 3.530750 0.000000 
#    z 0.090620 0.000000 3.489540 
# 
# 
# High freq. dielectric constant tensor:
#      x y z
#    x 1.747500 0.000000 0.011540 
#    y 0.000000 1.749470 0.000000 
#    z 0.011540 0.000000 1.750180 
# 
# From -- ./inp_files/153455.got.cif
#   From: 2010.06.25/outbox.cif.g09.slc.cpg/sg12_77_cif.got.tgz:153455.got - 2010.06.28 00:19:55.
