data_PCOD8101245
_publ_section_title
;
Structure prediction by ZEFSAII (Michael W. Deem and Ramdas Pophale) SiO2 
 PCOD8101245
Probable space group: C 2/M
;
_chemical_formula_sum "Si O2"
_cell_formula_units_Z 40
_cell_length_a 15.733427
_cell_length_b 8.976409
_cell_length_c 14.514132
_cell_angle_alpha 90.000000
_cell_angle_beta 89.639297
_cell_angle_gamma 90.000000
_cell_volume 2049.785536
_symmetry_space_group_name_H-M "C 2/M"
_symmetry_group_IT_number 12
_symmetry_cell_setting 'monoclinic'
loop_
_space_group_symop_operation_xyz
x,y,z
-x,y,-z
-x,-y,-z
x,-y,z
1/2+x,1/2+y,z
1/2-x,1/2+y,-z
1/2-x,1/2-y,-z
1/2+x,1/2-y,z
loop_
_atom_site_type_symbol
_atom_site_label
_atom_site_fract_x
_atom_site_fract_y
_atom_site_fract_z
Si Si1 0.398574 0.171748 0.704024
Si Si2 0.831539 0.670196 0.899781
Si Si3 0.585117 0.176961 0.713952
Si Si4 0.655826 0.825321 0.899413
Si Si5 0.747471 0.176782 0.598978
O O1 0.396252 0.188822 0.815043
O O2 0.493222 0.227435 0.674979
O O3 0.329614 0.274577 0.656051
O O4 0.382537 0.000000 0.675120
O O5 0.799992 0.500000 0.908619
O O6 0.751047 0.771699 0.881359
O O7 0.875888 0.718032 0.997002
O O8 0.597276 0.241656 0.818063
O O9 0.661483 0.235174 0.648884
O O10 0.586133 0.000000 0.716304
O O11 0.657059 0.000000 0.886244
O O12 0.750000 0.250000 0.500000
O O13 0.747969 0.000000 0.589419
#
# Coordination Sequence:
#
# PCOD8101245 Si02
#       5
#     8   8   8   8   8
#     4  10  20  36  57  84 112 142 181 224 268 320
#     4   9  17  28  50  81 111 142 180 223 261 303
#     4   9  19  35  57  81 110 146 182 218 268 326
#     4   9  16  30  51  77 110 148 183 215 258 316
#     4  11  23  41  61  81 106 141 179 225 279 329
#
# _framework density 19.514236
#
# number of rings (size 3 to 8) (size 9 to 14) (size 15 to 20)
#    0.000    2.400    2.000    0.600    0.000    1.600 
#    0.000   11.000    0.000    0.000    0.000    7.000 
#    0.000    0.000    0.000    0.000    0.000    0.000 
#
# Total GULP energy -247844.505651 kJ/mol
# GULP energy per Si atom -12392.225283 kJ/mol
# Density = 1.946982 g / cm^3
# Si number density = 19.514236 Si / 1000 Ang^3
#
#
#
# Elastic Constant Matrix: (Units=GPa)
#
#
# Indices 1 2 3 4 5 6 
#
# 1 135.9488 23.8841 65.7154 0.0000 -2.8354 0.0000
# 2 23.8841 30.5958 31.3574 0.0000 -0.0481 0.0000
# 3 65.7154 31.3574 127.7562 0.0000 -1.4868 0.0000
# 4 0.0000 0.0000 0.0000 26.2417 0.0000 2.5174
# 5 -2.8354 -0.0481 -1.4868 0.0000 13.3556 0.0000
# 6 0.0000 0.0000 0.0000 2.5174 0.0000 24.4188
#
#
#
# Elastic Compliance Matrix: (Units=1/GPa)
#
#
# Indices 1 2 3 4 5 6 
#
# 1 0.010084 -0.003438 -0.004324 0.000000 0.001647 0.000000
# 2 -0.003438 0.044856 -0.009260 0.000000 -0.001599 0.000000
# 3 -0.004324 -0.009260 0.012329 0.000000 0.000421 0.000000
# 4 0.000000 0.000000 0.000000 0.038488 0.000000 -0.003968
# 5 0.001647 -0.001599 0.000421 0.000000 0.075266 0.000000
# 6 0.000000 0.000000 0.000000 -0.003968 0.000000 0.041361
#
#
# Mechanical properties :
#
#
# Convention : Reuss Voigt Hill
#
# Bulk Modulus (GPa) = 30.09724 59.57940 44.83832
# Shear Modulus (GPa) = 18.69135 24.35948 21.52542
#
# Velocity S-wave (km/s) = 3.09824 3.53695 3.32484
# Velocity P-wave (km/s) = 5.31559 6.87587 6.14545
#
# Compressibility (1/GPa) = 0.03322564
#
# Stress axis : x y z
#
# Youngs Moduli (GPa) = 99.16437 22.29367 81.10652
#
# Poissons Ratio (x) = 0.07664 0.35072
# Poissons Ratio (y) = 0.34089 0.75105
# Poissons Ratio (z) = 0.42881 0.20644
#
# Static dielectric constant tensor:
#      x y z
#    x 3.673110 0.000000 0.019780 
#    y 0.000000 3.318700 0.000000 
#    z 0.019780 0.000000 3.917090 
# 
# 
# High freq. dielectric constant tensor:
#      x y z
#    x 1.751820 0.000000 0.001680 
#    y 0.000000 1.728650 0.000000 
#    z 0.001680 0.000000 1.772710 
# 
# From -- ./inp_files/202975.got.cif
#   From: 2010.06.25/outbox.cif.g09.slc.cpg/sg12_102_cif.got.tgz:202975.got - 2010.06.28 00:19:55.
