data_PCOD8101006
_publ_section_title
;
Structure prediction by ZEFSAII (Michael W. Deem and Ramdas Pophale) SiO2 
 PCOD8101006
Probable space group: C 2/M
;
_chemical_formula_sum "Si O2"
_cell_formula_units_Z 52
_cell_length_a 29.013218
_cell_length_b 11.103048
_cell_length_c 7.946316
_cell_angle_alpha 90.000000
_cell_angle_beta 78.985924
_cell_angle_gamma 90.000000
_cell_volume 2512.637133
_symmetry_space_group_name_H-M "C 2/M"
_symmetry_group_IT_number 12
_symmetry_cell_setting 'monoclinic'
loop_
_space_group_symop_operation_xyz
x,y,z
-x,y,-z
-x,-y,-z
x,-y,z
1/2+x,1/2+y,z
1/2-x,1/2+y,-z
1/2-x,1/2-y,-z
1/2+x,1/2-y,z
loop_
_atom_site_type_symbol
_atom_site_label
_atom_site_fract_x
_atom_site_fract_y
_atom_site_fract_z
Si Si1 0.619722 0.282301 0.088856
Si Si2 0.780252 0.867325 0.931291
Si Si3 0.635629 0.136387 0.756296
Si Si4 0.500000 0.782912 0.500000
Si Si5 0.741799 0.868307 0.613413
Si Si6 0.102323 0.364349 0.424136
Si Si7 0.017520 0.864284 0.164638
O O1 0.666865 0.359871 0.035544
O O2 0.626062 0.202135 0.251064
O O3 0.573993 0.365001 0.140157
O O4 0.611405 0.203955 0.927616
O O5 0.781546 0.869697 0.728163
O O6 0.760610 0.000000 0.007680
O O7 0.750000 0.750000 0.000000
O O8 0.691553 0.143999 0.738489
O O9 0.619971 0.194226 0.587950
O O10 0.617056 0.000000 0.777005
O O11 0.545959 0.864616 0.450423
O O12 0.506138 0.703809 0.663296
O O13 0.750000 0.750000 0.500000
O O14 0.743910 0.000000 0.515174
O O15 0.121050 0.500000 0.402480
O O16 0.998928 0.000000 0.188038
O O17 0.000000 0.806388 0.000000
#
# Coordination Sequence:
#
# PCOD8101006 Si02
#       7
#     8   8   8   4   8   8   8
#     4  11  21  37  60  85 116 154 198 242 301 349
#     4  11  23  39  60  86 120 156 201 250 301 359
#     4  10  20  36  56  81 114 150 192 239 291 355
#     4  10  20  36  56  80 114 150 188 240 296 354
#     4  10  21  38  57  82 114 151 195 247 296 355
#     4  10  21  35  57  86 116 152 195 242 297 359
#     4  10  21  37  57  82 113 149 192 240 294 356
#
# _framework density 20.695388000000001
#
# number of rings (size 3 to 8) (size 9 to 14) (size 15 to 20)
#    0.000    1.692    1.538    3.231    0.000    1.231 
#    0.000    0.000    0.000   13.846    0.000    0.000 
#    0.000    0.000    0.000    0.000    0.000    0.000 
#
# Total GULP energy -322264.104061 kJ/mol
# GULP energy per Si atom -12394.773233 kJ/mol
# Density = 2.064828 g / cm^3
# Si number density = 20.695388 Si / 1000 Ang^3
#
#
#
# Elastic Constant Matrix: (Units=GPa)
#
#
# Indices 1 2 3 4 5 6 
#
# 1 62.9307 12.0832 3.6982 0.0000 7.6855 0.0000
# 2 12.0832 124.1285 45.1247 0.0000 -5.3994 0.0000
# 3 3.6982 45.1247 134.2739 0.0000 16.9581 0.0000
# 4 0.0000 0.0000 0.0000 23.1726 0.0000 7.3454
# 5 7.6855 -5.3994 16.9581 0.0000 33.7364 0.0000
# 6 0.0000 0.0000 0.0000 7.3454 0.0000 -51.3030
#
#
#
# Elastic Compliance Matrix: (Units=1/GPa)
#
#
# Indices 1 2 3 4 5 6 
#
# 1 0.016813 -0.002141 0.000836 0.000000 -0.004593 0.000000
# 2 -0.002141 0.009790 -0.003727 0.000000 0.003928 0.000000
# 3 0.000836 -0.003727 0.009371 0.000000 -0.005498 0.000000
# 4 0.000000 0.000000 0.000000 0.041281 0.000000 0.005910
# 5 -0.004593 0.003928 -0.005498 0.000000 0.034080 0.000000
# 6 0.000000 0.000000 0.000000 0.005910 0.000000 -0.018646
#
#
# Mechanical properties :
#
#
# Convention : Reuss Voigt Hill
#
# Bulk Modulus (GPa) = 38.59200 49.23836 43.91518
# Shear Modulus (GPa) = 44.88704 18.48300 31.68502
#
# Velocity S-wave (km/s) = 4.66224 2.99172 3.91707
# Velocity P-wave (km/s) = 6.90435 5.98142 6.45939
#
# Compressibility (1/GPa) = 0.02591211
#
# Stress axis : x y z
#
# Youngs Moduli (GPa) = 59.47671 102.14060 106.70758
#
# Poissons Ratio (x) = 0.21863 -0.08925
# Poissons Ratio (y) = 0.12731 0.39774
# Poissons Ratio (z) = -0.04975 0.38072
#
# Static dielectric constant tensor:
#      x y z
#    x 3.655500 0.000000 0.242920 
#    y 0.000000 3.806510 0.000000 
#    z 0.242920 0.000000 3.734190 
# 
# 
# High freq. dielectric constant tensor:
#      x y z
#    x 1.807500 0.000000 0.018630 
#    y 0.000000 1.806030 0.000000 
#    z 0.018630 0.000000 1.807230 
# 
# From -- ./inp_files/102643.got.cif
#   From: 2010.06.25/outbox.cif.g09.slc.cpg/sg12_52_cif.got.tgz:102643.got - 2010.06.28 00:19:55.
