data_PCOD8101840
_publ_section_title
;
Structure prediction by ZEFSAII (Michael W. Deem and Ramdas Pophale) SiO2 
 PCOD8101840
Probable space group: C 2/M
;
_chemical_formula_sum "Si O2"
_cell_formula_units_Z 48
_cell_length_a 17.659317
_cell_length_b 8.589122
_cell_length_c 17.232512
_cell_angle_alpha 90.000000
_cell_angle_beta 117.944130
_cell_angle_gamma 90.000000
_cell_volume 2309.038095
_symmetry_space_group_name_H-M "C 2/M"
_symmetry_group_IT_number 12
_symmetry_cell_setting 'monoclinic'
loop_
_space_group_symop_operation_xyz
x,y,z
-x,y,-z
-x,-y,-z
x,-y,z
1/2+x,1/2+y,z
1/2-x,1/2+y,-z
1/2-x,1/2-y,-z
1/2+x,1/2-y,z
loop_
_atom_site_type_symbol
_atom_site_label
_atom_site_fract_x
_atom_site_fract_y
_atom_site_fract_z
Si Si1 0.085426 0.820858 0.827225
Si Si2 0.775096 0.679826 0.697700
Si Si3 0.740870 0.680297 0.145726
Si Si4 0.320496 0.181533 0.477878
Si Si5 0.062115 0.678050 0.332235
Si Si6 0.081106 0.681165 0.988090
O O1 0.179082 0.783682 0.840626
O O2 0.060457 0.714618 0.888585
O O3 0.017082 0.788317 0.726386
O O4 0.081400 0.000000 0.849883
O O5 0.766666 0.500000 0.716508
O O6 0.786006 0.780948 0.779785
O O7 0.688902 0.732237 0.609631
O O8 0.857926 0.714097 0.685345
O O9 0.765049 0.500000 0.149369
O O10 0.662612 0.717363 0.051205
O O11 0.250000 0.250000 0.500000
O O12 0.411671 0.209137 0.564905
O O13 0.303400 0.000000 0.456988
O O14 0.032993 0.500000 0.307921
O O15 0.101774 0.500000 0.010601
O O16 0.000000 0.732678 0.000000
#
# Coordination Sequence:
#
# PCOD8101840 Si02
#       6
#     8   8   8   8   8   8
#     4  12  25  40  60  86 118 154 194 238 286 343
#     4  10  20  36  59  87 119 153 194 242 291 344
#     4  12  25  41  61  85 118 155 193 237 287 345
#     4   9  17  31  54  84 117 153 194 241 291 340
#     4   9  19  36  58  85 118 154 192 238 290 341
#     4  11  24  43  66  90 118 150 187 234 286 340
#
# _framework density 20.787877999999999
#
# number of rings (size 3 to 8) (size 9 to 14) (size 15 to 20)
#    0.000    1.500    0.000    7.000    0.000    9.333 
#    0.000    0.833    0.000    5.000    0.000    0.000 
#    0.000    0.000    0.000    0.000    0.000    0.000 
#
# Total GULP energy -297664.306331 kJ/mol
# GULP energy per Si atom -12402.679430 kJ/mol
# Density = 2.074056 g / cm^3
# Si number density = 20.787878 Si / 1000 Ang^3
#
#
#
# Elastic Constant Matrix: (Units=GPa)
#
#
# Indices 1 2 3 4 5 6 
#
# 1 61.1630 23.3513 15.4976 0.0000 20.3856 0.0000
# 2 23.3513 75.2514 27.3873 0.0000 8.8254 0.0000
# 3 15.4976 27.3873 100.9161 0.0000 24.4448 0.0000
# 4 0.0000 0.0000 0.0000 38.7845 0.0000 0.7920
# 5 20.3856 8.8254 24.4448 0.0000 22.7648 0.0000
# 6 0.0000 0.0000 0.0000 0.7920 0.0000 28.1850
#
#
#
# Elastic Compliance Matrix: (Units=1/GPa)
#
#
# Indices 1 2 3 4 5 6 
#
# 1 0.026253 -0.006601 0.003831 0.000000 -0.025064 0.000000
# 2 -0.006601 0.016467 -0.004515 0.000000 0.004376 0.000000
# 3 0.003831 -0.004515 0.014804 0.000000 -0.017577 0.000000
# 4 0.000000 0.000000 0.000000 0.025798 0.000000 -0.000725
# 5 -0.025064 0.004376 -0.017577 0.000000 0.083549 0.000000
# 6 0.000000 0.000000 0.000000 -0.000725 0.000000 0.035500
#
#
# Mechanical properties :
#
#
# Convention : Reuss Voigt Hill
#
# Bulk Modulus (GPa) = 23.28113 41.08920 32.18517
# Shear Modulus (GPa) = 21.62058 29.35314 25.48686
#
# Velocity S-wave (km/s) = 3.22849 3.76178 3.50529
# Velocity P-wave (km/s) = 5.01211 6.21907 5.64792
#
# Compressibility (1/GPa) = 0.04295325
#
# Stress axis : x y z
#
# Youngs Moduli (GPa) = 38.09049 60.72615 67.55026
#
# Poissons Ratio (x) = 0.40088 -0.25879
# Poissons Ratio (y) = 0.25145 0.30500
# Poissons Ratio (z) = -0.14593 0.27419
#
# Static dielectric constant tensor:
#      x y z
#    x 3.446830 0.000000 0.063240 
#    y 0.000000 3.809170 0.000000 
#    z 0.063240 0.000000 4.271730 
# 
# 
# High freq. dielectric constant tensor:
#      x y z
#    x 1.785970 0.000000 0.005220 
#    y 0.000000 1.820010 0.000000 
#    z 0.005220 0.000000 1.835080 
# 
# From -- ./inp_files/274592.got.cif
#   From: 2010.06.25/outbox.cif.g09.slc.cpg/sg12_138_cif.got.tgz:274592.got - 2010.06.28 00:19:55.
