data_PCOD8101293
_publ_section_title
;
Structure prediction by ZEFSAII (Michael W. Deem and Ramdas Pophale) SiO2 
 PCOD8101293
Probable space group: C 2/M
;
_chemical_formula_sum "Si O2"
_cell_formula_units_Z 64
_cell_length_a 14.897953
_cell_length_b 14.736130
_cell_length_c 22.974272
_cell_angle_alpha 90.000000
_cell_angle_beta 38.766861
_cell_angle_gamma 90.000000
_cell_volume 3158.146216
_symmetry_space_group_name_H-M "C 2/M"
_symmetry_group_IT_number 12
_symmetry_cell_setting 'monoclinic'
loop_
_space_group_symop_operation_xyz
x,y,z
-x,y,-z
-x,-y,-z
x,-y,z
1/2+x,1/2+y,z
1/2-x,1/2+y,-z
1/2-x,1/2-y,-z
1/2+x,1/2-y,z
loop_
_atom_site_type_symbol
_atom_site_label
_atom_site_fract_x
_atom_site_fract_y
_atom_site_fract_z
Si Si1 0.834612 0.169859 0.926756
Si Si2 0.388387 0.396724 0.419636
Si Si3 0.336510 0.103097 0.375708
Si Si4 0.453777 0.095594 0.959247
Si Si5 0.831856 0.898371 0.652487
Si Si6 0.472501 0.272109 0.742856
Si Si7 0.695622 0.771298 0.808255
Si Si8 0.540624 0.397642 0.914538
O O1 0.957381 0.203607 0.818897
O O2 0.903805 0.108161 0.941897
O O3 0.750000 0.250000 0.000000
O O4 0.716484 0.110058 0.954175
O O5 0.389780 0.500000 0.396870
O O6 0.233413 0.372406 0.526097
O O7 0.503095 0.382841 0.413808
O O8 0.416901 0.336471 0.347924
O O9 0.203513 0.109590 0.397683
O O10 0.469206 0.169335 0.293774
O O11 0.397380 0.000000 0.345312
O O12 0.539987 0.183068 0.894421
O O13 0.486855 0.000000 0.908043
O O14 0.500000 0.076347 0.000000
O O15 0.746729 0.813830 0.722406
O O16 0.785794 0.000000 0.698137
O O17 0.313644 0.288667 0.797961
O O18 0.666901 0.663706 0.822855
O O19 0.598658 0.500000 0.888293
O O20 0.500000 0.362942 0.000000
#
# Coordination Sequence:
#
# PCOD8101293 Si02
#       8
#     8   8   8   8   8   8   8   8
#     4  12  23  40  62  84 118 157 198 245 295 345
#     4   9  19  36  60  85 117 152 188 242 300 350
#     4  10  20  36  57  87 119 151 193 239 288 352
#     4  11  22  37  60  86 116 151 192 244 299 349
#     4   9  18  33  57  87 116 148 186 233 298 356
#     4  11  23  36  59  87 117 155 196 241 294 350
#     4  11  20  38  56  80 117 154 190 243 289 342
#     4  11  24  41  58  76 108 157 206 245 285 336
#
# _framework density 20.265053000000002
#
# number of rings (size 3 to 8) (size 9 to 14) (size 15 to 20)
#    0.000    1.500    2.500    3.375    0.000    3.500 
#    0.000    0.625    0.000    0.000    0.000    0.000 
#    0.000   14.000    0.000    0.000    0.000    0.000 
#
# Total GULP energy -396474.292181 kJ/mol
# GULP energy per Si atom -12389.821631 kJ/mol
# Density = 2.021893 g / cm^3
# Si number density = 20.265053 Si / 1000 Ang^3
#
#
#
# Elastic Constant Matrix: (Units=GPa)
#
#
# Indices 1 2 3 4 5 6 
#
# 1 70.5585 21.0849 34.5671 0.0000 8.1159 0.0000
# 2 21.0849 118.5234 56.5529 0.0000 9.8088 -0.0001
# 3 34.5671 56.5529 105.4768 0.0004 11.3914 -0.0007
# 4 0.0000 0.0000 0.0004 41.0082 -0.0001 -18.6640
# 5 8.1159 9.8088 11.3914 -0.0001 25.0208 0.0002
# 6 0.0000 -0.0001 -0.0007 -18.6640 0.0002 40.9031
#
#
#
# Elastic Compliance Matrix: (Units=1/GPa)
#
#
# Indices 1 2 3 4 5 6 
#
# 1 0.017128 -0.000365 -0.005083 0.000000 -0.003099 0.000000
# 2 -0.000365 0.011420 -0.005819 0.000000 -0.001709 0.000000
# 3 -0.005083 -0.005819 0.014558 0.000000 -0.002698 0.000000
# 4 0.000000 0.000000 0.000000 0.030777 0.000000 0.014043
# 5 -0.003099 -0.001709 -0.002698 0.000000 0.042870 0.000000
# 6 0.000000 0.000000 0.000000 0.014043 0.000000 0.030856
#
#
# Mechanical properties :
#
#
# Convention : Reuss Voigt Hill
#
# Bulk Modulus (GPa) = 48.60910 57.66315 53.13613
# Shear Modulus (GPa) = 28.24857 33.54332 30.89595
#
# Velocity S-wave (km/s) = 3.73762 4.07287 3.90884
# Velocity P-wave (km/s) = 6.53186 7.11575 6.83005
#
# Compressibility (1/GPa) = 0.02057228
#
# Stress axis : x y z
#
# Youngs Moduli (GPa) = 58.38285 87.56608 68.69252
#
# Poissons Ratio (x) = 0.03200 0.34915
# Poissons Ratio (y) = 0.02133 0.39970
# Poissons Ratio (z) = 0.29675 0.50951
#
# Static dielectric constant tensor:
#      x y z
#    x 3.667070 0.000000 -0.098890 
#    y 0.000000 3.929960 0.000000 
#    z -0.098890 0.000000 1.708290 
# 
# 
# High freq. dielectric constant tensor:
#      x y z
#    x 1.782890 0.000000 0.001250 
#    y 0.000000 1.798030 0.000000 
#    z 0.001250 0.000000 1.776850 
# 
# From -- ./inp_files/340150.got.cif
#   From: 2010.06.25/outbox.cif.g09.slc.cpg/sg12_171_cif.got.tgz:340150.got - 2010.06.28 00:19:55.
