data_PCOD8101856
_publ_section_title
;
Structure prediction by ZEFSAII (Michael W. Deem and Ramdas Pophale) SiO2 
 PCOD8101856
Probable space group: C 2/M
;
_chemical_formula_sum "Si O2"
_cell_formula_units_Z 56
_cell_length_a 22.003315
_cell_length_b 9.102703
_cell_length_c 14.338151
_cell_angle_alpha 90.000000
_cell_angle_beta 68.859633
_cell_angle_gamma 90.000000
_cell_volume 2678.511177
_symmetry_space_group_name_H-M "C 2/M"
_symmetry_group_IT_number 12
_symmetry_cell_setting 'monoclinic'
loop_
_space_group_symop_operation_xyz
x,y,z
-x,y,-z
-x,-y,-z
x,-y,z
1/2+x,1/2+y,z
1/2-x,1/2+y,-z
1/2-x,1/2-y,-z
1/2+x,1/2-y,z
loop_
_atom_site_type_symbol
_atom_site_label
_atom_site_fract_x
_atom_site_fract_y
_atom_site_fract_z
Si Si1 0.046660 0.326342 0.560769
Si Si2 0.749478 0.665891 0.767358
Si Si3 0.440265 0.169795 0.935518
Si Si4 0.308456 0.165164 0.923568
Si Si5 0.198269 0.326966 0.460512
Si Si6 0.038607 0.173509 0.753646
Si Si7 0.123131 0.668649 0.836068
O O1 0.042075 0.500000 0.577470
O O2 0.122512 0.275627 0.510440
O O3 0.017383 0.246233 0.667977
O O4 0.000000 0.279004 0.500000
O O5 0.722086 0.500000 0.774217
O O6 0.806468 0.673378 0.812573
O O7 0.780633 0.719971 0.654352
O O8 0.692046 0.772487 0.834622
O O9 0.375940 0.230951 0.920878
O O10 0.493668 0.277892 0.864498
O O11 0.456207 0.000000 0.900375
O O12 0.431959 0.184560 0.052208
O O13 0.303610 0.000000 0.964071
O O14 0.250000 0.250000 0.000000
O O15 0.203014 0.500000 0.475090
O O16 0.250000 0.250000 0.500000
O O17 0.108079 0.237332 0.750622
O O18 0.041003 0.000000 0.740677
O O19 0.129677 0.500000 0.802601
#
# Coordination Sequence:
#
# PCOD8101856 Si02
#       7
#     8   8   8   8   8   8   8
#     4  10  23  44  70  93 121 163 213 262 312 375
#     4  10  21  36  60  91 124 156 195 247 307 365
#     4  10  22  39  61  88 121 162 207 249 296 363
#     4  10  20  36  59  87 122 159 197 247 299 360
#     4  10  22  40  63  93 121 158 205 253 309 366
#     4  12  26  41  61  89 123 160 202 255 312 364
#     4  11  22  39  62  90 123 161 205 248 298 367
#
# _framework density 20.907136999999999
#
# number of rings (size 3 to 8) (size 9 to 14) (size 15 to 20)
#    0.000    1.571    1.429    3.000    2.000    7.143 
#    0.000    0.000    0.000    0.000    0.000    0.000 
#    0.000    0.000    0.000    0.000    0.000    0.000 
#
# Total GULP energy -347133.904202 kJ/mol
# GULP energy per Si atom -12397.639436 kJ/mol
# Density = 2.085955 g / cm^3
# Si number density = 20.907137 Si / 1000 Ang^3
#
#
#
# Elastic Constant Matrix: (Units=GPa)
#
#
# Indices 1 2 3 4 5 6 
#
# 1 109.4247 39.5907 27.6444 0.0000 17.8943 0.0000
# 2 39.5907 80.3665 40.3914 0.0000 9.0467 0.0000
# 3 27.6444 40.3914 91.8444 0.0000 15.3902 0.0000
# 4 0.0000 0.0000 0.0000 30.2535 0.0000 0.1823
# 5 17.8943 9.0467 15.3902 0.0000 38.5686 0.0000
# 6 0.0000 0.0000 0.0000 0.1823 0.0000 29.3741
#
#
#
# Elastic Compliance Matrix: (Units=1/GPa)
#
#
# Indices 1 2 3 4 5 6 
#
# 1 0.011779 -0.005015 -0.000666 0.000000 -0.004023 0.000000
# 2 -0.005015 0.018146 -0.006588 0.000000 0.000699 0.000000
# 3 -0.000666 -0.006588 0.014655 0.000000 -0.003994 0.000000
# 4 0.000000 0.000000 0.000000 0.033055 0.000000 -0.000205
# 5 -0.004023 0.000699 -0.003994 0.000000 0.029224 0.000000
# 6 0.000000 0.000000 0.000000 -0.000205 0.000000 0.034045
#
#
# Mechanical properties :
#
#
# Convention : Reuss Voigt Hill
#
# Bulk Modulus (GPa) = 49.89455 55.20982 52.55218
# Shear Modulus (GPa) = 29.04905 31.23987 30.14446
#
# Velocity S-wave (km/s) = 3.73155 3.86971 3.80126
# Velocity P-wave (km/s) = 6.51787 6.81401 6.66758
#
# Compressibility (1/GPa) = 0.02004227
#
# Stress axis : x y z
#
# Youngs Moduli (GPa) = 84.89408 55.10867 68.23721
#
# Poissons Ratio (x) = 0.27639 0.04542
# Poissons Ratio (y) = 0.42578 0.44954
# Poissons Ratio (z) = 0.05651 0.36305
#
# Static dielectric constant tensor:
#      x y z
#    x 4.070060 0.000000 -0.060620 
#    y 0.000000 3.564350 0.000000 
#    z -0.060620 0.000000 3.517860 
# 
# 
# High freq. dielectric constant tensor:
#      x y z
#    x 1.837490 0.000000 0.012850 
#    y 0.000000 1.800900 0.000000 
#    z 0.012850 0.000000 1.820690 
# 
# From -- ./inp_files/238236.got.cif
#   From: 2010.06.25/outbox.cif.g09.slc.cpg/sg12_120_cif.got.tgz:238236.got - 2010.06.28 00:19:55.
