data_PCOD8101162
_publ_section_title
;
Structure prediction by ZEFSAII (Michael W. Deem and Ramdas Pophale) SiO2 
 PCOD8101162
Probable space group: C 2/M
;
_chemical_formula_sum "Si O2"
_cell_formula_units_Z 56
_cell_length_a 18.521514
_cell_length_b 9.222732
_cell_length_c 18.314871
_cell_angle_alpha 90.000000
_cell_angle_beta 68.658181
_cell_angle_gamma 90.000000
_cell_volume 2913.991119
_symmetry_space_group_name_H-M "C 2/M"
_symmetry_group_IT_number 12
_symmetry_cell_setting 'monoclinic'
loop_
_space_group_symop_operation_xyz
x,y,z
-x,y,-z
-x,-y,-z
x,-y,z
1/2+x,1/2+y,z
1/2-x,1/2+y,-z
1/2-x,1/2-y,-z
1/2+x,1/2-y,z
loop_
_atom_site_type_symbol
_atom_site_label
_atom_site_fract_x
_atom_site_fract_y
_atom_site_fract_z
Si Si1 0.082298 0.329160 0.005201
Si Si2 0.945961 0.163455 0.458851
Si Si3 0.773667 0.839004 0.560267
Si Si4 0.820648 0.332328 0.268505
Si Si5 0.027462 0.332756 0.697956
Si Si6 0.614440 0.171304 0.157503
Si Si7 0.786571 0.173060 0.133674
O O1 0.097647 0.500000 0.988809
O O2 0.083741 0.281935 0.089210
O O3 0.151413 0.240977 0.943418
O O4 0.000000 0.285176 0.000000
O O5 0.865180 0.161674 0.530596
O O6 0.945477 0.250823 0.384226
O O7 0.000000 0.237289 0.500000
O O8 0.973067 0.000000 0.430289
O O9 0.750000 0.750000 0.500000
O O10 0.738013 0.775111 0.647557
O O11 0.738897 0.000000 0.563409
O O12 0.804689 0.500000 0.252676
O O13 0.908609 0.312722 0.262689
O O14 0.805771 0.227312 0.207000
O O15 0.018760 0.500000 0.679533
O O16 0.946480 0.269258 0.759536
O O17 0.700911 0.229458 0.141864
O O18 0.614376 0.000000 0.162412
O O19 0.792027 0.000000 0.128601
#
# Coordination Sequence:
#
# PCOD8101162 Si02
#       7
#     8   8   8   8   8   8   8
#     4  10  20  39  66  87 109 149 190 224 268 328
#     4  10  22  37  54  80 116 150 183 232 290 338
#     4  10  20  36  57  81 110 146 191 238 282 332
#     4  10  21  37  58  82 109 148 195 234 274 335
#     4  10  20  38  60  81 107 145 194 236 272 327
#     4   9  20  37  57  84 116 146 182 229 277 327
#     4  11  23  37  56  86 120 147 177 229 284 329
#
# _framework density 19.217628999999999
#
# number of rings (size 3 to 8) (size 9 to 14) (size 15 to 20)
#    0.000    2.000    1.429    1.714    2.000    4.000 
#    0.000    2.143    0.000    0.000    0.000    0.000 
#    0.000    0.000    0.000    0.000    0.000    0.000 
#
# Total GULP energy -347169.507916 kJ/mol
# GULP energy per Si atom -12398.910997 kJ/mol
# Density = 1.917389 g / cm^3
# Si number density = 19.217629 Si / 1000 Ang^3
#
#
#
# Elastic Constant Matrix: (Units=GPa)
#
#
# Indices 1 2 3 4 5 6 
#
# 1 107.0815 24.9619 31.6771 0.0000 -9.6699 0.0000
# 2 24.9619 46.2971 25.6146 0.0001 -3.1548 0.0001
# 3 31.6771 25.6146 97.0674 0.0000 -17.5424 0.0000
# 4 0.0000 0.0001 0.0000 30.5395 0.0000 -2.7767
# 5 -9.6699 -3.1548 -17.5424 0.0000 38.7617 0.0000
# 6 0.0000 0.0001 0.0000 -2.7767 0.0000 22.5786
#
#
#
# Elastic Compliance Matrix: (Units=1/GPa)
#
#
# Indices 1 2 3 4 5 6 
#
# 1 0.011213 -0.004762 -0.002142 0.000000 0.001440 0.000000
# 2 -0.004762 0.027354 -0.005964 0.000000 -0.001661 0.000000
# 3 -0.002142 -0.005964 0.013495 0.000000 0.005087 0.000000
# 4 0.000000 0.000000 0.000000 0.033115 0.000000 0.004072
# 5 0.001440 -0.001661 0.005087 0.000000 0.028325 0.000000
# 6 0.000000 0.000000 0.000000 0.004072 0.000000 0.044791
#
#
# Mechanical properties :
#
#
# Convention : Reuss Voigt Hill
#
# Bulk Modulus (GPa) = 37.98875 46.10590 42.04733
# Shear Modulus (GPa) = 25.93317 29.58878 27.76097
#
# Velocity S-wave (km/s) = 3.67747 3.92812 3.80486
# Velocity P-wave (km/s) = 6.15161 6.67960 6.42103
#
# Compressibility (1/GPa) = 0.02632358
#
# Stress axis : x y z
#
# Youngs Moduli (GPa) = 89.18586 36.55791 74.10414
#
# Poissons Ratio (x) = 0.17409 0.15875
# Poissons Ratio (y) = 0.42471 0.44198
# Poissons Ratio (z) = 0.19106 0.21805
#
# Static dielectric constant tensor:
#      x y z
#    x 3.834730 0.000000 -0.093290 
#    y 0.000000 3.354380 0.000000 
#    z -0.093290 0.000000 3.379250 
# 
# 
# High freq. dielectric constant tensor:
#      x y z
#    x 1.761200 0.000000 -0.007130 
#    y 0.000000 1.723670 0.000000 
#    z -0.007130 0.000000 1.760870 
# 
# From -- ./inp_files/275078.got.cif
#   From: 2010.06.25/outbox.cif.g09.slc.cpg/sg12_138_cif.got.tgz:275078.got - 2010.06.28 00:19:55.
