data_PCOD8101881
_publ_section_title
;
Structure prediction by ZEFSAII (Michael W. Deem and Ramdas Pophale) SiO2 
 PCOD8101881
Probable space group: C 2/M
;
_chemical_formula_sum "Si O2"
_cell_formula_units_Z 48
_cell_length_a 20.961588
_cell_length_b 14.136158
_cell_length_c 13.005348
_cell_angle_alpha 90.000000
_cell_angle_beta 143.695681
_cell_angle_gamma 90.000000
_cell_volume 2281.673439
_symmetry_space_group_name_H-M "C 2/M"
_symmetry_group_IT_number 12
_symmetry_cell_setting 'monoclinic'
loop_
_space_group_symop_operation_xyz
x,y,z
-x,y,-z
-x,-y,-z
x,-y,z
1/2+x,1/2+y,z
1/2-x,1/2+y,-z
1/2-x,1/2-y,-z
1/2+x,1/2-y,z
loop_
_atom_site_type_symbol
_atom_site_label
_atom_site_fract_x
_atom_site_fract_y
_atom_site_fract_z
Si Si1 0.342468 0.704124 0.310363
Si Si2 0.467895 0.204124 0.310363
Si Si3 0.530422 0.311974 0.200143
Si Si4 0.826655 0.000000 0.208710
Si Si5 0.330279 0.311974 0.799857
Si Si6 0.265474 0.500000 0.793342
Si Si7 0.472131 0.500000 0.206658
Si Si8 0.117945 0.500000 0.791290
O O1 0.435413 0.750000 0.500000
O O2 0.357309 0.750000 0.214619
O O3 0.341141 0.591006 0.300426
O O4 0.230237 0.728222 0.219487
O O5 0.489249 0.228222 0.219487
O O6 0.459285 0.091006 0.300426
O O7 0.641082 0.286346 0.282164
O O8 0.546872 0.407708 0.287868
O O9 0.440323 0.333018 0.000000
O O10 0.927494 0.000000 0.263534
O O11 0.711898 0.000000 0.000000
O O12 0.259004 0.407708 0.712132
O O13 0.163961 0.500000 0.736466
O O14 0.372740 0.500000 0.000000
#
# Coordination Sequence:
#
# PCOD8101881 Si02
#       8
#     8   8   8   4   8   4   4   4
#     4  11  24  39  60  91 126 166 205 256 315 373
#     4  11  24  39  60  91 126 166 205 256 315 373
#     4  10  20  36  59  88 122 162 210 261 311 368
#     4  11  22  39  66  95 124 161 213 263 305 365
#     4  10  20  36  59  88 122 162 210 261 311 368
#     4   9  17  31  57  88 117 150 199 262 307 349
#     4   9  17  31  57  88 117 150 199 262 307 349
#     4  11  22  39  66  95 124 161 213 263 305 365
#
# _framework density 21.037191
#
# number of rings (size 3 to 8) (size 9 to 14) (size 15 to 20)
#    0.000    1.667    3.333    1.500    0.000    8.000 
#    0.000    0.833    0.000    3.000    0.000    0.000 
#    0.000    0.000    0.000    0.000    0.000    0.000 
#
# Total GULP energy -297427.835934 kJ/mol
# GULP energy per Si atom -12392.826497 kJ/mol
# Density = 2.098931 g / cm^3
# Si number density = 21.037191 Si / 1000 Ang^3
#
#
#
# Elastic Constant Matrix: (Units=GPa)
#
#
# Indices 1 2 3 4 5 6 
#
# 1 208.6538 94.3559 17.1420 0.0000 9.1400 0.0000
# 2 94.3559 191.1929 27.0154 0.0000 3.8563 0.0000
# 3 17.1420 27.0154 47.8821 0.0000 0.0666 0.0000
# 4 0.0000 0.0000 0.0000 22.0703 0.0000 0.2199
# 5 9.1400 3.8563 0.0666 0.0000 16.4716 0.0000
# 6 0.0000 0.0000 0.0000 0.2199 0.0000 25.9092
#
#
#
# Elastic Compliance Matrix: (Units=1/GPa)
#
#
# Indices 1 2 3 4 5 6 
#
# 1 0.006308 -0.002975 -0.000576 0.000000 -0.002801 0.000000
# 2 -0.002975 0.007115 -0.002949 0.000000 -0.000003 0.000000
# 3 -0.000576 -0.002949 0.022754 0.000000 0.000918 0.000000
# 4 0.000000 0.000000 0.000000 0.045314 0.000000 -0.000385
# 5 -0.002801 -0.000003 0.000918 0.000000 0.062262 0.000000
# 6 0.000000 0.000000 0.000000 -0.000385 0.000000 0.038600
#
#
# Mechanical properties :
#
#
# Convention : Reuss Voigt Hill
#
# Bulk Modulus (GPa) = 43.14770 80.52839 61.83805
# Shear Modulus (GPa) = 24.62100 33.50458 29.06279
#
# Velocity S-wave (km/s) = 3.42476 3.99511 3.72088
# Velocity P-wave (km/s) = 6.01609 7.72291 6.92231
#
# Compressibility (1/GPa) = 0.02317621
#
# Stress axis : x y z
#
# Youngs Moduli (GPa) = 158.52641 140.53915 43.94916
#
# Poissons Ratio (x) = 0.41814 0.02530
# Poissons Ratio (y) = 0.47166 0.12962
# Poissons Ratio (z) = 0.09128 0.41451
#
# Static dielectric constant tensor:
#      x y z
#    x 4.432800 0.000000 0.057980 
#    y 0.000000 3.823960 0.000000 
#    z 0.057980 0.000000 3.420280 
# 
# 
# High freq. dielectric constant tensor:
#      x y z
#    x 1.834670 0.000000 0.002770 
#    y 0.000000 1.824280 0.000000 
#    z 0.002770 0.000000 1.786250 
# 
# From -- ./inp_files/232905.got.cif
#   From: 2010.06.25/outbox.cif.g09.slc.cpg/sg12_117_cif.got.tgz:232905.got - 2010.06.28 00:19:55.
