data_PCOD8101936
_publ_section_title
;
Structure prediction by ZEFSAII (Michael W. Deem and Ramdas Pophale) SiO2 
 PCOD8101936
Probable space group: C 2/M
;
_chemical_formula_sum "Si O2"
_cell_formula_units_Z 56
_cell_length_a 14.991024
_cell_length_b 7.759876
_cell_length_c 26.219888
_cell_angle_alpha 90.000000
_cell_angle_beta 116.074225
_cell_angle_gamma 90.000000
_cell_volume 2739.695162
_symmetry_space_group_name_H-M "C 2/M"
_symmetry_group_IT_number 12
_symmetry_cell_setting 'monoclinic'
loop_
_space_group_symop_operation_xyz
x,y,z
-x,y,-z
-x,-y,-z
x,-y,z
1/2+x,1/2+y,z
1/2-x,1/2+y,-z
1/2-x,1/2-y,-z
1/2+x,1/2-y,z
loop_
_atom_site_type_symbol
_atom_site_label
_atom_site_fract_x
_atom_site_fract_y
_atom_site_fract_z
Si Si1 0.583834 0.298147 0.770051
Si Si2 0.497623 0.302403 0.856326
Si Si3 0.347039 0.000000 0.935814
Si Si4 0.489296 0.696468 0.644111
Si Si5 0.292074 0.307312 0.856316
Si Si6 0.426977 0.294905 0.438571
Si Si7 0.440095 0.000000 0.061940
Si Si8 0.774982 0.298803 0.563754
O O1 0.604370 0.500000 0.770241
O O2 0.514280 0.259689 0.801227
O O3 0.527051 0.219380 0.706465
O O4 0.689495 0.203751 0.799928
O O5 0.527750 0.500000 0.876845
O O6 0.382050 0.267160 0.839896
O O7 0.567636 0.173440 0.906193
O O8 0.289954 0.171184 0.902313
O O9 0.456955 0.000000 0.941749
O O10 0.350689 0.000000 0.998309
O O11 0.522900 0.500000 0.654138
O O12 0.541632 0.785100 0.608211
O O13 0.371081 0.703154 0.608937
O O14 0.304344 0.500000 0.882172
O O15 0.500000 0.218035 0.500000
O O16 0.438516 0.500000 0.440840
O O17 0.315187 0.238428 0.422944
O O18 0.794059 0.500000 0.572596
O O19 0.750000 0.250000 0.500000
#
# Coordination Sequence:
#
# PCOD8101936 Si02
#       8
#     8   8   4   8   8   8   4   8
#     4  10  21  38  59  80 117 152 193 242 288 350
#     4   9  20  37  57  85 117 155 196 241 297 344
#     4   9  18  36  58  90 121 147 201 240 287 353
#     4  10  21  38  58  82 108 149 188 229 288 337
#     4  10  20  36  60  84 115 157 193 240 298 341
#     4   9  17  33  56  78 107 145 181 220 277 344
#     4   9  18  34  62  88 115 159 193 241 291 348
#     4  11  21  35  56  81 111 144 185 231 280 341
#
# _framework density 20.44023
#
# number of rings (size 3 to 8) (size 9 to 14) (size 15 to 20)
#    0.000    2.286    2.143    0.429    1.000    2.286 
#    0.000    5.714    0.000    0.000    0.000    0.000 
#    0.000    0.000    0.000    0.000    0.000    0.000 
#
# Total GULP energy -347156.855290 kJ/mol
# GULP energy per Si atom -12398.459118 kJ/mol
# Density = 2.039371 g / cm^3
# Si number density = 20.440230 Si / 1000 Ang^3
#
#
#
# Elastic Constant Matrix: (Units=GPa)
#
#
# Indices 1 2 3 4 5 6 
#
# 1 117.5415 29.2448 72.0991 0.0000 -6.3599 0.0000
# 2 29.2448 74.9408 50.4539 0.0000 -8.2506 0.0000
# 3 72.0991 50.4539 189.7254 0.0000 -6.5343 0.0000
# 4 0.0000 0.0000 0.0000 19.4857 0.0000 4.3911
# 5 -6.3599 -8.2506 -6.5343 0.0000 30.2696 0.0000
# 6 0.0000 0.0000 0.0000 4.3911 0.0000 21.3212
#
#
#
# Elastic Compliance Matrix: (Units=1/GPa)
#
#
# Indices 1 2 3 4 5 6 
#
# 1 0.011335 -0.001741 -0.003807 0.000000 0.001085 0.000000
# 2 -0.001741 0.016903 -0.003715 0.000000 0.003440 0.000000
# 3 -0.003807 -0.003715 0.007700 0.000000 -0.000150 0.000000
# 4 0.000000 0.000000 0.000000 0.053817 0.000000 -0.011084
# 5 0.001085 0.003440 -0.000150 0.000000 0.034170 0.000000
# 6 0.000000 0.000000 0.000000 -0.011084 0.000000 0.049184
#
#
# Mechanical properties :
#
#
# Convention : Reuss Voigt Hill
#
# Bulk Modulus (GPa) = 57.43056 76.20036 66.81546
# Shear Modulus (GPa) = 25.32425 29.57594 27.45009
#
# Velocity S-wave (km/s) = 3.52368 3.80800 3.66860
# Velocity P-wave (km/s) = 6.68677 7.52961 7.12067
#
# Compressibility (1/GPa) = 0.01741233
#
# Stress axis : x y z
#
# Youngs Moduli (GPa) = 88.22467 59.16112 129.86433
#
# Poissons Ratio (x) = 0.10298 0.49441
# Poissons Ratio (y) = 0.15357 0.48246
# Poissons Ratio (z) = 0.33588 0.21979
#
# Static dielectric constant tensor:
#      x y z
#    x 3.741800 0.000000 -0.125220 
#    y 0.000000 3.612380 0.000000 
#    z -0.125220 0.000000 3.876650 
# 
# 
# High freq. dielectric constant tensor:
#      x y z
#    x 1.798500 0.000000 -0.002600 
#    y 0.000000 1.791120 0.000000 
#    z -0.002600 0.000000 1.788960 
# 
# From -- ./inp_files/339130.got.cif
#   From: 2010.06.25/outbox.cif.g09.slc.cpg/sg12_170_cif.got.tgz:339130.got - 2010.06.28 00:19:55.
