data_PCOD8101185
_publ_section_title
;
Structure prediction by ZEFSAII (Michael W. Deem and Ramdas Pophale) SiO2 
 PCOD8101185
Probable space group: C 2/M
;
_chemical_formula_sum "Si O2"
_cell_formula_units_Z 48
_cell_length_a 19.956057
_cell_length_b 8.848350
_cell_length_c 14.531805
_cell_angle_alpha 90.000000
_cell_angle_beta 79.640193
_cell_angle_gamma 90.000000
_cell_volume 2524.168357
_symmetry_space_group_name_H-M "C 2/M"
_symmetry_group_IT_number 12
_symmetry_cell_setting 'monoclinic'
loop_
_space_group_symop_operation_xyz
x,y,z
-x,y,-z
-x,-y,-z
x,-y,z
1/2+x,1/2+y,z
1/2-x,1/2+y,-z
1/2-x,1/2-y,-z
1/2+x,1/2-y,z
loop_
_atom_site_type_symbol
_atom_site_label
_atom_site_fract_x
_atom_site_fract_y
_atom_site_fract_z
Si Si1 0.961135 0.176189 0.252270
Si Si2 0.114296 0.178911 0.236982
Si Si3 0.431529 0.176980 0.069510
Si Si4 0.665141 0.324770 0.594513
Si Si5 0.823158 0.820879 0.969345
Si Si6 0.701981 0.321260 0.383760
O O1 0.937235 0.277343 0.173713
O O2 0.910214 0.207800 0.349217
O O3 0.035829 0.229538 0.266029
O O4 0.961236 0.000000 0.223166
O O5 0.144643 0.240742 0.133779
O O6 0.157195 0.247652 0.311505
O O7 0.119569 0.000000 0.237703
O O8 0.416482 0.000000 0.064625
O O9 0.500000 0.224052 0.000000
O O10 0.369434 0.269190 0.042320
O O11 0.683768 0.500000 0.595506
O O12 0.668157 0.267792 0.488267
O O13 0.720892 0.238703 0.642675
O O14 0.817231 0.000000 0.970786
O O15 0.750000 0.750000 0.000000
O O16 0.703920 0.500000 0.375743
#
# Coordination Sequence:
#
# PCOD8101185 Si02
#       6
#     8   8   8   8   8   8
#     4  10  20  36  57  82 110 144 187 229 276 330
#     4   9  19  35  56  80 108 144 182 223 274 328
#     4  11  23  39  58  82 112 148 189 231 279 333
#     4   9  19  34  55  83 109 140 182 225 273 329
#     4  11  23  39  58  83 115 150 188 229 279 332
#     4   9  18  35  56  79 111 145 178 223 274 328
#
# _framework density 19.016164
#
# number of rings (size 3 to 8) (size 9 to 14) (size 15 to 20)
#    0.000    2.167    1.667    1.000    2.333    2.000 
#    0.000    5.000    0.000    0.000    0.000    5.833 
#    0.000    0.000    0.000    0.000    0.000    0.000 
#
# Total GULP energy -297660.842526 kJ/mol
# GULP energy per Si atom -12402.535105 kJ/mol
# Density = 1.897288 g / cm^3
# Si number density = 19.016164 Si / 1000 Ang^3
#
#
#
# Elastic Constant Matrix: (Units=GPa)
#
#
# Indices 1 2 3 4 5 6 
#
# 1 162.4791 30.7515 64.5192 0.0000 2.1366 0.0000
# 2 30.7515 37.1901 16.7356 0.0000 -1.2348 0.0000
# 3 64.5192 16.7356 92.1788 0.0000 9.0725 0.0000
# 4 0.0000 0.0000 0.0000 22.6759 0.0000 0.0206
# 5 2.1366 -1.2348 9.0725 0.0000 41.8755 0.0000
# 6 0.0000 0.0000 0.0000 0.0206 0.0000 28.8253
#
#
#
# Elastic Compliance Matrix: (Units=1/GPa)
#
#
# Indices 1 2 3 4 5 6 
#
# 1 0.009386 -0.005182 -0.005688 0.000000 0.000601 0.000000
# 2 -0.005182 0.032316 -0.002412 0.000000 0.001740 0.000000
# 3 -0.005688 -0.002412 0.015578 0.000000 -0.003156 0.000000
# 4 0.000000 0.000000 0.000000 0.044100 0.000000 -0.000032
# 5 0.000601 0.001740 -0.003156 0.000000 0.024585 0.000000
# 6 0.000000 0.000000 0.000000 -0.000032 0.000000 0.034692
#
#
# Mechanical properties :
#
#
# Convention : Reuss Voigt Hill
#
# Bulk Modulus (GPa) = 32.55408 57.31783 44.93595
# Shear Modulus (GPa) = 25.32171 30.66478 27.99325
#
# Velocity S-wave (km/s) = 3.65305 4.02003 3.84093
# Velocity P-wave (km/s) = 5.91180 7.19407 6.58422
#
# Compressibility (1/GPa) = 0.03071812
#
# Stress axis : x y z
#
# Youngs Moduli (GPa) = 106.54053 30.94403 64.19215
#
# Poissons Ratio (x) = 0.16034 0.36513
# Poissons Ratio (y) = 0.55205 0.15481
# Poissons Ratio (z) = 0.60601 0.07463
#
# Static dielectric constant tensor:
#      x y z
#    x 3.294560 0.000000 -0.240950 
#    y 0.000000 3.263650 0.000000 
#    z -0.240950 0.000000 3.471360 
# 
# 
# High freq. dielectric constant tensor:
#      x y z
#    x 1.749890 0.000000 -0.000250 
#    y 0.000000 1.718190 0.000000 
#    z -0.000250 0.000000 1.743810 
# 
# From -- ./inp_files/221711.got.cif
#   From: 2010.06.25/outbox.cif.g09.slc.cpg/sg12_111_cif.got.tgz:221711.got - 2010.06.28 00:19:55.
