data_PCOD8101471
_publ_section_title
;
Structure prediction by ZEFSAII (Michael W. Deem and Ramdas Pophale) SiO2 
 PCOD8101471
Probable space group: C 2/M
;
_chemical_formula_sum "Si O2"
_cell_formula_units_Z 56
_cell_length_a 18.460420
_cell_length_b 11.593761
_cell_length_c 14.746922
_cell_angle_alpha 90.000000
_cell_angle_beta 110.854894
_cell_angle_gamma 90.000000
_cell_volume 2949.440578
_symmetry_space_group_name_H-M "C 2/M"
_symmetry_group_IT_number 12
_symmetry_cell_setting 'monoclinic'
loop_
_space_group_symop_operation_xyz
x,y,z
-x,y,-z
-x,-y,-z
x,-y,z
1/2+x,1/2+y,z
1/2-x,1/2+y,-z
1/2-x,1/2-y,-z
1/2+x,1/2-y,z
loop_
_atom_site_type_symbol
_atom_site_label
_atom_site_fract_x
_atom_site_fract_y
_atom_site_fract_z
Si Si1 0.973682 0.876025 0.887230
Si Si2 0.439495 0.192062 0.174534
Si Si3 0.298184 0.867241 0.990491
Si Si4 0.579499 0.864187 0.496899
Si Si5 0.896267 0.627776 0.688643
Si Si6 0.181779 0.261400 0.188432
Si Si7 0.837269 0.365152 0.288257
O O1 0.894861 0.809136 0.861110
O O2 0.039820 0.817447 0.855320
O O3 0.958937 0.000000 0.834926
O O4 0.000000 0.891778 0.000000
O O5 0.380907 0.130266 0.078407
O O6 0.521207 0.125547 0.221896
O O7 0.399503 0.203266 0.254870
O O8 0.262800 0.000000 0.991068
O O9 0.250000 0.750000 0.000000
O O10 0.309421 0.855475 0.887499
O O11 0.500000 0.809972 0.500000
O O12 0.598374 0.807562 0.406989
O O13 0.647765 0.837915 0.599263
O O14 0.566642 0.000000 0.477286
O O15 0.868838 0.500000 0.656374
O O16 0.826894 0.679749 0.717480
O O17 0.252633 0.173297 0.221252
O O18 0.847483 0.500000 0.271571
#
# Coordination Sequence:
#
# PCOD8101471 Si02
#       7
#     8   8   8   8   8   8   8
#     4  10  21  38  56  79 115 158 201 241 289 354
#     4  11  21  36  58  86 110 151 195 241 295 342
#     4  12  25  39  57  87 125 163 203 247 299 357
#     4   9  17  32  57  86 109 141 188 242 298 350
#     4  10  20  36  58  83 115 145 186 246 299 350
#     4  11  23  37  54  85 118 157 195 237 300 353
#     4  11  21  36  58  84 115 147 193 247 296 350
#
# _framework density 18.986650999999998
#
# number of rings (size 3 to 8) (size 9 to 14) (size 15 to 20)
#    0.000    1.429    4.286    2.143    0.000    1.714 
#    0.000    2.143    0.000    0.000    0.000   10.000 
#    0.000    0.000    0.000    0.000    0.000    0.000 
#
# Total GULP energy -346877.733201 kJ/mol
# GULP energy per Si atom -12388.490471 kJ/mol
# Density = 1.894344 g / cm^3
# Si number density = 18.986651 Si / 1000 Ang^3
#
#
#
# Elastic Constant Matrix: (Units=GPa)
#
#
# Indices 1 2 3 4 5 6 
#
# 1 88.9983 36.3393 23.2145 0.0000 -17.0471 0.0000
# 2 36.3393 93.0954 22.5859 0.0000 -10.7573 0.0000
# 3 23.2145 22.5859 94.3812 0.0000 -17.3211 0.0000
# 4 0.0000 0.0000 0.0000 21.3107 0.0000 -2.4720
# 5 -17.0471 -10.7573 -17.3211 0.0000 39.4900 0.0000
# 6 0.0000 0.0000 0.0000 -2.4720 0.0000 19.5934
#
#
#
# Elastic Compliance Matrix: (Units=1/GPa)
#
#
# Indices 1 2 3 4 5 6 
#
# 1 0.014404 -0.004739 -0.001636 0.000000 0.004209 0.000000
# 2 -0.004739 0.013122 -0.001842 0.000000 0.000721 0.000000
# 3 -0.001636 -0.001842 0.012199 0.000000 0.004142 0.000000
# 4 0.000000 0.000000 0.000000 0.047622 0.000000 0.006008
# 5 0.004209 0.000721 0.004142 0.000000 0.029153 0.000000
# 6 0.000000 0.000000 0.000000 0.006008 0.000000 0.051796
#
#
# Mechanical properties :
#
#
# Convention : Reuss Voigt Hill
#
# Bulk Modulus (GPa) = 42.93778 48.97271 45.95524
# Shear Modulus (GPa) = 25.97476 29.03449 27.50463
#
# Velocity S-wave (km/s) = 3.70273 3.91475 3.81022
# Velocity P-wave (km/s) = 6.39876 6.80315 6.60405
#
# Compressibility (1/GPa) = 0.02328952
#
# Stress axis : x y z
#
# Youngs Moduli (GPa) = 69.42320 76.20887 81.97461
#
# Poissons Ratio (x) = 0.36118 0.13414
# Poissons Ratio (y) = 0.32902 0.15101
# Poissons Ratio (z) = 0.11360 0.14039
#
# Static dielectric constant tensor:
#      x y z
#    x 3.550780 0.000000 -0.157180 
#    y 0.000000 3.749000 0.000000 
#    z -0.157180 0.000000 3.587190 
# 
# 
# High freq. dielectric constant tensor:
#      x y z
#    x 1.736030 0.000000 -0.009890 
#    y 0.000000 1.711050 0.000000 
#    z -0.009890 0.000000 1.746820 
# 
# From -- ./inp_files/223339.got.cif
#   From: 2010.06.25/outbox.cif.g09.slc.cpg/sg12_112_cif.got.tgz:223339.got - 2010.06.28 00:19:55.
