data_PCOD8101752
_publ_section_title
;
Structure prediction by ZEFSAII (Michael W. Deem and Ramdas Pophale) SiO2 
 PCOD8101752
Probable space group: C 2/M
;
_chemical_formula_sum "Si O2"
_cell_formula_units_Z 48
_cell_length_a 31.230672
_cell_length_b 8.796505
_cell_length_c 16.350471
_cell_angle_alpha 90.000000
_cell_angle_beta 145.288328
_cell_angle_gamma 90.000000
_cell_volume 2557.849902
_symmetry_space_group_name_H-M "C 2/M"
_symmetry_group_IT_number 12
_symmetry_cell_setting 'monoclinic'
loop_
_space_group_symop_operation_xyz
x,y,z
-x,y,-z
-x,-y,-z
x,-y,z
1/2+x,1/2+y,z
1/2-x,1/2+y,-z
1/2-x,1/2-y,-z
1/2+x,1/2-y,z
loop_
_atom_site_type_symbol
_atom_site_label
_atom_site_fract_x
_atom_site_fract_y
_atom_site_fract_z
Si Si1 0.586475 0.176522 0.887125
Si Si2 0.726593 0.320673 0.548346
Si Si3 0.586436 0.824471 0.402872
Si Si4 0.850310 0.327186 0.327943
Si Si5 0.697087 0.675163 0.179109
Si Si6 0.831691 0.178196 0.134664
O O1 0.497899 0.202915 0.758448
O O2 0.613569 0.260689 0.848794
O O3 0.607004 0.000000 0.911456
O O4 0.623827 0.245231 0.026784
O O5 0.734674 0.500000 0.557251
O O6 0.750000 0.250000 0.500000
O O7 0.640420 0.276772 0.431600
O O8 0.782403 0.257221 0.704731
O O9 0.595678 0.777856 0.512619
O O10 0.611913 0.000000 0.433800
O O11 0.866627 0.500000 0.326635
O O12 0.763675 0.308048 0.218015
O O13 0.867878 0.218456 0.279243
O O14 0.679482 0.500000 0.170218
O O15 0.823589 0.000000 0.111311
O O16 0.750000 0.250000 0.000000
#
# Coordination Sequence:
#
# PCOD8101752 Si02
#       6
#     8   8   8   8   8   8
#     4  11  22  37  58  84 116 154 192 236 289 340
#     4  11  22  39  65  91 116 147 187 232 279 341
#     4   9  21  40  60  84 117 151 187 234 291 345
#     4   9  18  35  56  78 109 151 194 237 283 336
#     4  10  20  36  59  85 116 151 189 234 284 340
#     4  12  23  34  52  79 113 152 199 247 283 332
#
# _framework density 18.76576
#
# number of rings (size 3 to 8) (size 9 to 14) (size 15 to 20)
#    0.000    1.667    1.667    5.000    0.000    4.667 
#    0.000    4.167    0.000    5.000    0.000    0.000 
#    0.000    0.000    0.000    0.000    0.000    0.000 
#
# Total GULP energy -297709.494280 kJ/mol
# GULP energy per Si atom -12404.562262 kJ/mol
# Density = 1.872305 g / cm^3
# Si number density = 18.765760 Si / 1000 Ang^3
#
#
#
# Elastic Constant Matrix: (Units=GPa)
#
#
# Indices 1 2 3 4 5 6 
#
# 1 105.7480 69.6375 55.9785 0.0000 -22.8748 0.0000
# 2 69.6375 162.6027 64.4870 0.0000 -9.3180 0.0000
# 3 55.9785 64.4870 121.6855 0.0000 -4.2066 0.0000
# 4 0.0000 0.0000 0.0000 32.4709 0.0000 -3.6338
# 5 -22.8748 -9.3180 -4.2066 0.0000 22.7022 0.0000
# 6 0.0000 0.0000 0.0000 -3.6338 0.0000 32.8414
#
#
#
# Elastic Compliance Matrix: (Units=1/GPa)
#
#
# Indices 1 2 3 4 5 6 
#
# 1 0.019334 -0.005116 -0.005618 0.000000 0.016340 0.000000
# 2 -0.005116 0.009277 -0.002627 0.000000 -0.001833 0.000000
# 3 -0.005618 -0.002627 0.012039 0.000000 -0.004508 0.000000
# 4 0.000000 0.000000 0.000000 0.031183 0.000000 0.003450
# 5 0.016340 -0.001833 -0.004508 0.000000 0.058925 0.000000
# 6 0.000000 0.000000 0.000000 0.003450 0.000000 0.030831
#
#
# Mechanical properties :
#
#
# Convention : Reuss Voigt Hill
#
# Bulk Modulus (GPa) = 71.79264 85.58246 78.68755
# Shear Modulus (GPa) = 25.91307 30.93176 28.42242
#
# Velocity S-wave (km/s) = 3.72004 4.06434 3.89599
# Velocity P-wave (km/s) = 7.53604 8.22981 7.89055
#
# Compressibility (1/GPa) = 0.01392900
#
# Stress axis : x y z
#
# Youngs Moduli (GPa) = 51.72297 107.78842 83.06635
#
# Poissons Ratio (x) = 0.55139 0.46668
# Poissons Ratio (y) = 0.26459 0.21819
# Poissons Ratio (z) = 0.29059 0.28312
#
# Static dielectric constant tensor:
#      x y z
#    x 3.289820 0.000000 -0.123830 
#    y 0.000000 3.568050 0.000000 
#    z -0.123830 0.000000 3.572790 
# 
# 
# High freq. dielectric constant tensor:
#      x y z
#    x 1.711180 0.000000 -0.010970 
#    y 0.000000 1.738080 0.000000 
#    z -0.010970 0.000000 1.734790 
# 
# From -- ./inp_files/244912.got.cif
#   From: 2010.06.25/outbox.cif.g09.slc.cpg/sg12_123_cif.got.tgz:244912.got - 2010.06.28 00:19:55.
