data_PCOD8101962
_publ_section_title
;
Structure prediction by ZEFSAII (Michael W. Deem and Ramdas Pophale) SiO2 
 PCOD8101962
Probable space group: C 2/M
;
_chemical_formula_sum "Si O2"
_cell_formula_units_Z 64
_cell_length_a 15.278521
_cell_length_b 8.988835
_cell_length_c 24.872042
_cell_angle_alpha 90.000000
_cell_angle_beta 73.627590
_cell_angle_gamma 90.000000
_cell_volume 3277.316863
_symmetry_space_group_name_H-M "C 2/M"
_symmetry_group_IT_number 12
_symmetry_cell_setting 'monoclinic'
loop_
_space_group_symop_operation_xyz
x,y,z
-x,y,-z
-x,-y,-z
x,-y,z
1/2+x,1/2+y,z
1/2-x,1/2+y,-z
1/2-x,1/2-y,-z
1/2+x,1/2-y,z
loop_
_atom_site_type_symbol
_atom_site_label
_atom_site_fract_x
_atom_site_fract_y
_atom_site_fract_z
Si Si1 0.542670 0.823687 0.140142
Si Si2 0.822040 0.671474 0.638533
Si Si3 0.470100 0.824062 0.261824
Si Si4 0.722277 0.173480 0.743944
Si Si5 0.267575 0.822814 0.940076
Si Si6 0.795785 0.176601 0.441064
Si Si7 0.152256 0.325459 0.870672
Si Si8 0.022044 0.672332 0.619460
O O1 0.536225 0.762080 0.202940
O O2 0.634401 0.760859 0.097285
O O3 0.452099 0.775721 0.122929
O O4 0.547407 0.000000 0.140122
O O5 0.800806 0.500000 0.651056
O O6 0.805643 0.747678 0.699195
O O7 0.758174 0.735599 0.602234
O O8 0.927849 0.695566 0.603306
O O9 0.368526 0.764081 0.268968
O O10 0.499661 0.773648 0.315905
O O11 0.468784 0.000000 0.256271
O O12 0.716747 0.210558 0.808205
O O13 0.733815 0.000000 0.732733
O O14 0.187908 0.771091 0.913940
O O15 0.266176 0.000000 0.945187
O O16 0.250000 0.750000 0.000000
O O17 0.750000 0.250000 0.500000
O O18 0.900653 0.227000 0.420517
O O19 0.789777 0.000000 0.447329
O O20 0.156370 0.500000 0.884147
O O21 0.053633 0.500000 0.613029
#
# Coordination Sequence:
#
# PCOD8101962 Si02
#       8
#     8   8   8   8   8   8   8   8
#     4   8  17  34  56  81 109 149 191 225 271 340
#     4  10  22  36  56  87 118 147 185 236 284 332
#     4   8  14  29  55  83 109 142 185 222 265 335
#     4   9  17  32  57  85 115 148 182 226 279 338
#     4  11  23  38  58  82 112 150 194 239 283 338
#     4  11  24  42  60  82 115 153 194 239 285 335
#     4   9  19  37  58  82 112 146 188 233 278 331
#     4  10  20  36  60  86 113 149 187 230 280 335
#
# _framework density 19.528168999999998
#
# number of rings (size 3 to 8) (size 9 to 14) (size 15 to 20)
#    0.000    2.500    1.250    2.250    1.750    2.500 
#    0.000    6.250    0.000    1.500    0.000    0.000 
#    0.000    0.000    0.000    0.000    0.000    0.000 
#
# Total GULP energy -396673.168819 kJ/mol
# GULP energy per Si atom -12396.036526 kJ/mol
# Density = 1.948372 g / cm^3
# Si number density = 19.528169 Si / 1000 Ang^3
#
#
#
# Elastic Constant Matrix: (Units=GPa)
#
#
# Indices 1 2 3 4 5 6 
#
# 1 72.7907 20.1940 36.1242 0.0000 -13.3310 0.0000
# 2 20.1940 46.1519 34.4338 0.0000 -2.2894 0.0000
# 3 36.1242 34.4338 115.2106 0.0000 -16.4444 0.0000
# 4 0.0000 0.0000 0.0000 32.4891 0.0000 -1.1338
# 5 -13.3310 -2.2894 -16.4444 0.0000 28.9214 0.0000
# 6 0.0000 0.0000 0.0000 -1.1338 0.0000 27.2364
#
#
#
# Elastic Compliance Matrix: (Units=1/GPa)
#
#
# Indices 1 2 3 4 5 6 
#
# 1 0.017850 -0.005117 -0.003212 0.000000 0.005996 0.000000
# 2 -0.005117 0.029556 -0.007871 0.000000 -0.004494 0.000000
# 3 -0.003212 -0.007871 0.012776 0.000000 0.005161 0.000000
# 4 0.000000 0.000000 0.000000 0.030824 0.000000 0.001283
# 5 0.005996 -0.004494 0.005161 0.000000 0.039919 0.000000
# 6 0.000000 0.000000 0.000000 0.001283 0.000000 0.036769
#
#
# Mechanical properties :
#
#
# Convention : Reuss Voigt Hill
#
# Bulk Modulus (GPa) = 35.99282 46.18414 41.08848
# Shear Modulus (GPa) = 23.88322 27.28947 25.58635
#
# Velocity S-wave (km/s) = 3.50096 3.74229 3.62363
# Velocity P-wave (km/s) = 5.90030 6.50956 6.21240
#
# Compressibility (1/GPa) = 0.02778332
#
# Stress axis : x y z
#
# Youngs Moduli (GPa) = 56.02391 33.83444 78.27337
#
# Poissons Ratio (x) = 0.17312 0.25138
# Poissons Ratio (y) = 0.28665 0.61606
# Poissons Ratio (z) = 0.17993 0.26630
#
# Static dielectric constant tensor:
#      x y z
#    x 3.806930 0.000000 -0.153840 
#    y 0.000000 3.198570 0.000000 
#    z -0.153840 0.000000 3.810620 
# 
# 
# High freq. dielectric constant tensor:
#      x y z
#    x 1.764470 0.000000 -0.002890 
#    y 0.000000 1.728360 0.000000 
#    z -0.002890 0.000000 1.763470 
# 
# From -- ./inp_files/359687.got.cif
#   From: 2010.06.25/outbox.cif.g09.slc.cpg/sg12_180_cif.got.tgz:359687.got - 2010.06.28 00:19:55.
