data_PCOD8101756
_publ_section_title
;
Structure prediction by ZEFSAII (Michael W. Deem and Ramdas Pophale) SiO2 
 PCOD8101756
Probable space group: C 2/M
;
_chemical_formula_sum "Si O2"
_cell_formula_units_Z 48
_cell_length_a 14.979062
_cell_length_b 8.429177
_cell_length_c 18.912569
_cell_angle_alpha 90.000000
_cell_angle_beta 90.658406
_cell_angle_gamma 90.000000
_cell_volume 2387.765331
_symmetry_space_group_name_H-M "C 2/M"
_symmetry_group_IT_number 12
_symmetry_cell_setting 'monoclinic'
loop_
_space_group_symop_operation_xyz
x,y,z
-x,y,-z
-x,-y,-z
x,-y,z
1/2+x,1/2+y,z
1/2-x,1/2+y,-z
1/2-x,1/2-y,-z
1/2+x,1/2-y,z
loop_
_atom_site_type_symbol
_atom_site_label
_atom_site_fract_x
_atom_site_fract_y
_atom_site_fract_z
Si Si1 0.227894 0.684696 0.076237
Si Si2 0.570614 0.686004 0.162639
Si Si3 0.381646 0.184198 0.171303
Si Si4 0.989840 0.813151 0.421400
Si Si5 0.363661 0.688787 0.685014
Si Si6 0.663374 0.186398 0.670799
O O1 0.205185 0.500000 0.072252
O O2 0.141261 0.778363 0.102286
O O3 0.310980 0.711613 0.128491
O O4 0.250000 0.750000 0.000000
O O5 0.550060 0.500000 0.165842
O O6 0.479904 0.778275 0.143365
O O7 0.608945 0.751001 0.237340
O O8 0.376770 0.232308 0.253474
O O9 0.357574 0.000000 0.160160
O O10 0.892778 0.772158 0.390413
O O11 0.000000 0.740164 0.500000
O O12 0.067360 0.740941 0.371938
O O13 0.001661 0.000000 0.424578
O O14 0.364484 0.500000 0.685844
O O15 0.264615 0.750173 0.665852
O O16 0.658559 0.000000 0.657790
#
# Coordination Sequence:
#
# PCOD8101756 Si02
#       6
#     8   8   8   8   8   8
#     4  12  26  44  65  93 127 163 202 252 308 366
#     4  11  21  39  65  92 123 162 204 254 310 365
#     4  11  22  39  63  94 124 159 207 256 304 367
#     4  10  21  37  57  85 121 159 201 250 304 363
#     4   9  18  35  58  84 117 157 197 245 304 360
#     4  10  20  36  59  85 116 156 201 248 301 361
#
# _framework density 20.102478999999999
#
# number of rings (size 3 to 8) (size 9 to 14) (size 15 to 20)
#    0.000    1.500    3.333    2.500    0.000    2.333 
#    0.000    4.167    0.000    0.000    0.000    0.000 
#    0.000    0.000    0.000    0.000    0.000    0.000 
#
# Total GULP energy -297717.060079 kJ/mol
# GULP energy per Si atom -12404.877503 kJ/mol
# Density = 2.005673 g / cm^3
# Si number density = 20.102479 Si / 1000 Ang^3
#
#
#
# Elastic Constant Matrix: (Units=GPa)
#
#
# Indices 1 2 3 4 5 6 
#
# 1 110.2513 8.8352 4.9088 0.0000 -11.0783 0.0000
# 2 8.8352 37.0468 24.5915 0.0000 1.4251 0.0000
# 3 4.9088 24.5915 73.1231 0.0000 -13.1512 0.0000
# 4 0.0000 0.0000 0.0000 23.2550 0.0000 4.6565
# 5 -11.0783 1.4251 -13.1512 0.0000 34.1707 0.0000
# 6 0.0000 0.0000 0.0000 4.6565 0.0000 32.4465
#
#
#
# Elastic Compliance Matrix: (Units=1/GPa)
#
#
# Indices 1 2 3 4 5 6 
#
# 1 0.009644 -0.003154 0.001074 0.000000 0.003671 0.000000
# 2 -0.003154 0.037131 -0.013685 0.000000 -0.007838 0.000000
# 3 0.001074 -0.013685 0.019737 0.000000 0.008515 0.000000
# 4 0.000000 0.000000 0.000000 0.044274 0.000000 -0.006354
# 5 0.003671 -0.007838 0.008515 0.000000 0.034059 0.000000
# 6 0.000000 0.000000 0.000000 -0.006354 0.000000 0.031732
#
#
# Mechanical properties :
#
#
# Convention : Reuss Voigt Hill
#
# Bulk Modulus (GPa) = 28.58679 33.01024 30.79852
# Shear Modulus (GPa) = 22.75129 30.11348 26.43239
#
# Velocity S-wave (km/s) = 3.36782 3.87460 3.63006
# Velocity P-wave (km/s) = 5.41981 6.03931 5.73793
#
# Compressibility (1/GPa) = 0.03498120
#
# Stress axis : x y z
#
# Youngs Moduli (GPa) = 103.69109 26.93196 50.66559
#
# Poissons Ratio (x) = 0.08494 -0.05439
# Poissons Ratio (y) = 0.32702 0.69336
# Poissons Ratio (z) = -0.11131 0.36857
#
# Static dielectric constant tensor:
#      x y z
#    x 3.808610 0.000000 -0.086220 
#    y 0.000000 3.370780 0.000000 
#    z -0.086220 0.000000 3.775790 
# 
# 
# High freq. dielectric constant tensor:
#      x y z
#    x 1.799990 0.000000 -0.002390 
#    y 0.000000 1.765740 0.000000 
#    z -0.002390 0.000000 1.783450 
# 
# From -- ./inp_files/267652.got.cif
#   From: 2010.06.25/outbox.cif.g09.slc.cpg/sg12_134_cif.got.tgz:267652.got - 2010.06.28 00:19:55.
