data_PCOD8101634
_publ_section_title
;
Structure prediction by ZEFSAII (Michael W. Deem and Ramdas Pophale) SiO2 
 PCOD8101634
Probable space group: C 2/M
;
_chemical_formula_sum "Si O2"
_cell_formula_units_Z 56
_cell_length_a 17.839562
_cell_length_b 8.933828
_cell_length_c 28.629147
_cell_angle_alpha 90.000000
_cell_angle_beta 39.185836
_cell_angle_gamma 90.000000
_cell_volume 2882.940807
_symmetry_space_group_name_H-M "C 2/M"
_symmetry_group_IT_number 12
_symmetry_cell_setting 'monoclinic'
loop_
_space_group_symop_operation_xyz
x,y,z
-x,y,-z
-x,-y,-z
x,-y,z
1/2+x,1/2+y,z
1/2-x,1/2+y,-z
1/2-x,1/2-y,-z
1/2+x,1/2-y,z
loop_
_atom_site_type_symbol
_atom_site_label
_atom_site_fract_x
_atom_site_fract_y
_atom_site_fract_z
Si Si1 0.765343 0.673031 0.718908
Si Si2 0.205655 0.677283 0.568758
Si Si3 0.481991 0.176944 0.145148
Si Si4 0.636145 0.827852 0.431263
Si Si5 0.578695 0.672892 0.007309
Si Si6 0.157852 0.678092 0.139921
Si Si7 0.440428 0.822178 0.714947
O O1 0.734263 0.500000 0.743336
O O2 0.647288 0.768481 0.778757
O O3 0.822927 0.697959 0.641059
O O4 0.857583 0.734025 0.712821
O O5 0.207210 0.500000 0.562184
O O6 0.250000 0.750000 0.500000
O O7 0.288845 0.722668 0.571311
O O8 0.073387 0.737878 0.643036
O O9 0.519115 0.234386 0.076917
O O10 0.573901 0.238635 0.139306
O O11 0.482341 0.000000 0.144475
O O12 0.500000 0.778719 0.500000
O O13 0.651984 0.000000 0.439361
O O14 0.583617 0.500000 0.020009
O O15 0.500000 0.696387 0.000000
O O16 0.709595 0.736932 0.933724
O O17 0.157830 0.500000 0.142294
O O18 0.110817 0.743535 0.211793
O O19 0.442217 0.000000 0.715628
#
# Coordination Sequence:
#
# PCOD8101634 Si02
#       7
#     8   8   8   8   8   8   8
#     4  10  20  36  59  82 107 144 188 228 268 324
#     4  11  22  37  59  85 115 150 188 232 284 340
#     4  11  22  35  53  80 115 146 174 220 279 330
#     4  10  21  38  59  84 115 150 190 235 281 330
#     4  10  20  36  59  81 102 137 185 228 266 322
#     4   9  18  33  54  80 108 139 178 223 271 324
#     4   9  18  35  58  81 106 142 186 229 274 325
#
# _framework density 19.424609
#
# number of rings (size 3 to 8) (size 9 to 14) (size 15 to 20)
#    0.000    2.000    0.000    3.857    0.000    6.857 
#    0.000    3.571    0.000    5.143    0.000    0.000 
#    0.000    0.000    0.000    0.000    0.000    0.000 
#
# Total GULP energy -347306.800553 kJ/mol
# GULP energy per Si atom -12403.814305 kJ/mol
# Density = 1.938040 g / cm^3
# Si number density = 19.424609 Si / 1000 Ang^3
#
#
#
# Elastic Constant Matrix: (Units=GPa)
#
#
# Indices 1 2 3 4 5 6 
#
# 1 128.3731 40.6340 55.9300 -0.0002 -15.4569 0.0001
# 2 40.6340 48.1590 37.2870 -0.0004 -1.0272 -0.0012
# 3 55.9300 37.2870 144.9850 0.0000 -15.6802 -0.0002
# 4 -0.0002 -0.0004 0.0000 20.4948 0.0000 -5.3294
# 5 -15.4569 -1.0272 -15.6802 0.0000 41.3079 -0.0002
# 6 0.0001 -0.0012 -0.0002 -5.3294 -0.0002 26.5745
#
#
#
# Elastic Compliance Matrix: (Units=1/GPa)
#
#
# Indices 1 2 3 4 5 6 
#
# 1 0.011682 -0.008216 -0.002026 0.000000 0.003398 0.000000
# 2 -0.008216 0.031859 -0.005497 0.000001 -0.004368 0.000002
# 3 -0.002026 -0.005497 0.009381 0.000000 0.002666 0.000000
# 4 0.000000 0.000001 0.000000 0.051477 0.000000 0.010323
# 5 0.003398 -0.004368 0.002666 0.000000 0.026383 0.000000
# 6 0.000000 0.000002 0.000000 0.010323 0.000000 0.039700
#
#
# Mechanical properties :
#
#
# Convention : Reuss Voigt Hill
#
# Bulk Modulus (GPa) = 46.63036 65.46879 56.04958
# Shear Modulus (GPa) = 23.91107 30.18651 27.04879
#
# Velocity S-wave (km/s) = 3.51232 3.94640 3.73567
# Velocity P-wave (km/s) = 6.36447 7.38530 6.89381
#
# Compressibility (1/GPa) = 0.02144525
#
# Stress axis : x y z
#
# Youngs Moduli (GPa) = 85.60049 31.38833 106.60016
#
# Poissons Ratio (x) = 0.25787 0.21600
# Poissons Ratio (y) = 0.70325 0.58594
# Poissons Ratio (z) = 0.17345 0.17253
#
# Static dielectric constant tensor:
#      x y z
#    x 3.491820 0.000000 0.079710 
#    y 0.000000 3.274270 0.000000 
#    z 0.079710 0.000000 3.717960 
# 
# 
# High freq. dielectric constant tensor:
#      x y z
#    x 1.775330 0.000000 -0.000450 
#    y 0.000000 1.722180 0.000000 
#    z -0.000450 0.000000 1.777920 
# 
# From -- ./inp_files/377666.got.cif
#   From: 2010.06.25/outbox.cif.g09.slc.cpg/sg12_189_cif.got.tgz:377666.got - 2010.06.28 00:19:55.
