data_PCOD8101510
_publ_section_title
;
Structure prediction by ZEFSAII (Michael W. Deem and Ramdas Pophale) SiO2 
 PCOD8101510
Probable space group: C 2/M
;
_chemical_formula_sum "Si O2"
_cell_formula_units_Z 48
_cell_length_a 19.046882
_cell_length_b 8.566370
_cell_length_c 29.577347
_cell_angle_alpha 90.000000
_cell_angle_beta 30.863317
_cell_angle_gamma 90.000000
_cell_volume 2475.656254
_symmetry_space_group_name_H-M "C 2/M"
_symmetry_group_IT_number 12
_symmetry_cell_setting 'monoclinic'
loop_
_space_group_symop_operation_xyz
x,y,z
-x,y,-z
-x,-y,-z
x,-y,z
1/2+x,1/2+y,z
1/2-x,1/2+y,-z
1/2-x,1/2-y,-z
1/2+x,1/2-y,z
loop_
_atom_site_type_symbol
_atom_site_label
_atom_site_fract_x
_atom_site_fract_y
_atom_site_fract_z
Si Si1 0.356596 0.682677 0.476517
Si Si2 0.913255 0.818946 0.782145
Si Si3 0.831143 0.318802 0.242766
Si Si4 0.638901 0.183465 0.095074
Si Si5 0.371976 0.819532 0.711319
Si Si6 0.776864 0.818833 0.365731
O O1 0.330807 0.500000 0.495545
O O2 0.250000 0.750000 0.500000
O O3 0.509538 0.713361 0.375431
O O4 0.337042 0.763610 0.535872
O O5 0.838832 0.764372 0.868883
O O6 0.850477 0.721140 0.775679
O O7 0.074824 0.784343 0.694946
O O8 0.882967 0.000000 0.790864
O O9 0.809552 0.500000 0.244292
O O10 0.768654 0.217822 0.236729
O O11 0.756234 0.277253 0.331151
O O12 0.990256 0.273105 0.157742
O O13 0.656305 0.000000 0.091548
O O14 0.750000 0.250000 0.000000
O O15 0.410903 0.000000 0.684478
O O16 0.757519 0.000000 0.365185
#
# Coordination Sequence:
#
# PCOD8101510 Si02
#       6
#     8   8   8   8   8   8
#     4  12  23  36  56  83 116 155 201 246 287 337
#     4  10  20  36  60  86 117 153 192 237 289 346
#     4  10  22  40  60  85 119 154 191 238 294 348
#     4  10  21  39  65  92 118 149 189 235 286 349
#     4  12  24  38  58  85 119 156 196 242 292 343
#     4  10  20  36  58  84 114 153 199 243 288 341
#
# _framework density 19.388798000000001
#
# number of rings (size 3 to 8) (size 9 to 14) (size 15 to 20)
#    0.000    1.333    1.667    5.000    0.000    4.000 
#    0.000    4.167    0.000    5.000    0.000    0.000 
#    0.000    0.000    0.000    0.000    0.000    0.000 
#
# Total GULP energy -297777.596391 kJ/mol
# GULP energy per Si atom -12407.399850 kJ/mol
# Density = 1.934467 g / cm^3
# Si number density = 19.388798 Si / 1000 Ang^3
#
#
#
# Elastic Constant Matrix: (Units=GPa)
#
#
# Indices 1 2 3 4 5 6 
#
# 1 116.6024 33.5621 42.2211 0.0025 8.6303 -0.0122
# 2 33.5621 76.5891 17.0899 0.0022 0.6645 0.0054
# 3 42.2211 17.0899 97.2313 -0.0008 21.1456 0.0013
# 4 0.0025 0.0022 -0.0008 32.0094 0.0017 5.0478
# 5 8.6303 0.6645 21.1456 0.0017 25.5112 -0.0028
# 6 -0.0122 0.0054 0.0013 5.0478 -0.0028 36.7971
#
#
#
# Elastic Compliance Matrix: (Units=1/GPa)
#
#
# Indices 1 2 3 4 5 6 
#
# 1 0.011240 -0.004005 -0.004114 -0.000001 -0.000288 0.000005
# 2 -0.004005 0.015099 -0.001371 0.000000 0.002098 -0.000003
# 3 -0.004114 -0.001371 0.014641 0.000002 -0.010708 -0.000003
# 4 -0.000001 0.000000 0.000002 0.031932 -0.000004 -0.004380
# 5 -0.000288 0.002098 -0.010708 -0.000004 0.048117 0.000004
# 6 0.000005 -0.000003 -0.000003 -0.004380 0.000004 0.027777
#
#
# Mechanical properties :
#
#
# Convention : Reuss Voigt Hill
#
# Bulk Modulus (GPa) = 45.45492 52.90768 49.18130
# Shear Modulus (GPa) = 28.55188 32.03352 30.29270
#
# Velocity S-wave (km/s) = 3.84161 4.06909 3.95699
# Velocity P-wave (km/s) = 6.57054 7.03020 6.80425
#
# Compressibility (1/GPa) = 0.02199982
#
# Stress axis : x y z
#
# Youngs Moduli (GPa) = 88.96833 66.22756 68.30106
#
# Poissons Ratio (x) = 0.26524 0.28101
# Poissons Ratio (y) = 0.35631 0.09365
# Poissons Ratio (z) = 0.36604 0.09081
#
# Static dielectric constant tensor:
#      x y z
#    x 3.589950 -0.000020 0.091600 
#    y -0.000020 3.613210 0.000000 
#    z 0.091600 0.000000 3.388960 
# 
# 
# High freq. dielectric constant tensor:
#      x y z
#    x 1.758230 0.000000 0.012640 
#    y 0.000000 1.771840 0.000000 
#    z 0.012640 0.000000 1.736250 
# 
# From -- ./inp_files/229949.got.cif
#   From: 2010.06.25/outbox.cif.g09.slc.cpg/sg12_115_cif.got.tgz:229949.got - 2010.06.28 00:19:55.
