data_PCOD8101461
_publ_section_title
;
Structure prediction by ZEFSAII (Michael W. Deem and Ramdas Pophale) SiO2 
 PCOD8101461
Probable space group: C 2/M
;
_chemical_formula_sum "Si O2"
_cell_formula_units_Z 56
_cell_length_a 19.254299
_cell_length_b 9.410287
_cell_length_c 25.121284
_cell_angle_alpha 90.000000
_cell_angle_beta 39.920866
_cell_angle_gamma 90.000000
_cell_volume 2920.949598
_symmetry_space_group_name_H-M "C 2/M"
_symmetry_group_IT_number 12
_symmetry_cell_setting 'monoclinic'
loop_
_space_group_symop_operation_xyz
x,y,z
-x,y,-z
-x,-y,-z
x,-y,z
1/2+x,1/2+y,z
1/2-x,1/2+y,-z
1/2-x,1/2-y,-z
1/2+x,1/2-y,z
loop_
_atom_site_type_symbol
_atom_site_label
_atom_site_fract_x
_atom_site_fract_y
_atom_site_fract_z
Si Si1 0.690530 0.840237 0.692393
Si Si2 0.916874 0.833596 0.003158
Si Si3 0.326799 0.159599 0.417723
Si Si4 0.302012 0.661796 0.867892
Si Si5 0.018683 0.166305 0.154018
Si Si6 0.027006 0.838010 0.321533
Si Si7 0.918997 0.831433 0.592131
O O1 0.723148 0.844776 0.611406
O O2 0.588449 0.742978 0.763588
O O3 0.796544 0.773784 0.658106
O O4 0.664388 0.000000 0.728092
O O5 0.964639 0.795906 0.917413
O O6 0.894934 0.000000 0.022117
O O7 0.803128 0.756914 0.076133
O O8 0.000000 0.780820 0.000000
O O9 0.250000 0.250000 0.500000
O O10 0.442750 0.233224 0.343853
O O11 0.338472 0.000000 0.433815
O O12 0.266750 0.500000 0.900258
O O13 0.378480 0.717378 0.871241
O O14 0.362073 0.673173 0.776124
O O15 0.001197 0.000000 0.174096
O O16 0.041525 0.784744 0.373140
O O17 0.983196 0.000000 0.346036
O O18 0.000000 0.766529 0.500000
O O19 0.914835 0.000000 0.588254
#
# Coordination Sequence:
#
# PCOD8101461 Si02
#       7
#     8   8   8   8   8   8   8
#     4  10  21  36  58  86 111 147 195 234 278 335
#     4  10  23  40  59  85 116 151 186 226 281 341
#     4  11  22  36  57  85 115 149 190 234 280 332
#     4  10  21  37  59  86 113 148 190 232 281 332
#     4  10  21  39  59  82 115 150 184 231 287 334
#     4  10  20  36  58  83 114 149 187 233 282 333
#     4   9  18  34  55  79 111 149 188 232 279 327
#
# _framework density 19.171849000000002
#
# number of rings (size 3 to 8) (size 9 to 14) (size 15 to 20)
#    0.000    2.000    1.429    1.714    2.000    4.857 
#    0.000    0.714    0.000    1.714    0.000    0.000 
#    0.000    0.000    0.000    0.000    0.000    0.000 
#
# Total GULP energy -347230.974580 kJ/mol
# GULP energy per Si atom -12401.106235 kJ/mol
# Density = 1.912821 g / cm^3
# Si number density = 19.171849 Si / 1000 Ang^3
#
#
#
# Elastic Constant Matrix: (Units=GPa)
#
#
# Indices 1 2 3 4 5 6 
#
# 1 114.4505 26.2545 44.0543 0.0000 1.2176 -0.0001
# 2 26.2545 63.6745 41.3126 0.0000 -7.5524 -0.0001
# 3 44.0543 41.3126 98.7516 0.0000 -4.2278 0.0000
# 4 0.0000 0.0000 0.0000 33.0780 0.0000 -4.9593
# 5 1.2176 -7.5524 -4.2278 0.0000 39.1630 0.0000
# 6 -0.0001 -0.0001 0.0000 -4.9593 0.0000 20.3176
#
#
#
# Elastic Compliance Matrix: (Units=1/GPa)
#
#
# Indices 1 2 3 4 5 6 
#
# 1 0.010748 -0.001956 -0.004026 0.000000 -0.001146 0.000000
# 2 -0.001956 0.022318 -0.008316 0.000000 0.003467 0.000000
# 3 -0.004026 -0.008316 0.015409 0.000000 0.000185 0.000000
# 4 0.000000 0.000000 0.000000 0.031380 0.000000 0.007660
# 5 -0.001146 0.003467 0.000185 0.000000 0.026258 0.000000
# 6 0.000000 0.000000 0.000000 0.007660 0.000000 0.051088
#
#
# Mechanical properties :
#
#
# Convention : Reuss Voigt Hill
#
# Bulk Modulus (GPa) = 50.30019 55.56884 52.93452
# Shear Modulus (GPa) = 25.98456 29.52874 27.75665
#
# Velocity S-wave (km/s) = 3.68550 3.92881 3.80910
# Velocity P-wave (km/s) = 6.66363 7.04473 6.85683
#
# Compressibility (1/GPa) = 0.01988064
#
# Stress axis : x y z
#
# Youngs Moduli (GPa) = 93.04276 44.80728 64.89664
#
# Poissons Ratio (x) = 0.08762 0.26125
# Poissons Ratio (y) = 0.18195 0.53967
# Poissons Ratio (z) = 0.37456 0.37261
#
# Static dielectric constant tensor:
#      x y z
#    x 3.796700 0.000000 0.097830 
#    y 0.000000 3.422350 0.000000 
#    z 0.097830 0.000000 3.457350 
# 
# 
# High freq. dielectric constant tensor:
#      x y z
#    x 1.757920 0.000000 0.003440 
#    y 0.000000 1.725070 0.000000 
#    z 0.003440 0.000000 1.751700 
# 
# From -- ./inp_files/230920.got.cif
#   From: 2010.06.25/outbox.cif.g09.slc.cpg/sg12_116_cif.got.tgz:230920.got - 2010.06.28 00:19:55.
