data_PCOD8101173
_publ_section_title
;
Structure prediction by ZEFSAII (Michael W. Deem and Ramdas Pophale) SiO2 
 PCOD8101173
Probable space group: C 2/M
;
_chemical_formula_sum "Si O2"
_cell_formula_units_Z 56
_cell_length_a 21.714647
_cell_length_b 28.406371
_cell_length_c 9.248537
_cell_angle_alpha 90.000000
_cell_angle_beta 149.646748
_cell_angle_gamma 90.000000
_cell_volume 2882.813405
_symmetry_space_group_name_H-M "C 2/M"
_symmetry_group_IT_number 12
_symmetry_cell_setting 'monoclinic'
loop_
_space_group_symop_operation_xyz
x,y,z
-x,y,-z
-x,-y,-z
x,-y,z
1/2+x,1/2+y,z
1/2-x,1/2+y,-z
1/2-x,1/2-y,-z
1/2+x,1/2-y,z
loop_
_atom_site_type_symbol
_atom_site_label
_atom_site_fract_x
_atom_site_fract_y
_atom_site_fract_z
Si Si1 0.583577 0.221904 0.307390
Si Si2 0.870084 0.000000 0.396701
Si Si3 0.683362 0.666235 0.270639
Si Si4 0.220909 0.408874 0.743093
Si Si5 0.222458 0.897648 0.814815
Si Si6 0.424643 0.676293 0.643001
Si Si7 0.983643 0.639113 0.303659
Si Si8 0.640998 0.500000 0.965705
O O1 0.716498 0.207164 0.521707
O O2 0.611352 0.269118 0.456468
O O3 0.515108 0.182342 0.262155
O O4 0.500000 0.235663 0.000000
O O5 0.801586 0.950696 0.296597
O O6 0.880282 0.000000 0.246619
O O7 0.002130 0.000000 0.745635
O O8 0.746460 0.621688 0.328558
O O9 0.635745 0.655549 0.333976
O O10 0.570401 0.678629 0.939428
O O11 0.074168 0.405473 0.462034
O O12 0.277949 0.394729 0.012786
O O13 0.274886 0.458398 0.807032
O O14 0.117130 0.860104 0.564311
O O15 0.348492 0.879765 0.999481
O O16 0.000000 0.657988 0.500000
#
# Coordination Sequence:
#
# PCOD8101173 Si02
#       8
#     8   4   8   8   8   8   8   4
#     4  11  21  37  57  77 105 149 183 225 269 328
#     4   9  18  31  54  84 109 145 180 223 268 330
#     4  10  21  36  52  79 109 135 187 220 273 325
#     4   9  19  36  56  80 109 147 178 229 270 327
#     4  10  20  36  57  81 113 145 183 225 276 323
#     4  11  22  34  54  80 105 143 180 229 269 322
#     4   9  20  37  54  81 115 141 183 230 274 317
#     4   9  16  31  56  80 111 139 188 217 272 326
#
# _framework density 19.425469
#
# number of rings (size 3 to 8) (size 9 to 14) (size 15 to 20)
#    0.000    2.143    1.429    2.143    2.000    2.286 
#    2.571    5.714    0.000    2.571    0.000    5.500 
#    0.000    0.000    0.000    0.000    0.000    0.000 
#
# Total GULP energy -346937.826057 kJ/mol
# GULP energy per Si atom -12390.636645 kJ/mol
# Density = 1.938126 g / cm^3
# Si number density = 19.425469 Si / 1000 Ang^3
#
#
#
# Elastic Constant Matrix: (Units=GPa)
#
#
# Indices 1 2 3 4 5 6 
#
# 1 50.5239 18.2555 15.8781 0.0000 15.5565 0.0000
# 2 18.2555 122.0100 46.9684 0.0000 4.8088 0.0000
# 3 15.8781 46.9684 94.0972 0.0000 16.9549 0.0000
# 4 0.0000 0.0000 0.0000 -30.3378 0.0000 -7.2697
# 5 15.5565 4.8088 16.9549 0.0000 21.5810 0.0000
# 6 0.0000 0.0000 0.0000 -7.2697 0.0000 17.5549
#
#
#
# Elastic Compliance Matrix: (Units=1/GPa)
#
#
# Indices 1 2 3 4 5 6 
#
# 1 0.026694 -0.003501 0.000664 0.000000 -0.018984 0.000000
# 2 -0.003501 0.010680 -0.005552 0.000000 0.004506 0.000000
# 3 0.000664 -0.005552 0.015318 0.000000 -0.011276 0.000000
# 4 0.000000 0.000000 0.000000 -0.029987 0.000000 -0.012418
# 5 -0.018984 0.004506 -0.011276 0.000000 0.067876 0.000000
# 6 0.000000 0.000000 0.000000 -0.012418 0.000000 0.051822
#
#
# Mechanical properties :
#
#
# Convention : Reuss Voigt Hill
#
# Bulk Modulus (GPa) = 27.84477 47.64834 37.74655
# Shear Modulus (GPa) = 29.21363 14.12823 21.67093
#
# Velocity S-wave (km/s) = 3.88220 2.69978 3.34367
# Velocity P-wave (km/s) = 5.87031 5.85666 5.86349
#
# Compressibility (1/GPa) = 0.03591338
#
# Stress axis : x y z
#
# Youngs Moduli (GPa) = 37.46128 93.63725 65.28185
#
# Poissons Ratio (x) = 0.32786 -0.04334
# Poissons Ratio (y) = 0.13117 0.36243
# Poissons Ratio (z) = -0.02487 0.51985
#
# Static dielectric constant tensor:
#      x y z
#    x 3.515720 0.000000 0.281320 
#    y 0.000000 3.778530 0.000000 
#    z 0.281320 0.000000 3.691820 
# 
# 
# High freq. dielectric constant tensor:
#      x y z
#    x 1.743040 0.000000 0.021460 
#    y 0.000000 1.755290 0.000000 
#    z 0.021460 0.000000 1.759740 
# 
# From -- ./inp_files/91675.got.cif
#   From: 2010.06.25/outbox.cif.g09.slc.cpg/sg12_46_cif.got.tgz:91675.got - 2010.06.28 00:19:55.
