data_PCOD8101497
_publ_section_title
;
Structure prediction by ZEFSAII (Michael W. Deem and Ramdas Pophale) SiO2 
 PCOD8101497
Probable space group: C 2/M
;
_chemical_formula_sum "Si O2"
_cell_formula_units_Z 64
_cell_length_a 14.669050
_cell_length_b 8.558558
_cell_length_c 29.767603
_cell_angle_alpha 90.000000
_cell_angle_beta 119.286911
_cell_angle_gamma 90.000000
_cell_volume 3259.515849
_symmetry_space_group_name_H-M "C 2/M"
_symmetry_group_IT_number 12
_symmetry_cell_setting 'monoclinic'
loop_
_space_group_symop_operation_xyz
x,y,z
-x,y,-z
-x,-y,-z
x,-y,z
1/2+x,1/2+y,z
1/2-x,1/2+y,-z
1/2-x,1/2-y,-z
1/2+x,1/2-y,z
loop_
_atom_site_type_symbol
_atom_site_label
_atom_site_fract_x
_atom_site_fract_y
_atom_site_fract_z
Si Si1 0.321380 0.683460 0.575863
Si Si2 0.802761 0.319556 0.124343
Si Si3 0.168169 0.680676 0.244073
Si Si4 0.574884 0.318906 0.306995
Si Si5 0.931665 0.815794 0.943213
Si Si6 0.145351 0.320902 0.761557
Si Si7 0.393937 0.684747 0.496881
Si Si8 0.004327 0.182087 0.138222
O O1 0.303036 0.500000 0.568159
O O2 0.393724 0.730077 0.635146
O O3 0.380359 0.744497 0.545107
O O4 0.207836 0.761246 0.555299
O O5 0.829697 0.500000 0.120956
O O6 0.689142 0.273873 0.078169
O O7 0.805016 0.286371 0.177970
O O8 0.881997 0.207558 0.117370
O O9 0.196080 0.500000 0.244640
O O10 0.143563 0.715557 0.289877
O O11 0.266458 0.784348 0.253613
O O12 0.066219 0.721753 0.190577
O O13 0.597950 0.500000 0.303074
O O14 0.452662 0.289448 0.270715
O O15 0.969120 0.748910 0.904369
O O16 0.949316 0.000000 0.946334
O O17 0.000000 0.740796 0.000000
O O18 0.109442 0.500000 0.748418
O O19 0.500000 0.755128 0.500000
O O20 0.400681 0.500000 0.497016
O O21 0.034190 0.000000 0.149471
#
# Coordination Sequence:
#
# PCOD8101497 Si02
#       8
#     8   8   8   8   8   8   8   8
#     4   9  20  37  56  84 119 152 190 238 287 336
#     4  10  20  36  58  84 113 146 186 232 283 347
#     4  12  24  38  58  84 114 153 197 242 292 347
#     4  11  23  39  58  85 122 158 197 245 290 342
#     4   9  19  37  59  82 112 150 188 232 289 348
#     4  11  22  38  59  86 116 152 193 237 292 352
#     4   9  18  35  60  86 115 153 194 234 283 342
#     4  11  21  36  59  85 112 147 190 235 287 346
#
# _framework density 19.634817999999999
#
# number of rings (size 3 to 8) (size 9 to 14) (size 15 to 20)
#    0.000    1.750    2.500    2.250    0.000    3.250 
#    0.000    1.250    0.000    2.625    0.000    0.000 
#    0.000    0.000    0.000    0.000    0.000    0.000 
#
# Total GULP energy -396914.187967 kJ/mol
# GULP energy per Si atom -12403.568374 kJ/mol
# Density = 1.959013 g / cm^3
# Si number density = 19.634818 Si / 1000 Ang^3
#
#
#
# Elastic Constant Matrix: (Units=GPa)
#
#
# Indices 1 2 3 4 5 6 
#
# 1 106.9537 11.9611 16.2290 0.0000 -3.0506 0.0000
# 2 11.9611 39.6323 22.9250 0.0000 -2.0013 0.0000
# 3 16.2290 22.9250 87.6998 0.0000 -1.9379 0.0000
# 4 0.0000 0.0000 0.0000 14.5204 0.0000 6.6970
# 5 -3.0506 -2.0013 -1.9379 0.0000 26.7326 0.0000
# 6 0.0000 0.0000 0.0000 6.6970 0.0000 31.7334
#
#
#
# Elastic Compliance Matrix: (Units=1/GPa)
#
#
# Indices 1 2 3 4 5 6 
#
# 1 0.009807 -0.002212 -0.001217 0.000000 0.000865 0.000000
# 2 -0.002212 0.030300 -0.007479 0.000000 0.001474 0.000000
# 3 -0.001217 -0.007479 0.013589 0.000000 0.000286 0.000000
# 4 0.000000 0.000000 0.000000 0.076295 0.000000 -0.016101
# 5 0.000865 0.001474 0.000286 0.000000 0.037637 0.000000
# 6 0.000000 0.000000 0.000000 -0.016101 0.000000 0.034911
#
#
# Mechanical properties :
#
#
# Convention : Reuss Voigt Hill
#
# Bulk Modulus (GPa) = 31.36774 37.39069 34.37922
# Shear Modulus (GPa) = 21.27839 26.80866 24.04352
#
# Velocity S-wave (km/s) = 3.29554 3.69909 3.50313
# Velocity P-wave (km/s) = 5.52187 6.10973 5.82322
#
# Compressibility (1/GPa) = 0.03187988
#
# Stress axis : x y z
#
# Youngs Moduli (GPa) = 101.97213 33.00346 73.58842
#
# Poissons Ratio (x) = 0.07300 0.08959
# Poissons Ratio (y) = 0.22554 0.55034
# Poissons Ratio (z) = 0.12415 0.24682
#
# Static dielectric constant tensor:
#      x y z
#    x 3.675130 0.000000 -0.090700 
#    y 0.000000 3.353390 0.000000 
#    z -0.090700 0.000000 3.679810 
# 
# 
# High freq. dielectric constant tensor:
#      x y z
#    x 1.774990 0.000000 -0.000730 
#    y 0.000000 1.749200 0.000000 
#    z -0.000730 0.000000 1.761560 
# 
# From -- ./inp_files/375085.got.cif
#   From: 2010.06.25/outbox.cif.g09.slc.cpg/sg12_188_cif.got.tgz:375085.got - 2010.06.28 00:19:55.
