data_PCOD8101735
_publ_section_title
;
Structure prediction by ZEFSAII (Michael W. Deem and Ramdas Pophale) SiO2 
 PCOD8101735
Probable space group: C 2/M
;
_chemical_formula_sum "Si O2"
_cell_formula_units_Z 64
_cell_length_a 14.586977
_cell_length_b 8.553578
_cell_length_c 29.591429
_cell_angle_alpha 90.000000
_cell_angle_beta 60.304880
_cell_angle_gamma 90.000000
_cell_volume 3207.271571
_symmetry_space_group_name_H-M "C 2/M"
_symmetry_group_IT_number 12
_symmetry_cell_setting 'monoclinic'
loop_
_space_group_symop_operation_xyz
x,y,z
-x,y,-z
-x,-y,-z
x,-y,z
1/2+x,1/2+y,z
1/2-x,1/2+y,-z
1/2-x,1/2-y,-z
1/2+x,1/2-y,z
loop_
_atom_site_type_symbol
_atom_site_label
_atom_site_fract_x
_atom_site_fract_y
_atom_site_fract_z
Si Si1 0.617682 0.821595 0.760724
Si Si2 0.036843 0.179826 0.690896
Si Si3 0.332864 0.818815 0.418884
Si Si4 0.542774 0.815804 0.942864
Si Si5 0.941269 0.679629 0.875838
Si Si6 0.818088 0.319437 0.752636
Si Si7 0.769914 0.181936 0.859364
Si Si8 0.099522 0.817069 0.505771
O O1 0.579263 0.708874 0.730706
O O2 0.549426 0.792124 0.822263
O O3 0.737765 0.784540 0.743629
O O4 0.608727 0.000000 0.746112
O O5 0.127527 0.219658 0.633086
O O6 0.934575 0.284646 0.705551
O O7 0.004375 0.000000 0.694753
O O8 0.208831 0.778966 0.453612
O O9 0.399660 0.773914 0.447045
O O10 0.350454 0.000000 0.404541
O O11 0.461043 0.775346 0.923061
O O12 0.657531 0.748131 0.902203
O O13 0.555733 0.000000 0.945786
O O14 0.500000 0.740550 0.000000
O O15 0.904859 0.500000 0.879741
O O16 0.850319 0.794334 0.880948
O O17 0.790715 0.500000 0.752297
O O18 0.814468 0.278330 0.806380
O O19 0.762095 0.000000 0.847891
O O20 0.000000 0.759774 0.500000
O O21 0.089542 0.000000 0.518936
#
# Coordination Sequence:
#
# PCOD8101735 Si02
#       8
#     8   8   8   8   8   8   8   8
#     4  11  22  39  61  88 119 156 198 245 301 363
#     4  12  25  41  61  88 124 163 205 254 305 360
#     4  10  21  38  60  89 125 161 201 254 305 354
#     4   9  19  37  59  83 115 154 194 240 297 359
#     4  10  20  36  59  85 114 151 192 238 293 356
#     4  12  24  39  60  87 118 156 200 248 301 361
#     4  11  21  36  59  86 114 151 196 241 295 356
#     4   9  19  38  64  90 120 162 207 247 298 359
#
# _framework density 19.954654999999999
#
# number of rings (size 3 to 8) (size 9 to 14) (size 15 to 20)
#    0.000    1.500    2.500    3.375    0.000    2.750 
#    0.000    3.750    0.000    2.625    0.000    0.000 
#    0.000    0.000    0.000    0.000    0.000    0.000 
#
# Total GULP energy -396968.604554 kJ/mol
# GULP energy per Si atom -12405.268892 kJ/mol
# Density = 1.990924 g / cm^3
# Si number density = 19.954655 Si / 1000 Ang^3
#
#
#
# Elastic Constant Matrix: (Units=GPa)
#
#
# Indices 1 2 3 4 5 6 
#
# 1 99.9996 14.1292 10.7601 0.0000 -4.0510 0.0000
# 2 14.1292 61.6721 28.5910 0.0000 0.8365 0.0000
# 3 10.7601 28.5910 77.3744 0.0000 -2.6504 0.0000
# 4 0.0000 0.0000 0.0000 18.6744 0.0000 5.2906
# 5 -4.0510 0.8365 -2.6504 0.0000 25.1306 0.0000
# 6 0.0000 0.0000 0.0000 5.2906 0.0000 33.0502
#
#
#
# Elastic Compliance Matrix: (Units=1/GPa)
#
#
# Indices 1 2 3 4 5 6 
#
# 1 0.010435 -0.002133 -0.000605 0.000000 0.001689 0.000000
# 2 -0.002133 0.020053 -0.007174 0.000000 -0.001768 0.000000
# 3 -0.000605 -0.007174 0.015721 0.000000 0.001799 0.000000
# 4 0.000000 0.000000 0.000000 0.056093 0.000000 -0.008979
# 5 0.001689 -0.001768 0.001799 0.000000 0.040313 0.000000
# 6 0.000000 0.000000 0.000000 -0.008979 0.000000 0.031694
#
#
# Mechanical properties :
#
#
# Convention : Reuss Voigt Hill
#
# Bulk Modulus (GPa) = 37.90041 38.44518 38.17279
# Shear Modulus (GPa) = 24.63920 27.74209 26.19065
#
# Velocity S-wave (km/s) = 3.51773 3.73266 3.62679
# Velocity P-wave (km/s) = 5.96101 6.15509 6.05883
#
# Compressibility (1/GPa) = 0.02638494
#
# Stress axis : x y z
#
# Youngs Moduli (GPa) = 95.83159 49.86720 63.61000
#
# Poissons Ratio (x) = 0.10637 0.03849
# Poissons Ratio (y) = 0.20442 0.45633
# Poissons Ratio (z) = 0.05799 0.35774
#
# Static dielectric constant tensor:
#      x y z
#    x 3.652630 0.000000 -0.064840 
#    y 0.000000 3.460110 0.000000 
#    z -0.064840 0.000000 3.664570 
# 
# 
# High freq. dielectric constant tensor:
#      x y z
#    x 1.786810 0.000000 -0.000760 
#    y 0.000000 1.768000 0.000000 
#    z -0.000760 0.000000 1.774830 
# 
# From -- ./inp_files/375003.got.cif
#   From: 2010.06.25/outbox.cif.g09.slc.cpg/sg12_188_cif.got.tgz:375003.got - 2010.06.28 00:19:55.
