data_PCOD8101193
_publ_section_title
;
Structure prediction by ZEFSAII (Michael W. Deem and Ramdas Pophale) SiO2 
 PCOD8101193
Probable space group: C 2/M
;
_chemical_formula_sum "Si O2"
_cell_formula_units_Z 64
_cell_length_a 33.020407
_cell_length_b 8.489113
_cell_length_c 24.520735
_cell_angle_alpha 90.000000
_cell_angle_beta 151.510974
_cell_angle_gamma 90.000000
_cell_volume 3278.595857
_symmetry_space_group_name_H-M "C 2/M"
_symmetry_group_IT_number 12
_symmetry_cell_setting 'monoclinic'
loop_
_space_group_symop_operation_xyz
x,y,z
-x,y,-z
-x,-y,-z
x,-y,z
1/2+x,1/2+y,z
1/2-x,1/2+y,-z
1/2-x,1/2-y,-z
1/2+x,1/2-y,z
loop_
_atom_site_type_symbol
_atom_site_label
_atom_site_fract_x
_atom_site_fract_y
_atom_site_fract_z
Si Si1 0.458955 0.173950 0.002168
Si Si2 0.274012 0.812705 0.346699
Si Si3 0.927253 0.683895 0.603843
Si Si4 0.258006 0.813116 0.924621
Si Si5 0.218775 0.312103 0.170837
Si Si6 0.882661 0.313133 0.165777
Si Si7 0.866242 0.325830 0.741473
Si Si8 0.841409 0.178934 0.604169
O O1 0.533993 0.154369 0.133026
O O2 0.428813 0.000000 0.945243
O O3 0.500000 0.270934 0.000000
O O4 0.376240 0.254274 0.930045
O O5 0.359268 0.750211 0.478783
O O6 0.279905 0.760406 0.290094
O O7 0.189828 0.734892 0.273825
O O8 0.266768 0.000000 0.343017
O O9 0.934263 0.500000 0.602778
O O10 0.895639 0.717327 0.627112
O O11 0.022307 0.757496 0.712761
O O12 0.260451 0.749216 0.865321
O O13 0.172086 0.746322 0.848353
O O14 0.254691 0.000000 0.921193
O O15 0.339477 0.756029 0.057319
O O16 0.225637 0.500000 0.180062
O O17 0.885774 0.500000 0.169839
O O18 0.830585 0.500000 0.682236
O O19 0.871402 0.194082 0.701323
O O20 0.750000 0.250000 0.500000
O O21 0.843205 0.000000 0.586218
#
# Coordination Sequence:
#
# PCOD8101193 Si02
#       8
#     8   8   8   8   8   8   8   8
#     4   9  17  31  53  79 105 143 192 229 265 331
#     4  11  22  36  54  79 114 150 190 235 281 332
#     4  10  22  39  59  82 110 149 193 233 279 338
#     4   9  19  36  61  88 113 140 179 232 286 344
#     4  10  20  36  57  82 111 148 193 231 277 341
#     4   9  19  38  63  86 111 143 181 229 288 345
#     4  11  21  35  56  77 108 151 192 235 280 327
#     4  12  24  37  54  80 114 151 191 233 278 332
#
# _framework density 19.520551000000001
#
# number of rings (size 3 to 8) (size 9 to 14) (size 15 to 20)
#    0.000    1.875    2.500    1.875    1.750    1.500 
#    0.000    2.500    0.000    3.750    0.000    0.000 
#    0.000    0.000    0.000    0.000    0.000    0.000 
#
# Total GULP energy -396428.678950 kJ/mol
# GULP energy per Si atom -12388.396217 kJ/mol
# Density = 1.947612 g / cm^3
# Si number density = 19.520551 Si / 1000 Ang^3
#
#
#
# Elastic Constant Matrix: (Units=GPa)
#
#
# Indices 1 2 3 4 5 6 
#
# 1 146.4580 8.1276 68.3026 0.0000 -7.4767 0.0000
# 2 8.1276 26.5168 18.1129 0.0000 -1.5385 0.0000
# 3 68.3026 18.1129 116.0080 0.0000 5.8940 0.0000
# 4 0.0000 0.0000 0.0000 20.5805 0.0000 -3.9269
# 5 -7.4767 -1.5385 5.8940 0.0000 35.6908 0.0000
# 6 0.0000 0.0000 0.0000 -3.9269 0.0000 28.9490
#
#
#
# Elastic Compliance Matrix: (Units=1/GPa)
#
#
# Indices 1 2 3 4 5 6 
#
# 1 0.009766 0.001369 -0.006122 0.000000 0.003116 0.000000
# 2 0.001369 0.042713 -0.007647 0.000000 0.003391 0.000000
# 3 -0.006122 -0.007647 0.013615 0.000000 -0.003861 0.000000
# 4 0.000000 0.000000 0.000000 0.049881 0.000000 0.006766
# 5 0.003116 0.003391 -0.003861 0.000000 0.029455 0.000000
# 6 0.000000 0.000000 0.000000 0.006766 0.000000 0.035461
#
#
# Mechanical properties :
#
#
# Convention : Reuss Voigt Hill
#
# Bulk Modulus (GPa) = 24.21715 53.11878 38.66797
# Shear Modulus (GPa) = 22.78367 30.00671 26.39519
#
# Velocity S-wave (km/s) = 3.42008 3.92495 3.68118
# Velocity P-wave (km/s) = 5.29423 6.91456 6.15792
#
# Compressibility (1/GPa) = 0.04129304
#
# Stress axis : x y z
#
# Youngs Moduli (GPa) = 102.39489 23.41227 73.44942
#
# Poissons Ratio (x) = -0.03206 0.44967
# Poissons Ratio (y) = -0.14020 0.56170
# Poissons Ratio (z) = 0.62688 0.17904
#
# Static dielectric constant tensor:
#      x y z
#    x 3.695800 0.000000 0.048100 
#    y 0.000000 7.087590 0.000000 
#    z 0.048100 0.000000 3.832880 
# 
# 
# High freq. dielectric constant tensor:
#      x y z
#    x 1.754210 0.000000 -0.008290 
#    y 0.000000 1.737950 0.000000 
#    z -0.008290 0.000000 1.767140 
# 
# From -- ./inp_files/353582.got.cif
#   From: 2010.06.25/outbox.cif.g09.slc.cpg/sg12_177_cif.got.tgz:353582.got - 2010.06.28 00:19:55.
