data_PCOD8101940
_publ_section_title
;
Structure prediction by ZEFSAII (Michael W. Deem and Ramdas Pophale) SiO2 
 PCOD8101940
Probable space group: C 2/M
;
_chemical_formula_sum "Si O2"
_cell_formula_units_Z 64
_cell_length_a 30.640782
_cell_length_b 9.351377
_cell_length_c 19.266899
_cell_angle_alpha 90.000000
_cell_angle_beta 141.414037
_cell_angle_gamma 90.000000
_cell_volume 3443.140126
_symmetry_space_group_name_H-M "C 2/M"
_symmetry_group_IT_number 12
_symmetry_cell_setting 'monoclinic'
loop_
_space_group_symop_operation_xyz
x,y,z
-x,y,-z
-x,-y,-z
x,-y,z
1/2+x,1/2+y,z
1/2-x,1/2+y,-z
1/2-x,1/2-y,-z
1/2+x,1/2-y,z
loop_
_atom_site_type_symbol
_atom_site_label
_atom_site_fract_x
_atom_site_fract_y
_atom_site_fract_z
Si Si1 0.287784 0.663244 0.989470
Si Si2 0.286883 0.837813 0.734043
Si Si3 0.708618 0.168935 0.752839
Si Si4 0.062300 0.166333 0.774558
Si Si5 0.072210 0.831401 0.629390
Si Si6 0.947679 0.169607 0.736419
Si Si7 0.295991 0.340957 0.507623
Si Si8 0.060151 0.332957 0.130286
O O1 0.273062 0.500000 0.988384
O O2 0.369374 0.698955 0.095134
O O3 0.250000 0.750000 0.000000
O O4 0.257128 0.707126 0.877954
O O5 0.255811 0.726571 0.749408
O O6 0.231073 0.831540 0.603470
O O7 0.364036 0.787235 0.805656
O O8 0.291109 0.000000 0.769141
O O9 0.634169 0.248436 0.666623
O O10 0.695323 0.000000 0.727422
O O11 0.066420 0.229422 0.701267
O O12 0.001600 0.232933 0.746694
O O13 0.047470 0.000000 0.746103
O O14 0.000000 0.799271 0.500000
O O15 0.090060 0.000000 0.650326
O O16 0.875009 0.213049 0.610684
O O17 0.957214 0.244916 0.822255
O O18 0.957489 0.000000 0.759905
O O19 0.291425 0.500000 0.531462
O O20 0.250000 0.250000 0.500000
O O21 0.060955 0.500000 0.150462
O O22 0.000000 0.296791 0.000000
#
# Coordination Sequence:
#
# PCOD8101940 Si02
#       8
#     8   8   8   8   8   8   8   8
#     4  10  20  37  59  82 111 147 188 235 285 338
#     4  10  22  39  59  82 114 154 194 235 281 344
#     4  11  24  38  57  87 119 149 189 241 290 335
#     4   9  19  36  57  83 112 144 186 233 277 329
#     4  10  21  38  63  86 112 155 197 230 276 343
#     4  10  21  36  59  87 113 145 188 237 284 336
#     4  10  20  36  60  85 111 145 189 238 284 337
#     4  10  22  40  58  81 115 153 192 234 283 341
#
# _framework density 18.587682999999998
#
# number of rings (size 3 to 8) (size 9 to 14) (size 15 to 20)
#    0.000    2.000    2.500    0.375    3.500    2.000 
#    0.000    1.250    0.000    0.000    0.000    0.000 
#    0.000    0.000    0.000    0.000    0.000    0.000 
#
# Total GULP energy -396731.289687 kJ/mol
# GULP energy per Si atom -12397.852803 kJ/mol
# Density = 1.854538 g / cm^3
# Si number density = 18.587683 Si / 1000 Ang^3
#
#
#
# Elastic Constant Matrix: (Units=GPa)
#
#
# Indices 1 2 3 4 5 6 
#
# 1 118.6286 36.4361 22.2948 0.0000 0.7905 0.0000
# 2 36.4361 43.2520 22.2182 0.0000 -2.4203 0.0000
# 3 22.2948 22.2182 93.0598 0.0000 1.2279 0.0000
# 4 0.0000 0.0000 0.0000 22.2417 0.0000 -1.1119
# 5 0.7905 -2.4203 1.2279 0.0000 23.6828 0.0000
# 6 0.0000 0.0000 0.0000 -1.1119 0.0000 33.0240
#
#
#
# Elastic Compliance Matrix: (Units=1/GPa)
#
#
# Indices 1 2 3 4 5 6 
#
# 1 0.011434 -0.009469 -0.000461 0.000000 -0.001325 0.000000
# 2 -0.009469 0.034412 -0.006002 0.000000 0.004144 0.000000
# 3 -0.000461 -0.006002 0.012306 0.000000 -0.001236 0.000000
# 4 0.000000 0.000000 0.000000 0.045036 0.000000 0.001516
# 5 -0.001325 0.004144 -0.001236 0.000000 0.042757 0.000000
# 6 0.000000 0.000000 0.000000 0.001516 0.000000 0.030332
#
#
# Mechanical properties :
#
#
# Convention : Reuss Voigt Hill
#
# Bulk Modulus (GPa) = 38.04155 46.31541 42.17848
# Shear Modulus (GPa) = 23.05174 27.38911 25.22043
#
# Velocity S-wave (km/s) = 3.52541 3.84280 3.68752
# Velocity P-wave (km/s) = 6.08948 6.68287 6.39307
#
# Compressibility (1/GPa) = 0.02628704
#
# Stress axis : x y z
#
# Youngs Moduli (GPa) = 87.46205 29.05926 81.26423
#
# Poissons Ratio (x) = 0.27517 0.03746
# Poissons Ratio (y) = 0.82819 0.48776
# Poissons Ratio (z) = 0.04031 0.17442
#
# Static dielectric constant tensor:
#      x y z
#    x 3.371940 0.000000 0.115790 
#    y 0.000000 3.430890 0.000000 
#    z 0.115790 0.000000 3.645630 
# 
# 
# High freq. dielectric constant tensor:
#      x y z
#    x 1.729180 0.000000 0.005300 
#    y 0.000000 1.703770 0.000000 
#    z 0.005300 0.000000 1.737900 
# 
# From -- ./inp_files/295807.got.cif
#   From: 2010.06.25/outbox.cif.g09.slc.cpg/sg12_148_cif.got.tgz:295807.got - 2010.06.28 00:19:55.
