data_PCOD8101879
_publ_section_title
;
Structure prediction by ZEFSAII (Michael W. Deem and Ramdas Pophale) SiO2 
 PCOD8101879
Probable space group: C 2/M
;
_chemical_formula_sum "Si O2"
_cell_formula_units_Z 64
_cell_length_a 23.651786
_cell_length_b 8.957057
_cell_length_c 19.588296
_cell_angle_alpha 90.000000
_cell_angle_beta 50.236365
_cell_angle_gamma 90.000000
_cell_volume 3189.899235
_symmetry_space_group_name_H-M "C 2/M"
_symmetry_group_IT_number 12
_symmetry_cell_setting 'monoclinic'
loop_
_space_group_symop_operation_xyz
x,y,z
-x,y,-z
-x,-y,-z
x,-y,z
1/2+x,1/2+y,z
1/2-x,1/2+y,-z
1/2-x,1/2-y,-z
1/2+x,1/2-y,z
loop_
_atom_site_type_symbol
_atom_site_label
_atom_site_fract_x
_atom_site_fract_y
_atom_site_fract_z
Si Si1 0.832344 0.171972 0.083055
Si Si2 0.822091 0.671281 0.854807
Si Si3 0.320567 0.823349 0.232172
Si Si4 0.435456 0.171240 0.645681
Si Si5 0.657412 0.327771 0.392076
Si Si6 0.079065 0.171411 0.588216
Si Si7 0.080299 0.827901 0.115606
Si Si8 0.428318 0.176859 0.266868
O O1 0.758126 0.230633 0.104469
O O2 0.849716 0.263036 0.137762
O O3 0.821690 0.000000 0.111777
O O4 0.900558 0.193974 0.978921
O O5 0.819444 0.500000 0.881991
O O6 0.873652 0.690221 0.750041
O O7 0.849824 0.775149 0.894536
O O8 0.238383 0.765928 0.311695
O O9 0.374847 0.763197 0.248937
O O10 0.322590 0.000000 0.228683
O O11 0.403722 0.230140 0.598835
O O12 0.504491 0.268796 0.613237
O O13 0.459824 0.000000 0.618130
O O14 0.648927 0.500000 0.375969
O O15 0.644837 0.310514 0.482863
O O16 0.101358 0.261076 0.638589
O O17 0.066636 0.000000 0.617851
O O18 0.010726 0.729543 0.188924
O O19 0.063702 0.000000 0.145009
O O20 0.429057 0.000000 0.270883
#
# Coordination Sequence:
#
# PCOD8101879 Si02
#       8
#     8   8   8   8   8   8   8   8
#     4  10  22  40  61  89 121 152 193 239 288 346
#     4  10  20  36  59  88 122 155 188 235 289 345
#     4  10  23  42  63  85 113 154 199 242 292 344
#     4  11  21  35  60  91 122 155 191 235 289 348
#     4  10  22  40  61  88 120 153 194 241 289 347
#     4  11  23  39  61  88 119 155 194 239 292 347
#     4  11  23  38  61  90 119 155 194 237 290 347
#     4  11  24  42  61  84 116 153 198 247 290 344
#
# _framework density 20.063327999999998
#
# number of rings (size 3 to 8) (size 9 to 14) (size 15 to 20)
#    0.000    1.500    2.500    2.250    0.000    6.500 
#    0.000    2.500    0.000    0.000    0.000    0.000 
#    0.000    0.000    0.000    0.000    0.000    0.000 
#
# Total GULP energy -396976.518990 kJ/mol
# GULP energy per Si atom -12405.516218 kJ/mol
# Density = 2.001766 g / cm^3
# Si number density = 20.063328 Si / 1000 Ang^3
#
#
#
# Elastic Constant Matrix: (Units=GPa)
#
#
# Indices 1 2 3 4 5 6 
#
# 1 111.0487 32.0914 22.7213 -0.0054 28.0365 0.0068
# 2 32.0914 69.6270 27.4456 -0.0087 13.2538 0.0099
# 3 22.7213 27.4456 81.8065 -0.0042 24.6691 0.0049
# 4 -0.0054 -0.0087 -0.0042 30.4643 0.0026 7.9117
# 5 28.0365 13.2538 24.6691 0.0026 25.4465 -0.0038
# 6 0.0068 0.0099 0.0049 7.9117 -0.0038 29.1630
#
#
#
# Elastic Compliance Matrix: (Units=1/GPa)
#
#
# Indices 1 2 3 4 5 6 
#
# 1 0.013523 -0.004263 0.002116 0.000004 -0.014731 -0.000005
# 2 -0.004263 0.018281 -0.004938 0.000005 -0.000038 -0.000006
# 3 0.002116 -0.004938 0.018682 0.000005 -0.017871 -0.000005
# 4 0.000004 0.000005 0.000005 0.035313 -0.000017 -0.009580
# 5 -0.014731 -0.000038 -0.017871 -0.000017 0.072873 0.000020
# 6 -0.000005 -0.000006 -0.000005 -0.009580 0.000020 0.036889
#
#
# Mechanical properties :
#
#
# Convention : Reuss Voigt Hill
#
# Bulk Modulus (GPa) = 27.53533 47.44430 37.48982
# Shear Modulus (GPa) = 22.53931 29.02971 25.78451
#
# Velocity S-wave (km/s) = 3.35536 3.80795 3.58880
# Velocity P-wave (km/s) = 5.36333 6.55992 5.99157
#
# Compressibility (1/GPa) = 0.03631697
#
# Stress axis : x y z
#
# Youngs Moduli (GPa) = 73.94787 54.70289 53.52814
#
# Poissons Ratio (x) = 0.23320 -0.11329
# Poissons Ratio (y) = 0.31524 0.26430
# Poissons Ratio (z) = -0.15650 0.27010
#
# Static dielectric constant tensor:
#      x y z
#    x 3.666500 0.000000 0.057100 
#    y 0.000000 3.613940 0.000000 
#    z 0.057100 0.000000 3.768540 
# 
# 
# High freq. dielectric constant tensor:
#      x y z
#    x 1.777160 0.000000 0.006120 
#    y 0.000000 1.782640 0.000000 
#    z 0.006120 0.000000 1.795730 
# 
# From -- ./inp_files/324127.got.cif
#   From: 2010.06.25/outbox.cif.g09.slc.cpg/sg12_163_cif.got.tgz:324127.got - 2010.06.28 00:19:55.
