data_PCOD8101095
_publ_section_title
;
Structure prediction by ZEFSAII (Michael W. Deem and Ramdas Pophale) SiO2 
 PCOD8101095
Probable space group: C 2/M
;
_chemical_formula_sum "Si O2"
_cell_formula_units_Z 56
_cell_length_a 14.323740
_cell_length_b 9.175647
_cell_length_c 28.933345
_cell_angle_alpha 90.000000
_cell_angle_beta 125.887429
_cell_angle_gamma 90.000000
_cell_volume 3080.832426
_symmetry_space_group_name_H-M "C 2/M"
_symmetry_group_IT_number 12
_symmetry_cell_setting 'monoclinic'
loop_
_space_group_symop_operation_xyz
x,y,z
-x,y,-z
-x,-y,-z
x,-y,z
1/2+x,1/2+y,z
1/2-x,1/2+y,-z
1/2-x,1/2-y,-z
1/2+x,1/2-y,z
loop_
_atom_site_type_symbol
_atom_site_label
_atom_site_fract_x
_atom_site_fract_y
_atom_site_fract_z
Si Si1 0.787202 0.829410 0.236605
Si Si2 0.093591 0.830220 0.063418
Si Si3 0.944395 0.170320 0.842148
Si Si4 0.823301 0.830875 0.140892
Si Si5 0.442039 0.172414 0.355468
Si Si6 0.301695 0.163495 0.557155
Si Si7 0.596267 0.665404 0.564172
O O1 0.661814 0.760772 0.209431
O O2 0.831543 0.798561 0.197742
O O3 0.878093 0.753471 0.295948
O O4 0.780189 0.000000 0.245623
O O5 0.045006 0.796399 0.100327
O O6 0.214270 0.752112 0.087971
O O7 0.116006 0.000000 0.062578
O O8 0.000000 0.770424 0.000000
O O9 0.060403 0.224153 0.850360
O O10 0.921774 0.000000 0.826131
O O11 0.804046 0.000000 0.125171
O O12 0.574696 0.223084 0.391159
O O13 0.394442 0.224765 0.390763
O O14 0.424434 0.000000 0.345136
O O15 0.250000 0.250000 0.500000
O O16 0.221182 0.172266 0.578033
O O17 0.315634 0.000000 0.542820
O O18 0.500000 0.720176 0.500000
O O19 0.566264 0.500000 0.571445
#
# Coordination Sequence:
#
# PCOD8101095 Si02
#       7
#     8   8   8   8   8   8   8
#     4  10  21  37  55  76 103 135 177 223 269 319
#     4   9  18  32  51  79 114 149 183 220 265 316
#     4   9  18  35  56  77 107 143 180 223 269 315
#     4   9  19  35  55  78 105 141 182 224 270 315
#     4  11  23  37  55  80 108 137 174 217 265 320
#     4  10  21  36  55  79 106 137 171 209 257 313
#     4  10  20  36  57  79 106 138 171 210 258 311
#
# _framework density 18.176907
#
# number of rings (size 3 to 8) (size 9 to 14) (size 15 to 20)
#    0.000    2.286    1.429    0.857    0.000    4.571 
#    0.000    2.857    0.000    0.000    0.000    0.000 
#    0.000    0.000    0.000    0.000    0.000    0.000 
#
# Total GULP energy -347265.629378 kJ/mol
# GULP energy per Si atom -12402.343906 kJ/mol
# Density = 1.813554 g / cm^3
# Si number density = 18.176907 Si / 1000 Ang^3
#
#
#
# Elastic Constant Matrix: (Units=GPa)
#
#
# Indices 1 2 3 4 5 6 
#
# 1 134.8982 49.7280 65.9876 0.0000 22.1704 0.0000
# 2 49.7280 73.3306 66.7322 0.0000 12.7254 0.0000
# 3 65.9876 66.7322 155.7245 0.0000 23.6503 0.0000
# 4 0.0000 0.0000 0.0000 31.5291 0.0000 4.0889
# 5 22.1704 12.7254 23.6503 0.0000 23.7401 0.0000
# 6 0.0000 0.0000 0.0000 4.0889 0.0000 28.1278
#
#
#
# Elastic Compliance Matrix: (Units=1/GPa)
#
#
# Indices 1 2 3 4 5 6 
#
# 1 0.011025 -0.004938 -0.001642 0.000000 -0.006013 0.000000
# 2 -0.004938 0.024734 -0.008476 0.000000 -0.000203 0.000000
# 3 -0.001642 -0.008476 0.011579 0.000000 -0.005458 0.000000
# 4 0.000000 0.000000 0.000000 0.032326 0.000000 -0.004699
# 5 -0.006013 -0.000203 -0.005458 0.000000 0.053284 0.000000
# 6 0.000000 0.000000 0.000000 -0.004699 0.000000 0.036235
#
#
# Mechanical properties :
#
#
# Convention : Reuss Voigt Hill
#
# Bulk Modulus (GPa) = 58.05726 80.98322 69.52024
# Shear Modulus (GPa) = 24.38579 28.77976 26.58278
#
# Velocity S-wave (km/s) = 3.66673 3.98341 3.82835
# Velocity P-wave (km/s) = 7.06654 8.11210 7.60731
#
# Compressibility (1/GPa) = 0.01722438
#
# Stress axis : x y z
#
# Youngs Moduli (GPa) = 90.70240 40.42991 86.36658
#
# Poissons Ratio (x) = 0.19966 0.14185
# Poissons Ratio (y) = 0.44793 0.73203
# Poissons Ratio (z) = 0.14897 0.34268
#
# Static dielectric constant tensor:
#      x y z
#    x 3.458660 0.000000 0.097360 
#    y 0.000000 3.388420 0.000000 
#    z 0.097360 0.000000 3.348270 
# 
# 
# High freq. dielectric constant tensor:
#      x y z
#    x 1.709430 0.000000 0.006520 
#    y 0.000000 1.704100 0.000000 
#    z 0.006520 0.000000 1.704410 
# 
# From -- ./inp_files/308986.got.cif
#   From: 2010.06.25/outbox.cif.g09.slc.cpg/sg12_155_cif.got.tgz:308986.got - 2010.06.28 00:19:55.
