data_PCOD8101971
_publ_section_title
;
Structure prediction by ZEFSAII (Michael W. Deem and Ramdas Pophale) SiO2 
 PCOD8101971
Probable space group: C 2/M
;
_chemical_formula_sum "Si O2"
_cell_formula_units_Z 64
_cell_length_a 24.540837
_cell_length_b 8.951463
_cell_length_c 14.958724
_cell_angle_alpha 90.000000
_cell_angle_beta 91.913648
_cell_angle_gamma 90.000000
_cell_volume 3284.245874
_symmetry_space_group_name_H-M "C 2/M"
_symmetry_group_IT_number 12
_symmetry_cell_setting 'monoclinic'
loop_
_space_group_symop_operation_xyz
x,y,z
-x,y,-z
-x,-y,-z
x,-y,z
1/2+x,1/2+y,z
1/2-x,1/2+y,-z
1/2-x,1/2-y,-z
1/2+x,1/2-y,z
loop_
_atom_site_type_symbol
_atom_site_label
_atom_site_fract_x
_atom_site_fract_y
_atom_site_fract_z
Si Si1 0.372366 0.674417 0.933601
Si Si2 0.336810 0.325120 0.477903
Si Si3 0.756398 0.174227 0.630407
Si Si4 0.551798 0.824221 0.563915
Si Si5 0.052453 0.175200 0.754198
Si Si6 0.979984 0.675655 0.900707
Si Si7 0.155756 0.170121 0.869971
Si Si8 0.265141 0.324762 0.831337
O O1 0.381240 0.500000 0.911448
O O2 0.417867 0.772081 0.886965
O O3 0.314982 0.735805 0.893019
O O4 0.375489 0.704296 0.039544
O O5 0.346789 0.500000 0.463771
O O6 0.297449 0.266611 0.397626
O O7 0.307841 0.288641 0.570442
O O8 0.394679 0.243370 0.479677
O O9 0.773445 0.226778 0.729757
O O10 0.741169 0.000000 0.623935
O O11 0.500000 0.785109 0.500000
O O12 0.541256 0.754107 0.660027
O O13 0.559965 0.000000 0.575163
O O14 0.114972 0.205716 0.786244
O O15 0.013503 0.240275 0.827214
O O16 0.040928 0.000000 0.744007
O O17 0.985436 0.500000 0.885409
O O18 0.000000 0.723924 0.000000
O O19 0.208727 0.270023 0.868131
O O20 0.175518 0.000000 0.868771
O O21 0.263507 0.500000 0.837761
#
# Coordination Sequence:
#
# PCOD8101971 Si02
#       8
#     8   8   8   8   8   8   8   8
#     4  10  21  38  57  81 116 156 197 242 295 350
#     4  10  20  36  60  86 114 150 196 242 293 353
#     4   9  19  36  57  84 115 149 191 241 295 352
#     4  11  25  43  61  86 122 158 195 245 303 357
#     4  11  23  40  65  91 117 156 201 245 297 354
#     4  11  23  39  61  89 119 154 200 249 297 350
#     4  10  21  36  56  83 116 152 193 241 292 349
#     4  10  21  35  55  83 115 152 192 238 293 349
#
# _framework density 19.486969999999999
#
# number of rings (size 3 to 8) (size 9 to 14) (size 15 to 20)
#    0.000    1.750    1.250    2.625    0.000    7.500 
#    0.000    1.250    0.000    0.000    0.000    0.000 
#    0.000    0.000    0.000    0.000    0.000    0.000 
#
# Total GULP energy -396921.244787 kJ/mol
# GULP energy per Si atom -12403.788900 kJ/mol
# Density = 1.944262 g / cm^3
# Si number density = 19.486970 Si / 1000 Ang^3
#
#
#
# Elastic Constant Matrix: (Units=GPa)
#
#
# Indices 1 2 3 4 5 6 
#
# 1 134.7037 55.8563 52.5157 0.0000 -0.8984 0.0000
# 2 55.8563 66.0490 38.9079 0.0000 5.9153 0.0000
# 3 52.5157 38.9079 88.4678 0.0000 11.6099 0.0000
# 4 0.0000 0.0000 0.0000 28.1976 0.0000 -5.9653
# 5 -0.8984 5.9153 11.6099 0.0000 28.5705 0.0000
# 6 0.0000 0.0000 0.0000 -5.9653 0.0000 36.4605
#
#
#
# Elastic Compliance Matrix: (Units=1/GPa)
#
#
# Indices 1 2 3 4 5 6 
#
# 1 0.012653 -0.008535 -0.004269 0.000000 0.003900 0.000000
# 2 -0.008535 0.026201 -0.006031 0.000000 -0.003242 0.000000
# 3 -0.004269 -0.006031 0.017265 0.000000 -0.005901 0.000000
# 4 0.000000 0.000000 0.000000 0.036736 0.000000 0.006010
# 5 0.003900 -0.003242 -0.005901 0.000000 0.038193 0.000000
# 6 0.000000 0.000000 0.000000 0.006010 0.000000 0.028410
#
#
# Mechanical properties :
#
#
# Convention : Reuss Voigt Hill
#
# Bulk Modulus (GPa) = 54.20534 64.86449 59.53492
# Shear Modulus (GPa) = 24.59671 28.10841 26.35256
#
# Velocity S-wave (km/s) = 3.55662 3.80204 3.68138
# Velocity P-wave (km/s) = 6.68899 7.25482 6.97764
#
# Compressibility (1/GPa) = 0.01844837
#
# Stress axis : x y z
#
# Youngs Moduli (GPa) = 79.03115 38.16582 57.92107
#
# Poissons Ratio (x) = 0.32574 0.24728
# Poissons Ratio (y) = 0.67453 0.34934
# Poissons Ratio (z) = 0.33741 0.23019
#
# Static dielectric constant tensor:
#      x y z
#    x 3.624330 0.000000 0.092930 
#    y 0.000000 3.545160 0.000000 
#    z 0.092930 0.000000 3.726940 
# 
# 
# High freq. dielectric constant tensor:
#      x y z
#    x 1.765520 0.000000 -0.003380 
#    y 0.000000 1.759700 0.000000 
#    z -0.003380 0.000000 1.765440 
# 
# From -- ./inp_files/238621.got.cif
#   From: 2010.06.25/outbox.cif.g09.slc.cpg/sg12_120_cif.got.tgz:238621.got - 2010.06.28 00:19:55.
