data_PCOD8101786
_publ_section_title
;
Structure prediction by ZEFSAII (Michael W. Deem and Ramdas Pophale) SiO2 
 PCOD8101786
Probable space group: C 2/M
;
_chemical_formula_sum "Si O2"
_cell_formula_units_Z 56
_cell_length_a 20.290759
_cell_length_b 8.795694
_cell_length_c 16.491241
_cell_angle_alpha 90.000000
_cell_angle_beta 111.387295
_cell_angle_gamma 90.000000
_cell_volume 2740.533962
_symmetry_space_group_name_H-M "C 2/M"
_symmetry_group_IT_number 12
_symmetry_cell_setting 'monoclinic'
loop_
_space_group_symop_operation_xyz
x,y,z
-x,y,-z
-x,-y,-z
x,-y,z
1/2+x,1/2+y,z
1/2-x,1/2+y,-z
1/2-x,1/2-y,-z
1/2+x,1/2-y,z
loop_
_atom_site_type_symbol
_atom_site_label
_atom_site_fract_x
_atom_site_fract_y
_atom_site_fract_z
Si Si1 0.732040 0.180130 0.219822
Si Si2 0.598198 0.680535 0.222333
Si Si3 0.796785 0.321815 0.090601
Si Si4 0.542361 0.327263 0.653519
Si Si5 0.834684 0.180293 0.404776
Si Si6 0.455216 0.174803 0.177041
Si Si7 0.117053 0.828506 0.409775
O O1 0.653003 0.248895 0.182649
O O2 0.778589 0.244352 0.167816
O O3 0.767531 0.232134 0.321288
O O4 0.728540 0.000000 0.209540
O O5 0.602020 0.500000 0.221972
O O6 0.518100 0.728598 0.162998
O O7 0.617578 0.749315 0.320977
O O8 0.781129 0.500000 0.091061
O O9 0.878646 0.291503 0.102742
O O10 0.750000 0.250000 0.000000
O O11 0.563348 0.500000 0.689107
O O12 0.593456 0.265142 0.606436
O O13 0.552406 0.215279 0.732743
O O14 0.461659 0.324091 0.587456
O O15 0.833554 0.247798 0.497166
O O16 0.836509 0.000000 0.413662
O O17 0.476173 0.000000 0.176896
O O18 0.142168 0.000000 0.406163
#
# Coordination Sequence:
#
# PCOD8101786 Si02
#       7
#     8   8   8   8   8   8   8
#     4  11  22  37  59  86 119 155 193 238 289 343
#     4  10  21  37  58  82 116 160 202 239 281 335
#     4  11  24  42  66  93 119 145 181 231 287 348
#     4   9  15  27  50  78 110 150 195 238 281 335
#     4   9  16  27  48  79 113 152 197 240 284 332
#     4  10  20  36  59  86 116 149 186 233 287 341
#     4   8  15  27  47  77 111 152 200 243 278 324
#
# _framework density 20.433975
#
# number of rings (size 3 to 8) (size 9 to 14) (size 15 to 20)
#    0.000    2.286    1.429    3.000    0.000    4.000 
#    0.000    0.714    0.000   19.714    0.000    0.000 
#    0.000    0.000    0.000    0.000    0.000    0.000 
#
# Total GULP energy -346979.497066 kJ/mol
# GULP energy per Si atom -12392.124895 kJ/mol
# Density = 2.038747 g / cm^3
# Si number density = 20.433975 Si / 1000 Ang^3
#
#
#
# Elastic Constant Matrix: (Units=GPa)
#
#
# Indices 1 2 3 4 5 6 
#
# 1 101.1932 40.2496 15.3425 0.0000 10.8696 0.0000
# 2 40.2496 78.7757 33.1920 0.0000 11.0239 0.0000
# 3 15.3425 33.1920 73.1888 0.0000 21.3972 0.0000
# 4 0.0000 0.0000 0.0000 20.9752 0.0000 -0.3051
# 5 10.8696 11.0239 21.3972 0.0000 15.6468 0.0000
# 6 0.0000 0.0000 0.0000 -0.3051 0.0000 29.2194
#
#
#
# Elastic Compliance Matrix: (Units=1/GPa)
#
#
# Indices 1 2 3 4 5 6 
#
# 1 0.012967 -0.006611 0.002585 0.000000 -0.007886 0.000000
# 2 -0.006611 0.019109 -0.007809 0.000000 0.001808 0.000000
# 3 0.002585 -0.007809 0.025957 0.000000 -0.031791 0.000000
# 4 0.000000 0.000000 0.000000 0.047683 0.000000 0.000498
# 5 -0.007886 0.001808 -0.031791 0.000000 0.111590 0.000000
# 6 0.000000 0.000000 0.000000 0.000498 0.000000 0.034229
#
#
# Mechanical properties :
#
#
# Convention : Reuss Voigt Hill
#
# Bulk Modulus (GPa) = 29.10051 47.85844 38.47947
# Shear Modulus (GPa) = 17.44235 24.12651 20.78443
#
# Velocity S-wave (km/s) = 2.92481 3.43987 3.19274
# Velocity P-wave (km/s) = 5.06736 6.26488 5.69767
#
# Compressibility (1/GPa) = 0.03436366
#
# Stress axis : x y z
#
# Youngs Moduli (GPa) = 77.12076 52.33017 38.52504
#
# Poissons Ratio (x) = 0.34596 -0.09960
# Poissons Ratio (y) = 0.50985 0.30085
# Poissons Ratio (z) = -0.19939 0.40866
#
# Static dielectric constant tensor:
#      x y z
#    x 3.791870 0.000000 0.160160 
#    y 0.000000 3.402660 0.000000 
#    z 0.160160 0.000000 3.689450 
# 
# 
# High freq. dielectric constant tensor:
#      x y z
#    x 1.803000 0.000000 0.011520 
#    y 0.000000 1.770580 0.000000 
#    z 0.011520 0.000000 1.782490 
# 
# From -- ./inp_files/281716.got.cif
#   From: 2010.06.25/outbox.cif.g09.slc.cpg/sg12_141_cif.got.tgz:281716.got - 2010.06.28 00:19:55.
