data_PCOD8101697
_publ_section_title
;
Structure prediction by ZEFSAII (Michael W. Deem and Ramdas Pophale) SiO2 
 PCOD8101697
Probable space group: C 2/M
;
_chemical_formula_sum "Si O2"
_cell_formula_units_Z 64
_cell_length_a 18.933460
_cell_length_b 8.947096
_cell_length_c 28.927157
_cell_angle_alpha 90.000000
_cell_angle_beta 43.308700
_cell_angle_gamma 90.000000
_cell_volume 3361.219757
_symmetry_space_group_name_H-M "C 2/M"
_symmetry_group_IT_number 12
_symmetry_cell_setting 'monoclinic'
loop_
_space_group_symop_operation_xyz
x,y,z
-x,y,-z
-x,-y,-z
x,-y,z
1/2+x,1/2+y,z
1/2-x,1/2+y,-z
1/2-x,1/2-y,-z
1/2+x,1/2-y,z
loop_
_atom_site_type_symbol
_atom_site_label
_atom_site_fract_x
_atom_site_fract_y
_atom_site_fract_z
Si Si1 0.469350 0.165159 0.462334
Si Si2 0.734368 0.674760 0.458718
Si Si3 0.078691 0.829320 0.669776
Si Si4 0.249496 0.677596 0.818252
Si Si5 0.905251 0.177294 0.819086
Si Si6 0.981429 0.675058 0.062491
Si Si7 0.138981 0.822243 0.057227
Si Si8 0.084202 0.829372 0.332911
O O1 0.500000 0.149061 0.500000
O O2 0.377779 0.283260 0.505402
O O3 0.565176 0.226162 0.386460
O O4 0.437732 0.000000 0.458534
O O5 0.743399 0.500000 0.460352
O O6 0.750000 0.750000 0.500000
O O7 0.819320 0.729931 0.381647
O O8 0.010505 0.766570 0.744864
O O9 0.014530 0.816538 0.653154
O O10 0.112148 0.000000 0.662451
O O11 0.248415 0.500000 0.821808
O O12 0.306114 0.739718 0.837719
O O13 0.313587 0.728545 0.742494
O O14 0.132617 0.736452 0.870753
O O15 0.904576 0.230460 0.872284
O O16 0.902320 0.000000 0.816484
O O17 0.993800 0.500000 0.067651
O O18 0.063980 0.764868 0.053040
O O19 0.000000 0.707716 0.000000
O O20 0.148836 0.000000 0.049399
O O21 0.250000 0.750000 0.000000
O O22 0.099749 0.000000 0.341569
#
# Coordination Sequence:
#
# PCOD8101697 Si02
#       8
#     8   8   8   8   8   8   8   8
#     4  11  24  40  56  78 110 148 189 236 286 337
#     4  12  23  36  58  85 113 146 188 236 283 335
#     4   9  17  33  58  85 110 143 187 232 278 333
#     4   8  15  31  56  83 107 140 187 229 272 331
#     4   8  16  33  57  82 110 146 187 227 278 337
#     4  10  20  36  59  84 114 152 193 232 274 329
#     4  11  22  37  58  85 117 152 189 231 280 332
#     4   9  17  32  57  82 107 143 185 230 279 333
#
# _framework density 19.040707000000001
#
# number of rings (size 3 to 8) (size 9 to 14) (size 15 to 20)
#    0.000    2.250    1.250    4.125    0.000    3.250 
#    2.250    1.875    0.000    3.750    0.000    0.000 
#    0.000    0.000    0.000    0.000    0.000    0.000 
#
# Total GULP energy -396736.382476 kJ/mol
# GULP energy per Si atom -12398.011952 kJ/mol
# Density = 1.899737 g / cm^3
# Si number density = 19.040707 Si / 1000 Ang^3
#
#
#
# Elastic Constant Matrix: (Units=GPa)
#
#
# Indices 1 2 3 4 5 6 
#
# 1 94.7865 40.9193 64.6744 -0.0001 -0.5760 -0.0001
# 2 40.9193 87.4994 53.4804 0.0002 2.0445 0.0020
# 3 64.6744 53.4804 156.4910 0.0000 -4.0604 -0.0002
# 4 -0.0001 0.0002 0.0000 24.4900 -0.0001 -3.2167
# 5 -0.5760 2.0445 -4.0604 -0.0001 34.2363 -0.0001
# 6 -0.0001 0.0020 -0.0002 -3.2167 -0.0001 24.0817
#
#
#
# Elastic Compliance Matrix: (Units=1/GPa)
#
#
# Indices 1 2 3 4 5 6 
#
# 1 0.015888 -0.004315 -0.005093 0.000000 -0.000079 0.000000
# 2 -0.004315 0.015690 -0.003616 0.000000 -0.001438 -0.000001
# 3 -0.005093 -0.003616 0.009764 0.000000 0.001288 0.000000
# 4 0.000000 0.000000 0.000000 0.041562 0.000000 0.005552
# 5 -0.000079 -0.001438 0.001288 0.000000 0.029446 0.000000
# 6 0.000000 -0.000001 0.000000 0.005552 0.000000 0.042267
#
#
# Mechanical properties :
#
#
# Convention : Reuss Voigt Hill
#
# Bulk Modulus (GPa) = 65.38807 72.99169 69.18988
# Shear Modulus (GPa) = 26.91579 28.54178 27.72878
#
# Velocity S-wave (km/s) = 3.76386 3.87588 3.82028
# Velocity P-wave (km/s) = 7.30100 7.64511 7.47503
#
# Compressibility (1/GPa) = 0.01529331
#
# Stress axis : x y z
#
# Youngs Moduli (GPa) = 62.94199 63.73324 102.41239
#
# Poissons Ratio (x) = 0.27500 0.52164
# Poissons Ratio (y) = 0.27159 0.37035
# Poissons Ratio (z) = 0.32059 0.23047
#
# Static dielectric constant tensor:
#      x y z
#    x 3.304140 0.000000 0.058170 
#    y 0.000000 3.590290 0.000000 
#    z 0.058170 0.000000 3.910820 
# 
# 
# High freq. dielectric constant tensor:
#      x y z
#    x 1.723250 0.000000 0.000040 
#    y 0.000000 1.715370 0.000000 
#    z 0.000040 0.000000 1.759590 
# 
# From -- ./inp_files/378166.got.cif
#   From: 2010.06.25/outbox.cif.g09.slc.cpg/sg12_190_cif.got.tgz:378166.got - 2010.06.28 00:19:55.
