data_PCOD8101379
_publ_section_title
;
Structure prediction by ZEFSAII (Michael W. Deem and Ramdas Pophale) SiO2 
 PCOD8101379
Probable space group: C 2/M
;
_chemical_formula_sum "Si O2"
_cell_formula_units_Z 64
_cell_length_a 28.073393
_cell_length_b 9.326985
_cell_length_c 23.820937
_cell_angle_alpha 90.000000
_cell_angle_beta 146.674659
_cell_angle_gamma 90.000000
_cell_volume 3426.712699
_symmetry_space_group_name_H-M "C 2/M"
_symmetry_group_IT_number 12
_symmetry_cell_setting 'monoclinic'
loop_
_space_group_symop_operation_xyz
x,y,z
-x,y,-z
-x,-y,-z
x,-y,z
1/2+x,1/2+y,z
1/2-x,1/2+y,-z
1/2-x,1/2-y,-z
1/2+x,1/2-y,z
loop_
_atom_site_type_symbol
_atom_site_label
_atom_site_fract_x
_atom_site_fract_y
_atom_site_fract_z
Si Si1 0.096968 0.333093 0.081172
Si Si2 0.252722 0.331122 0.712052
Si Si3 0.056987 0.668494 0.817193
Si Si4 0.384363 0.334038 0.634925
Si Si5 0.850793 0.667063 0.205703
Si Si6 0.777012 0.664149 0.445193
Si Si7 0.673366 0.834105 0.037121
Si Si8 0.414161 0.168080 0.387363
O O1 0.110044 0.500000 0.107222
O O2 0.159957 0.245800 0.183508
O O3 0.115559 0.297925 0.034457
O O4 0.000000 0.283254 0.000000
O O5 0.265819 0.500000 0.733461
O O6 0.233676 0.290716 0.629360
O O7 0.172807 0.269387 0.669949
O O8 0.035592 0.500000 0.795630
O O9 0.100965 0.719503 0.802604
O O10 0.120401 0.710971 0.930020
O O11 0.969747 0.755920 0.740723
O O12 0.403852 0.500000 0.642706
O O13 0.314183 0.310960 0.614331
O O14 0.351438 0.263268 0.544811
O O15 0.828808 0.500000 0.180558
O O16 0.913242 0.701262 0.320048
O O17 0.760928 0.746041 0.125468
O O18 0.807921 0.500000 0.481623
O O19 0.698894 0.000000 0.060170
O O20 0.500000 0.238197 0.500000
O O21 0.415235 0.000000 0.400894
#
# Coordination Sequence:
#
# PCOD8101379 Si02
#       8
#     8   8   8   8   8   8   8   8
#     4  10  22  38  56  80 114 153 188 225 280 342
#     4  10  20  36  60  86 111 143 186 235 278 322
#     4  10  22  36  56  82 108 144 188 228 275 331
#     4  10  21  37  55  82 113 144 183 228 274 324
#     4  10  20  36  58  82 107 141 186 231 276 327
#     4   9  20  37  57  80 111 147 183 224 276 329
#     4  10  21  38  56  78 111 147 183 228 281 333
#     4   9  18  32  54  83 111 140 178 225 277 329
#
# _framework density 18.676791000000001
#
# number of rings (size 3 to 8) (size 9 to 14) (size 15 to 20)
#    0.000    2.250    1.250    0.750    3.500    2.250 
#    0.000    0.000    0.000    0.750    0.000    0.000 
#    0.000    0.000    0.000    0.000    0.000    0.000 
#
# Total GULP energy -396907.273444 kJ/mol
# GULP energy per Si atom -12403.352295 kJ/mol
# Density = 1.863428 g / cm^3
# Si number density = 18.676791 Si / 1000 Ang^3
#
#
#
# Elastic Constant Matrix: (Units=GPa)
#
#
# Indices 1 2 3 4 5 6 
#
# 1 64.8630 19.1759 24.9376 0.0000 -11.0163 0.0000
# 2 19.1759 45.2870 38.2491 0.0000 2.0148 0.0000
# 3 24.9376 38.2491 107.4120 0.0000 2.4709 0.0000
# 4 0.0000 0.0000 0.0000 30.2918 0.0000 5.9561
# 5 -11.0163 2.0148 2.4709 0.0000 34.3116 0.0000
# 6 0.0000 0.0000 0.0000 5.9561 0.0000 21.6664
#
#
#
# Elastic Compliance Matrix: (Units=1/GPa)
#
#
# Indices 1 2 3 4 5 6 
#
# 1 0.019400 -0.006551 -0.002327 0.000000 0.006781 0.000000
# 2 -0.006551 0.033828 -0.010449 0.000000 -0.003337 0.000000
# 3 -0.002327 -0.010449 0.013597 0.000000 -0.001113 0.000000
# 4 0.000000 0.000000 0.000000 0.034899 0.000000 -0.009594
# 5 0.006781 -0.003337 -0.001113 0.000000 0.031598 0.000000
# 6 0.000000 0.000000 0.000000 -0.009594 0.000000 0.048792
#
#
# Mechanical properties :
#
#
# Convention : Reuss Voigt Hill
#
# Bulk Modulus (GPa) = 35.49629 42.47636 38.98632
# Shear Modulus (GPa) = 21.72427 26.26724 23.99575
#
# Velocity S-wave (km/s) = 3.41423 3.75428 3.58829
# Velocity P-wave (km/s) = 5.88128 6.44865 6.17149
#
# Compressibility (1/GPa) = 0.02817196
#
# Stress axis : x y z
#
# Youngs Moduli (GPa) = 51.54583 29.56099 73.54772
#
# Poissons Ratio (x) = 0.19364 0.17118
# Poissons Ratio (y) = 0.33766 0.76847
# Poissons Ratio (z) = 0.11997 0.30887
#
# Static dielectric constant tensor:
#      x y z
#    x 3.593410 0.000000 -0.072490 
#    y 0.000000 3.266000 0.000000 
#    z -0.072490 0.000000 3.493800 
# 
# 
# High freq. dielectric constant tensor:
#      x y z
#    x 1.735870 0.000000 -0.004760 
#    y 0.000000 1.705010 0.000000 
#    z -0.004760 0.000000 1.734800 
# 
# From -- ./inp_files/353468.got.cif
#   From: 2010.06.25/outbox.cif.g09.slc.cpg/sg12_177_cif.got.tgz:353468.got - 2010.06.28 00:19:55.
