data_PCOD8101384
_publ_section_title
;
Structure prediction by ZEFSAII (Michael W. Deem and Ramdas Pophale) SiO2 
 PCOD8101384
Probable space group: C 2/M
;
_chemical_formula_sum "Si O2"
_cell_formula_units_Z 64
_cell_length_a 9.297840
_cell_length_b 30.683271
_cell_length_c 18.928178
_cell_angle_alpha 90.000000
_cell_angle_beta 38.029461
_cell_angle_gamma 90.000000
_cell_volume 3326.750167
_symmetry_space_group_name_H-M "C 2/M"
_symmetry_group_IT_number 12
_symmetry_cell_setting 'monoclinic'
loop_
_space_group_symop_operation_xyz
x,y,z
-x,y,-z
-x,-y,-z
x,-y,z
1/2+x,1/2+y,z
1/2-x,1/2+y,-z
1/2-x,1/2-y,-z
1/2+x,1/2-y,z
loop_
_atom_site_type_symbol
_atom_site_label
_atom_site_fract_x
_atom_site_fract_y
_atom_site_fract_z
Si Si1 0.093403 0.549186 0.886751
Si Si2 0.380534 0.048426 0.470234
Si Si3 0.264294 0.752924 0.340735
Si Si4 0.517255 0.393536 0.675605
Si Si5 0.591584 0.549555 0.037817
Si Si6 0.911660 0.691790 0.702421
Si Si7 0.359607 0.693586 0.436740
Si Si8 0.232238 0.897267 0.741163
O O1 0.203018 0.500000 0.843887
O O2 0.272480 0.585308 0.791208
O O3 0.000000 0.560974 0.000000
O O4 0.869865 0.551912 0.922955
O O5 0.500000 0.046000 0.500000
O O6 0.543469 0.071081 0.348152
O O7 0.140620 0.074751 0.571565
O O8 0.323187 0.000000 0.464758
O O9 0.489188 0.785429 0.263947
O O10 0.264720 0.723221 0.410079
O O11 0.276001 0.723395 0.265050
O O12 0.023611 0.779896 0.426858
O O13 0.486904 0.346925 0.650184
O O14 0.673950 0.384198 0.683606
O O15 0.508122 0.500000 0.082910
O O16 0.490469 0.577990 0.140847
O O17 0.500000 0.568700 0.000000
O O18 0.128927 0.679207 0.567612
O O19 0.784828 0.645933 0.767412
#
# Coordination Sequence:
#
# PCOD8101384 Si02
#       8
#     8   8   8   8   8   8   8   8
#     4  10  20  36  58  82 108 142 189 236 273 315
#     4   9  18  30  47  77 117 150 175 211 277 343
#     4  10  21  32  52  75 114 154 185 221 279 325
#     4  11  20  31  54  85 115 144 182 229 276 328
#     4  10  22  40  60  82 109 145 191 238 279 320
#     4  11  19  33  51  81 114 149 184 227 271 336
#     4  11  19  33  50  81 114 149 184 226 270 338
#     4  11  20  32  55  83 113 146 184 229 277 326
#
# _framework density 19.237994
#
# number of rings (size 3 to 8) (size 9 to 14) (size 15 to 20)
#    0.000    1.625    3.750    3.750    0.000    2.000 
#    0.000    0.000    0.000    0.000    0.000   21.875 
#    0.000    0.000    0.000    0.000    0.000    0.000 
#
# Total GULP energy -396675.047652 kJ/mol
# GULP energy per Si atom -12396.095239 kJ/mol
# Density = 1.919421 g / cm^3
# Si number density = 19.237994 Si / 1000 Ang^3
#
#
#
# Elastic Constant Matrix: (Units=GPa)
#
#
# Indices 1 2 3 4 5 6 
#
# 1 91.2619 35.6836 12.6134 0.0000 -6.2428 0.0000
# 2 35.6836 141.6907 50.3894 0.0000 -9.6527 0.0000
# 3 12.6134 50.3894 64.8371 0.0000 -13.7053 0.0000
# 4 0.0000 0.0000 0.0000 22.9716 0.0000 -5.2838
# 5 -6.2428 -9.6527 -13.7053 0.0000 17.0235 0.0000
# 6 0.0000 0.0000 0.0000 -5.2838 0.0000 19.3405
#
#
#
# Elastic Compliance Matrix: (Units=1/GPa)
#
#
# Indices 1 2 3 4 5 6 
#
# 1 0.012310 -0.003140 0.000751 0.000000 0.003339 0.000000
# 2 -0.003140 0.010561 -0.007923 0.000000 -0.001541 0.000000
# 3 0.000751 -0.007923 0.024756 0.000000 0.015714 0.000000
# 4 0.000000 0.000000 0.000000 0.046451 0.000000 0.012690
# 5 0.003339 -0.001541 0.015714 0.000000 0.071743 0.000000
# 6 0.000000 0.000000 0.000000 0.012690 0.000000 0.055172
#
#
# Mechanical properties :
#
#
# Convention : Reuss Voigt Hill
#
# Bulk Modulus (GPa) = 37.03162 55.01805 46.02484
# Shear Modulus (GPa) = 19.95081 25.14068 22.54575
#
# Velocity S-wave (km/s) = 3.22382 3.61892 3.42707
# Velocity P-wave (km/s) = 5.75746 6.79138 6.29568
#
# Compressibility (1/GPa) = 0.02700395
#
# Stress axis : x y z
#
# Youngs Moduli (GPa) = 81.23675 94.68940 40.39437
#
# Poissons Ratio (x) = 0.29730 -0.03034
# Poissons Ratio (y) = 0.25506 0.32003
# Poissons Ratio (z) = -0.06102 0.75019
#
# Static dielectric constant tensor:
#      x y z
#    x 3.597740 0.000000 -0.107200 
#    y 0.000000 3.694450 0.000000 
#    z -0.107200 0.000000 3.096960 
# 
# 
# High freq. dielectric constant tensor:
#      x y z
#    x 1.742180 0.000000 -0.008590 
#    y 0.000000 1.758820 0.000000 
#    z -0.008590 0.000000 1.702790 
# 
# From -- ./inp_files/260317.got.cif
#   From: 2010.06.25/outbox.cif.g09.slc.cpg/sg12_131_cif.got.tgz:260317.got - 2010.06.28 00:19:55.
