data_PCOD8101449
_publ_section_title
;
Structure prediction by ZEFSAII (Michael W. Deem and Ramdas Pophale) SiO2 
 PCOD8101449
Probable space group: C 2/M
;
_chemical_formula_sum "Si O2"
_cell_formula_units_Z 48
_cell_length_a 18.999867
_cell_length_b 8.630018
_cell_length_c 21.863464
_cell_angle_alpha 90.000000
_cell_angle_beta 135.580122
_cell_angle_gamma 90.000000
_cell_volume 2509.135771
_symmetry_space_group_name_H-M "C 2/M"
_symmetry_group_IT_number 12
_symmetry_cell_setting 'monoclinic'
loop_
_space_group_symop_operation_xyz
x,y,z
-x,y,-z
-x,-y,-z
x,-y,z
1/2+x,1/2+y,z
1/2-x,1/2+y,-z
1/2-x,1/2-y,-z
1/2+x,1/2-y,z
loop_
_atom_site_type_symbol
_atom_site_label
_atom_site_fract_x
_atom_site_fract_y
_atom_site_fract_z
Si Si1 0.546097 0.177418 0.738936
Si Si2 0.726896 0.679531 0.787671
Si Si3 0.685671 0.181784 0.405659
Si Si4 0.478743 0.821186 0.138916
Si Si5 0.692834 0.681483 0.280182
Si Si6 0.900903 0.181063 0.974985
O O1 0.613818 0.289605 0.740101
O O2 0.430636 0.219835 0.653835
O O3 0.570615 0.207353 0.825570
O O4 0.568867 0.000000 0.735469
O O5 0.753492 0.500000 0.810408
O O6 0.734148 0.732239 0.721969
O O7 0.802595 0.778286 0.875919
O O8 0.750000 0.250000 0.500000
O O9 0.721538 0.261358 0.365427
O O10 0.703480 0.000000 0.410195
O O11 0.577854 0.717886 0.191611
O O12 0.511103 0.000000 0.152407
O O13 0.398249 0.772458 0.037708
O O14 0.711507 0.500000 0.286499
O O15 0.901687 0.000000 0.989496
O O16 0.000000 0.233799 0.000000
#
# Coordination Sequence:
#
# PCOD8101449 Si02
#       6
#     8   8   8   8   8   8
#     4   9  21  40  59  83 118 152 186 232 289 344
#     4  12  24  37  57  84 116 154 194 241 289 335
#     4  10  21  40  66  93 118 148 187 232 281 342
#     4  10  20  36  58  83 112 151 197 243 285 335
#     4  11  21  36  59  85 116 153 191 234 285 342
#     4  11  22  35  55  82 113 154 199 241 284 338
#
# _framework density 19.130092000000001
#
# number of rings (size 3 to 8) (size 9 to 14) (size 15 to 20)
#    0.000    1.500    1.667    5.500    0.000    5.333 
#    0.000    0.833    0.000    5.000    0.000    0.000 
#    0.000    0.000    0.000    0.000    0.000    0.000 
#
# Total GULP energy -297739.812113 kJ/mol
# GULP energy per Si atom -12405.825505 kJ/mol
# Density = 1.908655 g / cm^3
# Si number density = 19.130092 Si / 1000 Ang^3
#
#
#
# Elastic Constant Matrix: (Units=GPa)
#
#
# Indices 1 2 3 4 5 6 
#
# 1 111.8368 38.9826 43.2579 0.0000 -10.9241 0.0000
# 2 38.9826 80.2166 21.2606 0.0000 -4.9580 0.0000
# 3 43.2579 21.2606 111.7373 0.0000 -17.6502 0.0000
# 4 0.0000 0.0000 0.0000 34.1021 0.0000 -3.2764
# 5 -10.9241 -4.9580 -17.6502 0.0000 22.6385 0.0000
# 6 0.0000 0.0000 0.0000 -3.2764 0.0000 31.9601
#
#
#
# Elastic Compliance Matrix: (Units=1/GPa)
#
#
# Indices 1 2 3 4 5 6 
#
# 1 0.012184 -0.004874 -0.003455 0.000000 0.002118 0.000000
# 2 -0.004874 0.015101 -0.000953 0.000000 0.000212 0.000000
# 3 -0.003455 -0.000953 0.011601 0.000000 0.007169 0.000000
# 4 0.000000 0.000000 0.000000 0.029615 0.000000 0.003036
# 5 0.002118 0.000212 0.007169 0.000000 0.050830 0.000000
# 6 0.000000 0.000000 0.000000 0.003036 0.000000 0.031600
#
#
# Mechanical properties :
#
#
# Convention : Reuss Voigt Hill
#
# Bulk Modulus (GPa) = 49.20879 56.75479 52.98179
# Shear Modulus (GPa) = 28.36581 31.09279 29.72930
#
# Velocity S-wave (km/s) = 3.85487 4.03592 3.94643
# Velocity P-wave (km/s) = 6.75222 7.17289 6.96573
#
# Compressibility (1/GPa) = 0.02032157
#
# Stress axis : x y z
#
# Youngs Moduli (GPa) = 82.07590 66.22239 86.20160
#
# Poissons Ratio (x) = 0.32279 0.29781
# Poissons Ratio (y) = 0.40007 0.08212
# Poissons Ratio (z) = 0.28356 0.06309
#
# Static dielectric constant tensor:
#      x y z
#    x 3.510660 0.000000 -0.195590 
#    y 0.000000 3.510020 0.000000 
#    z -0.195590 0.000000 3.359260 
# 
# 
# High freq. dielectric constant tensor:
#      x y z
#    x 1.739910 0.000000 -0.016080 
#    y 0.000000 1.756330 0.000000 
#    z -0.016080 0.000000 1.732520 
# 
# From -- ./inp_files/249345.got.cif
#   From: 2010.06.25/outbox.cif.g09.slc.cpg/sg12_125_cif.got.tgz:249345.got - 2010.06.28 00:19:55.
