data_PCOD8101394
_publ_section_title
;
Structure prediction by ZEFSAII (Michael W. Deem and Ramdas Pophale) SiO2 
 PCOD8101394
Probable space group: C 2/M
;
_chemical_formula_sum "Si O2"
_cell_formula_units_Z 36
_cell_length_a 21.927912
_cell_length_b 12.755339
_cell_length_c 11.610974
_cell_angle_alpha 90.000000
_cell_angle_beta 31.150403
_cell_angle_gamma 90.000000
_cell_volume 1679.921491
_symmetry_space_group_name_H-M "C 2/M"
_symmetry_group_IT_number 12
_symmetry_cell_setting 'monoclinic'
loop_
_space_group_symop_operation_xyz
x,y,z
-x,y,-z
-x,-y,-z
x,-y,z
1/2+x,1/2+y,z
1/2-x,1/2+y,-z
1/2-x,1/2-y,-z
1/2+x,1/2-y,z
loop_
_atom_site_type_symbol
_atom_site_label
_atom_site_fract_x
_atom_site_fract_y
_atom_site_fract_z
Si Si1 0.160050 0.381494 0.323797
Si Si2 0.541221 0.381171 0.691418
Si Si3 0.787775 0.301768 0.222274
Si Si4 0.000000 0.778307 0.000000
Si Si5 0.916296 0.689611 0.789901
O O1 0.205536 0.500000 0.234785
O O2 0.248926 0.319050 0.262396
O O3 0.161753 0.318573 0.199461
O O4 0.030058 0.384434 0.589419
O O5 0.500613 0.500000 0.737284
O O6 0.679189 0.371789 0.438064
O O7 0.523798 0.350239 0.851707
O O8 0.460926 0.309078 0.738120
O O9 0.887359 0.297052 0.160287
O O10 0.842663 0.352274 0.017697
#
# Coordination Sequence:
#
# PCOD8101394 Si02
#       5
#     8   8   8   4   8
#     4  10  20  36  58  82 109 146 184 217 264 326
#     4  10  21  36  57  83 109 141 181 222 271 325
#     4  10  21  37  56  82 111 141 181 228 269 313
#     4  10  21  40  57  74 108 148 181 226 271 318
#     4   9  19  36  54  79 113 141 174 221 269 319
#
# _framework density 21.429570999999999
#
# number of rings (size 3 to 8) (size 9 to 14) (size 15 to 20)
#    0.000    2.222    0.000    3.000    0.000    6.222 
#    0.000    9.444    0.000    1.333    0.000    0.000 
#    0.000    0.000    0.000    0.000    0.000    0.000 
#
# Total GULP energy -223217.006030 kJ/mol
# GULP energy per Si atom -12400.944779 kJ/mol
# Density = 2.138080 g / cm^3
# Si number density = 21.429571 Si / 1000 Ang^3
#
#
#
# Elastic Constant Matrix: (Units=GPa)
#
#
# Indices 1 2 3 4 5 6 
#
# 1 75.7097 18.5178 0.3515 0.0000 0.0092 0.0000
# 2 18.5178 77.3495 5.4730 0.0000 22.4096 0.0000
# 3 0.3515 5.4730 95.5229 0.0000 18.2039 0.0000
# 4 0.0000 0.0000 0.0000 9.2699 0.0000 6.4729
# 5 0.0092 22.4096 18.2039 0.0000 26.8076 0.0000
# 6 0.0000 0.0000 0.0000 6.4729 0.0000 18.1667
#
#
#
# Elastic Compliance Matrix: (Units=1/GPa)
#
#
# Indices 1 2 3 4 5 6 
#
# 1 0.014343 -0.004629 -0.000602 0.000000 0.004274 0.000000
# 2 -0.004629 0.018893 0.002233 0.000000 -0.017308 0.000000
# 3 -0.000602 0.002233 0.012289 0.000000 -0.010211 0.000000
# 4 0.000000 0.000000 0.000000 0.143604 0.000000 -0.051167
# 5 0.004274 -0.017308 -0.010211 0.000000 0.058704 0.000000
# 6 0.000000 0.000000 0.000000 -0.051167 0.000000 0.073277
#
#
# Mechanical properties :
#
#
# Convention : Reuss Voigt Hill
#
# Bulk Modulus (GPa) = 25.29826 33.02965 29.16395
# Shear Modulus (GPa) = 14.69368 25.79817 20.24593
#
# Velocity S-wave (km/s) = 2.62138 3.47343 3.07704
# Velocity P-wave (km/s) = 4.58182 5.61541 5.12474
#
# Compressibility (1/GPa) = 0.03952841
#
# Stress axis : x y z
#
# Youngs Moduli (GPa) = 69.72085 52.92924 81.37382
#
# Poissons Ratio (x) = 0.24503 0.04899
# Poissons Ratio (y) = 0.32276 -0.18171
# Poissons Ratio (z) = 0.04197 -0.11819
#
# Static dielectric constant tensor:
#      x y z
#    x 3.844730 0.000000 -0.059450 
#    y 0.000000 3.453270 0.000000 
#    z -0.059450 0.000000 4.183900 
# 
# 
# High freq. dielectric constant tensor:
#      x y z
#    x 1.834890 0.000000 -0.006190 
#    y 0.000000 1.810590 0.000000 
#    z -0.006190 0.000000 1.864690 
# 
# From -- ./inp_files/140175.got.cif
#   From: 2010.06.25/outbox.cif.g09.slc.cpg/sg12_71_cif.got.tgz:140175.got - 2010.06.28 00:19:55.
