data_PCOD8101462
_publ_section_title
;
Structure prediction by ZEFSAII (Michael W. Deem and Ramdas Pophale) SiO2 
 PCOD8101462
Probable space group: C 2/M
;
_chemical_formula_sum "Si O2"
_cell_formula_units_Z 64
_cell_length_a 20.180906
_cell_length_b 8.724580
_cell_length_c 21.527884
_cell_angle_alpha 90.000000
_cell_angle_beta 62.154866
_cell_angle_gamma 90.000000
_cell_volume 3351.533632
_symmetry_space_group_name_H-M "C 2/M"
_symmetry_group_IT_number 12
_symmetry_cell_setting 'monoclinic'
loop_
_space_group_symop_operation_xyz
x,y,z
-x,y,-z
-x,-y,-z
x,-y,z
1/2+x,1/2+y,z
1/2-x,1/2+y,-z
1/2-x,1/2-y,-z
1/2+x,1/2-y,z
loop_
_atom_site_type_symbol
_atom_site_label
_atom_site_fract_x
_atom_site_fract_y
_atom_site_fract_z
Si Si1 0.025520 0.820408 0.553949
Si Si2 0.901604 0.678989 0.295721
Si Si3 0.326924 0.318564 0.443059
Si Si4 0.850049 0.322675 0.083289
Si Si5 0.406812 0.822444 0.921874
Si Si6 0.456829 0.323598 0.709674
Si Si7 0.319712 0.676837 0.852308
Si Si8 0.933808 0.821560 0.157762
O O1 0.106000 0.756928 0.541790
O O2 0.000000 0.742404 0.500000
O O3 0.962913 0.783391 0.633813
O O4 0.033934 0.000000 0.539649
O O5 0.887073 0.500000 0.308023
O O6 0.842976 0.764726 0.365950
O O7 0.887635 0.731983 0.231174
O O8 0.987305 0.718228 0.275427
O O9 0.322244 0.500000 0.446192
O O10 0.250000 0.250000 0.500000
O O11 0.865048 0.500000 0.092186
O O12 0.763632 0.277670 0.131635
O O13 0.900966 0.220746 0.105376
O O14 0.872679 0.283239 0.003468
O O15 0.343861 0.782422 0.898966
O O16 0.478941 0.719670 0.877733
O O17 0.429504 0.000000 0.906647
O O18 0.481624 0.500000 0.709562
O O19 0.372550 0.293684 0.769402
O O20 0.322810 0.500000 0.872508
O O21 0.925060 0.000000 0.174158
#
# Coordination Sequence:
#
# PCOD8101462 Si02
#       8
#     8   8   8   8   8   8   8   8
#     4   8  15  30  53  81 112 144 183 225 267 320
#     4  11  21  36  60  85 111 149 194 237 284 340
#     4  10  20  36  58  86 119 150 189 234 280 336
#     4  10  23  40  55  82 119 151 186 237 294 346
#     4  11  22  37  60  84 111 148 193 240 284 344
#     4   9  17  32  56  83 111 147 187 230 274 333
#     4  10  20  36  58  83 114 150 189 232 285 346
#     4  12  24  39  59  83 113 149 192 241 292 345
#
# _framework density 19.095735999999999
#
# number of rings (size 3 to 8) (size 9 to 14) (size 15 to 20)
#    0.000    1.875    1.250    4.500    0.000    3.000 
#    2.250    0.000    0.000    9.375    0.000    0.000 
#    0.000    0.000    0.000    0.000    0.000    0.000 
#
# Total GULP energy -396881.167036 kJ/mol
# GULP energy per Si atom -12402.536470 kJ/mol
# Density = 1.905227 g / cm^3
# Si number density = 19.095736 Si / 1000 Ang^3
#
#
#
# Elastic Constant Matrix: (Units=GPa)
#
#
# Indices 1 2 3 4 5 6 
#
# 1 57.5271 20.7232 36.1271 0.0000 -1.2221 -0.0002
# 2 20.7232 71.4129 30.8655 -0.0001 -0.7897 -0.0007
# 3 36.1271 30.8655 120.7187 0.0000 -2.2694 0.0001
# 4 0.0000 -0.0001 0.0000 28.5084 0.0000 -1.3001
# 5 -1.2221 -0.7897 -2.2694 0.0000 35.3951 0.0000
# 6 -0.0002 -0.0007 0.0001 -1.3001 0.0000 24.2464
#
#
#
# Elastic Compliance Matrix: (Units=1/GPa)
#
#
# Indices 1 2 3 4 5 6 
#
# 1 0.022406 -0.004050 -0.005664 0.000000 0.000320 0.000000
# 2 -0.004050 0.016475 -0.003000 0.000000 0.000035 0.000000
# 3 -0.005664 -0.003000 0.010754 0.000000 0.000427 0.000000
# 4 0.000000 0.000000 0.000000 0.035163 0.000000 0.001885
# 5 0.000320 0.000035 0.000427 0.000000 0.028292 0.000000
# 6 0.000000 0.000000 0.000000 0.001885 0.000000 0.041344
#
#
# Mechanical properties :
#
#
# Convention : Reuss Voigt Hill
#
# Bulk Modulus (GPa) = 41.30981 47.23223 44.27102
# Shear Modulus (GPa) = 26.60554 28.42617 27.51585
#
# Velocity S-wave (km/s) = 3.73670 3.86244 3.80009
# Velocity P-wave (km/s) = 6.34801 6.68427 6.51831
#
# Compressibility (1/GPa) = 0.02420732
#
# Stress axis : x y z
#
# Youngs Moduli (GPa) = 44.63126 60.69685 92.99184
#
# Poissons Ratio (x) = 0.24585 0.52667
# Poissons Ratio (y) = 0.18078 0.27894
# Poissons Ratio (z) = 0.25278 0.18207
#
# Static dielectric constant tensor:
#      x y z
#    x 3.468960 0.000000 0.056470 
#    y 0.000000 3.360950 0.000000 
#    z 0.056470 0.000000 3.763740 
# 
# 
# High freq. dielectric constant tensor:
#      x y z
#    x 1.727270 0.000000 -0.000480 
#    y 0.000000 1.731140 0.000000 
#    z -0.000480 0.000000 1.758400 
# 
# From -- ./inp_files/319827.got.cif
#   From: 2010.06.25/outbox.cif.g09.slc.cpg/sg12_160_cif.got.tgz:319827.got - 2010.06.28 00:19:55.
