data_PCOD8101997
_publ_section_title
;
Structure prediction by ZEFSAII (Michael W. Deem and Ramdas Pophale) SiO2 
 PCOD8101997
Probable space group: C 2/M
;
_chemical_formula_sum "Si O2"
_cell_formula_units_Z 64
_cell_length_a 23.580230
_cell_length_b 15.583317
_cell_length_c 10.372279
_cell_angle_alpha 90.000000
_cell_angle_beta 48.566069
_cell_angle_gamma 90.000000
_cell_volume 2857.464383
_symmetry_space_group_name_H-M "C 2/M"
_symmetry_group_IT_number 12
_symmetry_cell_setting 'monoclinic'
loop_
_space_group_symop_operation_xyz
x,y,z
-x,y,-z
-x,-y,-z
x,-y,z
1/2+x,1/2+y,z
1/2-x,1/2+y,-z
1/2-x,1/2-y,-z
1/2+x,1/2-y,z
loop_
_atom_site_type_symbol
_atom_site_label
_atom_site_fract_x
_atom_site_fract_y
_atom_site_fract_z
Si Si1 0.958951 0.402079 0.938662
Si Si2 0.451875 0.402571 0.186801
Si Si3 0.535741 0.156907 0.575885
Si Si4 0.292209 0.897667 0.159819
Si Si5 0.196548 0.899046 0.060433
Si Si6 0.471503 0.653275 0.678112
Si Si7 0.200927 0.600574 0.336697
Si Si8 0.785988 0.898003 0.465112
O O1 0.943377 0.500000 0.000258
O O2 0.012529 0.399023 0.733772
O O3 0.877448 0.359230 0.031692
O O4 0.000000 0.357158 0.000000
O O5 0.437270 0.500000 0.165487
O O6 0.497198 0.403054 0.252150
O O7 0.370016 0.357618 0.324424
O O8 0.500000 0.356645 0.000000
O O9 0.500000 0.116389 0.500000
O O10 0.504459 0.251903 0.644197
O O11 0.625996 0.156075 0.425065
O O12 0.248826 0.864967 0.098291
O O13 0.250306 0.861248 0.349390
O O14 0.293821 0.000000 0.155519
O O15 0.119067 0.845921 0.181347
O O16 0.178451 0.000000 0.100751
O O17 0.238284 0.878150 0.864472
O O18 0.500000 0.612955 0.500000
O O19 0.179911 0.500000 0.367195
O O20 0.235311 0.630284 0.420888
O O21 0.790864 0.000000 0.467092
#
# Coordination Sequence:
#
# PCOD8101997 Si02
#       8
#     8   8   8   8   8   8   8   8
#     4  10  20  36  60  88 117 152 197 250 304 356
#     4  10  20  36  60  87 114 149 197 251 303 354
#     4  11  24  40  56  83 121 161 201 240 292 356
#     4   9  17  30  51  82 113 142 184 236 292 348
#     4  10  20  36  61  89 115 150 199 251 298 345
#     4  11  24  40  56  83 123 164 202 240 293 358
#     4  10  20  37  62  88 114 148 196 251 301 350
#     4   9  17  31  53  82 112 140 178 236 298 351
#
# _framework density 22.397479000000001
#
# number of rings (size 3 to 8) (size 9 to 14) (size 15 to 20)
#    0.000    2.000    0.000    3.750    0.000    8.500 
#    0.000    7.500    0.000    0.000    0.000    0.000 
#    0.000    0.000    0.000    0.000    0.000    0.000 
#
# Total GULP energy -396853.566795 kJ/mol
# GULP energy per Si atom -12401.673962 kJ/mol
# Density = 2.234650 g / cm^3
# Si number density = 22.397479 Si / 1000 Ang^3
#
#
#
# Elastic Constant Matrix: (Units=GPa)
#
#
# Indices 1 2 3 4 5 6 
#
# 1 154.3624 13.0563 55.8982 0.0000 -5.9796 0.0000
# 2 13.0563 27.0244 8.7601 0.0000 -8.3681 0.0000
# 3 55.8982 8.7601 150.8302 0.0000 1.8509 0.0000
# 4 0.0000 0.0000 0.0000 16.1921 0.0000 -7.0928
# 5 -5.9796 -8.3681 1.8509 0.0000 57.5122 0.0000
# 6 0.0000 0.0000 0.0000 -7.0928 0.0000 21.1170
#
#
#
# Elastic Compliance Matrix: (Units=1/GPa)
#
#
# Indices 1 2 3 4 5 6 
#
# 1 0.007705 -0.002692 -0.002705 0.000000 0.000496 0.000000
# 2 -0.002692 0.040519 -0.001425 0.000000 0.005662 0.000000
# 3 -0.002705 -0.001425 0.007724 0.000000 -0.000737 0.000000
# 4 0.000000 0.000000 0.000000 0.072413 0.000000 0.024322
# 5 0.000496 0.005662 -0.000737 0.000000 0.018287 0.000000
# 6 0.000000 0.000000 0.000000 0.024322 0.000000 0.055525
#
#
# Mechanical properties :
#
#
# Convention : Reuss Voigt Hill
#
# Bulk Modulus (GPa) = 23.63849 54.18291 38.91070
# Shear Modulus (GPa) = 21.74690 35.93109 28.83899
#
# Velocity S-wave (km/s) = 3.11939 4.00965 3.59221
# Velocity P-wave (km/s) = 4.85295 6.75873 5.88352
#
# Compressibility (1/GPa) = 0.04230389
#
# Stress axis : x y z
#
# Youngs Moduli (GPa) = 129.78966 24.67973 129.46089
#
# Poissons Ratio (x) = 0.06643 0.35021
# Poissons Ratio (y) = 0.34937 0.18451
# Poissons Ratio (z) = 0.35110 0.03517
#
# Static dielectric constant tensor:
#      x y z
#    x 4.260980 0.000000 0.013820 
#    y 0.000000 3.388490 0.000000 
#    z 0.013820 0.000000 4.273910 
# 
# 
# High freq. dielectric constant tensor:
#      x y z
#    x 1.900060 0.000000 0.000370 
#    y 0.000000 1.832800 0.000000 
#    z 0.000370 0.000000 1.900290 
# 
# From -- ./inp_files/89579.got.cif
#   From: 2010.06.25/outbox.cif.g09.slc.cpg/sg12_45_cif.got.tgz:89579.got - 2010.06.28 00:19:55.
