data_PCOD8101288
_publ_section_title
;
Structure prediction by ZEFSAII (Michael W. Deem and Ramdas Pophale) SiO2 
 PCOD8101288
Probable space group: C 2/M
;
_chemical_formula_sum "Si O2"
_cell_formula_units_Z 48
_cell_length_a 20.242109
_cell_length_b 8.599299
_cell_length_c 13.564556
_cell_angle_alpha 90.000000
_cell_angle_beta 115.618503
_cell_angle_gamma 90.000000
_cell_volume 2129.036280
_symmetry_space_group_name_H-M "C 2/M"
_symmetry_group_IT_number 12
_symmetry_cell_setting 'monoclinic'
loop_
_space_group_symop_operation_xyz
x,y,z
-x,y,-z
-x,-y,-z
x,-y,z
1/2+x,1/2+y,z
1/2-x,1/2+y,-z
1/2-x,1/2-y,-z
1/2+x,1/2-y,z
loop_
_atom_site_type_symbol
_atom_site_label
_atom_site_fract_x
_atom_site_fract_y
_atom_site_fract_z
Si Si1 0.027581 0.814639 0.266137
Si Si2 0.746544 0.173891 0.393920
Si Si3 0.396451 0.816805 0.280550
Si Si4 0.087458 0.828283 0.510362
Si Si5 0.141038 0.820662 0.181760
Si Si6 0.252138 0.817048 0.892959
O O1 0.073553 0.754363 0.392517
O O2 0.066389 0.760273 0.188286
O O3 0.946480 0.741023 0.220816
O O4 0.023391 0.000000 0.262250
O O5 0.750000 0.250000 0.500000
O O6 0.828050 0.161320 0.407466
O O7 0.704133 0.299382 0.302467
O O8 0.710722 0.000000 0.369504
O O9 0.440761 0.764352 0.409882
O O10 0.314846 0.749324 0.214909
O O11 0.389599 0.000000 0.275904
O O12 0.052238 0.000000 0.487970
O O13 0.168197 0.725135 0.103492
O O14 0.133169 0.000000 0.146300
O O15 0.244466 0.000000 0.891447
O O16 0.250000 0.750000 0.000000
#
# Coordination Sequence:
#
# PCOD8101288 Si02
#       6
#     8   8   8   8   8   8
#     4  10  22  40  61  89 131 175 210 249 306 370
#     4  11  20  32  54  86 125 168 210 258 306 363
#     4  12  25  40  61  93 129 167 212 260 308 365
#     4  10  20  36  57  86 126 175 216 252 303 364
#     4  11  22  40  64  93 125 162 208 258 312 373
#     4  12  26  47  72  96 121 156 203 260 320 374
#
# _framework density 22.545413
#
# number of rings (size 3 to 8) (size 9 to 14) (size 15 to 20)
#    0.000    1.000    3.333    4.500    0.000    4.667 
#    0.000    0.833    0.000    5.000    0.000    0.000 
#    0.000    0.000    0.000    0.000    0.000    0.000 
#
# Total GULP energy -297363.870080 kJ/mol
# GULP energy per Si atom -12390.161253 kJ/mol
# Density = 2.249410 g / cm^3
# Si number density = 22.545413 Si / 1000 Ang^3
#
#
#
# Elastic Constant Matrix: (Units=GPa)
#
#
# Indices 1 2 3 4 5 6 
#
# 1 129.0166 38.5289 19.7433 0.0000 -37.8766 0.0000
# 2 38.5289 98.7937 21.4790 0.0000 -20.4608 0.0000
# 3 19.7433 21.4790 78.3039 0.0000 -34.5141 0.0000
# 4 0.0000 0.0000 0.0000 28.7327 0.0000 -4.8289
# 5 -37.8766 -20.4608 -34.5141 0.0000 38.5158 0.0000
# 6 0.0000 0.0000 0.0000 -4.8289 0.0000 32.8299
#
#
#
# Elastic Compliance Matrix: (Units=1/GPa)
#
#
# Indices 1 2 3 4 5 6 
#
# 1 0.012013 -0.002650 0.003776 0.000000 0.013789 0.000000
# 2 -0.002650 0.011985 -0.001590 0.000000 0.002336 0.000000
# 3 0.003776 -0.001590 0.022345 0.000000 0.022892 0.000000
# 4 0.000000 0.000000 0.000000 0.035686 0.000000 0.005249
# 5 0.013789 0.002336 0.022892 0.000000 0.061279 0.000000
# 6 0.000000 0.000000 0.000000 0.005249 0.000000 0.031232
#
#
# Mechanical properties :
#
#
# Convention : Reuss Voigt Hill
#
# Bulk Modulus (GPa) = 22.01882 51.73516 36.87699
# Shear Modulus (GPa) = 26.23222 35.10654 30.66938
#
# Velocity S-wave (km/s) = 3.41475 3.95035 3.69228
# Velocity P-wave (km/s) = 5.03339 6.61845 5.87958
#
# Compressibility (1/GPa) = 0.04541570
#
# Stress axis : x y z
#
# Youngs Moduli (GPa) = 83.24487 83.43726 44.75274
#
# Poissons Ratio (x) = 0.22111 -0.16899
# Poissons Ratio (y) = 0.22060 0.07114
# Poissons Ratio (z) = -0.31433 0.13263
#
# Static dielectric constant tensor:
#      x y z
#    x 4.527970 0.000000 -0.285110 
#    y 0.000000 3.975630 0.000000 
#    z -0.285110 0.000000 3.683000 
# 
# 
# High freq. dielectric constant tensor:
#      x y z
#    x 1.911590 0.000000 -0.021080 
#    y 0.000000 1.875440 0.000000 
#    z -0.021080 0.000000 1.862900 
# 
# From -- ./inp_files/230341.got.cif
#   From: 2010.06.25/outbox.cif.g09.slc.cpg/sg12_116_cif.got.tgz:230341.got - 2010.06.28 00:19:55.
