data_PCOD8101355
_publ_section_title
;
Structure prediction by ZEFSAII (Michael W. Deem and Ramdas Pophale) SiO2 
 PCOD8101355
Probable space group: C 2/M
;
_chemical_formula_sum "Si O2"
_cell_formula_units_Z 64
_cell_length_a 28.165934
_cell_length_b 8.831260
_cell_length_c 14.423978
_cell_angle_alpha 90.000000
_cell_angle_beta 73.159267
_cell_angle_gamma 90.000000
_cell_volume 3433.961697
_symmetry_space_group_name_H-M "C 2/M"
_symmetry_group_IT_number 12
_symmetry_cell_setting 'monoclinic'
loop_
_space_group_symop_operation_xyz
x,y,z
-x,y,-z
-x,-y,-z
x,-y,z
1/2+x,1/2+y,z
1/2-x,1/2+y,-z
1/2-x,1/2-y,-z
1/2+x,1/2-y,z
loop_
_atom_site_type_symbol
_atom_site_label
_atom_site_fract_x
_atom_site_fract_y
_atom_site_fract_z
Si Si1 0.698091 0.677502 0.925842
Si Si2 0.343965 0.329123 0.554491
Si Si3 0.599190 0.174521 0.635434
Si Si4 0.102651 0.171212 0.292586
Si Si5 0.504547 0.822297 0.391629
Si Si6 0.162133 0.675354 0.768690
Si Si7 0.747834 0.321348 0.602233
Si Si8 0.811278 0.677407 0.873583
O O1 0.691414 0.500000 0.944677
O O2 0.661452 0.732363 0.864931
O O3 0.755616 0.717223 0.869425
O O4 0.680894 0.761382 0.027698
O O5 0.323320 0.500000 0.555888
O O6 0.362869 0.276881 0.443618
O O7 0.388402 0.321384 0.602336
O O8 0.301087 0.217699 0.617054
O O9 0.543333 0.222203 0.642350
O O10 0.611227 0.198961 0.738137
O O11 0.608466 0.000000 0.601934
O O12 0.049959 0.251378 0.308282
O O13 0.147805 0.249604 0.214855
O O14 0.099095 0.000000 0.258348
O O15 0.500000 0.759817 0.500000
O O16 0.513438 0.000000 0.390454
O O17 0.170635 0.500000 0.787164
O O18 0.206708 0.735951 0.682595
O O19 0.737989 0.500000 0.607902
O O20 0.750000 0.250000 0.500000
O O21 0.820127 0.500000 0.869535
#
# Coordination Sequence:
#
# PCOD8101355 Si02
#       8
#     8   8   8   8   8   8   8   8
#     4  10  21  38  61  88 117 149 185 230 281 338
#     4  11  22  34  51  76 109 148 187 227 275 333
#     4  10  21  36  54  77 108 148 191 233 276 329
#     4  11  23  36  55  84 115 147 186 237 290 339
#     4  10  20  36  58  81 108 149 196 239 286 339
#     4  11  22  36  55  80 112 151 190 229 277 336
#     4  12  23  34  49  73 107 146 187 227 272 326
#     4  10  21  38  61  87 114 148 187 232 282 338
#
# _framework density 18.637366
#
# number of rings (size 3 to 8) (size 9 to 14) (size 15 to 20)
#    0.000    1.375    2.500    3.750    0.000    6.250 
#    0.000    0.000    0.000    0.750    0.000    5.250 
#    0.000    0.000    0.000    0.000    0.000    0.000 
#
# Total GULP energy -396796.373649 kJ/mol
# GULP energy per Si atom -12399.886677 kJ/mol
# Density = 1.859495 g / cm^3
# Si number density = 18.637366 Si / 1000 Ang^3
#
#
#
# Elastic Constant Matrix: (Units=GPa)
#
#
# Indices 1 2 3 4 5 6 
#
# 1 102.3659 24.9155 31.6050 0.0000 7.2198 0.0000
# 2 24.9155 38.5621 17.1104 0.0000 -7.5957 0.0000
# 3 31.6050 17.1104 64.0647 0.0000 2.8472 0.0000
# 4 0.0000 0.0000 0.0000 33.3517 0.0000 -1.3028
# 5 7.2198 -7.5957 2.8472 0.0000 26.1499 0.0000
# 6 0.0000 0.0000 0.0000 -1.3028 0.0000 27.7361
#
#
#
# Elastic Compliance Matrix: (Units=1/GPa)
#
#
# Indices 1 2 3 4 5 6 
#
# 1 0.013382 -0.007839 -0.004263 0.000000 -0.005507 0.000000
# 2 -0.007839 0.036532 -0.006489 0.000000 0.013482 0.000000
# 3 -0.004263 -0.006489 0.019571 0.000000 -0.002839 0.000000
# 4 0.000000 0.000000 0.000000 0.030039 0.000000 0.001411
# 5 -0.005507 0.013482 -0.002839 0.000000 0.043987 0.000000
# 6 0.000000 0.000000 0.000000 0.001411 0.000000 0.036120
#
#
# Mechanical properties :
#
#
# Convention : Reuss Voigt Hill
#
# Bulk Modulus (GPa) = 30.95703 39.13939 35.04821
# Shear Modulus (GPa) = 21.97026 26.20501 24.08764
#
# Velocity S-wave (km/s) = 3.43713 3.75380 3.59895
# Velocity P-wave (km/s) = 5.69193 6.31142 6.00967
#
# Compressibility (1/GPa) = 0.03230284
#
# Stress axis : x y z
#
# Youngs Moduli (GPa) = 74.72975 27.37331 51.09477
#
# Poissons Ratio (x) = 0.21459 0.21782
# Poissons Ratio (y) = 0.58583 0.33154
# Poissons Ratio (z) = 0.31858 0.17762
#
# Static dielectric constant tensor:
#      x y z
#    x 3.606720 0.000000 0.179860 
#    y 0.000000 3.662740 0.000000 
#    z 0.179860 0.000000 3.288090 
# 
# 
# High freq. dielectric constant tensor:
#      x y z
#    x 1.720350 0.000000 0.013050 
#    y 0.000000 1.735140 0.000000 
#    z 0.013050 0.000000 1.702140 
# 
# From -- ./inp_files/243771.got.cif
#   From: 2010.06.25/outbox.cif.g09.slc.cpg/sg12_122_cif.got.tgz:243771.got - 2010.06.28 00:19:55.
