data_PCOD8101432
_publ_section_title
;
Structure prediction by ZEFSAII (Michael W. Deem and Ramdas Pophale) SiO2 
 PCOD8101432
Probable space group: C 2/M
;
_chemical_formula_sum "Si O2"
_cell_formula_units_Z 64
_cell_length_a 15.387028
_cell_length_b 8.786262
_cell_length_c 24.025292
_cell_angle_alpha 90.000000
_cell_angle_beta 88.850621
_cell_angle_gamma 90.000000
_cell_volume 3247.432836
_symmetry_space_group_name_H-M "C 2/M"
_symmetry_group_IT_number 12
_symmetry_cell_setting 'monoclinic'
loop_
_space_group_symop_operation_xyz
x,y,z
-x,y,-z
-x,-y,-z
x,-y,z
1/2+x,1/2+y,z
1/2-x,1/2+y,-z
1/2-x,1/2-y,-z
1/2+x,1/2-y,z
loop_
_atom_site_type_symbol
_atom_site_label
_atom_site_fract_x
_atom_site_fract_y
_atom_site_fract_z
Si Si1 0.835172 0.823634 0.373449
Si Si2 0.358093 0.823280 0.641319
Si Si3 0.998721 0.180712 0.937419
Si Si4 0.343815 0.320579 0.138011
Si Si5 0.098274 0.177896 0.247075
Si Si6 0.649594 0.822238 0.132562
Si Si7 0.602357 0.321292 0.744656
Si Si8 0.985511 0.680254 0.438256
O O1 0.733623 0.800672 0.389378
O O2 0.853561 0.754298 0.311602
O O3 0.892571 0.736746 0.417948
O O4 0.862248 0.000000 0.374883
O O5 0.352745 0.726221 0.697631
O O6 0.435618 0.760441 0.601528
O O7 0.372163 0.000000 0.656492
O O8 0.910883 0.231012 0.908585
O O9 0.082571 0.247677 0.903845
O O10 0.000963 0.000000 0.937942
O O11 0.000000 0.246037 0.000000
O O12 0.358616 0.500000 0.142319
O O13 0.249034 0.282498 0.114894
O O14 0.355170 0.249757 0.199961
O O15 0.136731 0.273409 0.196082
O O16 0.998214 0.222038 0.255129
O O17 0.111313 0.000000 0.234989
O O18 0.630056 0.000000 0.127040
O O19 0.617948 0.500000 0.745007
O O20 0.985154 0.500000 0.439089
O O21 0.000000 0.745389 0.500000
#
# Coordination Sequence:
#
# PCOD8101432 Si02
#       8
#     8   8   8   8   8   8   8   8
#     4  10  20  36  58  83 108 145 190 228 273 334
#     4  10  21  37  58  83 113 147 184 227 279 335
#     4  10  21  39  61  82 109 150 195 233 273 326
#     4   9  18  35  57  81 112 150 182 218 276 335
#     4  11  20  34  59  86 113 145 183 227 276 333
#     4  11  22  36  58  85 114 148 185 228 281 334
#     4   9  16  30  55  80 106 139 177 220 268 326
#     4  10  22  39  56  79 114 150 185 233 284 324
#
# _framework density 19.707875000000001
#
# number of rings (size 3 to 8) (size 9 to 14) (size 15 to 20)
#    0.000    2.000    2.500    1.500    0.000    4.000 
#    0.000    1.250    0.000    0.000    0.000    0.000 
#    0.000    0.000    0.000    0.000    0.000    0.000 
#
# Total GULP energy -396822.157287 kJ/mol
# GULP energy per Si atom -12400.692415 kJ/mol
# Density = 1.966302 g / cm^3
# Si number density = 19.707875 Si / 1000 Ang^3
#
#
#
# Elastic Constant Matrix: (Units=GPa)
#
#
# Indices 1 2 3 4 5 6 
#
# 1 101.7659 11.4817 44.9131 0.0000 12.6719 0.0000
# 2 11.4817 8.8726 8.1200 0.0000 -2.7403 0.0000
# 3 44.9131 8.1200 132.8655 0.0000 13.7733 0.0000
# 4 0.0000 0.0000 0.0000 21.8421 0.0000 8.2910
# 5 12.6719 -2.7403 13.7733 0.0000 17.4757 0.0000
# 6 0.0000 0.0000 0.0000 8.2910 0.0000 26.0608
#
#
#
# Elastic Compliance Matrix: (Units=1/GPa)
#
#
# Indices 1 2 3 4 5 6 
#
# 1 0.014715 -0.020443 -0.002490 0.000000 -0.011914 0.000000
# 2 -0.020443 0.160382 -0.007661 0.000000 0.046010 0.000000
# 3 -0.002490 -0.007661 0.009554 0.000000 -0.006926 0.000000
# 4 0.000000 0.000000 0.000000 0.052071 0.000000 -0.016566
# 5 -0.011914 0.046010 -0.006926 0.000000 0.078534 0.000000
# 6 0.000000 0.000000 0.000000 -0.016566 0.000000 0.043642
#
#
# Mechanical properties :
#
#
# Convention : Reuss Voigt Hill
#
# Bulk Modulus (GPa) = 8.09954 41.39263 24.74609
# Shear Modulus (GPa) = 10.84032 25.00836 17.92434
#
# Velocity S-wave (km/s) = 2.34786 3.56610 3.01907
# Velocity P-wave (km/s) = 3.38654 6.16480 4.97360
#
# Compressibility (1/GPa) = 0.12346378
#
# Stress axis : x y z
#
# Youngs Moduli (GPa) = 67.95628 6.23512 104.66587
#
# Poissons Ratio (x) = 0.12747 0.26061
# Poissons Ratio (y) = 1.38925 0.80181
# Poissons Ratio (z) = 0.16921 0.04777
#
# Static dielectric constant tensor:
#      x y z
#    x 3.727600 0.000000 -0.110700 
#    y 0.000000 3.226090 0.000000 
#    z -0.110700 0.000000 3.764580 
# 
# 
# High freq. dielectric constant tensor:
#      x y z
#    x 1.781880 0.000000 0.000920 
#    y 0.000000 1.733110 0.000000 
#    z 0.000920 0.000000 1.768220 
# 
# From -- ./inp_files/338770.got.cif
#   From: 2010.06.25/outbox.cif.g09.slc.cpg/sg12_170_cif.got.tgz:338770.got - 2010.06.28 00:19:55.
