data_PCOD8101214
_publ_section_title
;
Structure prediction by ZEFSAII (Michael W. Deem and Ramdas Pophale) SiO2 
 PCOD8101214
Probable space group: C 2/M
;
_chemical_formula_sum "Si O2"
_cell_formula_units_Z 56
_cell_length_a 9.592984
_cell_length_b 28.192203
_cell_length_c 13.575130
_cell_angle_alpha 90.000000
_cell_angle_beta 60.591423
_cell_angle_gamma 90.000000
_cell_volume 3198.267933
_symmetry_space_group_name_H-M "C 2/M"
_symmetry_group_IT_number 12
_symmetry_cell_setting 'monoclinic'
loop_
_space_group_symop_operation_xyz
x,y,z
-x,y,-z
-x,-y,-z
x,-y,z
1/2+x,1/2+y,z
1/2-x,1/2+y,-z
1/2-x,1/2-y,-z
1/2+x,1/2-y,z
loop_
_atom_site_type_symbol
_atom_site_label
_atom_site_fract_x
_atom_site_fract_y
_atom_site_fract_z
Si Si1 0.109231 0.055194 0.555043
Si Si2 0.934388 0.207097 0.866219
Si Si3 0.329501 0.943777 0.012538
Si Si4 0.480241 0.603133 0.794301
Si Si5 0.251478 0.292814 0.127205
Si Si6 0.541004 0.947995 0.598248
Si Si7 0.712718 0.102529 0.184460
O O1 0.281207 0.073308 0.457689
O O2 0.000000 0.063902 0.500000
O O3 0.051009 0.086009 0.666804
O O4 0.115737 0.000000 0.585363
O O5 0.947976 0.159389 0.797271
O O6 0.878019 0.250833 0.817958
O O7 0.101873 0.222206 0.855073
O O8 0.804123 0.198296 0.996497
O O9 0.185559 0.923861 0.128802
O O10 0.315134 0.000000 0.014735
O O11 0.500000 0.928123 0.000000
O O12 0.312247 0.924173 0.908878
O O13 0.606628 0.593246 0.838997
O O14 0.175555 0.341928 0.188480
O O15 0.500000 0.953538 0.500000
O O16 0.415988 0.914008 0.692532
O O17 0.534113 0.000000 0.651835
#
# Coordination Sequence:
#
# PCOD8101214 Si02
#       7
#     8   8   8   8   8   8   8
#     4  10  22  38  57  81 112 150 190 232 274 323
#     4   9  18  34  55  80 110 139 183 228 274 340
#     4  11  25  37  50  82 120 150 179 226 286 336
#     4  11  21  38  60  82 111 148 189 230 279 336
#     4   9  18  34  54  81 110 142 180 227 279 332
#     4  10  20  36  57  83 108 143 194 233 268 322
#     4  11  21  37  60  83 112 146 188 234 277 333
#
# _framework density 17.509477
#
# number of rings (size 3 to 8) (size 9 to 14) (size 15 to 20)
#    0.000    1.857    2.857    1.286    2.000    3.429 
#    0.000    0.000    0.000    1.714    0.000    0.000 
#    0.000    0.000    0.000    0.000    0.000    0.000 
#
# Total GULP energy -347201.827706 kJ/mol
# GULP energy per Si atom -12400.065275 kJ/mol
# Density = 1.746962 g / cm^3
# Si number density = 17.509477 Si / 1000 Ang^3
#
#
#
# Elastic Constant Matrix: (Units=GPa)
#
#
# Indices 1 2 3 4 5 6 
#
# 1 110.3781 60.1654 36.1500 0.0000 -13.1513 0.0000
# 2 60.1654 119.7841 55.3284 0.0000 -8.2747 0.0000
# 3 36.1500 55.3284 69.3586 0.0000 -11.5051 0.0000
# 4 0.0000 0.0000 0.0000 19.7828 0.0000 1.8719
# 5 -13.1513 -8.2747 -11.5051 0.0000 27.9508 0.0000
# 6 0.0000 0.0000 0.0000 1.8719 0.0000 30.9874
#
#
#
# Elastic Compliance Matrix: (Units=1/GPa)
#
#
# Indices 1 2 3 4 5 6 
#
# 1 0.013092 -0.005467 -0.001834 0.000000 0.003786 0.000000
# 2 -0.005467 0.015507 -0.009860 0.000000 -0.002040 0.000000
# 3 -0.001834 -0.009860 0.024269 0.000000 0.006207 0.000000
# 4 0.000000 0.000000 0.000000 0.050840 0.000000 -0.003071
# 5 0.003786 -0.002040 0.006207 0.000000 0.039510 0.000000
# 6 0.000000 0.000000 0.000000 -0.003071 0.000000 0.032457
#
#
# Mechanical properties :
#
#
# Convention : Reuss Voigt Hill
#
# Bulk Modulus (GPa) = 53.91919 66.97872 60.44896
# Shear Modulus (GPa) = 23.12914 25.60266 24.36590
#
# Velocity S-wave (km/s) = 3.63843 3.82804 3.73444
# Velocity P-wave (km/s) = 6.96506 7.60752 7.29337
#
# Compressibility (1/GPa) = 0.01854627
#
# Stress axis : x y z
#
# Youngs Moduli (GPa) = 76.38521 64.48512 41.20537
#
# Poissons Ratio (x) = 0.35253 0.07559
# Poissons Ratio (y) = 0.41758 0.40627
# Poissons Ratio (z) = 0.14012 0.63579
#
# Static dielectric constant tensor:
#      x y z
#    x 3.518290 0.000000 -0.111350 
#    y 0.000000 3.360310 0.000000 
#    z -0.111350 0.000000 3.095110 
# 
# 
# High freq. dielectric constant tensor:
#      x y z
#    x 1.691160 0.000000 -0.006760 
#    y 0.000000 1.674480 0.000000 
#    z -0.006760 0.000000 1.659240 
# 
# From -- ./inp_files/178676.got.cif
#   From: 2010.06.25/outbox.cif.g09.slc.cpg/sg12_90_cif.got.tgz:178676.got - 2010.06.28 00:19:55.
