data_PCOD8101349
_publ_section_title
;
Structure prediction by ZEFSAII (Michael W. Deem and Ramdas Pophale) SiO2 
 PCOD8101349
Probable space group: C 2/M
;
_chemical_formula_sum "Si O2"
_cell_formula_units_Z 64
_cell_length_a 15.661535
_cell_length_b 9.021652
_cell_length_c 22.436663
_cell_angle_alpha 90.000000
_cell_angle_beta 91.599545
_cell_angle_gamma 90.000000
_cell_volume 3168.906310
_symmetry_space_group_name_H-M "C 2/M"
_symmetry_group_IT_number 12
_symmetry_cell_setting 'monoclinic'
loop_
_space_group_symop_operation_xyz
x,y,z
-x,y,-z
-x,-y,-z
x,-y,z
1/2+x,1/2+y,z
1/2-x,1/2+y,-z
1/2-x,1/2-y,-z
1/2+x,1/2-y,z
loop_
_atom_site_type_symbol
_atom_site_label
_atom_site_fract_x
_atom_site_fract_y
_atom_site_fract_z
Si Si1 0.566627 0.329761 0.368144
Si Si2 0.895028 0.671437 0.220934
Si Si3 0.734878 0.323602 0.436766
Si Si4 0.934657 0.831796 0.763893
Si Si5 0.339314 0.173587 0.995340
Si Si6 0.613399 0.825167 0.646745
Si Si7 0.595296 0.336246 0.892706
Si Si8 0.104723 0.839189 0.114681
O O1 0.547365 0.500000 0.382863
O O2 0.641961 0.268295 0.411995
O O3 0.605915 0.312067 0.302180
O O4 0.476844 0.245824 0.374920
O O5 0.878661 0.500000 0.206836
O O6 0.857920 0.718907 0.284977
O O7 0.856447 0.762198 0.163367
O O8 0.995334 0.704073 0.227088
O O9 0.736318 0.500000 0.442143
O O10 0.750000 0.250000 0.500000
O O11 0.810741 0.269748 0.394488
O O12 0.863744 0.810691 0.816068
O O13 0.973572 0.000000 0.768914
O O14 0.372446 0.208858 0.929762
O O15 0.333216 0.000000 0.003333
O O16 0.250000 0.250000 0.000000
O O17 0.399507 0.238490 0.047586
O O18 0.599652 0.000000 0.642689
O O19 0.635171 0.500000 0.904361
O O20 0.496205 0.348406 0.877317
O O21 0.138401 0.000000 0.091484
#
# Coordination Sequence:
#
# PCOD8101349 Si02
#       8
#     8   8   8   8   8   8   8   8
#     4   9  18  35  59  84 112 150 194 235 279 339
#     4   9  16  29  52  82 109 137 177 223 273 327
#     4  10  22  39  57  82 117 153 194 236 279 338
#     4   8  15  30  53  80 107 139 176 219 274 329
#     4  12  25  39  53  72 105 144 183 229 278 330
#     4   9  19  36  57  83 117 152 188 235 289 340
#     4  10  20  36  58  81 108 140 179 224 274 332
#     4   9  18  34  56  81 106 137 176 220 273 334
#
# _framework density 20.196242999999999
#
# number of rings (size 3 to 8) (size 9 to 14) (size 15 to 20)
#    0.000    2.500    0.000    3.000    0.000    6.000 
#    2.250    2.500    0.000    0.000    0.000    0.000 
#    0.000    0.000    0.000    0.000    0.000    0.000 
#
# Total GULP energy -396475.784498 kJ/mol
# GULP energy per Si atom -12389.868266 kJ/mol
# Density = 2.015028 g / cm^3
# Si number density = 20.196243 Si / 1000 Ang^3
#
#
#
# Elastic Constant Matrix: (Units=GPa)
#
#
# Indices 1 2 3 4 5 6 
#
# 1 50.6274 17.3358 19.4258 0.0000 -15.2284 0.0000
# 2 17.3358 88.0314 36.8940 0.0000 -11.1386 0.0000
# 3 19.4258 36.8940 111.6174 0.0000 -23.5325 0.0000
# 4 0.0000 0.0000 0.0000 36.4359 0.0000 -0.5858
# 5 -15.2284 -11.1386 -23.5325 0.0000 25.7818 0.0000
# 6 0.0000 0.0000 0.0000 -0.5858 0.0000 24.4581
#
#
#
# Elastic Compliance Matrix: (Units=1/GPa)
#
#
# Indices 1 2 3 4 5 6 
#
# 1 0.024882 -0.003013 -0.000632 0.000000 0.012818 0.000000
# 2 -0.003013 0.013646 -0.003862 0.000000 0.000591 0.000000
# 3 -0.000632 -0.003862 0.012278 0.000000 0.009165 0.000000
# 4 0.000000 0.000000 0.000000 0.027456 0.000000 0.000658
# 5 0.012818 0.000591 0.009165 0.000000 0.054979 0.000000
# 6 0.000000 0.000000 0.000000 0.000658 0.000000 0.040902
#
#
# Mechanical properties :
#
#
# Convention : Reuss Voigt Hill
#
# Bulk Modulus (GPa) = 27.93871 44.17637 36.05754
# Shear Modulus (GPa) = 24.86478 29.10986 26.98732
#
# Velocity S-wave (km/s) = 3.51259 3.80063 3.65945
# Velocity P-wave (km/s) = 5.50588 6.41722 5.97894
#
# Compressibility (1/GPa) = 0.03579263
#
# Stress axis : x y z
#
# Youngs Moduli (GPa) = 40.18957 73.28080 81.44754
#
# Poissons Ratio (x) = 0.22081 0.05147
# Poissons Ratio (y) = 0.12110 0.31451
# Poissons Ratio (z) = 0.02540 0.28298
#
# Static dielectric constant tensor:
#      x y z
#    x 3.306130 0.000000 -0.037030 
#    y 0.000000 4.504890 0.000000 
#    z -0.037030 0.000000 3.241470 
# 
# 
# High freq. dielectric constant tensor:
#      x y z
#    x 1.753730 0.000000 -0.000590 
#    y 0.000000 1.782630 0.000000 
#    z -0.000590 0.000000 1.807750 
# 
# From -- ./inp_files/338675.got.cif
#   From: 2010.06.25/outbox.cif.g09.slc.cpg/sg12_170_cif.got.tgz:338675.got - 2010.06.28 00:19:55.
