data_PCOD8101414
_publ_section_title
;
Structure prediction by ZEFSAII (Michael W. Deem and Ramdas Pophale) SiO2 
 PCOD8101414
Probable space group: C 2/M
;
_chemical_formula_sum "Si O2"
_cell_formula_units_Z 56
_cell_length_a 18.576214
_cell_length_b 9.047308
_cell_length_c 27.018379
_cell_angle_alpha 90.000000
_cell_angle_beta 38.791458
_cell_angle_gamma 90.000000
_cell_volume 2844.777871
_symmetry_space_group_name_H-M "C 2/M"
_symmetry_group_IT_number 12
_symmetry_cell_setting 'monoclinic'
loop_
_space_group_symop_operation_xyz
x,y,z
-x,y,-z
-x,-y,-z
x,-y,z
1/2+x,1/2+y,z
1/2-x,1/2+y,-z
1/2-x,1/2-y,-z
1/2+x,1/2-y,z
loop_
_atom_site_type_symbol
_atom_site_label
_atom_site_fract_x
_atom_site_fract_y
_atom_site_fract_z
Si Si1 0.897107 0.826530 0.163628
Si Si2 0.389326 0.331054 0.535910
Si Si3 0.342783 0.176246 0.290403
Si Si4 0.158844 0.828175 0.013426
Si Si5 0.241714 0.828872 0.860314
Si Si6 0.481784 0.675456 0.734303
Si Si7 0.133013 0.166554 0.563708
O O1 0.828982 0.733220 0.241649
O O2 0.843767 0.788754 0.138718
O O3 0.885287 0.000000 0.181405
O O4 0.029749 0.775320 0.094277
O O5 0.500000 0.249010 0.500000
O O6 0.384850 0.500000 0.556601
O O7 0.267022 0.263669 0.618910
O O8 0.418891 0.318885 0.462626
O O9 0.457894 0.247951 0.251207
O O10 0.354458 0.000000 0.285664
O O11 0.178726 0.792024 0.945286
O O12 0.172437 0.000000 0.016876
O O13 0.250000 0.750000 0.000000
O O14 0.351949 0.725696 0.798381
O O15 0.279165 0.000000 0.837737
O O16 0.485766 0.500000 0.739150
O O17 0.544978 0.732298 0.650703
O O18 0.250000 0.250000 0.500000
O O19 0.161343 0.000000 0.563310
#
# Coordination Sequence:
#
# PCOD8101414 Si02
#       7
#     8   8   8   8   8   8   8
#     4  10  22  40  61  86 120 153 188 239 291 339
#     4   9  19  35  56  80 110 148 190 236 286 339
#     4  11  22  37  60  85 115 155 198 238 286 350
#     4  10  21  39  63  88 115 153 194 231 282 342
#     4  10  22  40  62  87 117 154 194 234 285 348
#     4  11  23  37  58  86 119 153 194 244 291 340
#     4  10  20  36  58  82 111 149 192 238 288 342
#
# _framework density 19.685193000000002
#
# number of rings (size 3 to 8) (size 9 to 14) (size 15 to 20)
#    0.000    1.857    1.429    2.143    2.000    6.286 
#    0.000    0.000    0.000    4.714    0.000    0.000 
#    0.000    0.000    0.000    0.000    0.000    0.000 
#
# Total GULP energy -347184.634520 kJ/mol
# GULP energy per Si atom -12399.451233 kJ/mol
# Density = 1.964039 g / cm^3
# Si number density = 19.685193 Si / 1000 Ang^3
#
#
#
# Elastic Constant Matrix: (Units=GPa)
#
#
# Indices 1 2 3 4 5 6 
#
# 1 127.8338 41.2809 39.4399 0.0000 -1.4130 0.0004
# 2 41.2809 55.8091 32.6820 -0.0001 2.2933 0.0007
# 3 39.4399 32.6820 96.2058 0.0000 8.2428 0.0002
# 4 0.0000 -0.0001 0.0000 28.5013 0.0000 2.7802
# 5 -1.4130 2.2933 8.2428 0.0000 40.5175 -0.0001
# 6 0.0004 0.0007 0.0002 2.7802 -0.0001 29.0734
#
#
#
# Elastic Compliance Matrix: (Units=1/GPa)
#
#
# Indices 1 2 3 4 5 6 
#
# 1 0.010664 -0.006637 -0.002220 0.000000 0.001199 0.000000
# 2 -0.006637 0.026502 -0.006243 0.000000 -0.000462 0.000000
# 3 -0.002220 -0.006243 0.013639 0.000000 -0.002499 0.000000
# 4 0.000000 0.000000 0.000000 0.035416 0.000000 -0.003387
# 5 0.001199 -0.000462 -0.002499 0.000000 0.025257 0.000000
# 6 0.000000 0.000000 0.000000 -0.003387 0.000000 0.034720
#
#
# Mechanical properties :
#
#
# Convention : Reuss Voigt Hill
#
# Bulk Modulus (GPa) = 48.52900 56.29494 52.41197
# Shear Modulus (GPa) = 27.28260 30.71483 28.99872
#
# Velocity S-wave (km/s) = 3.72687 3.95435 3.84229
# Velocity P-wave (km/s) = 6.57461 7.03625 6.80934
#
# Compressibility (1/GPa) = 0.02060624
#
# Stress axis : x y z
#
# Youngs Moduli (GPa) = 93.77198 37.73240 73.31849
#
# Poissons Ratio (x) = 0.25045 0.16275
# Poissons Ratio (y) = 0.62241 0.45769
# Poissons Ratio (z) = 0.20815 0.23555
#
# Static dielectric constant tensor:
#      x y z
#    x 3.483720 0.000000 -0.121170 
#    y 0.000000 3.202920 0.000000 
#    z -0.121170 0.000000 3.630820 
# 
# 
# High freq. dielectric constant tensor:
#      x y z
#    x 1.778990 0.000000 0.005270 
#    y 0.000000 1.745690 0.000000 
#    z 0.005270 0.000000 1.781000 
# 
# From -- ./inp_files/363011.got.cif
#   From: 2010.06.25/outbox.cif.g09.slc.cpg/sg12_182_cif.got.tgz:363011.got - 2010.06.28 00:19:55.
