data_PCOD8101122
_publ_section_title
;
Structure prediction by ZEFSAII (Michael W. Deem and Ramdas Pophale) SiO2 
 PCOD8101122
Probable space group: C 2/M
;
_chemical_formula_sum "Si O2"
_cell_formula_units_Z 64
_cell_length_a 19.675166
_cell_length_b 19.715021
_cell_length_c 9.354379
_cell_angle_alpha 90.000000
_cell_angle_beta 61.723107
_cell_angle_gamma 90.000000
_cell_volume 3195.531206
_symmetry_space_group_name_H-M "C 2/M"
_symmetry_group_IT_number 12
_symmetry_cell_setting 'monoclinic'
loop_
_space_group_symop_operation_xyz
x,y,z
-x,y,-z
-x,-y,-z
x,-y,z
1/2+x,1/2+y,z
1/2-x,1/2+y,-z
1/2-x,1/2-y,-z
1/2+x,1/2-y,z
loop_
_atom_site_type_symbol
_atom_site_label
_atom_site_fract_x
_atom_site_fract_y
_atom_site_fract_z
Si Si1 0.410018 0.424523 0.116549
Si Si2 0.807205 0.571068 0.113125
Si Si3 0.025274 0.573319 0.137221
Si Si4 0.103677 0.201530 0.683007
Si Si5 0.150724 0.923026 0.128293
Si Si6 0.639696 0.706535 0.316366
Si Si7 0.047813 0.717737 0.189129
Si Si8 0.186526 0.713601 0.823840
O O1 0.381858 0.500000 0.187358
O O2 0.389588 0.374805 0.266067
O O3 0.500000 0.424399 0.000000
O O4 0.367372 0.399886 0.014833
O O5 0.795999 0.500000 0.210983
O O6 0.742275 0.578900 0.057020
O O7 0.808977 0.633364 0.222366
O O8 0.883403 0.567579 0.943172
O O9 0.990397 0.500000 0.228748
O O10 0.006602 0.642914 0.241211
O O11 0.000000 0.584770 0.000000
O O12 0.124468 0.200930 0.497886
O O13 0.168029 0.246114 0.699190
O O14 0.018088 0.230386 0.796560
O O15 0.116620 0.866460 0.270007
O O16 0.117887 0.000000 0.190334
O O17 0.581784 0.762692 0.309743
O O18 0.728129 0.731217 0.199953
O O19 0.118921 0.724240 0.007346
#
# Coordination Sequence:
#
# PCOD8101122 Si02
#       8
#     8   8   8   8   8   8   8   8
#     4  10  21  37  57  79 105 141 185 227 266 319
#     4   8  15  29  51  79 105 130 170 221 266 310
#     4   9  17  30  51  80 106 130 170 223 269 310
#     4  12  23  36  54  81 115 144 179 228 281 326
#     4   9  18  34  55  78 105 141 184 223 263 320
#     4  11  23  36  54  81 114 147 179 226 280 326
#     4  11  21  36  58  81 107 143 185 224 268 325
#     4  10  20  36  57  80 106 145 187 224 266 323
#
# _framework density 20.027968999999999
#
# number of rings (size 3 to 8) (size 9 to 14) (size 15 to 20)
#    0.000    2.000    0.000    5.250    0.000    2.500 
#    0.000    0.000    0.000    6.000    0.000    0.000 
#    0.000    0.000    0.000    0.000    0.000    0.250 
#
# Total GULP energy -396446.151650 kJ/mol
# GULP energy per Si atom -12388.942239 kJ/mol
# Density = 1.998238 g / cm^3
# Si number density = 20.027969 Si / 1000 Ang^3
#
#
#
# Elastic Constant Matrix: (Units=GPa)
#
#
# Indices 1 2 3 4 5 6 
#
# 1 94.1627 57.7542 23.5670 0.0000 11.8314 0.0000
# 2 57.7542 141.1736 50.4917 0.0000 23.7557 0.0000
# 3 23.5670 50.4917 72.1695 0.0000 19.6058 0.0000
# 4 0.0000 0.0000 0.0000 21.0203 0.0000 8.4959
# 5 11.8314 23.7557 19.6058 0.0000 30.5955 0.0000
# 6 0.0000 0.0000 0.0000 8.4959 0.0000 33.1169
#
#
#
# Elastic Compliance Matrix: (Units=1/GPa)
#
#
# Indices 1 2 3 4 5 6 
#
# 1 0.014228 -0.005463 -0.000583 0.000000 -0.000887 0.000000
# 2 -0.005463 0.011915 -0.005585 0.000000 -0.003560 0.000000
# 3 -0.000583 -0.005585 0.020238 0.000000 -0.008407 0.000000
# 4 0.000000 0.000000 0.000000 0.053076 0.000000 -0.013616
# 5 -0.000887 -0.003560 -0.008407 0.000000 0.041178 0.000000
# 6 0.000000 0.000000 0.000000 -0.013616 0.000000 0.033689
#
#
# Mechanical properties :
#
#
# Convention : Reuss Voigt Hill
#
# Bulk Modulus (GPa) = 43.25563 63.45905 53.35734
# Shear Modulus (GPa) = 24.35543 28.65940 26.50741
#
# Velocity S-wave (km/s) = 3.49100 3.78692 3.64197
# Velocity P-wave (km/s) = 6.15581 7.13267 6.66217
#
# Compressibility (1/GPa) = 0.02311838
#
# Stress axis : x y z
#
# Youngs Moduli (GPa) = 70.28436 83.92884 49.41219
#
# Poissons Ratio (x) = 0.45849 0.02882
# Poissons Ratio (y) = 0.38395 0.27597
# Poissons Ratio (z) = 0.04100 0.46874
#
# Static dielectric constant tensor:
#      x y z
#    x 4.019550 0.000000 -0.011540 
#    y 0.000000 4.425790 0.000000 
#    z -0.011540 0.000000 3.043570 
# 
# 
# High freq. dielectric constant tensor:
#      x y z
#    x 1.806190 0.000000 0.004970 
#    y 0.000000 1.806840 0.000000 
#    z 0.004970 0.000000 1.712770 
# 
# From -- ./inp_files/89552.got.cif
#   From: 2010.06.25/outbox.cif.g09.slc.cpg/sg12_45_cif.got.tgz:89552.got - 2010.06.28 00:19:55.
