data_PCOD8101465
_publ_section_title
;
Structure prediction by ZEFSAII (Michael W. Deem and Ramdas Pophale) SiO2 
 PCOD8101465
Probable space group: C 2/M
;
_chemical_formula_sum "Si O2"
_cell_formula_units_Z 48
_cell_length_a 16.786568
_cell_length_b 19.184988
_cell_length_c 21.760551
_cell_angle_alpha 90.000000
_cell_angle_beta 160.140961
_cell_angle_gamma 90.000000
_cell_volume 2380.664227
_symmetry_space_group_name_H-M "C 2/M"
_symmetry_group_IT_number 12
_symmetry_cell_setting 'monoclinic'
loop_
_space_group_symop_operation_xyz
x,y,z
-x,y,-z
-x,-y,-z
x,-y,z
1/2+x,1/2+y,z
1/2-x,1/2+y,-z
1/2-x,1/2-y,-z
1/2+x,1/2-y,z
loop_
_atom_site_type_symbol
_atom_site_label
_atom_site_fract_x
_atom_site_fract_y
_atom_site_fract_z
Si Si1 0.970970 0.207846 0.630625
Si Si2 0.387480 0.579249 0.482819
Si Si3 0.262737 0.917372 0.175002
Si Si4 0.350691 0.077493 0.103667
Si Si5 0.560241 0.824434 0.474429
Si Si6 0.388645 0.307904 0.139276
O O1 0.750000 0.250000 0.500000
O O2 0.928941 0.131499 0.570272
O O3 0.072241 0.256442 0.649567
O O4 0.159076 0.200458 0.822272
O O5 0.500000 0.604678 0.500000
O O6 0.472052 0.500000 0.561250
O O7 0.113646 0.578741 0.270979
O O8 0.325764 0.888291 0.153129
O O9 0.465616 0.890376 0.367758
O O10 0.279824 0.000000 0.190630
O O11 0.000000 0.891324 0.000000
O O12 0.246737 0.000000 0.031158
O O13 0.199190 0.116844 0.943685
O O14 0.500000 0.838526 0.500000
O O15 0.834856 0.808272 0.671105
O O16 0.250000 0.250000 0.000000
#
# Coordination Sequence:
#
# PCOD8101465 Si02
#       6
#     8   8   8   8   8   8
#     4  10  21  37  58  83 113 150 198 251 301 360
#     4  10  21  40  64  87 117 160 209 258 311 370
#     4  10  21  38  60  88 123 159 199 251 312 377
#     4  10  20  36  58  83 114 152 193 244 306 365
#     4  11  22  36  58  84 114 154 199 246 303 373
#     4  11  22  37  56  81 117 153 193 247 303 363
#
# _framework density 20.16244
#
# number of rings (size 3 to 8) (size 9 to 14) (size 15 to 20)
#    0.000    1.667    0.000    6.500    0.000    1.667 
#    0.000    2.500    0.000    3.000    0.000    0.000 
#    0.000    0.000    0.000    0.000    0.000    0.000 
#
# Total GULP energy -297400.529614 kJ/mol
# GULP energy per Si atom -12391.688734 kJ/mol
# Density = 2.011655 g / cm^3
# Si number density = 20.162440 Si / 1000 Ang^3
#
#
#
# Elastic Constant Matrix: (Units=GPa)
#
#
# Indices 1 2 3 4 5 6 
#
# 1 111.4649 53.6204 56.9961 -0.0286 -20.6743 0.0349
# 2 53.6204 103.4381 44.1718 -0.3113 -24.9428 -0.1671
# 3 56.9961 44.1718 108.0027 0.1062 -19.4967 -0.0751
# 4 -0.0286 -0.3113 0.1062 36.8949 0.0016 -14.7114
# 5 -20.6743 -24.9428 -19.4967 0.0016 44.7022 -0.0083
# 6 0.0349 -0.1671 -0.0751 -14.7114 -0.0083 38.5710
#
#
#
# Elastic Compliance Matrix: (Units=1/GPa)
#
#
# Indices 1 2 3 4 5 6 
#
# 1 0.014261 -0.004736 -0.005292 -0.000037 0.001645 -0.000057
# 2 -0.004736 0.014332 -0.002512 0.000176 0.004711 0.000130
# 3 -0.005292 -0.002512 0.013443 -0.000066 0.002014 -0.000005
# 4 -0.000037 0.000176 -0.000066 0.031968 0.000054 0.012193
# 5 0.001645 0.004711 0.002014 0.000054 0.026638 0.000049
# 6 -0.000057 0.000130 -0.000005 0.012193 0.000049 0.030578
#
#
# Mechanical properties :
#
#
# Convention : Reuss Voigt Hill
#
# Bulk Modulus (GPa) = 58.97754 70.27581 64.62668
# Shear Modulus (GPa) = 30.87358 35.24146 33.05752
#
# Velocity S-wave (km/s) = 3.91735 4.18530 4.05354
# Velocity P-wave (km/s) = 7.05518 7.63453 7.35057
#
# Compressibility (1/GPa) = 0.01695561
#
# Stress axis : x y z
#
# Youngs Moduli (GPa) = 70.12205 69.77267 74.39016
#
# Poissons Ratio (x) = 0.33047 0.39366
# Poissons Ratio (y) = 0.33212 0.18686
# Poissons Ratio (z) = 0.37108 0.17526
#
# Static dielectric constant tensor:
#      x y z
#    x 3.833630 0.000530 -0.156600 
#    y 0.000530 3.949140 -0.001390 
#    z -0.156600 -0.001390 3.594880 
# 
# 
# High freq. dielectric constant tensor:
#      x y z
#    x 1.798070 0.000000 -0.011090 
#    y 0.000000 1.796130 -0.000100 
#    z -0.011090 -0.000100 1.770810 
# 
# From -- ./inp_files/344503.got.cif
#   From: 2010.06.25/outbox.cif.g09.slc.cpg/sg12_173_cif.got.tgz:344503.got - 2010.06.28 00:19:55.
