data_PCOD8101163
_publ_section_title
;
Structure prediction by ZEFSAII (Michael W. Deem and Ramdas Pophale) SiO2 
 PCOD8101163
Probable space group: C 2/M
;
_chemical_formula_sum "Si O2"
_cell_formula_units_Z 64
_cell_length_a 19.473851
_cell_length_b 9.255995
_cell_length_c 21.108248
_cell_angle_alpha 90.000000
_cell_angle_beta 62.944337
_cell_angle_gamma 90.000000
_cell_volume 3388.385307
_symmetry_space_group_name_H-M "C 2/M"
_symmetry_group_IT_number 12
_symmetry_cell_setting 'monoclinic'
loop_
_space_group_symop_operation_xyz
x,y,z
-x,y,-z
-x,-y,-z
x,-y,z
1/2+x,1/2+y,z
1/2-x,1/2+y,-z
1/2-x,1/2-y,-z
1/2+x,1/2-y,z
loop_
_atom_site_type_symbol
_atom_site_label
_atom_site_fract_x
_atom_site_fract_y
_atom_site_fract_z
Si Si1 0.988655 0.669407 0.692946
Si Si2 0.365293 0.331389 0.423089
Si Si3 0.727179 0.832962 0.835273
Si Si4 0.328550 0.831536 0.696876
Si Si5 0.941557 0.665629 0.075469
Si Si6 0.202682 0.666847 0.434186
Si Si7 0.308054 0.666396 0.931574
Si Si8 0.456413 0.835604 0.849740
O O1 0.005224 0.500000 0.677745
O O2 0.059845 0.757787 0.636738
O O3 0.912204 0.716894 0.687039
O O4 0.980007 0.713240 0.769824
O O5 0.381460 0.500000 0.424602
O O6 0.293322 0.301652 0.406548
O O7 0.348735 0.265168 0.498780
O O8 0.760316 0.750350 0.761167
O O9 0.644034 0.765388 0.890082
O O10 0.785804 0.812152 0.868060
O O11 0.717310 0.000000 0.820328
O O12 0.321563 0.791222 0.626350
O O13 0.315818 0.000000 0.714519
O O14 0.932994 0.500000 0.057518
O O15 0.970554 0.680197 0.135175
O O16 0.000000 0.740541 0.000000
O O17 0.184080 0.500000 0.456950
O O18 0.308341 0.500000 0.951676
O O19 0.392019 0.732409 0.905967
O O20 0.250000 0.750000 0.000000
O O21 0.425037 0.000000 0.862006
#
# Coordination Sequence:
#
# PCOD8101163 Si02
#       8
#     8   8   8   8   8   8   8   8
#     4  10  21  36  56  82 113 150 187 225 275 332
#     4  10  21  37  59  86 114 145 184 230 273 319
#     4  10  21  36  56  83 110 144 187 232 278 325
#     4  10  21  38  58  81 112 149 185 225 274 331
#     4   9  18  34  55  79 109 143 183 230 278 329
#     4   9  20  39  60  83 112 149 186 222 273 329
#     4  11  22  36  57  82 110 146 186 230 279 329
#     4  10  20  36  57  81 110 147 188 228 274 330
#
# _framework density 18.888052999999999
#
# number of rings (size 3 to 8) (size 9 to 14) (size 15 to 20)
#    0.000    2.125    1.250    1.500    1.750    5.000 
#    0.000    3.125    0.000    1.500    0.000    0.000 
#    0.000    0.000    0.000    0.000    0.000    0.000 
#
# Total GULP energy -396880.910118 kJ/mol
# GULP energy per Si atom -12402.528441 kJ/mol
# Density = 1.884506 g / cm^3
# Si number density = 18.888053 Si / 1000 Ang^3
#
#
#
# Elastic Constant Matrix: (Units=GPa)
#
#
# Indices 1 2 3 4 5 6 
#
# 1 76.4698 25.5891 45.9919 0.0000 -7.6936 -0.0001
# 2 25.5891 66.8192 50.2679 0.0000 -12.2727 -0.0004
# 3 45.9919 50.2679 121.2205 0.0000 -10.6253 0.0001
# 4 0.0000 0.0000 0.0000 36.2256 0.0000 -7.1117
# 5 -7.6936 -12.2727 -10.6253 0.0000 38.5890 0.0000
# 6 -0.0001 -0.0004 0.0001 -7.1117 0.0000 23.9000
#
#
#
# Elastic Compliance Matrix: (Units=1/GPa)
#
#
# Indices 1 2 3 4 5 6 
#
# 1 0.017266 -0.002240 -0.005516 0.000000 0.001211 0.000000
# 2 -0.002240 0.022848 -0.008226 0.000000 0.004555 0.000000
# 3 -0.005516 -0.008226 0.013759 0.000000 0.000073 0.000000
# 4 0.000000 0.000000 0.000000 0.029317 0.000000 0.008724
# 5 0.001211 0.004555 0.000073 0.000000 0.027624 0.000000
# 6 0.000000 0.000000 0.000000 0.008724 0.000000 0.044437
#
#
# Mechanical properties :
#
#
# Convention : Reuss Voigt Hill
#
# Bulk Modulus (GPa) = 45.63962 56.46748 51.05355
# Shear Modulus (GPa) = 25.70444 29.25362 27.47903
#
# Velocity S-wave (km/s) = 3.69302 3.93974 3.81837
# Velocity P-wave (km/s) = 6.51154 7.11731 6.82116
#
# Compressibility (1/GPa) = 0.02191078
#
# Stress axis : x y z
#
# Youngs Moduli (GPa) = 57.91760 43.76678 72.67729
#
# Poissons Ratio (x) = 0.09805 0.40086
# Poissons Ratio (y) = 0.12975 0.59781
# Poissons Ratio (z) = 0.31945 0.36000
#
# Static dielectric constant tensor:
#      x y z
#    x 3.635640 0.000000 0.008290 
#    y 0.000000 3.309050 0.000000 
#    z 0.008290 0.000000 3.498790 
# 
# 
# High freq. dielectric constant tensor:
#      x y z
#    x 1.741710 0.000000 0.000550 
#    y 0.000000 1.716830 0.000000 
#    z 0.000550 0.000000 1.740960 
# 
# From -- ./inp_files/319812.got.cif
#   From: 2010.06.25/outbox.cif.g09.slc.cpg/sg12_160_cif.got.tgz:319812.got - 2010.06.28 00:19:55.
