data_PCOD8101441
_publ_section_title
;
Structure prediction by ZEFSAII (Michael W. Deem and Ramdas Pophale) SiO2 
 PCOD8101441
Probable space group: C 2/M
;
_chemical_formula_sum "Si O2"
_cell_formula_units_Z 64
_cell_length_a 23.881809
_cell_length_b 9.019344
_cell_length_c 31.026460
_cell_angle_alpha 90.000000
_cell_angle_beta 150.209778
_cell_angle_gamma 90.000000
_cell_volume 3320.309700
_symmetry_space_group_name_H-M "C 2/M"
_symmetry_group_IT_number 12
_symmetry_cell_setting 'monoclinic'
loop_
_space_group_symop_operation_xyz
x,y,z
-x,y,-z
-x,-y,-z
x,-y,z
1/2+x,1/2+y,z
1/2-x,1/2+y,-z
1/2-x,1/2-y,-z
1/2+x,1/2-y,z
loop_
_atom_site_type_symbol
_atom_site_label
_atom_site_fract_x
_atom_site_fract_y
_atom_site_fract_z
Si Si1 0.826009 0.327619 0.111742
Si Si2 0.585230 0.329753 0.745700
Si Si3 0.913045 0.172014 0.088055
Si Si4 0.133013 0.326840 0.218036
Si Si5 0.162823 0.167739 0.704960
Si Si6 0.242806 0.669426 0.380387
Si Si7 0.646658 0.828000 0.407366
Si Si8 0.971125 0.674490 0.528040
O O1 0.856166 0.500000 0.135378
O O2 0.850534 0.250585 0.173083
O O3 0.904466 0.258864 0.127290
O O4 0.695551 0.299286 0.013977
O O5 0.560751 0.500000 0.741687
O O6 0.668482 0.318896 0.760323
O O7 0.468041 0.251310 0.655218
O O8 0.019858 0.234587 0.133432
O O9 0.928528 0.000000 0.108934
O O10 0.103142 0.500000 0.200109
O O11 0.216870 0.288543 0.234882
O O12 0.186158 0.271376 0.298731
O O13 0.068449 0.278645 0.625348
O O14 0.131341 0.000000 0.669816
O O15 0.280146 0.500000 0.399161
O O16 0.156393 0.687670 0.362156
O O17 0.353373 0.761729 0.465788
O O18 0.750000 0.750000 0.500000
O O19 0.643151 0.000000 0.418895
O O20 0.960827 0.500000 0.520939
O O21 0.000000 0.737044 0.500000
#
# Coordination Sequence:
#
# PCOD8101441 Si02
#       8
#     8   8   8   8   8   8   8   8
#     4  10  21  39  62  88 117 152 187 224 284 349
#     4  11  23  39  60  86 114 150 196 240 284 338
#     4  10  21  37  61  91 119 145 182 235 285 336
#     4  10  20  36  58  83 111 147 189 235 285 337
#     4  10  22  39  58  80 111 153 196 234 280 340
#     4  10  21  36  56  78 105 146 191 231 279 342
#     4  11  23  38  56  82 114 151 193 237 288 344
#     4  11  22  34  52  81 112 145 188 237 284 330
#
# _framework density 19.275309
#
# number of rings (size 3 to 8) (size 9 to 14) (size 15 to 20)
#    0.000    1.625    1.250    3.375    0.000    9.000 
#    0.000    0.625    0.000    3.750    0.000    0.000 
#    0.000    0.000    0.000    0.000    0.000    0.000 
#
# Total GULP energy -396987.063220 kJ/mol
# GULP energy per Si atom -12405.845726 kJ/mol
# Density = 1.923144 g / cm^3
# Si number density = 19.275309 Si / 1000 Ang^3
#
#
#
# Elastic Constant Matrix: (Units=GPa)
#
#
# Indices 1 2 3 4 5 6 
#
# 1 114.9480 49.2087 52.4916 0.0002 5.9729 0.0003
# 2 49.2087 105.4402 54.1699 0.0002 3.5974 0.0010
# 3 52.4916 54.1699 93.7041 0.0013 4.1117 0.0005
# 4 0.0002 0.0002 0.0013 36.4923 0.0004 0.8965
# 5 5.9729 3.5974 4.1117 0.0004 34.1384 0.0000
# 6 0.0003 0.0010 0.0005 0.8965 0.0000 29.1347
#
#
#
# Elastic Compliance Matrix: (Units=1/GPa)
#
#
# Indices 1 2 3 4 5 6 
#
# 1 0.012436 -0.003145 -0.005095 0.000000 -0.001231 0.000000
# 2 -0.003145 0.014294 -0.006494 0.000000 -0.000174 0.000000
# 3 -0.005095 -0.006494 0.017302 -0.000001 -0.000508 0.000000
# 4 0.000000 0.000000 -0.000001 0.027424 0.000000 -0.000844
# 5 -0.001231 -0.000174 -0.000508 0.000000 0.029587 0.000000
# 6 0.000000 0.000000 0.000000 -0.000844 0.000000 0.034349
#
#
# Mechanical properties :
#
#
# Convention : Reuss Voigt Hill
#
# Bulk Modulus (GPa) = 68.65399 69.53697 69.09548
# Shear Modulus (GPa) = 29.46119 30.50124 29.98121
#
# Velocity S-wave (km/s) = 3.91377 3.98225 3.94816
# Velocity P-wave (km/s) = 7.49122 7.56957 7.53050
#
# Compressibility (1/GPa) = 0.01456580
#
# Stress axis : x y z
#
# Youngs Moduli (GPa) = 80.41008 69.96020 57.79561
#
# Poissons Ratio (x) = 0.21999 0.29445
# Poissons Ratio (y) = 0.25285 0.37533
# Poissons Ratio (z) = 0.40967 0.45432
#
# Static dielectric constant tensor:
#      x y z
#    x 3.657130 0.000000 0.036330 
#    y 0.000000 3.574920 0.000000 
#    z 0.036330 0.000000 3.394340 
# 
# 
# High freq. dielectric constant tensor:
#      x y z
#    x 1.755830 0.000000 0.003290 
#    y 0.000000 1.757270 0.000000 
#    z 0.003290 0.000000 1.740640 
# 
# From -- ./inp_files/382483.got.cif
#   From: 2010.06.25/outbox.cif.g09.slc.cpg/sg12_192_cif.got.tgz:382483.got - 2010.06.28 00:19:55.
