data_PCOD8101086
_publ_section_title
;
Structure prediction by ZEFSAII (Michael W. Deem and Ramdas Pophale) SiO2 
 PCOD8101086
Probable space group: C 2/M
;
_chemical_formula_sum "Si O2"
_cell_formula_units_Z 64
_cell_length_a 20.097254
_cell_length_b 8.845643
_cell_length_c 22.118431
_cell_angle_alpha 90.000000
_cell_angle_beta 63.086460
_cell_angle_gamma 90.000000
_cell_volume 3506.183385
_symmetry_space_group_name_H-M "C 2/M"
_symmetry_group_IT_number 12
_symmetry_cell_setting 'monoclinic'
loop_
_space_group_symop_operation_xyz
x,y,z
-x,y,-z
-x,-y,-z
x,-y,z
1/2+x,1/2+y,z
1/2-x,1/2+y,-z
1/2-x,1/2-y,-z
1/2+x,1/2-y,z
loop_
_atom_site_type_symbol
_atom_site_label
_atom_site_fract_x
_atom_site_fract_y
_atom_site_fract_z
Si Si1 0.245698 0.322292 0.171796
Si Si2 0.601665 0.824947 0.905403
Si Si3 0.437616 0.174896 0.940782
Si Si4 0.860877 0.822125 0.441221
Si Si5 0.014414 0.820811 0.427490
Si Si6 0.326533 0.321273 0.683859
Si Si7 0.192772 0.178659 0.070455
Si Si8 0.752155 0.176785 0.590831
O O1 0.240184 0.500000 0.162869
O O2 0.331720 0.276577 0.147685
O O3 0.198170 0.275417 0.249080
O O4 0.211130 0.235319 0.129454
O O5 0.524841 0.778609 0.903403
O O6 0.619733 0.000000 0.885408
O O7 0.594890 0.795689 0.979414
O O8 0.391846 0.275280 0.911927
O O9 0.428352 0.000000 0.927069
O O10 0.816597 0.764012 0.518914
O O11 0.826721 0.751364 0.394394
O O12 0.946740 0.770711 0.411690
O O13 0.854780 0.000000 0.438517
O O14 0.091107 0.762496 0.367270
O O15 0.000000 0.751388 0.500000
O O16 0.019172 0.000000 0.432217
O O17 0.324949 0.500000 0.698999
O O18 0.271882 0.280033 0.651070
O O19 0.201462 0.000000 0.064725
O O20 0.250000 0.250000 0.000000
O O21 0.743618 0.000000 0.587065
#
# Coordination Sequence:
#
# PCOD8101086 Si02
#       8
#     8   8   8   8   8   8   8   8
#     4  12  25  39  56  81 115 154 194 237 284 338
#     4   9  18  35  59  85 114 146 181 227 282 337
#     4   9  18  34  59  89 116 142 179 230 283 333
#     4   9  16  28  51  81 108 133 171 226 273 319
#     4   9  15  29  55  83 106 136 184 235 276 325
#     4  10  20  36  57  78 106 147 190 231 282 341
#     4  12  23  37  59  87 117 150 190 235 282 335
#     4   9  17  30  50  77 107 139 174 216 272 334
#
# _framework density 18.253466
#
# number of rings (size 3 to 8) (size 9 to 14) (size 15 to 20)
#    0.000    2.125    2.500    3.000    0.000    1.000 
#    0.000    3.125    0.000    3.750    0.000    0.000 
#    0.000    0.000    0.000    0.000    0.000    0.000 
#
# Total GULP energy -396793.910111 kJ/mol
# GULP energy per Si atom -12399.809691 kJ/mol
# Density = 1.821192 g / cm^3
# Si number density = 18.253466 Si / 1000 Ang^3
#
#
#
# Elastic Constant Matrix: (Units=GPa)
#
#
# Indices 1 2 3 4 5 6 
#
# 1 158.2044 55.6017 64.3385 0.0001 -1.1196 -0.0004
# 2 55.6017 78.6340 41.3747 0.0001 1.8791 -0.0018
# 3 64.3385 41.3747 96.4222 0.0001 -3.5979 0.0000
# 4 0.0001 0.0001 0.0001 23.6148 0.0001 2.2314
# 5 -1.1196 1.8791 -3.5979 0.0001 26.2344 0.0001
# 6 -0.0004 -0.0018 0.0000 2.2314 0.0001 32.4286
#
#
#
# Elastic Compliance Matrix: (Units=1/GPa)
#
#
# Indices 1 2 3 4 5 6 
#
# 1 0.009766 -0.004497 -0.004583 0.000000 0.000110 0.000000
# 2 -0.004497 0.018618 -0.005071 0.000000 -0.002221 0.000001
# 3 -0.004583 -0.005071 0.015692 0.000000 0.002320 0.000000
# 4 0.000000 0.000000 0.000000 0.042624 0.000000 -0.002933
# 5 0.000110 -0.002221 0.002320 0.000000 0.038600 0.000000
# 6 0.000000 0.000001 0.000000 -0.002933 0.000000 0.031039
#
#
# Mechanical properties :
#
#
# Convention : Reuss Voigt Hill
#
# Bulk Modulus (GPa) = 63.39571 72.87672 68.13621
# Shear Modulus (GPa) = 26.33001 27.91861 27.12431
#
# Velocity S-wave (km/s) = 3.80210 3.91512 3.85902
# Velocity P-wave (km/s) = 7.35397 7.77490 7.56736
#
# Compressibility (1/GPa) = 0.01577394
#
# Stress axis : x y z
#
# Youngs Moduli (GPa) = 102.39836 53.71064 63.72845
#
# Poissons Ratio (x) = 0.24152 0.29204
# Poissons Ratio (y) = 0.46046 0.32320
# Poissons Ratio (z) = 0.46925 0.27239
#
# Static dielectric constant tensor:
#      x y z
#    x 3.715660 0.000000 -0.004730 
#    y 0.000000 3.170560 0.000000 
#    z -0.004730 0.000000 3.203560 
# 
# 
# High freq. dielectric constant tensor:
#      x y z
#    x 1.725880 0.000000 -0.000310 
#    y 0.000000 1.687960 0.000000 
#    z -0.000310 0.000000 1.681120 
# 
# From -- ./inp_files/319778.got.cif
#   From: 2010.06.25/outbox.cif.g09.slc.cpg/sg12_160_cif.got.tgz:319778.got - 2010.06.28 00:19:55.
