data_PCOD8101031
_publ_section_title
;
Structure prediction by ZEFSAII (Michael W. Deem and Ramdas Pophale) SiO2 
 PCOD8101031
Probable space group: C 2/M
;
_chemical_formula_sum "Si O2"
_cell_formula_units_Z 64
_cell_length_a 23.692799
_cell_length_b 9.214595
_cell_length_c 28.275303
_cell_angle_alpha 90.000000
_cell_angle_beta 148.191852
_cell_angle_gamma 90.000000
_cell_volume 3253.671243
_symmetry_space_group_name_H-M "C 2/M"
_symmetry_group_IT_number 12
_symmetry_cell_setting 'monoclinic'
loop_
_space_group_symop_operation_xyz
x,y,z
-x,y,-z
-x,-y,-z
x,-y,z
1/2+x,1/2+y,z
1/2-x,1/2+y,-z
1/2-x,1/2-y,-z
1/2+x,1/2-y,z
loop_
_atom_site_type_symbol
_atom_site_label
_atom_site_fract_x
_atom_site_fract_y
_atom_site_fract_z
Si Si1 0.994439 0.831052 0.081832
Si Si2 0.285860 0.172544 0.779030
Si Si3 0.290968 0.668004 0.878121
Si Si4 0.606516 0.668183 0.378177
Si Si5 0.123712 0.838031 0.811317
Si Si6 0.356871 0.337692 0.070124
Si Si7 0.378647 0.672210 0.419638
Si Si8 0.773791 0.170833 0.442181
O O1 0.935682 0.772043 0.086983
O O2 0.098756 0.733978 0.152288
O O3 0.027834 0.000000 0.109513
O O4 0.915419 0.808783 0.980628
O O5 0.254821 0.237842 0.807563
O O6 0.195969 0.222029 0.677257
O O7 0.292365 0.000000 0.787033
O O8 0.268750 0.500000 0.851752
O O9 0.217546 0.722010 0.869214
O O10 0.628048 0.500000 0.383212
O O11 0.481039 0.703728 0.292927
O O12 0.659765 0.755770 0.372557
O O13 0.649537 0.715333 0.459969
O O14 0.084794 0.835356 0.837896
O O15 0.165112 0.000000 0.827566
O O16 0.326709 0.500000 0.032092
O O17 0.250000 0.250000 0.000000
O O18 0.500000 0.734029 0.500000
O O19 0.384327 0.500000 0.426037
O O20 0.325745 0.731520 0.430613
O O21 0.755527 0.000000 0.425241
#
# Coordination Sequence:
#
# PCOD8101031 Si02
#       8
#     8   8   8   8   8   8   8   8
#     4  10  22  40  60  83 117 157 191 231 288 347
#     4  11  24  39  61  89 112 146 197 244 286 335
#     4  11  23  40  60  83 115 155 195 237 291 345
#     4   9  19  34  56  85 114 146 181 227 282 332
#     4  10  21  35  57  87 115 149 192 235 281 335
#     4  10  20  36  56  82 116 152 187 226 278 334
#     4   9  20  38  60  84 112 149 189 232 283 340
#     4   9  18  35  58  82 110 146 186 226 277 338
#
# _framework density 19.670086999999999
#
# number of rings (size 3 to 8) (size 9 to 14) (size 15 to 20)
#    0.000    2.125    1.250    1.125    3.500    3.500 
#    0.000    0.625    0.000    1.875    0.000    0.000 
#    0.000    0.000    0.000    0.000    0.000    0.000 
#
# Total GULP energy -396758.130644 kJ/mol
# GULP energy per Si atom -12398.691583 kJ/mol
# Density = 1.962532 g / cm^3
# Si number density = 19.670087 Si / 1000 Ang^3
#
#
#
# Elastic Constant Matrix: (Units=GPa)
#
#
# Indices 1 2 3 4 5 6 
#
# 1 111.5664 34.8360 37.9662 0.0001 -5.8233 0.0004
# 2 34.8360 62.6871 42.4824 0.0003 2.0616 0.0014
# 3 37.9662 42.4824 108.8871 -0.0004 -0.9436 -0.0002
# 4 0.0001 0.0003 -0.0004 23.4486 0.0000 3.0206
# 5 -5.8233 2.0616 -0.9436 0.0000 27.3169 0.0001
# 6 0.0004 0.0014 -0.0002 3.0206 0.0001 34.2437
#
#
#
# Elastic Compliance Matrix: (Units=1/GPa)
#
#
# Indices 1 2 3 4 5 6 
#
# 1 0.011356 -0.005075 -0.001956 0.000000 0.002736 0.000000
# 2 -0.005075 0.024057 -0.007643 0.000000 -0.003162 -0.000001
# 3 -0.001956 -0.007643 0.012853 0.000000 0.000604 0.000000
# 4 0.000000 0.000000 0.000000 0.043137 0.000000 -0.003805
# 5 0.002736 -0.003162 0.000604 0.000000 0.037450 0.000000
# 6 0.000000 -0.000001 0.000000 -0.003805 0.000000 0.029538
#
#
# Mechanical properties :
#
#
# Convention : Reuss Voigt Hill
#
# Bulk Modulus (GPa) = 52.86322 57.07887 54.97104
# Shear Modulus (GPa) = 25.76711 28.19225 26.97968
#
# Velocity S-wave (km/s) = 3.62327 3.78994 3.70754
# Velocity P-wave (km/s) = 6.66614 6.94497 6.80698
#
# Compressibility (1/GPa) = 0.01891674
#
# Stress axis : x y z
#
# Youngs Moduli (GPa) = 88.05569 41.56868 77.80244
#
# Poissons Ratio (x) = 0.21098 0.15217
# Poissons Ratio (y) = 0.44693 0.59468
# Poissons Ratio (z) = 0.17222 0.31773
#
# Static dielectric constant tensor:
#      x y z
#    x 3.895290 0.000000 -0.175570 
#    y 0.000000 3.408860 0.000000 
#    z -0.175570 0.000000 3.688360 
# 
# 
# High freq. dielectric constant tensor:
#      x y z
#    x 1.777550 0.000000 -0.005200 
#    y 0.000000 1.746260 0.000000 
#    z -0.005200 0.000000 1.768370 
# 
# From -- ./inp_files/382402.got.cif
#   From: 2010.06.25/outbox.cif.g09.slc.cpg/sg12_192_cif.got.tgz:382402.got - 2010.06.28 00:19:55.
