data_PCOD8101724
_publ_section_title
;
Structure prediction by ZEFSAII (Michael W. Deem and Ramdas Pophale) SiO2 
 PCOD8101724
Probable space group: C 2/M
;
_chemical_formula_sum "Si O2"
_cell_formula_units_Z 64
_cell_length_a 29.868538
_cell_length_b 8.809623
_cell_length_c 18.599237
_cell_angle_alpha 90.000000
_cell_angle_beta 139.851294
_cell_angle_gamma 90.000000
_cell_volume 3155.540019
_symmetry_space_group_name_H-M "C 2/M"
_symmetry_group_IT_number 12
_symmetry_cell_setting 'monoclinic'
loop_
_space_group_symop_operation_xyz
x,y,z
-x,y,-z
-x,-y,-z
x,-y,z
1/2+x,1/2+y,z
1/2-x,1/2+y,-z
1/2-x,1/2-y,-z
1/2+x,1/2-y,z
loop_
_atom_site_type_symbol
_atom_site_label
_atom_site_fract_x
_atom_site_fract_y
_atom_site_fract_z
Si Si1 0.701429 0.171699 0.094871
Si Si2 0.595696 0.322058 0.866662
Si Si3 0.563281 0.680911 0.127163
Si Si4 0.075650 0.322010 0.566658
Si Si5 0.713230 0.678931 0.257208
Si Si6 0.149487 0.819701 0.522295
Si Si7 0.943984 0.821534 0.720735
Si Si8 0.154981 0.827315 0.788909
O O1 0.726273 0.273078 0.191688
O O2 0.761494 0.179019 0.108291
O O3 0.689322 0.000000 0.106588
O O4 0.630880 0.236028 0.975862
O O5 0.608366 0.500000 0.893629
O O6 0.515324 0.276955 0.769028
O O7 0.627409 0.264875 0.830734
O O8 0.559303 0.500000 0.122904
O O9 0.637058 0.736642 0.186831
O O10 0.558229 0.749276 0.201793
O O11 0.500000 0.744315 0.000000
O O12 0.077329 0.500000 0.552897
O O13 0.098434 0.237432 0.522282
O O14 0.128683 0.282626 0.694681
O O15 0.000000 0.266994 0.500000
O O16 0.720211 0.500000 0.273793
O O17 0.772984 0.753539 0.379247
O O18 0.118322 0.765175 0.407166
O O19 0.152783 0.000000 0.532399
O O20 0.938584 0.000000 0.723353
O O21 0.128809 0.000000 0.743453
#
# Coordination Sequence:
#
# PCOD8101724 Si02
#       8
#     8   8   8   8   8   8   8   8
#     4  11  22  36  55  83 119 156 194 239 295 353
#     4  10  20  36  59  85 113 151 199 244 291 349
#     4   9  18  35  61  91 118 148 193 244 294 352
#     4  11  23  37  56  83 116 156 203 249 291 341
#     4  11  22  37  61  88 116 154 200 248 295 349
#     4  11  22  38  60  85 118 157 197 243 295 353
#     4   9  19  36  59  87 116 150 195 243 292 350
#     4  10  21  36  55  82 115 155 198 238 289 352
#
# _framework density 20.281790999999998
#
# number of rings (size 3 to 8) (size 9 to 14) (size 15 to 20)
#    0.000    1.750    1.250    3.375    0.000    5.500 
#    0.000    1.250    0.000    9.000    0.000    0.000 
#    0.000    0.000    0.000    0.000    0.000    0.000 
#
# Total GULP energy -396844.260960 kJ/mol
# GULP energy per Si atom -12401.383155 kJ/mol
# Density = 2.023563 g / cm^3
# Si number density = 20.281791 Si / 1000 Ang^3
#
#
#
# Elastic Constant Matrix: (Units=GPa)
#
#
# Indices 1 2 3 4 5 6 
#
# 1 123.1099 28.6780 70.1254 0.0000 2.7190 0.0000
# 2 28.6780 55.6638 37.0114 0.0000 3.2545 0.0000
# 3 70.1254 37.0114 173.3503 0.0000 -0.0608 0.0000
# 4 0.0000 0.0000 0.0000 28.3781 0.0000 5.1794
# 5 2.7190 3.2545 -0.0608 0.0000 36.5156 0.0000
# 6 0.0000 0.0000 0.0000 5.1794 0.0000 16.8737
#
#
#
# Elastic Compliance Matrix: (Units=1/GPa)
#
#
# Indices 1 2 3 4 5 6 
#
# 1 0.011023 -0.003126 -0.003792 0.000000 -0.000549 0.000000
# 2 -0.003126 0.021953 -0.003423 0.000000 -0.001730 0.000000
# 3 -0.003792 -0.003423 0.008034 0.000000 0.000601 0.000000
# 4 0.000000 0.000000 0.000000 0.037330 0.000000 -0.011458
# 5 -0.000549 -0.001730 0.000601 0.000000 0.027582 0.000000
# 6 0.000000 0.000000 0.000000 -0.011458 0.000000 0.062781
#
#
# Mechanical properties :
#
#
# Convention : Reuss Voigt Hill
#
# Bulk Modulus (GPa) = 49.19412 69.30595 59.25004
# Shear Modulus (GPa) = 25.48950 30.77408 28.13179
#
# Velocity S-wave (km/s) = 3.54894 3.89951 3.72835
# Velocity P-wave (km/s) = 6.41103 7.38381 6.91455
#
# Compressibility (1/GPa) = 0.02032763
#
# Stress axis : x y z
#
# Youngs Moduli (GPa) = 90.71911 45.55271 124.47525
#
# Poissons Ratio (x) = 0.14238 0.47201
# Poissons Ratio (y) = 0.28356 0.42610
# Poissons Ratio (z) = 0.34401 0.15594
#
# Static dielectric constant tensor:
#      x y z
#    x 3.843940 0.000000 0.026410 
#    y 0.000000 3.404740 0.000000 
#    z 0.026410 0.000000 3.854320 
# 
# 
# High freq. dielectric constant tensor:
#      x y z
#    x 1.797620 0.000000 0.004460 
#    y 0.000000 1.765370 0.000000 
#    z 0.004460 0.000000 1.802700 
# 
# From -- ./inp_files/295827.got.cif
#   From: 2010.06.25/outbox.cif.g09.slc.cpg/sg12_148_cif.got.tgz:295827.got - 2010.06.28 00:19:55.
