data_PCOD8101633
_publ_section_title
;
Structure prediction by ZEFSAII (Michael W. Deem and Ramdas Pophale) SiO2 
 PCOD8101633
Probable space group: C 2/M
;
_chemical_formula_sum "Si O2"
_cell_formula_units_Z 64
_cell_length_a 18.185095
_cell_length_b 8.825161
_cell_length_c 30.692003
_cell_angle_alpha 90.000000
_cell_angle_beta 137.664471
_cell_angle_gamma 90.000000
_cell_volume 3317.281760
_symmetry_space_group_name_H-M "C 2/M"
_symmetry_group_IT_number 12
_symmetry_cell_setting 'monoclinic'
loop_
_space_group_symop_operation_xyz
x,y,z
-x,y,-z
-x,-y,-z
x,-y,z
1/2+x,1/2+y,z
1/2-x,1/2+y,-z
1/2-x,1/2-y,-z
1/2+x,1/2-y,z
loop_
_atom_site_type_symbol
_atom_site_label
_atom_site_fract_x
_atom_site_fract_y
_atom_site_fract_z
Si Si1 0.924144 0.679063 0.808028
Si Si2 0.478027 0.819871 0.315560
Si Si3 0.669834 0.679298 0.070641
Si Si4 0.409046 0.819382 0.191394
Si Si5 0.992405 0.820642 0.926110
Si Si6 0.780121 0.679269 0.558884
Si Si7 0.873851 0.322925 0.437860
Si Si8 0.692677 0.820886 0.688053
O O1 0.913053 0.500000 0.802521
O O2 0.984693 0.730536 0.878089
O O3 0.805480 0.749904 0.752442
O O4 0.997042 0.738681 0.799791
O O5 0.434141 0.755715 0.250477
O O6 0.600351 0.759313 0.375976
O O7 0.401389 0.759570 0.320900
O O8 0.477623 0.000000 0.314815
O O9 0.672495 0.500000 0.073316
O O10 0.792108 0.746785 0.124484
O O11 0.606335 0.733556 0.086027
O O12 0.606167 0.728502 0.998963
O O13 0.405301 0.000000 0.190102
O O14 0.987404 0.000000 0.915083
O O15 0.779355 0.500000 0.554023
O O16 0.750000 0.750000 0.500000
O O17 0.694916 0.727545 0.558123
O O18 0.851858 0.500000 0.436005
O O19 0.838401 0.270807 0.374224
O O20 0.000000 0.283428 0.500000
O O21 0.703283 0.000000 0.696411
#
# Coordination Sequence:
#
# PCOD8101633 Si02
#       8
#     8   8   8   8   8   8   8   8
#     4  11  22  33  48  75 110 142 170 209 264 319
#     4   9  18  34  57  80 101 134 180 224 265 312
#     4   8  15  30  54  78  96 125 174 221 256 302
#     4   9  17  30  49  74 104 135 169 211 260 314
#     4   9  17  32  55  78  98 127 173 221 258 304
#     4  11  22  37  58  84 114 147 184 224 270 325
#     4  10  21  38  59  84 114 145 181 226 273 322
#     4  10  20  36  59  80 101 136 180 223 264 309
#
# _framework density 19.292905000000001
#
# number of rings (size 3 to 8) (size 9 to 14) (size 15 to 20)
#    0.000    2.375    0.000    3.750    0.000    6.250 
#    0.000    3.750    0.000    8.250    0.000    0.000 
#    0.000    0.000    0.000    0.000    0.000    0.000 
#
# Total GULP energy -396811.519152 kJ/mol
# GULP energy per Si atom -12400.359974 kJ/mol
# Density = 1.924899 g / cm^3
# Si number density = 19.292905 Si / 1000 Ang^3
#
#
#
# Elastic Constant Matrix: (Units=GPa)
#
#
# Indices 1 2 3 4 5 6 
#
# 1 153.4394 31.0941 83.5838 0.0000 -3.0629 0.0000
# 2 31.0941 21.9527 23.5171 0.0000 -1.8419 0.0000
# 3 83.5838 23.5171 163.0417 0.0000 -0.7554 0.0000
# 4 0.0000 0.0000 0.0000 18.9183 0.0000 -6.1193
# 5 -3.0629 -1.8419 -0.7554 0.0000 43.3274 0.0000
# 6 0.0000 0.0000 0.0000 -6.1193 0.0000 24.6386
#
#
#
# Elastic Compliance Matrix: (Units=1/GPa)
#
#
# Indices 1 2 3 4 5 6 
#
# 1 0.010984 -0.011245 -0.004008 0.000000 0.000229 0.000000
# 2 -0.011245 0.065592 -0.003687 0.000000 0.001929 0.000000
# 3 -0.004008 -0.003687 0.008719 0.000000 -0.000288 0.000000
# 4 0.000000 0.000000 0.000000 0.057476 0.000000 0.014275
# 5 0.000229 0.001929 -0.000288 0.000000 0.023173 0.000000
# 6 0.000000 0.000000 0.000000 0.014275 0.000000 0.044132
#
#
# Mechanical properties :
#
#
# Convention : Reuss Voigt Hill
#
# Bulk Modulus (GPa) = 21.09079 68.31377 44.70228
# Shear Modulus (GPa) = 18.95659 30.72611 24.84135
#
# Velocity S-wave (km/s) = 3.13799 3.99508 3.59219
# Velocity P-wave (km/s) = 4.90764 7.53436 6.35813
#
# Compressibility (1/GPa) = 0.04741407
#
# Stress axis : x y z
#
# Youngs Moduli (GPa) = 91.04360 15.24579 114.69810
#
# Poissons Ratio (x) = 0.17144 0.45969
# Poissons Ratio (y) = 1.02378 0.42293
# Poissons Ratio (z) = 0.36489 0.05622
#
# Static dielectric constant tensor:
#      x y z
#    x 3.902720 0.000000 0.002670 
#    y 0.000000 3.093690 0.000000 
#    z 0.002670 0.000000 3.896460 
# 
# 
# High freq. dielectric constant tensor:
#      x y z
#    x 1.762220 0.000000 0.000200 
#    y 0.000000 1.707300 0.000000 
#    z 0.000200 0.000000 1.771680 
# 
# From -- ./inp_files/378452.got.cif
#   From: 2010.06.25/outbox.cif.g09.slc.cpg/sg12_190_cif.got.tgz:378452.got - 2010.06.28 00:19:55.
