data_PCOD8101681
_publ_section_title
;
Structure prediction by ZEFSAII (Michael W. Deem and Ramdas Pophale) SiO2 
 PCOD8101681
Probable space group: C 2/M
;
_chemical_formula_sum "Si O2"
_cell_formula_units_Z 64
_cell_length_a 15.365510
_cell_length_b 8.723543
_cell_length_c 25.312031
_cell_angle_alpha 90.000000
_cell_angle_beta 71.368088
_cell_angle_gamma 90.000000
_cell_volume 3215.049242
_symmetry_space_group_name_H-M "C 2/M"
_symmetry_group_IT_number 12
_symmetry_cell_setting 'monoclinic'
loop_
_space_group_symop_operation_xyz
x,y,z
-x,y,-z
-x,-y,-z
x,-y,z
1/2+x,1/2+y,z
1/2-x,1/2+y,-z
1/2-x,1/2-y,-z
1/2+x,1/2-y,z
loop_
_atom_site_type_symbol
_atom_site_label
_atom_site_fract_x
_atom_site_fract_y
_atom_site_fract_z
Si Si1 0.980713 0.320184 0.245686
Si Si2 0.017021 0.818551 0.938208
Si Si3 0.398824 0.177558 0.872675
Si Si4 0.218655 0.680638 0.560756
Si Si5 0.275379 0.821288 0.254083
Si Si6 0.712329 0.677960 0.858244
Si Si7 0.668214 0.821516 0.368621
Si Si8 0.523795 0.819576 0.636893
O O1 0.997218 0.500000 0.245786
O O2 0.879603 0.277785 0.246176
O O3 0.052154 0.252128 0.189209
O O4 0.995775 0.247554 0.301111
O O5 0.115350 0.757579 0.898234
O O6 0.933853 0.765173 0.917394
O O7 0.018486 0.000000 0.939599
O O8 0.000000 0.751489 0.000000
O O9 0.289237 0.200256 0.888754
O O10 0.425554 0.000000 0.873969
O O11 0.214831 0.500000 0.555355
O O12 0.250000 0.750000 0.500000
O O13 0.290414 0.722269 0.592393
O O14 0.118200 0.748450 0.594834
O O15 0.254528 0.775507 0.198207
O O16 0.211588 0.721316 0.304217
O O17 0.255420 0.000000 0.267424
O O18 0.705059 0.500000 0.843201
O O19 0.559698 0.782830 0.386446
O O20 0.684767 0.000000 0.377049
O O21 0.537176 0.000000 0.641789
#
# Coordination Sequence:
#
# PCOD8101681 Si02
#       8
#     8   8   8   8   8   8   8   8
#     4   9  16  31  56  83 110 143 181 225 275 331
#     4  10  22  39  56  79 114 150 187 240 296 335
#     4  10  20  36  59  84 110 147 192 233 277 343
#     4  11  23  42  63  85 116 155 197 241 286 334
#     4  11  20  34  59  88 118 150 185 230 286 341
#     4  10  21  37  58  83 113 149 190 233 283 342
#     4  11  22  38  62  90 116 150 194 236 282 341
#     4   9  19  37  61  84 114 155 191 224 277 346
#
# _framework density 19.906382000000001
#
# number of rings (size 3 to 8) (size 9 to 14) (size 15 to 20)
#    0.000    1.875    2.500    1.875    0.000    3.750 
#    0.000    5.000    0.000    0.000    0.000    0.000 
#    0.000    0.000    0.000    0.000    0.000    0.000 
#
# Total GULP energy -396840.432088 kJ/mol
# GULP energy per Si atom -12401.263503 kJ/mol
# Density = 1.986107 g / cm^3
# Si number density = 19.906382 Si / 1000 Ang^3
#
#
#
# Elastic Constant Matrix: (Units=GPa)
#
#
# Indices 1 2 3 4 5 6 
#
# 1 103.8338 22.2940 46.5752 0.0000 13.1640 0.0000
# 2 22.2940 28.6127 16.3297 0.0000 1.1735 -0.0001
# 3 46.5752 16.3297 135.8745 0.0000 8.7388 0.0000
# 4 0.0000 0.0000 0.0000 28.0654 0.0000 6.5044
# 5 13.1640 1.1735 8.7388 0.0000 17.1693 0.0000
# 6 0.0000 -0.0001 0.0000 6.5044 0.0000 26.2274
#
#
#
# Elastic Compliance Matrix: (Units=1/GPa)
#
#
# Indices 1 2 3 4 5 6 
#
# 1 0.014030 -0.008750 -0.003209 0.000000 -0.008526 0.000000
# 2 -0.008750 0.042982 -0.002490 0.000000 0.005039 0.000000
# 3 -0.003209 -0.002490 0.008881 0.000000 -0.001889 0.000000
# 4 0.000000 0.000000 0.000000 0.037804 0.000000 -0.009375
# 5 -0.008526 0.005039 -0.001889 0.000000 0.065397 0.000000
# 6 0.000000 0.000000 0.000000 -0.009375 0.000000 0.040453
#
#
# Mechanical properties :
#
#
# Convention : Reuss Voigt Hill
#
# Bulk Modulus (GPa) = 27.03232 48.74654 37.88943
# Shear Modulus (GPa) = 19.93798 26.50057 23.21927
#
# Velocity S-wave (km/s) = 3.16822 3.65260 3.41900
# Velocity P-wave (km/s) = 5.19545 6.50613 5.88738
#
# Compressibility (1/GPa) = 0.03699276
#
# Stress axis : x y z
#
# Youngs Moduli (GPa) = 71.27617 23.26553 112.60504
#
# Poissons Ratio (x) = 0.20358 0.36138
# Poissons Ratio (y) = 0.62369 0.28042
# Poissons Ratio (z) = 0.22874 0.05794
#
# Static dielectric constant tensor:
#      x y z
#    x 4.039100 0.000000 0.073840 
#    y 0.000000 3.322980 0.000000 
#    z 0.073840 0.000000 3.854900 
# 
# 
# High freq. dielectric constant tensor:
#      x y z
#    x 1.789930 0.000000 0.001560 
#    y 0.000000 1.746230 0.000000 
#    z 0.001560 0.000000 1.776680 
# 
# From -- ./inp_files/359835.got.cif
#   From: 2010.06.25/outbox.cif.g09.slc.cpg/sg12_180_cif.got.tgz:359835.got - 2010.06.28 00:19:55.
