data_PCOD8101070
_publ_section_title
;
Structure prediction by ZEFSAII (Michael W. Deem and Ramdas Pophale) SiO2 
 PCOD8101070
Probable space group: C 2/M
;
_chemical_formula_sum "Si O2"
_cell_formula_units_Z 64
_cell_length_a 31.076812
_cell_length_b 9.080297
_cell_length_c 14.494586
_cell_angle_alpha 90.000000
_cell_angle_beta 118.155622
_cell_angle_gamma 90.000000
_cell_volume 3606.184964
_symmetry_space_group_name_H-M "C 2/M"
_symmetry_group_IT_number 12
_symmetry_cell_setting 'monoclinic'
loop_
_space_group_symop_operation_xyz
x,y,z
-x,y,-z
-x,-y,-z
x,-y,z
1/2+x,1/2+y,z
1/2-x,1/2+y,-z
1/2-x,1/2-y,-z
1/2+x,1/2-y,z
loop_
_atom_site_type_symbol
_atom_site_label
_atom_site_fract_x
_atom_site_fract_y
_atom_site_fract_z
Si Si1 0.032991 0.331489 0.891063
Si Si2 0.611831 0.672106 0.089376
Si Si3 0.693084 0.828730 0.844876
Si Si4 0.805415 0.170020 0.966568
Si Si5 0.885175 0.825861 0.354695
Si Si6 0.920905 0.671811 0.771817
Si Si7 0.965308 0.667766 0.320606
Si Si8 0.421549 0.171429 0.564146
O O1 0.042585 0.500000 0.929925
O O2 0.046751 0.307265 0.798586
O O3 0.976875 0.289452 0.851487
O O4 0.065185 0.226422 0.985907
O O5 0.606922 0.500000 0.097404
O O6 0.661284 0.715417 0.086144
O O7 0.614231 0.743673 0.193093
O O8 0.749823 0.799418 0.881603
O O9 0.663395 0.743328 0.737195
O O10 0.679374 0.000000 0.827685
O O11 0.678672 0.768868 0.930951
O O12 0.813163 0.000000 0.002483
O O13 0.932912 0.778507 0.346536
O O14 0.889094 0.769550 0.463488
O O15 0.880574 0.000000 0.348759
O O16 0.911720 0.500000 0.774008
O O17 0.908400 0.720216 0.654874
O O18 0.952737 0.500000 0.336334
O O19 0.021585 0.701267 0.398516
O O20 0.409662 0.000000 0.536983
#
# Coordination Sequence:
#
# PCOD8101070 Si02
#       8
#     8   8   8   8   8   8   8   8
#     4   9  18  32  49  71 100 134 171 205 236 280
#     4  11  21  31  48  75 104 131 160 200 251 300
#     4  10  20  36  57  76  99 133 167 200 243 297
#     4   9  20  37  54  77 106 130 158 202 252 298
#     4  12  23  32  48  76 106 132 163 206 252 298
#     4   9  19  35  52  70  96 132 173 211 240 278
#     4   9  18  33  52  73  99 134 173 207 242 291
#     4   9  19  36  54  71  96 133 175 212 244 286
#
# _framework density 17.747285999999999
#
# number of rings (size 3 to 8) (size 9 to 14) (size 15 to 20)
#    0.000    2.250    0.000    4.875    0.000    8.500 
#    0.000    2.500    0.000    0.750    0.000    0.000 
#    0.000    0.000    0.000    0.000    0.000    0.000 
#
# Total GULP energy -396887.632447 kJ/mol
# GULP energy per Si atom -12402.738514 kJ/mol
# Density = 1.770689 g / cm^3
# Si number density = 17.747286 Si / 1000 Ang^3
#
#
#
# Elastic Constant Matrix: (Units=GPa)
#
#
# Indices 1 2 3 4 5 6 
#
# 1 103.3277 57.5949 62.5868 0.0000 -18.9429 0.0000
# 2 57.5949 99.2360 69.0097 0.0000 -6.4565 0.0000
# 3 62.5868 69.0097 123.6117 0.0000 -5.2512 0.0000
# 4 0.0000 0.0000 0.0000 27.5406 0.0000 -2.3428
# 5 -18.9429 -6.4565 -5.2512 0.0000 19.2019 0.0000
# 6 0.0000 0.0000 0.0000 -2.3428 0.0000 26.8636
#
#
#
# Elastic Compliance Matrix: (Units=1/GPa)
#
#
# Indices 1 2 3 4 5 6 
#
# 1 0.019512 -0.006378 -0.005658 0.000000 0.015557 0.000000
# 2 -0.006378 0.018736 -0.007315 0.000000 -0.001992 0.000000
# 3 -0.005658 -0.007315 0.014870 0.000000 -0.003975 0.000000
# 4 0.000000 0.000000 0.000000 0.036581 0.000000 0.003190
# 5 0.015557 -0.001992 -0.003975 0.000000 0.065668 0.000000
# 6 0.000000 0.000000 0.000000 0.003190 0.000000 0.037503
#
#
# Mechanical properties :
#
#
# Convention : Reuss Voigt Hill
#
# Bulk Modulus (GPa) = 69.36850 78.28425 73.82638
# Shear Modulus (GPa) = 21.15257 23.85350 22.50303
#
# Velocity S-wave (km/s) = 3.45610 3.67013 3.56472
# Velocity P-wave (km/s) = 7.42279 7.88455 7.65715
#
# Compressibility (1/GPa) = 0.01441577
#
# Stress axis : x y z
#
# Youngs Moduli (GPa) = 51.25071 53.37289 67.25085
#
# Poissons Ratio (x) = 0.34040 0.38049
# Poissons Ratio (y) = 0.32686 0.49197
# Poissons Ratio (z) = 0.28997 0.39045
#
# Static dielectric constant tensor:
#      x y z
#    x 3.262170 0.000000 -0.109920 
#    y 0.000000 3.228850 0.000000 
#    z -0.109920 0.000000 3.312070 
# 
# 
# High freq. dielectric constant tensor:
#      x y z
#    x 1.673610 0.000000 -0.011040 
#    y 0.000000 1.684810 0.000000 
#    z -0.011040 0.000000 1.685180 
# 
# From -- ./inp_files/248998.got.cif
#   From: 2010.06.25/outbox.cif.g09.slc.cpg/sg12_125_cif.got.tgz:248998.got - 2010.06.28 00:19:55.
