data_PCOD8101793
_publ_section_title
;
Structure prediction by ZEFSAII (Michael W. Deem and Ramdas Pophale) SiO2 
 PCOD8101793
Probable space group: C 2/M
;
_chemical_formula_sum "Si O2"
_cell_formula_units_Z 64
_cell_length_a 24.037665
_cell_length_b 9.222316
_cell_length_c 31.308701
_cell_angle_alpha 90.000000
_cell_angle_beta 151.238088
_cell_angle_gamma 90.000000
_cell_volume 3339.618062
_symmetry_space_group_name_H-M "C 2/M"
_symmetry_group_IT_number 12
_symmetry_cell_setting 'monoclinic'
loop_
_space_group_symop_operation_xyz
x,y,z
-x,y,-z
-x,-y,-z
x,-y,z
1/2+x,1/2+y,z
1/2-x,1/2+y,-z
1/2-x,1/2-y,-z
1/2+x,1/2-y,z
loop_
_atom_site_type_symbol
_atom_site_label
_atom_site_fract_x
_atom_site_fract_y
_atom_site_fract_z
Si Si1 0.625500 0.165802 0.875352
Si Si2 0.440664 0.834042 0.681349
Si Si3 0.717850 0.831462 0.739424
Si Si4 0.351237 0.170029 0.012124
Si Si5 0.868428 0.330283 0.411470
Si Si6 0.306554 0.669157 0.451559
Si Si7 0.019591 0.828243 0.652830
Si Si8 0.979722 0.831434 0.937476
O O1 0.505993 0.190329 0.770106
O O2 0.603348 0.207907 0.909757
O O3 0.668310 0.000000 0.900838
O O4 0.723348 0.265411 0.919912
O O5 0.306881 0.793424 0.597502
O O6 0.494593 0.727480 0.683210
O O7 0.454253 0.000000 0.674915
O O8 0.691247 0.787737 0.672985
O O9 0.640028 0.737928 0.718705
O O10 0.849395 0.792216 0.837431
O O11 0.690718 0.000000 0.729450
O O12 0.436324 0.239051 0.035310
O O13 0.345502 0.000000 0.999719
O O14 0.863479 0.500000 0.417322
O O15 0.797989 0.251508 0.401112
O O16 0.000000 0.273828 0.500000
O O17 0.314065 0.500000 0.446466
O O18 0.417350 0.723904 0.552599
O O19 0.029527 0.000000 0.660639
O O20 0.006700 0.000000 0.947968
O O21 0.000000 0.787514 0.000000
#
# Coordination Sequence:
#
# PCOD8101793 Si02
#       8
#     8   8   8   8   8   8   8   8
#     4   9  20  39  61  84 112 152 193 232 286 347
#     4  10  22  39  60  83 112 154 198 235 281 344
#     4  10  22  40  60  84 115 157 198 234 286 349
#     4  10  21  38  61  88 118 147 185 239 293 339
#     4  10  20  36  59  86 116 152 195 238 285 343
#     4  10  22  38  58  85 118 154 191 234 289 343
#     4  11  23  38  57  86 119 151 191 239 289 339
#     4  10  23  41  61  85 116 155 197 236 283 347
#
# _framework density 19.163868000000001
#
# number of rings (size 3 to 8) (size 9 to 14) (size 15 to 20)
#    0.000    2.000    1.250    1.125    3.500    3.500 
#    0.000    0.000    0.000    0.000    0.000    0.000 
#    0.000    0.000    0.000    0.000    0.000    0.000 
#
# Total GULP energy -396975.654778 kJ/mol
# GULP energy per Si atom -12405.489212 kJ/mol
# Density = 1.912025 g / cm^3
# Si number density = 19.163868 Si / 1000 Ang^3
#
#
#
# Elastic Constant Matrix: (Units=GPa)
#
#
# Indices 1 2 3 4 5 6 
#
# 1 131.6150 62.6234 48.0115 0.0005 4.2205 -0.0001
# 2 62.6234 68.2184 34.7247 0.0001 6.0481 -0.0018
# 3 48.0115 34.7247 104.8232 -0.0002 -0.1890 -0.0001
# 4 0.0005 0.0001 -0.0002 15.7003 -0.0002 0.6200
# 5 4.2205 6.0481 -0.1890 -0.0002 26.9678 0.0000
# 6 -0.0001 -0.0018 -0.0001 0.6200 0.0000 41.7154
#
#
#
# Elastic Compliance Matrix: (Units=1/GPa)
#
#
# Indices 1 2 3 4 5 6 
#
# 1 0.014061 -0.011624 -0.002589 0.000000 0.000388 0.000000
# 2 -0.011624 0.027683 -0.003854 0.000000 -0.004416 0.000001
# 3 -0.002589 -0.003854 0.012005 0.000000 0.001354 0.000000
# 4 0.000000 0.000000 0.000000 0.063731 0.000001 -0.000947
# 5 0.000388 -0.004416 0.001354 0.000001 0.038020 0.000000
# 6 0.000000 0.000001 0.000000 -0.000947 0.000000 0.023986
#
#
# Mechanical properties :
#
#
# Convention : Reuss Voigt Hill
#
# Bulk Modulus (GPa) = 56.77261 66.15286 61.46274
# Shear Modulus (GPa) = 22.57422 27.49650 25.03536
#
# Velocity S-wave (km/s) = 3.43586 3.79200 3.61831
# Velocity P-wave (km/s) = 6.74013 7.33259 7.04259
#
# Compressibility (1/GPa) = 0.01761413
#
# Stress axis : x y z
#
# Youngs Moduli (GPa) = 71.12035 36.12304 83.29986
#
# Poissons Ratio (x) = 0.41990 0.21564
# Poissons Ratio (y) = 0.82672 0.32107
# Poissons Ratio (z) = 0.18411 0.13923
#
# Static dielectric constant tensor:
#      x y z
#    x 3.418450 0.000000 -0.033800 
#    y 0.000000 3.443110 0.000000 
#    z -0.033800 0.000000 3.659050 
# 
# 
# High freq. dielectric constant tensor:
#      x y z
#    x 1.750080 0.000000 -0.002280 
#    y 0.000000 1.741410 0.000000 
#    z -0.002280 0.000000 1.753710 
# 
# From -- ./inp_files/382558.got.cif
#   From: 2010.06.25/outbox.cif.g09.slc.cpg/sg12_192_cif.got.tgz:382558.got - 2010.06.28 00:19:55.
