data_PCOD8101671
_publ_section_title
;
Structure prediction by ZEFSAII (Michael W. Deem and Ramdas Pophale) SiO2 
 PCOD8101671
Probable space group: C 2/M
;
_chemical_formula_sum "Si O2"
_cell_formula_units_Z 48
_cell_length_a 30.118732
_cell_length_b 8.860256
_cell_length_c 9.279364
_cell_angle_alpha 90.000000
_cell_angle_beta 87.540884
_cell_angle_gamma 90.000000
_cell_volume 2474.007637
_symmetry_space_group_name_H-M "C 2/M"
_symmetry_group_IT_number 12
_symmetry_cell_setting 'monoclinic'
loop_
_space_group_symop_operation_xyz
x,y,z
-x,y,-z
-x,-y,-z
x,-y,z
1/2+x,1/2+y,z
1/2-x,1/2+y,-z
1/2-x,1/2-y,-z
1/2+x,1/2-y,z
loop_
_atom_site_type_symbol
_atom_site_label
_atom_site_fract_x
_atom_site_fract_y
_atom_site_fract_z
Si Si1 0.699248 0.325397 0.643439
Si Si2 0.211441 0.175912 0.314244
Si Si3 0.555970 0.178426 0.357724
Si Si4 0.457168 0.178653 0.319316
Si Si5 0.864670 0.678997 0.848955
Si Si6 0.116441 0.176164 0.850615
O O1 0.712433 0.500000 0.659221
O O2 0.737611 0.226314 0.712009
O O3 0.694355 0.282407 0.476411
O O4 0.653025 0.285883 0.724985
O O5 0.182386 0.265428 0.203128
O O6 0.207451 0.000000 0.281321
O O7 0.508783 0.225178 0.294976
O O8 0.559823 0.235696 0.521778
O O9 0.595820 0.246475 0.256683
O O10 0.558640 0.000000 0.361076
O O11 0.430818 0.265558 0.199044
O O12 0.450398 0.000000 0.301689
O O13 0.865722 0.500000 0.848851
O O14 0.870654 0.736606 0.008375
O O15 0.113633 0.000000 0.884842
#
# Coordination Sequence:
#
# PCOD8101671 Si02
#       6
#     8   8   8   8   8   8
#     4   9  20  38  58  79 106 140 176 215 262 318
#     4  10  20  36  59  84 106 132 173 224 270 311
#     4   8  17  34  58  83 105 135 178 223 262 311
#     4   9  17  35  60  82 104 135 178 223 266 311
#     4  11  22  36  54  78 109 145 180 214 261 317
#     4  11  23  37  52  77 112 145 177 215 262 314
#
# _framework density 19.401719
#
# number of rings (size 3 to 8) (size 9 to 14) (size 15 to 20)
#    0.000    2.333    0.000    3.500    0.000    3.333 
#    0.000    7.500    0.000    0.000    0.000    0.000 
#    0.000    0.000    0.000    0.000    0.000    0.000 
#
# Total GULP energy -297659.860433 kJ/mol
# GULP energy per Si atom -12402.494185 kJ/mol
# Density = 1.935756 g / cm^3
# Si number density = 19.401719 Si / 1000 Ang^3
#
#
#
# Elastic Constant Matrix: (Units=GPa)
#
#
# Indices 1 2 3 4 5 6 
#
# 1 81.8597 32.9032 30.4771 0.0000 27.1751 0.0000
# 2 32.9032 62.7217 27.8139 0.0000 13.5871 0.0000
# 3 30.4771 27.8139 69.5879 0.0000 30.6465 0.0000
# 4 0.0000 0.0000 0.0000 30.0573 0.0000 5.6069
# 5 27.1751 13.5871 30.6465 0.0000 33.2225 0.0000
# 6 0.0000 0.0000 0.0000 5.6069 0.0000 29.1052
#
#
#
# Elastic Compliance Matrix: (Units=1/GPa)
#
#
# Indices 1 2 3 4 5 6 
#
# 1 0.019485 -0.007485 0.000217 0.000000 -0.013078 0.000000
# 2 -0.007485 0.022288 -0.007263 0.000000 0.003707 0.000000
# 3 0.000217 -0.007263 0.026860 0.000000 -0.021985 0.000000
# 4 0.000000 0.000000 0.000000 0.034510 0.000000 -0.006648
# 5 -0.013078 0.003707 -0.021985 0.000000 0.059562 0.000000
# 6 0.000000 0.000000 0.000000 -0.006648 0.000000 0.035639
#
#
# Mechanical properties :
#
#
# Convention : Reuss Voigt Hill
#
# Bulk Modulus (GPa) = 25.27035 44.06197 34.66616
# Shear Modulus (GPa) = 20.78181 26.67532 23.72857
#
# Velocity S-wave (km/s) = 3.27637 3.71198 3.50096
# Velocity P-wave (km/s) = 5.23124 6.41337 5.85223
#
# Compressibility (1/GPa) = 0.03957206
#
# Stress axis : x y z
#
# Youngs Moduli (GPa) = 51.32122 44.86792 37.22975
#
# Poissons Ratio (x) = 0.33584 -0.00809
# Poissons Ratio (y) = 0.38415 0.27039
# Poissons Ratio (z) = -0.01115 0.32586
#
# Static dielectric constant tensor:
#      x y z
#    x 3.682800 0.000000 -0.128830 
#    y 0.000000 3.334110 0.000000 
#    z -0.128830 0.000000 3.581100 
# 
# 
# High freq. dielectric constant tensor:
#      x y z
#    x 1.764880 0.000000 0.005080 
#    y 0.000000 1.740840 0.000000 
#    z 0.005080 0.000000 1.752410 
# 
# From -- ./inp_files/108705.got.cif
#   From: 2010.06.25/outbox.cif.g09.slc.cpg/sg12_55_cif.got.tgz:108705.got - 2010.06.28 00:19:55.
