data_PCOD8101191
_publ_section_title
;
Structure prediction by ZEFSAII (Michael W. Deem and Ramdas Pophale) SiO2 
 PCOD8101191
Probable space group: C 2/M
;
_chemical_formula_sum "Si O2"
_cell_formula_units_Z 56
_cell_length_a 18.538244
_cell_length_b 8.899168
_cell_length_c 19.613453
_cell_angle_alpha 90.000000
_cell_angle_beta 65.145318
_cell_angle_gamma 90.000000
_cell_volume 2936.024699
_symmetry_space_group_name_H-M "C 2/M"
_symmetry_group_IT_number 12
_symmetry_cell_setting 'monoclinic'
loop_
_space_group_symop_operation_xyz
x,y,z
-x,y,-z
-x,-y,-z
x,-y,z
1/2+x,1/2+y,z
1/2-x,1/2+y,-z
1/2-x,1/2-y,-z
1/2+x,1/2-y,z
loop_
_atom_site_type_symbol
_atom_site_label
_atom_site_fract_x
_atom_site_fract_y
_atom_site_fract_z
Si Si1 0.459629 0.165975 0.309732
Si Si2 0.617909 0.835581 0.805038
Si Si3 0.236080 0.676512 0.301141
Si Si4 0.823443 0.176658 0.931279
Si Si5 0.511711 0.662725 0.073286
Si Si6 0.289514 0.178454 0.418882
Si Si7 0.623977 0.676840 0.240467
O O1 0.426491 0.152544 0.247822
O O2 0.383692 0.220494 0.384682
O O3 0.530375 0.285509 0.281039
O O4 0.489317 0.000000 0.321932
O O5 0.688378 0.714936 0.775963
O O6 0.554057 0.785232 0.884865
O O7 0.652102 0.000000 0.812017
O O8 0.228602 0.500000 0.315987
O O9 0.244816 0.757174 0.370365
O O10 0.160111 0.736575 0.290590
O O11 0.901774 0.226126 0.941674
O O12 0.835420 0.229159 0.847400
O O13 0.809700 0.000000 0.939261
O O14 0.750000 0.250000 0.000000
O O15 0.500077 0.500000 0.116083
O O16 0.500000 0.630630 0.000000
O O17 0.250000 0.250000 0.500000
O O18 0.278540 0.000000 0.422217
O O19 0.634420 0.500000 0.246002
#
# Coordination Sequence:
#
# PCOD8101191 Si02
#       7
#     8   8   8   8   8   8   8
#     4   9  19  36  59  86 115 151 190 232 283 346
#     4  10  20  36  57  82 111 146 193 244 292 347
#     4  11  23  38  60  87 118 156 196 240 293 346
#     4  10  23  39  55  80 115 155 197 246 302 356
#     4  10  21  37  55  79 110 147 195 244 295 355
#     4  10  21  40  65  95 127 156 193 236 285 346
#     4  11  22  38  59  85 118 154 199 249 294 352
#
# _framework density 19.073408000000001
#
# number of rings (size 3 to 8) (size 9 to 14) (size 15 to 20)
#    0.000    1.857    1.429    3.429    2.000    4.857 
#    0.000    0.714    0.000    4.286    0.000    0.000 
#    0.000    0.000    0.000    0.000    0.000    0.000 
#
# Total GULP energy -347056.466023 kJ/mol
# GULP energy per Si atom -12394.873787 kJ/mol
# Density = 1.903000 g / cm^3
# Si number density = 19.073408 Si / 1000 Ang^3
#
#
#
# Elastic Constant Matrix: (Units=GPa)
#
#
# Indices 1 2 3 4 5 6 
#
# 1 77.7395 39.0744 39.6353 0.0000 -6.3698 0.0000
# 2 39.0744 103.1680 50.1115 0.0000 -3.7128 0.0001
# 3 39.6353 50.1115 109.4369 0.0000 -21.2513 0.0000
# 4 0.0000 0.0000 0.0000 28.8478 0.0000 -2.8420
# 5 -6.3698 -3.7128 -21.2513 0.0000 22.3900 0.0000
# 6 0.0000 0.0001 0.0000 -2.8420 0.0000 32.2891
#
#
#
# Elastic Compliance Matrix: (Units=1/GPa)
#
#
# Indices 1 2 3 4 5 6 
#
# 1 0.017264 -0.004521 -0.004137 0.000000 0.000235 0.000000
# 2 -0.004521 0.013965 -0.005587 0.000000 -0.004273 0.000000
# 3 -0.004137 -0.005587 0.015675 0.000000 0.012774 0.000000
# 4 0.000000 0.000000 0.000000 0.034968 0.000000 0.003078
# 5 0.000235 -0.004273 0.012774 0.000000 0.056146 0.000000
# 6 0.000000 0.000000 0.000000 0.003078 0.000000 0.031241
#
#
# Mechanical properties :
#
#
# Convention : Reuss Voigt Hill
#
# Bulk Modulus (GPa) = 54.30483 60.88745 57.59614
# Shear Modulus (GPa) = 24.52331 27.47358 25.99844
#
# Velocity S-wave (km/s) = 3.58960 3.79939 3.69599
# Velocity P-wave (km/s) = 6.76118 7.15816 6.96250
#
# Compressibility (1/GPa) = 0.01841457
#
# Stress axis : x y z
#
# Youngs Moduli (GPa) = 57.92305 71.60613 63.79588
#
# Poissons Ratio (x) = 0.32373 0.26391
# Poissons Ratio (y) = 0.26187 0.35644
# Poissons Ratio (z) = 0.23962 0.40008
#
# Static dielectric constant tensor:
#      x y z
#    x 3.633560 0.000000 -0.060620 
#    y 0.000000 3.089960 0.000000 
#    z -0.060620 0.000000 3.365230 
# 
# 
# High freq. dielectric constant tensor:
#      x y z
#    x 1.743570 0.000000 -0.003810 
#    y 0.000000 1.748210 0.000000 
#    z -0.003810 0.000000 1.730130 
# 
# From -- ./inp_files/275226.got.cif
#   From: 2010.06.25/outbox.cif.g09.slc.cpg/sg12_138_cif.got.tgz:275226.got - 2010.06.28 00:19:55.
