data_PCOD8101337
_publ_section_title
;
Structure prediction by ZEFSAII (Michael W. Deem and Ramdas Pophale) SiO2 
 PCOD8101337
Probable space group: C 2/M
;
_chemical_formula_sum "Si O2"
_cell_formula_units_Z 48
_cell_length_a 23.988165
_cell_length_b 9.090774
_cell_length_c 11.710913
_cell_angle_alpha 90.000000
_cell_angle_beta 79.588823
_cell_angle_gamma 90.000000
_cell_volume 2511.765025
_symmetry_space_group_name_H-M "C 2/M"
_symmetry_group_IT_number 12
_symmetry_cell_setting 'monoclinic'
loop_
_space_group_symop_operation_xyz
x,y,z
-x,y,-z
-x,-y,-z
x,-y,z
1/2+x,1/2+y,z
1/2-x,1/2+y,-z
1/2-x,1/2-y,-z
1/2+x,1/2-y,z
loop_
_atom_site_type_symbol
_atom_site_label
_atom_site_fract_x
_atom_site_fract_y
_atom_site_fract_z
Si Si1 0.221368 0.326628 0.769293
Si Si2 0.164671 0.673882 0.324862
Si Si3 0.949463 0.828706 0.243577
Si Si4 0.628566 0.329101 0.936389
Si Si5 0.142873 0.671492 0.590224
Si Si6 0.578925 0.672870 0.199368
O O1 0.229571 0.500000 0.778984
O O2 0.282007 0.250063 0.754615
O O3 0.183711 0.267752 0.887985
O O4 0.191682 0.281598 0.661130
O O5 0.168829 0.500000 0.307080
O O6 0.163466 0.719652 0.457941
O O7 0.107817 0.734485 0.288604
O O8 0.922168 0.789214 0.131502
O O9 0.916072 0.750158 0.358266
O O10 0.014016 0.774827 0.218044
O O11 0.945880 0.000000 0.270005
O O12 0.644950 0.500000 0.920157
O O13 0.608416 0.286804 0.069425
O O14 0.130606 0.500000 0.601843
O O15 0.583921 0.500000 0.223536
#
# Coordination Sequence:
#
# PCOD8101337 Si02
#       6
#     8   8   8   8   8   8
#     4  10  20  36  58  81 104 133 175 223 266 310
#     4  11  23  37  53  76 108 144 178 213 261 316
#     4   9  18  34  58  83 105 135 176 219 261 307
#     4   9  18  35  58  81 106 137 174 217 263 310
#     4   9  20  37  56  79 106 137 174 218 265 312
#     4  10  21  36  54  79 110 142 176 214 258 310
#
# _framework density 19.110067000000001
#
# number of rings (size 3 to 8) (size 9 to 14) (size 15 to 20)
#    0.000    2.333    0.000    2.000    0.000    6.667 
#    0.000    3.333    0.000    5.000    0.000    0.000 
#    0.000    0.000    0.000    0.000    0.000    0.000 
#
# Total GULP energy -297706.693916 kJ/mol
# GULP energy per Si atom -12404.445580 kJ/mol
# Density = 1.906657 g / cm^3
# Si number density = 19.110067 Si / 1000 Ang^3
#
#
#
# Elastic Constant Matrix: (Units=GPa)
#
#
# Indices 1 2 3 4 5 6 
#
# 1 72.4289 29.7304 25.5641 0.0000 -9.2707 0.0000
# 2 29.7304 52.6235 25.9245 0.0000 -6.7173 0.0000
# 3 25.5641 25.9245 46.1979 0.0000 -13.6298 0.0000
# 4 0.0000 0.0000 0.0000 32.2647 0.0000 -3.1525
# 5 -9.2707 -6.7173 -13.6298 0.0000 23.4743 0.0000
# 6 0.0000 0.0000 0.0000 -3.1525 0.0000 34.4560
#
#
#
# Elastic Compliance Matrix: (Units=1/GPa)
#
#
# Indices 1 2 3 4 5 6 
#
# 1 0.019291 -0.007846 -0.005656 0.000000 0.002090 0.000000
# 2 -0.007846 0.029485 -0.012826 0.000000 -0.002108 0.000000
# 3 -0.005656 -0.012826 0.036481 0.000000 0.015278 0.000000
# 4 0.000000 0.000000 0.000000 0.031273 0.000000 0.002861
# 5 0.002090 -0.002108 0.015278 0.000000 0.051692 0.000000
# 6 0.000000 0.000000 0.000000 0.002861 0.000000 0.029284
#
#
# Mechanical properties :
#
#
# Convention : Reuss Voigt Hill
#
# Bulk Modulus (GPa) = 30.67379 37.07646 33.87513
# Shear Modulus (GPa) = 19.15497 24.04109 21.59803
#
# Velocity S-wave (km/s) = 3.16943 3.55072 3.36548
# Velocity P-wave (km/s) = 5.42952 6.02112 5.73295
#
# Compressibility (1/GPa) = 0.03260112
#
# Stress axis : x y z
#
# Youngs Moduli (GPa) = 51.83838 33.91540 27.41177
#
# Poissons Ratio (x) = 0.26609 0.15503
# Poissons Ratio (y) = 0.40671 0.35160
# Poissons Ratio (z) = 0.29317 0.43502
#
# Static dielectric constant tensor:
#      x y z
#    x 3.537730 0.000000 -0.031110 
#    y 0.000000 3.392650 0.000000 
#    z -0.031110 0.000000 3.530610 
# 
# 
# High freq. dielectric constant tensor:
#      x y z
#    x 1.746600 0.000000 -0.006320 
#    y 0.000000 1.738470 0.000000 
#    z -0.006320 0.000000 1.744630 
# 
# From -- ./inp_files/172038.got.cif
#   From: 2010.06.25/outbox.cif.g09.slc.cpg/sg12_87_cif.got.tgz:172038.got - 2010.06.28 00:19:55.
