data_PCOD8101308
_publ_section_title
;
Structure prediction by ZEFSAII (Michael W. Deem and Ramdas Pophale) SiO2 
 PCOD8101308
Probable space group: C 2/M
;
_chemical_formula_sum "Si O2"
_cell_formula_units_Z 40
_cell_length_a 9.572482
_cell_length_b 24.925747
_cell_length_c 8.048685
_cell_angle_alpha 90.000000
_cell_angle_beta 112.007591
_cell_angle_gamma 90.000000
_cell_volume 1780.493041
_symmetry_space_group_name_H-M "C 2/M"
_symmetry_group_IT_number 12
_symmetry_cell_setting 'monoclinic'
loop_
_space_group_symop_operation_xyz
x,y,z
-x,y,-z
-x,-y,-z
x,-y,z
1/2+x,1/2+y,z
1/2-x,1/2+y,-z
1/2-x,1/2-y,-z
1/2+x,1/2-y,z
loop_
_atom_site_type_symbol
_atom_site_label
_atom_site_fract_x
_atom_site_fract_y
_atom_site_fract_z
Si Si1 0.925661 0.561768 0.799418
Si Si2 0.042274 0.778497 0.697905
Si Si3 0.500000 0.874872 0.500000
Si Si4 0.241478 0.190630 0.230184
Si Si5 0.403618 0.401371 0.299802
Si Si6 0.000000 0.114908 0.000000
O O1 0.971455 0.500000 0.799066
O O2 0.982572 0.591071 0.659934
O O3 0.749163 0.567131 0.747553
O O4 0.000000 0.586178 0.000000
O O5 0.160368 0.735061 0.826183
O O6 0.116601 0.837133 0.714765
O O7 0.000000 0.755383 0.500000
O O8 0.889438 0.777876 0.732490
O O9 0.653461 0.841186 0.592019
O O10 0.153698 0.150826 0.065677
O O11 0.500000 0.419566 0.500000
O O12 0.488034 0.419541 0.164767
#
# Coordination Sequence:
#
# PCOD8101308 Si02
#       6
#     8   8   4   8   8   4
#     4  11  25  44  66  96 127 162 216 276 327 379
#     4  10  20  36  57  92 127 171 212 261 301 387
#     4  12  23  42  70  94 124 180 211 264 320 396
#     4  11  23  35  63  90 133 171 219 252 322 370
#     4  10  22  41  65  88 128 170 212 263 319 379
#     4  10  22  42  57  96 130 170 215 268 306 390
#
# _framework density 22.465688
#
# number of rings (size 3 to 8) (size 9 to 14) (size 15 to 20)
#    0.000    1.400    1.000    5.700    2.800    3.600 
#    1.800    0.500    0.000    0.000    0.000    0.000 
#    0.000    0.000    0.000    0.000    0.000    0.000 
#
# Total GULP energy -247884.839398 kJ/mol
# GULP energy per Si atom -12394.241970 kJ/mol
# Density = 2.241455 g / cm^3
# Si number density = 22.465688 Si / 1000 Ang^3
#
#
#
# Elastic Constant Matrix: (Units=GPa)
#
#
# Indices 1 2 3 4 5 6 
#
# 1 135.6856 28.3790 60.5819 0.0000 -10.2528 0.0000
# 2 28.3790 49.1181 21.0546 0.0000 0.0493 0.0000
# 3 60.5819 21.0546 169.3015 0.0000 -9.9690 0.0000
# 4 0.0000 0.0000 0.0000 21.6923 0.0000 15.7888
# 5 -10.2528 0.0493 -9.9690 0.0000 51.1778 0.0000
# 6 0.0000 0.0000 0.0000 15.7888 0.0000 5.6550
#
#
#
# Elastic Compliance Matrix: (Units=1/GPa)
#
#
# Indices 1 2 3 4 5 6 
#
# 1 0.009651 -0.004365 -0.002829 0.000000 0.001387 0.000000
# 2 -0.004365 0.023495 -0.001429 0.000000 -0.001175 0.000000
# 3 -0.002829 -0.001429 0.007145 0.000000 0.000826 0.000000
# 4 0.000000 0.000000 0.000000 -0.044662 0.000000 0.124697
# 5 0.001387 -0.001175 0.000826 0.000000 0.019980 0.000000
# 6 0.000000 0.000000 0.000000 0.124697 0.000000 -0.171321
#
#
# Mechanical properties :
#
#
# Convention : Reuss Voigt Hill
#
# Bulk Modulus (GPa) = 43.39318 63.79292 53.59305
# Shear Modulus (GPa) = -38.23045 31.97766 -3.12640
#
# Velocity S-wave (km/s) = -4.12967 3.77689 -1.18095
# Velocity P-wave (km/s) = 1.83894 6.89037 4.69550
#
# Compressibility (1/GPa) = 0.02304510
#
# Stress axis : x y z
#
# Youngs Moduli (GPa) = 103.61937 42.56285 139.95189
#
# Poissons Ratio (x) = 0.18577 0.39591
# Poissons Ratio (y) = 0.45226 0.20002
# Poissons Ratio (z) = 0.29313 0.06083
#
# Static dielectric constant tensor:
#      x y z
#    x 4.000190 0.000000 0.024740 
#    y 0.000000 3.700070 0.000000 
#    z 0.024740 0.000000 4.629010 
# 
# 
# High freq. dielectric constant tensor:
#      x y z
#    x 1.886380 0.000000 0.003910 
#    y 0.000000 1.855450 0.000000 
#    z 0.003910 0.000000 1.910040 
# 
# From -- ./inp_files/41925.got.cif
#   From: 2010.06.25/outbox.cif.g09.slc.cpg/sg12_21_cif.got.tgz:41925.got - 2010.06.28 00:19:55.
