data_PCOD8101495
_publ_section_title
;
Structure prediction by ZEFSAII (Michael W. Deem and Ramdas Pophale) SiO2 
 PCOD8101495
Probable space group: C 2/M
;
_chemical_formula_sum "Si O2"
_cell_formula_units_Z 56
_cell_length_a 28.654768
_cell_length_b 16.144777
_cell_length_c 9.134543
_cell_angle_alpha 90.000000
_cell_angle_beta 141.347906
_cell_angle_gamma 90.000000
_cell_volume 2639.433554
_symmetry_space_group_name_H-M "C 2/M"
_symmetry_group_IT_number 12
_symmetry_cell_setting 'monoclinic'
loop_
_space_group_symop_operation_xyz
x,y,z
-x,y,-z
-x,-y,-z
x,-y,z
1/2+x,1/2+y,z
1/2-x,1/2+y,-z
1/2-x,1/2-y,-z
1/2+x,1/2-y,z
loop_
_atom_site_type_symbol
_atom_site_label
_atom_site_fract_x
_atom_site_fract_y
_atom_site_fract_z
Si Si1 0.505767 0.908327 0.687105
Si Si2 0.921683 0.902728 0.729258
Si Si3 0.297977 0.658187 0.910405
Si Si4 0.568261 0.404176 0.576285
Si Si5 0.342700 0.094907 0.287807
Si Si6 0.280923 0.342065 0.548623
Si Si7 0.658485 0.845980 0.034733
O O1 0.500000 0.913152 0.500000
O O2 0.424995 0.875433 0.545377
O O3 0.575255 0.849896 0.902527
O O4 0.520626 0.000000 0.787599
O O5 0.926833 0.868067 0.575731
O O6 0.859424 0.846923 0.656402
O O7 0.899232 0.000000 0.680611
O O8 0.000000 0.887254 0.000000
O O9 0.216497 0.655850 0.783305
O O10 0.292888 0.616045 0.736949
O O11 0.354579 0.607103 0.149262
O O12 0.324287 0.752105 0.965111
O O13 0.500000 0.361639 0.500000
O O14 0.549671 0.500000 0.513183
O O15 0.336745 0.098516 0.097903
O O16 0.327698 0.000000 0.297346
O O17 0.250000 0.250000 0.500000
O O18 0.217358 0.385435 0.293993
#
# Coordination Sequence:
#
# PCOD8101495 Si02
#       7
#     8   8   8   8   8   8   8
#     4   8  16  33  57  81 105 136 180 233 278 324
#     4  10  21  39  64  89 114 151 196 241 292 350
#     4  11  22  36  54  82 118 151 186 235 289 339
#     4  10  21  37  59  89 120 150 191 243 297 351
#     4  10  20  36  58  84 113 144 184 236 291 344
#     4  10  23  40  54  80 120 158 195 233 283 341
#     4  10  20  37  58  81 108 146 196 237 279 342
#
# _framework density 21.216671999999999
#
# number of rings (size 3 to 8) (size 9 to 14) (size 15 to 20)
#    0.000    2.143    0.000    3.857    0.000    7.429 
#    0.000    6.429    0.000    1.714    0.000    0.000 
#    0.000    0.000    0.000    0.000    0.000    0.000 
#
# Total GULP energy -347061.744929 kJ/mol
# GULP energy per Si atom -12395.062319 kJ/mol
# Density = 2.116838 g / cm^3
# Si number density = 21.216672 Si / 1000 Ang^3
#
#
#
# Elastic Constant Matrix: (Units=GPa)
#
#
# Indices 1 2 3 4 5 6 
#
# 1 160.1298 32.9889 94.6359 0.0000 22.9400 0.0000
# 2 32.9889 52.9881 26.5807 0.0000 19.7178 0.0000
# 3 94.6359 26.5807 166.4534 0.0000 14.4700 0.0000
# 4 0.0000 0.0000 0.0000 24.8227 0.0000 9.8412
# 5 22.9400 19.7178 14.4700 0.0000 52.2718 0.0000
# 6 0.0000 0.0000 0.0000 9.8412 0.0000 27.0069
#
#
#
# Elastic Compliance Matrix: (Units=1/GPa)
#
#
# Indices 1 2 3 4 5 6 
#
# 1 0.010181 -0.003058 -0.005136 0.000000 -0.001893 0.000000
# 2 -0.003058 0.024281 -0.001495 0.000000 -0.007403 0.000000
# 3 -0.005136 -0.001495 0.009141 0.000000 0.000287 0.000000
# 4 0.000000 0.000000 0.000000 0.047088 0.000000 -0.017159
# 5 -0.001893 -0.007403 0.000287 0.000000 0.022675 0.000000
# 6 0.000000 0.000000 0.000000 -0.017159 0.000000 0.043280
#
#
# Mechanical properties :
#
#
# Convention : Reuss Voigt Hill
#
# Bulk Modulus (GPa) = 41.27818 76.44247 58.86033
# Shear Modulus (GPa) = 27.15926 35.84468 31.50197
#
# Velocity S-wave (km/s) = 3.58172 4.11476 3.85746
# Velocity P-wave (km/s) = 6.05002 7.66046 6.90237
#
# Compressibility (1/GPa) = 0.02422587
#
# Stress axis : x y z
#
# Youngs Moduli (GPa) = 98.22038 41.18468 109.39391
#
# Poissons Ratio (x) = 0.12594 0.56180
# Poissons Ratio (y) = 0.30035 0.16357
# Poissons Ratio (z) = 0.50442 0.06158
#
# Static dielectric constant tensor:
#      x y z
#    x 4.067580 0.000000 0.052330 
#    y 0.000000 3.454830 0.000000 
#    z 0.052330 0.000000 4.377130 
# 
# 
# High freq. dielectric constant tensor:
#      x y z
#    x 1.831690 0.000000 0.014090 
#    y 0.000000 1.802630 0.000000 
#    z 0.014090 0.000000 1.844730 
# 
# From -- ./inp_files/106043.got.cif
#   From: 2010.06.25/outbox.cif.g09.slc.cpg/sg12_54_cif.got.tgz:106043.got - 2010.06.28 00:19:55.
