data_PCOD8101417
_publ_section_title
;
Structure prediction by ZEFSAII (Michael W. Deem and Ramdas Pophale) SiO2 
 PCOD8101417
Probable space group: C 2/M
;
_chemical_formula_sum "Si O2"
_cell_formula_units_Z 56
_cell_length_a 17.871145
_cell_length_b 8.867776
_cell_length_c 18.714497
_cell_angle_alpha 90.000000
_cell_angle_beta 104.197252
_cell_angle_gamma 90.000000
_cell_volume 2875.238358
_symmetry_space_group_name_H-M "C 2/M"
_symmetry_group_IT_number 12
_symmetry_cell_setting 'monoclinic'
loop_
_space_group_symop_operation_xyz
x,y,z
-x,y,-z
-x,-y,-z
x,-y,z
1/2+x,1/2+y,z
1/2-x,1/2+y,-z
1/2-x,1/2-y,-z
1/2+x,1/2-y,z
loop_
_atom_site_type_symbol
_atom_site_label
_atom_site_fract_x
_atom_site_fract_y
_atom_site_fract_z
Si Si1 0.771666 0.178484 0.430444
Si Si2 0.915816 0.820784 0.999245
Si Si3 0.940018 0.820869 0.427655
Si Si4 0.652774 0.822560 0.281489
Si Si5 0.796048 0.178291 0.853381
Si Si6 0.004836 0.174800 0.713724
Si Si7 0.861641 0.825370 0.140988
O O1 0.750000 0.250000 0.500000
O O2 0.854968 0.241137 0.425413
O O3 0.709294 0.230785 0.357771
O O4 0.773211 0.000000 0.439626
O O5 0.891039 0.764439 0.071671
O O6 0.919375 0.000000 0.999068
O O7 0.854434 0.759698 0.927405
O O8 0.000000 0.753841 0.000000
O O9 0.000000 0.756227 0.500000
O O10 0.965108 0.765018 0.355378
O O11 0.939047 0.000000 0.429160
O O12 0.679499 0.743994 0.216065
O O13 0.566762 0.775428 0.280511
O O14 0.657477 0.000000 0.271088
O O15 0.710374 0.226923 0.852595
O O16 0.800497 0.000000 0.849839
O O17 0.071383 0.199611 0.786510
O O18 0.979625 0.000000 0.704076
O O19 0.836825 0.000000 0.131383
#
# Coordination Sequence:
#
# PCOD8101417 Si02
#       7
#     8   8   8   8   8   8   8
#     4  10  21  37  57  82 111 144 182 226 277 329
#     4   9  18  34  56  81 109 144 187 233 279 329
#     4   9  17  31  53  79 106 137 176 220 264 319
#     4  11  23  38  56  81 115 149 183 230 283 329
#     4  11  22  36  57  83 111 147 190 230 275 336
#     4  10  20  36  59  82 106 145 191 229 275 335
#     4  10  20  36  58  82 112 147 184 233 286 332
#
# _framework density 19.476647
#
# number of rings (size 3 to 8) (size 9 to 14) (size 15 to 20)
#    0.000    2.000    0.000    3.857    0.000    7.429 
#    0.000    1.429    0.000    5.571    0.000    0.000 
#    0.000    0.000    0.000    0.000    0.000    0.000 
#
# Total GULP energy -347300.010319 kJ/mol
# GULP energy per Si atom -12403.571797 kJ/mol
# Density = 1.943232 g / cm^3
# Si number density = 19.476647 Si / 1000 Ang^3
#
#
#
# Elastic Constant Matrix: (Units=GPa)
#
#
# Indices 1 2 3 4 5 6 
#
# 1 156.3220 35.1262 79.3664 0.0000 -14.5595 0.0000
# 2 35.1262 38.6478 41.5280 0.0000 0.3562 0.0000
# 3 79.3664 41.5280 184.9673 0.0000 -15.3521 0.0000
# 4 0.0000 0.0000 0.0000 -3.6358 0.0000 -12.9752
# 5 -14.5595 0.3562 -15.3521 0.0000 42.4890 0.0000
# 6 0.0000 0.0000 0.0000 -12.9752 0.0000 23.4159
#
#
#
# Elastic Compliance Matrix: (Units=1/GPa)
#
#
# Indices 1 2 3 4 5 6 
#
# 1 0.009133 -0.005688 -0.002452 0.000000 0.002291 0.000000
# 2 -0.005688 0.038057 -0.006487 0.000000 -0.004612 0.000000
# 3 -0.002452 -0.006487 0.008092 0.000000 0.002138 0.000000
# 4 0.000000 0.000000 0.000000 -0.092373 0.000000 -0.051186
# 5 0.002291 -0.004612 0.002138 0.000000 0.025132 0.000000
# 6 0.000000 0.000000 0.000000 -0.051186 0.000000 0.014343
#
#
# Mechanical properties :
#
#
# Convention : Reuss Voigt Hill
#
# Bulk Modulus (GPa) = 38.41720 76.88647 57.65183
# Shear Modulus (GPa) = 124.03157 27.38160 75.70658
#
# Velocity S-wave (km/s) = 7.98877 3.75356 6.24138
# Velocity P-wave (km/s) = 10.24019 7.63856 9.03352
#
# Compressibility (1/GPa) = 0.02603001
#
# Stress axis : x y z
#
# Youngs Moduli (GPa) = 109.48909 26.27663 123.57618
#
# Poissons Ratio (x) = 0.14945 0.30298
# Poissons Ratio (y) = 0.62274 0.80158
# Poissons Ratio (z) = 0.26844 0.17044
#
# Static dielectric constant tensor:
#      x y z
#    x 3.553590 0.000000 0.109230 
#    y 0.000000 3.231480 0.000000 
#    z 0.109230 0.000000 3.827310 
# 
# 
# High freq. dielectric constant tensor:
#      x y z
#    x 1.777450 0.000000 -0.001090 
#    y 0.000000 1.723810 0.000000 
#    z -0.001090 0.000000 1.781430 
# 
# From -- ./inp_files/275668.got.cif
#   From: 2010.06.25/outbox.cif.g09.slc.cpg/sg12_138_cif.got.tgz:275668.got - 2010.06.28 00:19:55.
