data_PCOD8101304
_publ_section_title
;
Structure prediction by ZEFSAII (Michael W. Deem and Ramdas Pophale) SiO2 
 PCOD8101304
Probable space group: C 2/M
;
_chemical_formula_sum "Si O2"
_cell_formula_units_Z 64
_cell_length_a 19.431764
_cell_length_b 13.766926
_cell_length_c 11.756047
_cell_angle_alpha 90.000000
_cell_angle_beta 92.831475
_cell_angle_gamma 90.000000
_cell_volume 3141.087158
_symmetry_space_group_name_H-M "C 2/M"
_symmetry_group_IT_number 12
_symmetry_cell_setting 'monoclinic'
loop_
_space_group_symop_operation_xyz
x,y,z
-x,y,-z
-x,-y,-z
x,-y,z
1/2+x,1/2+y,z
1/2-x,1/2+y,-z
1/2-x,1/2-y,-z
1/2+x,1/2-y,z
loop_
_atom_site_type_symbol
_atom_site_label
_atom_site_fract_x
_atom_site_fract_y
_atom_site_fract_z
Si Si1 0.435801 0.614349 0.916680
Si Si2 0.827561 0.772637 0.045071
Si Si3 0.079736 0.613187 0.015530
Si Si4 0.919211 0.607911 0.509380
Si Si5 0.965337 0.114938 0.660449
Si Si6 0.707598 0.385769 0.738044
Si Si7 0.861392 0.613582 0.744107
Si Si8 0.602490 0.689332 0.563085
O O1 0.426970 0.500000 0.926325
O O2 0.446326 0.645833 0.786618
O O3 0.500000 0.649706 0.000000
O O4 0.365118 0.662379 0.953061
O O5 0.830059 0.830326 0.163118
O O6 0.750000 0.750000 0.000000
O O7 0.871599 0.673108 0.067173
O O8 0.093682 0.500000 0.994286
O O9 0.100109 0.652739 0.141763
O O10 0.000000 0.639341 0.000000
O O11 0.888018 0.500000 0.478906
O O12 0.905884 0.639388 0.638010
O O13 0.886944 0.693125 0.429585
O O14 0.000000 0.605306 0.500000
O O15 0.908014 0.154666 0.567891
O O16 0.038222 0.161815 0.636187
O O17 0.971767 0.000000 0.647707
O O18 0.705100 0.500000 0.763836
O O19 0.784487 0.343586 0.730574
O O20 0.669985 0.362810 0.616457
O O21 0.853830 0.500000 0.757702
#
# Coordination Sequence:
#
# PCOD8101304 Si02
#       8
#     8   8   8   8   8   8   8   8
#     4  10  22  40  64  93 126 165 213 269 325 380
#     4  12  24  38  62  94 130 166 208 262 323 387
#     4  10  22  41  64  91 125 168 216 265 318 382
#     4  10  21  38  61  88 121 160 207 263 314 366
#     4  10  20  36  57  90 127 161 210 270 318 371
#     4  11  23  41  63  89 125 170 213 254 319 401
#     4   9  20  39  61  85 119 162 208 258 315 386
#     4  11  21  36  62  91 121 165 211 260 318 383
#
# _framework density 20.375111
#
# number of rings (size 3 to 8) (size 9 to 14) (size 15 to 20)
#    0.000    1.625    2.500    3.000    1.750    3.000 
#    0.000    1.875    0.000    1.500    0.000    0.000 
#    0.000    0.000    0.000    0.000    0.000    0.000 
#
# Total GULP energy -396754.734499 kJ/mol
# GULP energy per Si atom -12398.585453 kJ/mol
# Density = 2.032874 g / cm^3
# Si number density = 20.375111 Si / 1000 Ang^3
#
#
#
# Elastic Constant Matrix: (Units=GPa)
#
#
# Indices 1 2 3 4 5 6 
#
# 1 140.9859 40.4678 78.3630 0.0000 8.0170 0.0000
# 2 40.4678 109.1808 46.3353 0.0000 -6.5648 0.0000
# 3 78.3630 46.3353 132.6986 0.0000 -3.5165 0.0000
# 4 0.0000 0.0000 0.0000 26.5902 0.0000 -1.7952
# 5 8.0170 -6.5648 -3.5165 0.0000 37.8660 0.0000
# 6 0.0000 0.0000 0.0000 -1.7952 0.0000 21.5816
#
#
#
# Elastic Compliance Matrix: (Units=1/GPa)
#
#
# Indices 1 2 3 4 5 6 
#
# 1 0.011145 -0.001756 -0.006054 0.000000 -0.003226 0.000000
# 2 -0.001756 0.011117 -0.002791 0.000000 0.002040 0.000000
# 3 -0.006054 -0.002791 0.012137 0.000000 0.001925 0.000000
# 4 0.000000 0.000000 0.000000 0.037820 0.000000 0.003146
# 5 -0.003226 0.002040 0.001925 0.000000 0.027624 0.000000
# 6 0.000000 0.000000 0.000000 0.003146 0.000000 0.046598
#
#
# Mechanical properties :
#
#
# Convention : Reuss Voigt Hill
#
# Bulk Modulus (GPa) = 75.77277 79.24417 77.50847
# Shear Modulus (GPa) = 29.06273 31.72085 30.39179
#
# Velocity S-wave (km/s) = 3.78085 3.94997 3.86633
# Velocity P-wave (km/s) = 7.50529 7.73176 7.61936
#
# Compressibility (1/GPa) = 0.01319735
#
# Stress axis : x y z
#
# Youngs Moduli (GPa) = 89.72364 89.95270 82.39538
#
# Poissons Ratio (x) = 0.15793 0.49883
# Poissons Ratio (y) = 0.15753 0.22996
# Poissons Ratio (z) = 0.54320 0.25105
#
# Static dielectric constant tensor:
#      x y z
#    x 3.681330 0.000000 0.054500 
#    y 0.000000 4.008900 0.000000 
#    z 0.054500 0.000000 3.948270 
# 
# 
# High freq. dielectric constant tensor:
#      x y z
#    x 1.788340 0.000000 -0.006790 
#    y 0.000000 1.814290 0.000000 
#    z -0.006790 0.000000 1.790200 
# 
# From -- ./inp_files/156630.got.cif
#   From: 2010.06.25/outbox.cif.g09.slc.cpg/sg12_79_cif.got.tgz:156630.got - 2010.06.28 00:19:55.
