data_PCOD8101160
_publ_section_title
;
Structure prediction by ZEFSAII (Michael W. Deem and Ramdas Pophale) SiO2 
 PCOD8101160
Probable space group: C 2/M
;
_chemical_formula_sum "Si O2"
_cell_formula_units_Z 56
_cell_length_a 18.727525
_cell_length_b 8.779534
_cell_length_c 26.172205
_cell_angle_alpha 90.000000
_cell_angle_beta 140.210968
_cell_angle_gamma 90.000000
_cell_volume 2753.891145
_symmetry_space_group_name_H-M "C 2/M"
_symmetry_group_IT_number 12
_symmetry_cell_setting 'monoclinic'
loop_
_space_group_symop_operation_xyz
x,y,z
-x,y,-z
-x,-y,-z
x,-y,z
1/2+x,1/2+y,z
1/2-x,1/2+y,-z
1/2-x,1/2-y,-z
1/2+x,1/2-y,z
loop_
_atom_site_type_symbol
_atom_site_label
_atom_site_fract_x
_atom_site_fract_y
_atom_site_fract_z
Si Si1 0.138414 0.820444 0.916987
Si Si2 0.413368 0.178558 0.818862
Si Si3 0.301340 0.327178 0.479561
Si Si4 0.703854 0.178300 0.743508
Si Si5 0.652609 0.674926 0.320659
Si Si6 0.459776 0.326734 0.422994
Si Si7 0.585578 0.673141 0.772448
O O1 0.129005 0.776573 0.852159
O O2 0.034649 0.754549 0.892260
O O3 0.138298 0.000000 0.924241
O O4 0.250000 0.750000 0.000000
O O5 0.325577 0.242756 0.812182
O O6 0.365187 0.217173 0.737029
O O7 0.426486 0.000000 0.833737
O O8 0.257816 0.500000 0.451446
O O9 0.250000 0.250000 0.500000
O O10 0.263815 0.233023 0.409207
O O11 0.434834 0.322149 0.557223
O O12 0.638034 0.228202 0.655996
O O13 0.637521 0.219143 0.758270
O O14 0.721517 0.000000 0.750794
O O15 0.665848 0.500000 0.309624
O O16 0.548471 0.689064 0.302338
O O17 0.500000 0.261916 0.500000
O O18 0.415889 0.500000 0.405616
O O19 0.621011 0.500000 0.779662
#
# Coordination Sequence:
#
# PCOD8101160 Si02
#       7
#     8   8   8   8   8   8   8
#     4  10  21  40  66  95 124 152 187 230 278 336
#     4  11  22  38  61  85 114 152 189 228 280 341
#     4  11  22  34  51  76 107 145 189 239 293 344
#     4  12  24  37  57  85 116 150 194 245 289 338
#     4  10  20  36  57  81 110 144 190 243 290 343
#     4  10  22  39  56  75 105 149 196 241 292 346
#     4   9  20  38  59  84 117 155 189 229 284 342
#
# _framework density 20.334862000000001
#
# number of rings (size 3 to 8) (size 9 to 14) (size 15 to 20)
#    0.000    1.571    0.000    6.429    0.000    9.429 
#    0.000    0.714    0.000    4.286    0.000    0.000 
#    0.000    0.000    0.000    0.000    0.000    0.000 
#
# Total GULP energy -347282.424967 kJ/mol
# GULP energy per Si atom -12402.943749 kJ/mol
# Density = 2.028858 g / cm^3
# Si number density = 20.334862 Si / 1000 Ang^3
#
#
#
# Elastic Constant Matrix: (Units=GPa)
#
#
# Indices 1 2 3 4 5 6 
#
# 1 77.8838 35.9923 9.2285 0.0000 13.4284 0.0000
# 2 35.9923 125.4336 36.6670 0.0000 9.5153 0.0001
# 3 9.2285 36.6670 82.5201 0.0000 18.5229 0.0000
# 4 0.0000 0.0000 0.0000 34.0767 0.0000 2.7673
# 5 13.4284 9.5153 18.5229 0.0000 27.0178 0.0000
# 6 0.0000 0.0001 0.0000 2.7673 0.0000 32.7200
#
#
#
# Elastic Compliance Matrix: (Units=1/GPa)
#
#
# Indices 1 2 3 4 5 6 
#
# 1 0.016063 -0.004603 0.001982 0.000000 -0.007722 0.000000
# 2 -0.004603 0.010487 -0.004526 0.000000 0.001697 0.000000
# 3 0.001982 -0.004526 0.016276 0.000000 -0.010549 0.000000
# 4 0.000000 0.000000 0.000000 0.029549 0.000000 -0.002499
# 5 -0.007722 0.001697 -0.010549 0.000000 0.047485 0.000000
# 6 0.000000 0.000000 0.000000 -0.002499 0.000000 0.030774
#
#
# Mechanical properties :
#
#
# Convention : Reuss Voigt Hill
#
# Bulk Modulus (GPa) = 35.04795 49.95702 42.50248
# Shear Modulus (GPa) = 28.66337 32.35955 30.51146
#
# Velocity S-wave (km/s) = 3.75849 3.99348 3.87777
# Velocity P-wave (km/s) = 6.00898 6.77380 6.40282
#
# Compressibility (1/GPa) = 0.02853234
#
# Stress axis : x y z
#
# Youngs Moduli (GPa) = 62.25404 95.35187 61.44107
#
# Poissons Ratio (x) = 0.43889 -0.12178
# Poissons Ratio (y) = 0.28655 0.27810
# Poissons Ratio (z) = -0.12339 0.43158
#
# Static dielectric constant tensor:
#      x y z
#    x 3.770430 0.000000 0.240500 
#    y 0.000000 3.686970 0.000000 
#    z 0.240500 0.000000 3.616740 
# 
# 
# High freq. dielectric constant tensor:
#      x y z
#    x 1.803510 0.000000 0.014490 
#    y 0.000000 1.799080 0.000000 
#    z 0.014490 0.000000 1.778150 
# 
# From -- ./inp_files/363172.got.cif
#   From: 2010.06.25/outbox.cif.g09.slc.cpg/sg12_182_cif.got.tgz:363172.got - 2010.06.28 00:19:55.
