data_PCOD8101867
_publ_section_title
;
Structure prediction by ZEFSAII (Michael W. Deem and Ramdas Pophale) SiO2 
 PCOD8101867
Probable space group: C 2/M
;
_chemical_formula_sum "Si O2"
_cell_formula_units_Z 56
_cell_length_a 23.142818
_cell_length_b 8.942139
_cell_length_c 15.006126
_cell_angle_alpha 90.000000
_cell_angle_beta 64.145687
_cell_angle_gamma 90.000000
_cell_volume 2794.623412
_symmetry_space_group_name_H-M "C 2/M"
_symmetry_group_IT_number 12
_symmetry_cell_setting 'monoclinic'
loop_
_space_group_symop_operation_xyz
x,y,z
-x,y,-z
-x,-y,-z
x,-y,z
1/2+x,1/2+y,z
1/2-x,1/2+y,-z
1/2-x,1/2-y,-z
1/2+x,1/2-y,z
loop_
_atom_site_type_symbol
_atom_site_label
_atom_site_fract_x
_atom_site_fract_y
_atom_site_fract_z
Si Si1 0.242821 0.669858 0.631029
Si Si2 0.183939 0.674762 0.020827
Si Si3 0.442122 0.824328 0.793159
Si Si4 0.014561 0.823145 0.590798
Si Si5 0.848397 0.672521 0.153482
Si Si6 0.526669 0.673470 0.884613
Si Si7 0.851050 0.673949 0.464425
O O1 0.264535 0.500000 0.597350
O O2 0.218468 0.689761 0.748307
O O3 0.184602 0.712881 0.603864
O O4 0.304587 0.775003 0.576345
O O5 0.196223 0.500000 0.006544
O O6 0.130866 0.715492 0.130605
O O7 0.250000 0.750000 0.000000
O O8 0.160790 0.733422 0.940181
O O9 0.457827 0.742054 0.690299
O O10 0.488724 0.771294 0.839619
O O11 0.451823 0.000000 0.773753
O O12 0.082568 0.762215 0.578371
O O13 0.000000 0.771769 0.500000
O O14 0.014976 0.000000 0.599663
O O15 0.871720 0.500000 0.138696
O O16 0.899781 0.775961 0.168345
O O17 0.520625 0.500000 0.863070
O O18 0.500000 0.708848 0.000000
O O19 0.866599 0.500000 0.464090
#
# Coordination Sequence:
#
# PCOD8101867 Si02
#       7
#     8   8   8   8   8   8   8
#     4   9  19  35  58  86 117 153 193 240 299 358
#     4  10  23  40  59  83 115 156 198 244 295 351
#     4  11  23  41  64  90 121 158 200 248 303 359
#     4  11  25  43  63  87 118 158 203 251 303 357
#     4  10  20  37  59  85 117 157 202 245 296 357
#     4  11  22  35  58  92 125 158 197 246 299 352
#     4  10  20  36  59  88 119 153 194 244 300 355
#
# _framework density 20.038478999999999
#
# number of rings (size 3 to 8) (size 9 to 14) (size 15 to 20)
#    0.000    1.714    1.429    2.571    0.000    6.857 
#    0.000    4.286    0.000    0.000    0.000    0.000 
#    0.000    0.000    0.000    0.000    0.000    0.000 
#
# Total GULP energy -347323.237054 kJ/mol
# GULP energy per Si atom -12404.401323 kJ/mol
# Density = 1.999287 g / cm^3
# Si number density = 20.038479 Si / 1000 Ang^3
#
#
#
# Elastic Constant Matrix: (Units=GPa)
#
#
# Indices 1 2 3 4 5 6 
#
# 1 96.4078 40.2631 43.5421 0.0000 -12.2624 0.0000
# 2 40.2631 67.6932 51.9970 0.0000 -4.7591 0.0000
# 3 43.5421 51.9970 131.2974 0.0000 -7.9301 0.0000
# 4 0.0000 0.0000 0.0000 35.0910 0.0000 -4.3917
# 5 -12.2624 -4.7591 -7.9301 0.0000 26.1075 0.0000
# 6 0.0000 0.0000 0.0000 -4.3917 0.0000 36.0061
#
#
#
# Elastic Compliance Matrix: (Units=1/GPa)
#
#
# Indices 1 2 3 4 5 6 
#
# 1 0.014780 -0.007047 -0.001802 0.000000 0.005110 0.000000
# 2 -0.007047 0.024638 -0.007486 0.000000 -0.001093 0.000000
# 3 -0.001802 -0.007486 0.011251 0.000000 0.001207 0.000000
# 4 0.000000 0.000000 0.000000 0.028939 0.000000 0.003530
# 5 0.005110 -0.001093 0.001207 0.000000 0.040870 0.000000
# 6 0.000000 0.000000 0.000000 0.003530 0.000000 0.028204
#
#
# Mechanical properties :
#
#
# Convention : Reuss Voigt Hill
#
# Bulk Modulus (GPa) = 55.56132 63.00031 59.28082
# Shear Modulus (GPa) = 26.68783 30.08067 28.38425
#
# Velocity S-wave (km/s) = 3.65338 3.87867 3.76771
# Velocity P-wave (km/s) = 6.75158 7.18099 6.96959
#
# Compressibility (1/GPa) = 0.01799813
#
# Stress axis : x y z
#
# Youngs Moduli (GPa) = 67.66109 40.58837 88.87860
#
# Poissons Ratio (x) = 0.28605 0.16014
# Poissons Ratio (y) = 0.47684 0.66534
# Poissons Ratio (z) = 0.12191 0.30384
#
# Static dielectric constant tensor:
#      x y z
#    x 3.446550 0.000000 -0.034410 
#    y 0.000000 3.695330 0.000000 
#    z -0.034410 0.000000 4.009140 
# 
# 
# High freq. dielectric constant tensor:
#      x y z
#    x 1.770580 0.000000 -0.007370 
#    y 0.000000 1.783480 0.000000 
#    z -0.007370 0.000000 1.796300 
# 
# From -- ./inp_files/238279.got.cif
#   From: 2010.06.25/outbox.cif.g09.slc.cpg/sg12_120_cif.got.tgz:238279.got - 2010.06.28 00:19:55.
