data_PCOD8101718
_publ_section_title
;
Structure prediction by ZEFSAII (Michael W. Deem and Ramdas Pophale) SiO2 
 PCOD8101718
Probable space group: C 2/M
;
_chemical_formula_sum "Si O2"
_cell_formula_units_Z 64
_cell_length_a 25.916267
_cell_length_b 8.993127
_cell_length_c 14.118902
_cell_angle_alpha 90.000000
_cell_angle_beta 93.505889
_cell_angle_gamma 90.000000
_cell_volume 3284.509787
_symmetry_space_group_name_H-M "C 2/M"
_symmetry_group_IT_number 12
_symmetry_cell_setting 'monoclinic'
loop_
_space_group_symop_operation_xyz
x,y,z
-x,y,-z
-x,-y,-z
x,-y,z
1/2+x,1/2+y,z
1/2-x,1/2+y,-z
1/2-x,1/2-y,-z
1/2+x,1/2-y,z
loop_
_atom_site_type_symbol
_atom_site_label
_atom_site_fract_x
_atom_site_fract_y
_atom_site_fract_z
Si Si1 0.230865 0.824848 0.902951
Si Si2 0.452420 0.676940 0.727197
Si Si3 0.245151 0.175185 0.282246
Si Si4 0.612642 0.671688 0.894216
Si Si5 0.148091 0.175227 0.396921
Si Si6 0.048643 0.173098 0.060965
Si Si7 0.942450 0.324551 0.278564
Si Si8 0.151405 0.325184 0.599172
O O1 0.262101 0.759404 0.817884
O O2 0.171129 0.781922 0.881875
O O3 0.239400 0.000000 0.911330
O O4 0.250000 0.750000 0.000000
O O5 0.457361 0.500000 0.725173
O O6 0.403431 0.731411 0.661381
O O7 0.444678 0.740492 0.833282
O O8 0.503598 0.748177 0.686812
O O9 0.197760 0.225207 0.342451
O O10 0.298225 0.226989 0.337382
O O11 0.244652 0.000000 0.261881
O O12 0.602234 0.500000 0.867174
O O13 0.574711 0.770541 0.826866
O O14 0.599838 0.701121 0.003644
O O15 0.151475 0.247674 0.498955
O O16 0.147515 0.000000 0.410192
O O17 0.037501 0.000000 0.073953
O O18 0.000000 0.245287 0.000000
O O19 0.949701 0.500000 0.277664
O O20 0.899544 0.275010 0.349872
O O21 0.152847 0.500000 0.583070
#
# Coordination Sequence:
#
# PCOD8101718 Si02
#       8
#     8   8   8   8   8   8   8   8
#     4  11  24  38  59  90 124 162 197 239 294 350
#     4  10  21  38  58  85 118 153 197 245 290 347
#     4  10  21  41  64  88 120 156 197 248 299 354
#     4  10  20  36  59  85 112 154 201 241 283 343
#     4  10  23  39  62  89 115 153 200 252 300 349
#     4   9  16  30  56  82 107 144 189 232 277 333
#     4  11  22  37  59  87 119 156 192 240 301 354
#     4  10  22  40  62  85 116 154 193 247 309 362
#
# _framework density 19.485403000000002
#
# number of rings (size 3 to 8) (size 9 to 14) (size 15 to 20)
#    0.000    1.875    2.500    1.125    1.750    3.500 
#    0.000    3.750    0.000    0.000    0.000    0.000 
#    0.000    0.000    0.000    0.000    0.000    0.000 
#
# Total GULP energy -396879.973362 kJ/mol
# GULP energy per Si atom -12402.499168 kJ/mol
# Density = 1.944105 g / cm^3
# Si number density = 19.485403 Si / 1000 Ang^3
#
#
#
# Elastic Constant Matrix: (Units=GPa)
#
#
# Indices 1 2 3 4 5 6 
#
# 1 133.6623 42.2990 69.6807 0.0000 -11.0962 0.0000
# 2 42.2990 41.8645 42.2770 0.0000 1.0088 0.0000
# 3 69.6807 42.2770 150.4854 0.0000 -1.7971 0.0000
# 4 0.0000 0.0000 0.0000 35.1219 0.0000 -0.2815
# 5 -11.0962 1.0088 -1.7971 0.0000 31.2033 0.0000
# 6 0.0000 0.0000 0.0000 -0.2815 0.0000 28.4655
#
#
#
# Elastic Compliance Matrix: (Units=1/GPa)
#
#
# Indices 1 2 3 4 5 6 
#
# 1 0.012501 -0.009704 -0.003007 0.000000 0.004586 0.000000
# 2 -0.009704 0.040962 -0.007076 0.000000 -0.005183 0.000000
# 3 -0.003007 -0.007076 0.010023 0.000000 -0.000263 0.000000
# 4 0.000000 0.000000 0.000000 0.028474 0.000000 0.000282
# 5 0.004586 -0.005183 -0.000263 0.000000 0.033831 0.000000
# 6 0.000000 0.000000 0.000000 0.000282 0.000000 0.035133
#
#
# Mechanical properties :
#
#
# Convention : Reuss Voigt Hill
#
# Bulk Modulus (GPa) = 41.82336 70.50284 56.16310
# Shear Modulus (GPa) = 23.98415 30.40853 27.19634
#
# Velocity S-wave (km/s) = 3.51219 3.95470 3.74000
# Velocity P-wave (km/s) = 6.16100 7.55737 6.89463
#
# Compressibility (1/GPa) = 0.02391008
#
# Stress axis : x y z
#
# Youngs Moduli (GPa) = 79.99267 24.41258 99.77463
#
# Poissons Ratio (x) = 0.23691 0.30007
# Poissons Ratio (y) = 0.77627 0.70604
# Poissons Ratio (z) = 0.24057 0.17275
#
# Static dielectric constant tensor:
#      x y z
#    x 3.832080 0.000000 -0.031630 
#    y 0.000000 3.393020 0.000000 
#    z -0.031630 0.000000 3.609180 
# 
# 
# High freq. dielectric constant tensor:
#      x y z
#    x 1.770290 0.000000 -0.007270 
#    y 0.000000 1.735620 0.000000 
#    z -0.007270 0.000000 1.765870 
# 
# From -- ./inp_files/238708.got.cif
#   From: 2010.06.25/outbox.cif.g09.slc.cpg/sg12_120_cif.got.tgz:238708.got - 2010.06.28 00:19:55.
