data_PCOD8101440
_publ_section_title
;
Structure prediction by ZEFSAII (Michael W. Deem and Ramdas Pophale) SiO2 
 PCOD8101440
Probable space group: C 2/M
;
_chemical_formula_sum "Si O2"
_cell_formula_units_Z 40
_cell_length_a 25.386906
_cell_length_b 12.502982
_cell_length_c 20.813709
_cell_angle_alpha 90.000000
_cell_angle_beta 17.445238
_cell_angle_gamma 90.000000
_cell_volume 1980.596338
_symmetry_space_group_name_H-M "C 2/M"
_symmetry_group_IT_number 12
_symmetry_cell_setting 'monoclinic'
loop_
_space_group_symop_operation_xyz
x,y,z
-x,y,-z
-x,-y,-z
x,-y,z
1/2+x,1/2+y,z
1/2-x,1/2+y,-z
1/2-x,1/2-y,-z
1/2+x,1/2-y,z
loop_
_atom_site_type_symbol
_atom_site_label
_atom_site_fract_x
_atom_site_fract_y
_atom_site_fract_z
Si Si1 0.929288 0.217400 0.259196
Si Si2 0.834344 0.876989 0.236486
Si Si3 0.988855 0.708466 0.585410
Si Si4 0.224631 0.626448 0.922683
Si Si5 0.776599 0.878432 0.005082
O O1 0.750000 0.250000 0.500000
O O2 0.888674 0.143139 0.246078
O O3 0.048019 0.319909 0.098866
O O4 0.029705 0.148274 0.195653
O O5 0.681048 0.795308 0.393537
O O6 0.771331 0.000000 0.302254
O O7 0.000000 0.852052 0.000000
O O8 0.903409 0.828199 0.681706
O O9 0.861931 0.636248 0.776434
O O10 0.000000 0.662415 0.500000
O O11 0.215421 0.500000 0.924238
O O12 0.228873 0.675361 0.991176
O O13 0.774568 0.000000 0.985646
#
# Coordination Sequence:
#
# PCOD8101440 Si02
#       5
#     8   8   8   8   8
#     4  11  21  35  56  85 119 148 184 233 284 336
#     4  11  23  38  58  87 119 147 180 232 296 348
#     4  11  22  38  60  83 113 150 191 234 278 336
#     4  10  22  40  60  82 113 155 198 233 270 327
#     4  10  20  36  58  83 111 147 189 232 282 337
#
# _framework density 20.195937000000001
#
# number of rings (size 3 to 8) (size 9 to 14) (size 15 to 20)
#    0.000    1.400    0.000    8.400    0.000    6.800 
#    0.000    1.000    0.000    2.400    0.000    0.000 
#    0.000    0.000    0.000    0.000    0.000    0.000 
#
# Total GULP energy -247958.796923 kJ/mol
# GULP energy per Si atom -12397.939846 kJ/mol
# Density = 2.014997 g / cm^3
# Si number density = 20.195937 Si / 1000 Ang^3
#
#
#
# Elastic Constant Matrix: (Units=GPa)
#
#
# Indices 1 2 3 4 5 6 
#
# 1 98.1400 1.1784 42.7790 -0.0007 1.4202 -0.0001
# 2 1.1784 60.0793 43.1854 -0.0035 -7.0559 0.0035
# 3 42.7790 43.1854 151.7728 -0.0072 -4.9273 0.0083
# 4 -0.0007 -0.0035 -0.0072 24.5088 0.0058 1.0019
# 5 1.4202 -7.0559 -4.9273 0.0058 37.9782 -0.0023
# 6 -0.0001 0.0035 0.0083 1.0019 -0.0023 20.6398
#
#
#
# Elastic Compliance Matrix: (Units=1/GPa)
#
#
# Indices 1 2 3 4 5 6 
#
# 1 0.011977 0.002698 -0.004159 0.000000 -0.000486 0.000001
# 2 0.002698 0.021909 -0.006894 0.000000 0.003075 -0.000001
# 3 -0.004159 -0.006894 0.009727 0.000002 0.000137 -0.000003
# 4 0.000000 0.000000 0.000002 0.040883 -0.000006 -0.001985
# 5 -0.000486 0.003075 0.000137 -0.000006 0.026938 0.000003
# 6 0.000001 -0.000001 -0.000003 -0.001985 0.000003 0.048546
#
#
# Mechanical properties :
#
#
# Convention : Reuss Voigt Hill
#
# Bulk Modulus (GPa) = 37.17321 53.80864 45.49092
# Shear Modulus (GPa) = 26.93101 31.48198 29.20649
#
# Velocity S-wave (km/s) = 3.65566 3.95248 3.80696
# Velocity P-wave (km/s) = 6.02201 6.89425 6.47284
#
# Compressibility (1/GPa) = 0.02690110
#
# Stress axis : x y z
#
# Youngs Moduli (GPa) = 83.49196 45.64403 102.80312
#
# Poissons Ratio (x) = -0.12313 0.42759
# Poissons Ratio (y) = -0.22524 0.70877
# Poissons Ratio (z) = 0.34727 0.31469
#
# Static dielectric constant tensor:
#      x y z
#    x 3.633110 0.000010 -0.089330 
#    y 0.000010 3.764870 0.000000 
#    z -0.089330 0.000000 3.762890 
# 
# 
# High freq. dielectric constant tensor:
#      x y z
#    x 1.794520 0.000000 -0.001240 
#    y 0.000000 1.788260 0.000000 
#    z -0.001240 0.000000 1.794750 
# 
# From -- ./inp_files/85507.got.cif
#   From: 2010.06.25/outbox.cif.g09.slc.cpg/sg12_43_cif.got.tgz:85507.got - 2010.06.28 00:19:55.
