data_PCOD8101099
_publ_section_title
;
Structure prediction by ZEFSAII (Michael W. Deem and Ramdas Pophale) SiO2 
 PCOD8101099
Probable space group: C 2/M
;
_chemical_formula_sum "Si O2"
_cell_formula_units_Z 56
_cell_length_a 18.189381
_cell_length_b 8.912004
_cell_length_c 18.711347
_cell_angle_alpha 90.000000
_cell_angle_beta 104.708920
_cell_angle_gamma 90.000000
_cell_volume 2933.778431
_symmetry_space_group_name_H-M "C 2/M"
_symmetry_group_IT_number 12
_symmetry_cell_setting 'monoclinic'
loop_
_space_group_symop_operation_xyz
x,y,z
-x,y,-z
-x,-y,-z
x,-y,z
1/2+x,1/2+y,z
1/2-x,1/2+y,-z
1/2-x,1/2-y,-z
1/2+x,1/2-y,z
loop_
_atom_site_type_symbol
_atom_site_label
_atom_site_fract_x
_atom_site_fract_y
_atom_site_fract_z
Si Si1 0.411043 0.665138 0.491634
Si Si2 0.808709 0.177325 0.068217
Si Si3 0.262087 0.676743 0.215251
Si Si4 0.525001 0.677858 0.929585
Si Si5 0.458766 0.676023 0.652416
Si Si6 0.615934 0.176621 0.654671
Si Si7 0.105115 0.176368 0.210737
O O1 0.500000 0.654057 0.500000
O O2 0.373950 0.500000 0.472581
O O3 0.403459 0.720827 0.572185
O O4 0.373518 0.778890 0.426223
O O5 0.789390 0.226079 0.143728
O O6 0.892320 0.240887 0.070731
O O7 0.804531 0.000000 0.057661
O O8 0.750000 0.250000 0.000000
O O9 0.269755 0.500000 0.228452
O O10 0.312581 0.759596 0.285939
O O11 0.175830 0.726937 0.203041
O O12 0.528780 0.500000 0.934468
O O13 0.465482 0.728404 0.854918
O O14 0.500000 0.744807 0.000000
O O15 0.478768 0.500000 0.654441
O O16 0.538548 0.761735 0.669652
O O17 0.413995 0.718608 0.712627
O O18 0.615639 0.000000 0.660484
O O19 0.122578 0.000000 0.206094
#
# Coordination Sequence:
#
# PCOD8101099 Si02
#       7
#     8   8   8   8   8   8   8
#     4   8  15  30  52  77 106 140 177 221 277 332
#     4  10  21  37  58  83 110 142 178 219 269 322
#     4  11  23  38  54  76 111 149 183 223 274 325
#     4   9  17  31  54  81 107 137 173 214 262 315
#     4   9  18  34  56  80 108 143 180 224 280 333
#     4  11  21  33  54  82 109 141 184 228 269 322
#     4  10  20  36  57  79 106 142 186 229 268 321
#
# _framework density 19.088013
#
# number of rings (size 3 to 8) (size 9 to 14) (size 15 to 20)
#    0.000    2.286    0.000    4.286    0.000    7.714 
#    0.000    1.429    0.000    2.571    0.000    0.000 
#    0.000    0.000    0.000    0.000    0.000    0.000 
#
# Total GULP energy -347197.468721 kJ/mol
# GULP energy per Si atom -12399.909597 kJ/mol
# Density = 1.904457 g / cm^3
# Si number density = 19.088013 Si / 1000 Ang^3
#
#
#
# Elastic Constant Matrix: (Units=GPa)
#
#
# Indices 1 2 3 4 5 6 
#
# 1 131.6649 40.3582 81.7296 0.0000 -3.4214 0.0000
# 2 40.3582 64.3785 46.3458 0.0000 3.2988 0.0000
# 3 81.7296 46.3458 170.5723 0.0000 -8.3582 0.0000
# 4 0.0000 0.0000 0.0000 24.4015 0.0000 4.2799
# 5 -3.4214 3.2988 -8.3582 0.0000 34.6463 0.0000
# 6 0.0000 0.0000 0.0000 4.2799 0.0000 29.1265
#
#
#
# Elastic Compliance Matrix: (Units=1/GPa)
#
#
# Indices 1 2 3 4 5 6 
#
# 1 0.011616 -0.004123 -0.004423 0.000000 0.000473 0.000000
# 2 -0.004123 0.021117 -0.003927 0.000000 -0.003365 0.000000
# 3 -0.004423 -0.003927 0.009154 0.000000 0.002146 0.000000
# 4 0.000000 0.000000 0.000000 0.042065 0.000000 -0.006181
# 5 0.000473 -0.003365 0.002146 0.000000 0.029748 0.000000
# 6 0.000000 0.000000 0.000000 -0.006181 0.000000 0.035241
#
#
# Mechanical properties :
#
#
# Convention : Reuss Voigt Hill
#
# Bulk Modulus (GPa) = 59.02324 78.16478 68.59401
# Shear Modulus (GPa) = 27.84987 30.84701 29.34844
#
# Velocity S-wave (km/s) = 3.82386 4.02436 3.92539
# Velocity P-wave (km/s) = 7.10525 7.91407 7.52054
#
# Compressibility (1/GPa) = 0.01694248
#
# Stress axis : x y z
#
# Youngs Moduli (GPa) = 86.08612 47.35480 109.24259
#
# Poissons Ratio (x) = 0.19522 0.48314
# Poissons Ratio (y) = 0.35489 0.42903
# Poissons Ratio (z) = 0.38073 0.18598
#
# Static dielectric constant tensor:
#      x y z
#    x 3.459230 0.000000 -0.234460 
#    y 0.000000 3.273680 0.000000 
#    z -0.234460 0.000000 4.076760 
# 
# 
# High freq. dielectric constant tensor:
#      x y z
#    x 1.729930 0.000000 -0.004280 
#    y 0.000000 1.719590 0.000000 
#    z -0.004280 0.000000 1.765070 
# 
# From -- ./inp_files/275496.got.cif
#   From: 2010.06.25/outbox.cif.g09.slc.cpg/sg12_138_cif.got.tgz:275496.got - 2010.06.28 00:19:55.
