data_PCOD8101709
_publ_section_title
;
Structure prediction by ZEFSAII (Michael W. Deem and Ramdas Pophale) SiO2 
 PCOD8101709
Probable space group: C 2/M
;
_chemical_formula_sum "Si O2"
_cell_formula_units_Z 64
_cell_length_a 20.206628
_cell_length_b 9.114741
_cell_length_c 22.007112
_cell_angle_alpha 90.000000
_cell_angle_beta 123.687765
_cell_angle_gamma 90.000000
_cell_volume 3372.581440
_symmetry_space_group_name_H-M "C 2/M"
_symmetry_group_IT_number 12
_symmetry_cell_setting 'monoclinic'
loop_
_space_group_symop_operation_xyz
x,y,z
-x,y,-z
-x,-y,-z
x,-y,z
1/2+x,1/2+y,z
1/2-x,1/2+y,-z
1/2-x,1/2-y,-z
1/2+x,1/2-y,z
loop_
_atom_site_type_symbol
_atom_site_label
_atom_site_fract_x
_atom_site_fract_y
_atom_site_fract_z
Si Si1 0.686913 0.328958 0.592675
Si Si2 0.220416 0.828024 0.045168
Si Si3 0.596522 0.673887 0.428967
Si Si4 0.651105 0.674108 0.324620
Si Si5 0.418573 0.329607 0.346025
Si Si6 0.634735 0.170560 0.796137
Si Si7 0.058478 0.330369 0.974807
Si Si8 0.508417 0.828277 0.190248
O O1 0.709926 0.500000 0.600560
O O2 0.653173 0.267704 0.511564
O O3 0.763670 0.236731 0.650684
O O4 0.619077 0.300729 0.607694
O O5 0.281938 0.792430 0.130016
O O6 0.215619 0.000000 0.029323
O O7 0.250000 0.750000 0.000000
O O8 0.135651 0.768742 0.023204
O O9 0.592826 0.500000 0.431491
O O10 0.631243 0.728212 0.382651
O O11 0.507564 0.737369 0.391571
O O12 0.651623 0.500000 0.319852
O O13 0.586856 0.737053 0.245349
O O14 0.420995 0.500000 0.331002
O O15 0.365716 0.253234 0.267868
O O16 0.562839 0.224613 0.802450
O O17 0.625638 0.000000 0.778413
O O18 0.084980 0.500000 0.987724
O O19 0.014726 0.289420 0.890195
O O20 0.000000 0.294457 0.000000
O O21 0.526244 0.000000 0.207259
#
# Coordination Sequence:
#
# PCOD8101709 Si02
#       8
#     8   8   8   8   8   8   8   8
#     4  10  21  37  57  81 114 152 186 231 288 339
#     4  11  22  38  61  88 118 151 192 237 285 340
#     4   9  18  35  58  83 109 144 192 237 279 330
#     4  11  22  36  57  85 115 147 190 238 278 332
#     4  10  20  36  59  85 111 145 193 237 277 333
#     4  10  21  37  58  85 118 150 183 233 287 336
#     4  10  22  41  63  88 119 153 192 237 286 343
#     4  10  20  38  60  83 115 151 187 228 284 342
#
# _framework density 18.976562000000001
#
# number of rings (size 3 to 8) (size 9 to 14) (size 15 to 20)
#    0.000    1.875    2.500    1.500    0.000    4.750 
#    0.000    5.000    0.000    1.500    0.000    0.000 
#    0.000    0.000    0.000    0.000    0.000    0.000 
#
# Total GULP energy -396949.811351 kJ/mol
# GULP energy per Si atom -12404.681605 kJ/mol
# Density = 1.893337 g / cm^3
# Si number density = 18.976562 Si / 1000 Ang^3
#
#
#
# Elastic Constant Matrix: (Units=GPa)
#
#
# Indices 1 2 3 4 5 6 
#
# 1 72.7334 27.3760 36.0529 0.0000 15.6245 0.0000
# 2 27.3760 49.8896 42.4324 0.0000 13.5712 0.0000
# 3 36.0529 42.4324 118.1288 0.0000 13.4441 0.0000
# 4 0.0000 0.0000 0.0000 29.1828 0.0000 1.5598
# 5 15.6245 13.5712 13.4441 0.0000 34.2588 0.0000
# 6 0.0000 0.0000 0.0000 1.5598 0.0000 30.8369
#
#
#
# Elastic Compliance Matrix: (Units=1/GPa)
#
#
# Indices 1 2 3 4 5 6 
#
# 1 0.018626 -0.006541 -0.002788 0.000000 -0.004810 0.000000
# 2 -0.006541 0.033245 -0.009197 0.000000 -0.006577 0.000000
# 3 -0.002788 -0.009197 0.012624 0.000000 -0.000040 0.000000
# 4 0.000000 0.000000 0.000000 0.034360 0.000000 -0.001738
# 5 -0.004810 -0.006577 -0.000040 0.000000 0.034004 0.000000
# 6 0.000000 0.000000 0.000000 -0.001738 0.000000 0.032517
#
#
# Mechanical properties :
#
#
# Convention : Reuss Voigt Hill
#
# Bulk Modulus (GPa) = 36.43845 50.27493 43.35669
# Shear Modulus (GPa) = 23.63232 27.84839 25.74036
#
# Velocity S-wave (km/s) = 3.53277 3.83497 3.68697
# Velocity P-wave (km/s) = 5.99034 6.79412 6.40485
#
# Compressibility (1/GPa) = 0.02744354
#
# Stress axis : x y z
#
# Youngs Moduli (GPa) = 53.68867 30.07975 79.21346
#
# Poissons Ratio (x) = 0.19676 0.22081
# Poissons Ratio (y) = 0.35120 0.72851
# Poissons Ratio (z) = 0.14966 0.27664
#
# Static dielectric constant tensor:
#      x y z
#    x 3.460870 0.000000 0.004610 
#    y 0.000000 3.313420 0.000000 
#    z 0.004610 0.000000 3.540110 
# 
# 
# High freq. dielectric constant tensor:
#      x y z
#    x 1.741600 0.000000 0.002850 
#    y 0.000000 1.721040 0.000000 
#    z 0.002850 0.000000 1.750430 
# 
# From -- ./inp_files/346143.got.cif
#   From: 2010.06.25/outbox.cif.g09.slc.cpg/sg12_174_cif.got.tgz:346143.got - 2010.06.28 00:19:55.
