data_PCOD8101802
_publ_section_title
;
Structure prediction by ZEFSAII (Michael W. Deem and Ramdas Pophale) SiO2 
 PCOD8101802
Probable space group: C 2/M
;
_chemical_formula_sum "Si O2"
_cell_formula_units_Z 48
_cell_length_a 25.276316
_cell_length_b 13.932139
_cell_length_c 13.567437
_cell_angle_alpha 90.000000
_cell_angle_beta 148.488164
_cell_angle_gamma 90.000000
_cell_volume 2497.243311
_symmetry_space_group_name_H-M "C 2/M"
_symmetry_group_IT_number 12
_symmetry_cell_setting 'monoclinic'
loop_
_space_group_symop_operation_xyz
x,y,z
-x,y,-z
-x,-y,-z
x,-y,z
1/2+x,1/2+y,z
1/2-x,1/2+y,-z
1/2-x,1/2-y,-z
1/2+x,1/2-y,z
loop_
_atom_site_type_symbol
_atom_site_label
_atom_site_fract_x
_atom_site_fract_y
_atom_site_fract_z
Si Si1 0.536123 0.754609 0.277919
Si Si2 0.416176 0.270224 0.282758
Si Si3 0.725319 0.108110 0.001795
Si Si4 0.755131 0.761461 0.624826
Si Si5 0.631248 0.110764 0.065066
Si Si6 0.402528 0.602177 0.785943
O O1 0.467556 0.718144 0.258138
O O2 0.644795 0.791453 0.493005
O O3 0.569965 0.666089 0.264402
O O4 0.477712 0.836963 0.122938
O O5 0.500000 0.267944 0.500000
O O6 0.341917 0.360330 0.177918
O O7 0.349449 0.173078 0.183047
O O8 0.695293 0.115734 0.067570
O O9 0.714812 0.000000 0.945570
O O10 0.750000 0.750000 0.500000
O O11 0.802298 0.665432 0.747620
O O12 0.830944 0.850360 0.756448
O O13 0.612203 0.000000 0.066844
O O14 0.355891 0.500000 0.674780
O O15 0.500000 0.576837 0.000000
#
# Coordination Sequence:
#
# PCOD8101802 Si02
#       6
#     8   8   8   8   8   8
#     4  10  21  37  60  84 114 149 193 233 282 338
#     4  10  20  36  59  86 118 151 187 235 284 333
#     4   9  20  37  58  85 116 151 191 231 279 338
#     4  10  21  35  55  81 112 144 185 235 284 333
#     4  10  20  38  60  82 114 153 191 234 280 335
#     4  10  20  37  57  78 110 147 184 230 285 336
#
# _framework density 19.221194000000001
#
# number of rings (size 3 to 8) (size 9 to 14) (size 15 to 20)
#    0.000    2.167    1.667    1.000    0.000    4.667 
#    0.000    5.833    0.000    0.000    0.000    0.000 
#    0.000    0.000    0.000    0.000    0.000    0.000 
#
# Total GULP energy -297394.268398 kJ/mol
# GULP energy per Si atom -12391.427850 kJ/mol
# Density = 1.917745 g / cm^3
# Si number density = 19.221194 Si / 1000 Ang^3
#
#
#
# Elastic Constant Matrix: (Units=GPa)
#
#
# Indices 1 2 3 4 5 6 
#
# 1 59.8686 46.6418 31.8854 0.0000 17.9948 0.0000
# 2 46.6418 137.4878 48.9428 0.0000 21.7392 0.0000
# 3 31.8854 48.9428 116.8317 0.0000 21.7927 0.0000
# 4 0.0000 0.0000 0.0000 15.0235 0.0000 -0.6605
# 5 17.9948 21.7392 21.7927 0.0000 31.6189 0.0000
# 6 0.0000 0.0000 0.0000 -0.6605 0.0000 32.3847
#
#
#
# Elastic Compliance Matrix: (Units=1/GPa)
#
#
# Indices 1 2 3 4 5 6 
#
# 1 0.025664 -0.006409 -0.002774 0.000000 -0.008288 0.000000
# 2 -0.006409 0.010592 -0.002307 0.000000 -0.002045 0.000000
# 3 -0.002774 -0.002307 0.011122 0.000000 -0.004501 0.000000
# 4 0.000000 0.000000 0.000000 0.066622 0.000000 0.001359
# 5 -0.008288 -0.002045 -0.004501 0.000000 0.040852 0.000000
# 6 0.000000 0.000000 0.000000 0.001359 0.000000 0.030907
#
#
# Mechanical properties :
#
#
# Convention : Reuss Voigt Hill
#
# Bulk Modulus (GPa) = 40.98203 63.23646 52.10924
# Shear Modulus (GPa) = 23.05521 28.25329 25.65425
#
# Velocity S-wave (km/s) = 3.46709 3.83809 3.65730
# Velocity P-wave (km/s) = 6.11516 7.25341 6.70847
#
# Compressibility (1/GPa) = 0.02440094
#
# Stress axis : x y z
#
# Youngs Moduli (GPa) = 38.96452 94.41115 89.91020
#
# Poissons Ratio (x) = 0.60505 0.24937
# Poissons Ratio (y) = 0.24971 0.20739
# Poissons Ratio (z) = 0.10807 0.21777
#
# Static dielectric constant tensor:
#      x y z
#    x 4.100500 0.000000 1.336140 
#    y 0.000000 5.368170 0.000000 
#    z 1.336140 0.000000 5.665890 
# 
# 
# High freq. dielectric constant tensor:
#      x y z
#    x 1.742800 0.000000 0.015250 
#    y 0.000000 1.744950 0.000000 
#    z 0.015250 0.000000 1.758620 
# 
# From -- ./inp_files/142756.got.cif
#   From: 2010.06.25/outbox.cif.g09.slc.cpg/sg12_72_cif.got.tgz:142756.got - 2010.06.28 00:19:55.
