data_PCOD8101098
_publ_section_title
;
Structure prediction by ZEFSAII (Michael W. Deem and Ramdas Pophale) SiO2 
 PCOD8101098
Probable space group: C 2/M
;
_chemical_formula_sum "Si O2"
_cell_formula_units_Z 64
_cell_length_a 14.638207
_cell_length_b 8.801076
_cell_length_c 29.874400
_cell_angle_alpha 90.000000
_cell_angle_beta 59.167192
_cell_angle_gamma 90.000000
_cell_volume 3304.816843
_symmetry_space_group_name_H-M "C 2/M"
_symmetry_group_IT_number 12
_symmetry_cell_setting 'monoclinic'
loop_
_space_group_symop_operation_xyz
x,y,z
-x,y,-z
-x,-y,-z
x,-y,z
1/2+x,1/2+y,z
1/2-x,1/2+y,-z
1/2-x,1/2-y,-z
1/2+x,1/2-y,z
loop_
_atom_site_type_symbol
_atom_site_label
_atom_site_fract_x
_atom_site_fract_y
_atom_site_fract_z
Si Si1 0.165434 0.178218 0.576661
Si Si2 0.401657 0.179627 0.494927
Si Si3 0.517865 0.180707 0.860487
Si Si4 0.420200 0.819818 0.057778
Si Si5 0.637269 0.822932 0.238564
Si Si6 0.297501 0.822681 0.877050
Si Si7 0.693682 0.820768 0.746157
Si Si8 0.914030 0.821159 0.305996
O O1 0.288813 0.231924 0.544423
O O2 0.093224 0.256773 0.556824
O O3 0.117518 0.226405 0.636115
O O4 0.159067 0.000000 0.570158
O O5 0.500000 0.244465 0.500000
O O6 0.410944 0.000000 0.489996
O O7 0.543204 0.245487 0.903338
O O8 0.402632 0.241950 0.874815
O O9 0.605263 0.239440 0.803355
O O10 0.519443 0.000000 0.859918
O O11 0.302194 0.762796 0.076280
O O12 0.420008 0.000000 0.058171
O O13 0.500000 0.756694 0.000000
O O14 0.696040 0.787952 0.177242
O O15 0.691020 0.723024 0.263773
O O16 0.515876 0.773170 0.264771
O O17 0.643263 0.000000 0.249063
O O18 0.285019 0.000000 0.889557
O O19 0.680563 0.730932 0.703014
O O20 0.686850 0.000000 0.739504
O O21 0.934647 0.000000 0.296703
#
# Coordination Sequence:
#
# PCOD8101098 Si02
#       8
#     8   8   8   8   8   8   8   8
#     4   9  20  37  55  82 118 150 187 236 284 335
#     4   9  18  35  60  85 111 150 194 233 283 338
#     4   9  18  35  56  78 108 143 179 225 280 339
#     4  10  21  37  57  82 111 144 183 230 285 344
#     4  11  22  37  57  84 112 148 196 240 287 346
#     4  10  20  36  57  79 106 142 183 230 282 336
#     4  11  21  37  59  83 113 152 191 235 291 346
#     4  11  23  38  56  84 122 157 193 241 288 339
#
# _framework density 19.365673000000001
#
# number of rings (size 3 to 8) (size 9 to 14) (size 15 to 20)
#    0.000    2.000    2.500    1.125    0.000    3.500 
#    0.000    1.875    0.000    0.000    0.000    0.000 
#    0.000    0.000    0.000    0.000    0.000    0.000 
#
# Total GULP energy -396890.844282 kJ/mol
# GULP energy per Si atom -12402.838884 kJ/mol
# Density = 1.932160 g / cm^3
# Si number density = 19.365673 Si / 1000 Ang^3
#
#
#
# Elastic Constant Matrix: (Units=GPa)
#
#
# Indices 1 2 3 4 5 6 
#
# 1 109.2836 18.0408 11.3970 0.0000 9.9215 0.0000
# 2 18.0408 30.5304 31.8760 0.0000 4.1146 0.0000
# 3 11.3970 31.8760 68.3740 0.0000 12.1911 0.0000
# 4 0.0000 0.0000 0.0000 24.1720 0.0000 -1.2913
# 5 9.9215 4.1146 12.1911 0.0000 29.2726 0.0000
# 6 0.0000 0.0000 0.0000 -1.2913 0.0000 32.3707
#
#
#
# Elastic Compliance Matrix: (Units=1/GPa)
#
#
# Indices 1 2 3 4 5 6 
#
# 1 0.010646 -0.009010 0.003071 0.000000 -0.003621 0.000000
# 2 -0.009010 0.071814 -0.033187 0.000000 0.006781 0.000000
# 3 0.003071 -0.033187 0.031260 0.000000 -0.009395 0.000000
# 4 0.000000 0.000000 0.000000 0.041459 0.000000 0.001654
# 5 -0.003621 0.006781 -0.009395 0.000000 0.038349 0.000000
# 6 0.000000 0.000000 0.000000 0.001654 0.000000 0.030958
#
#
# Mechanical properties :
#
#
# Convention : Reuss Voigt Hill
#
# Bulk Modulus (GPa) = 28.19280 36.75732 32.47506
# Shear Modulus (GPa) = 15.89522 26.95468 21.42495
#
# Velocity S-wave (km/s) = 2.86806 3.73484 3.32977
# Velocity P-wave (km/s) = 5.05543 6.13356 5.62041
#
# Compressibility (1/GPa) = 0.03547004
#
# Stress axis : x y z
#
# Youngs Moduli (GPa) = 93.92932 13.92486 31.98933
#
# Poissons Ratio (x) = 0.12546 -0.09825
# Poissons Ratio (y) = 0.84629 1.06163
# Poissons Ratio (z) = -0.28850 0.46212
#
# Static dielectric constant tensor:
#      x y z
#    x 3.686020 0.000000 0.041540 
#    y 0.000000 3.259640 0.000000 
#    z 0.041540 0.000000 3.551410 
# 
# 
# High freq. dielectric constant tensor:
#      x y z
#    x 1.766440 0.000000 0.002390 
#    y 0.000000 1.736390 0.000000 
#    z 0.002390 0.000000 1.747570 
# 
# From -- ./inp_files/338801.got.cif
#   From: 2010.06.25/outbox.cif.g09.slc.cpg/sg12_170_cif.got.tgz:338801.got - 2010.06.28 00:19:55.
