data_PCOD8101303
_publ_section_title
;
Structure prediction by ZEFSAII (Michael W. Deem and Ramdas Pophale) SiO2 
 PCOD8101303
Probable space group: C 2/M
;
_chemical_formula_sum "Si O2"
_cell_formula_units_Z 40
_cell_length_a 14.376111
_cell_length_b 18.244396
_cell_length_c 11.253841
_cell_angle_alpha 90.000000
_cell_angle_beta 137.187673
_cell_angle_gamma 90.000000
_cell_volume 2005.970344
_symmetry_space_group_name_H-M "C 2/M"
_symmetry_group_IT_number 12
_symmetry_cell_setting 'monoclinic'
loop_
_space_group_symop_operation_xyz
x,y,z
-x,y,-z
-x,-y,-z
x,-y,z
1/2+x,1/2+y,z
1/2-x,1/2+y,-z
1/2-x,1/2-y,-z
1/2+x,1/2-y,z
loop_
_atom_site_type_symbol
_atom_site_label
_atom_site_fract_x
_atom_site_fract_y
_atom_site_fract_z
Si Si1 0.007409 0.085885 0.146036
Si Si2 0.432601 0.232680 0.556408
Si Si3 0.250535 0.353728 0.463358
Si Si4 0.841918 0.417711 0.853680
Si Si5 0.177665 0.179039 0.881331
O O1 0.140994 0.120686 0.334852
O O2 0.864751 0.119622 0.059678
O O3 0.009192 0.000000 0.173991
O O4 0.000000 0.103621 0.000000
O O5 0.500000 0.199598 0.500000
O O6 0.293679 0.281788 0.424771
O O7 0.394692 0.164644 0.606596
O O8 0.537514 0.293682 0.696174
O O9 0.219870 0.416082 0.337765
O O10 0.819951 0.500000 0.881644
O O11 0.769973 0.359640 0.870579
O O12 0.000000 0.395846 0.000000
O O13 0.250000 0.250000 0.000000
#
# Coordination Sequence:
#
# PCOD8101303 Si02
#       5
#     8   8   8   8   8
#     4  10  23  41  61  87 121 163 205 244 297 366
#     4  10  20  36  57  90 120 150 200 250 305 360
#     4  10  21  38  62  86 123 157 198 256 301 353
#     4  11  23  40  61  88 123 162 206 250 304 366
#     4  11  23  37  63  90 120 158 199 255 307 356
#
# _framework density 19.940473999999998
#
# number of rings (size 3 to 8) (size 9 to 14) (size 15 to 20)
#    0.000    1.600    2.000    2.400    2.800    2.400 
#    0.000    3.000    0.000    1.200    0.000    0.000 
#    0.000    0.000    0.000    0.000    0.000    0.000 
#
# Total GULP energy -247797.386944 kJ/mol
# GULP energy per Si atom -12389.869347 kJ/mol
# Density = 1.989509 g / cm^3
# Si number density = 19.940474 Si / 1000 Ang^3
#
#
#
# Elastic Constant Matrix: (Units=GPa)
#
#
# Indices 1 2 3 4 5 6 
#
# 1 172.8610 80.2512 54.0406 0.0000 -3.6751 0.0000
# 2 80.2512 109.8525 36.8763 0.0000 -3.1211 0.0000
# 3 54.0406 36.8763 87.4487 0.0000 -8.0371 0.0000
# 4 0.0000 0.0000 0.0000 32.4983 0.0000 -1.0573
# 5 -3.6751 -3.1211 -8.0371 0.0000 27.1439 0.0000
# 6 0.0000 0.0000 0.0000 -1.0573 0.0000 19.8145
#
#
#
# Elastic Compliance Matrix: (Units=1/GPa)
#
#
# Indices 1 2 3 4 5 6 
#
# 1 0.009578 -0.005835 -0.003496 0.000000 -0.000409 0.000000
# 2 -0.005835 0.014160 -0.002352 0.000000 0.000142 0.000000
# 3 -0.003496 -0.002352 0.014925 0.000000 0.003675 0.000000
# 4 0.000000 0.000000 0.000000 0.030824 0.000000 0.001645
# 5 -0.000409 0.000142 0.003675 0.000000 0.037890 0.000000
# 6 0.000000 0.000000 0.000000 0.001645 0.000000 0.050556
#
#
# Mechanical properties :
#
#
# Convention : Reuss Voigt Hill
#
# Bulk Modulus (GPa) = 65.37359 79.16649 72.27004
# Shear Modulus (GPa) = 26.82425 29.15762 27.99094
#
# Velocity S-wave (km/s) = 3.67170 3.82806 3.75070
# Velocity P-wave (km/s) = 7.12957 7.70236 7.42149
#
# Compressibility (1/GPa) = 0.01529670
#
# Stress axis : x y z
#
# Youngs Moduli (GPa) = 104.40257 70.62358 67.00055
#
# Poissons Ratio (x) = 0.41211 0.23423
# Poissons Ratio (y) = 0.60923 0.15758
# Poissons Ratio (z) = 0.36499 0.16610
#
# Static dielectric constant tensor:
#      x y z
#    x 4.342420 0.000000 0.132270 
#    y 0.000000 3.531560 0.000000 
#    z 0.132270 0.000000 3.506490 
# 
# 
# High freq. dielectric constant tensor:
#      x y z
#    x 1.793980 0.000000 0.003400 
#    y 0.000000 1.775860 0.000000 
#    z 0.003400 0.000000 1.767280 
# 
# From -- ./inp_files/63809.got.cif
#   From: 2010.06.25/outbox.cif.g09.slc.cpg/sg12_32_cif.got.tgz:63809.got - 2010.06.28 00:19:55.
