data_PCOD8101124
_publ_section_title
;
Structure prediction by ZEFSAII (Michael W. Deem and Ramdas Pophale) SiO2 
 PCOD8101124
Probable space group: C 2/M
;
_chemical_formula_sum "Si O2"
_cell_formula_units_Z 56
_cell_length_a 31.069241
_cell_length_b 9.005976
_cell_length_c 11.845707
_cell_angle_alpha 90.000000
_cell_angle_beta 63.231492
_cell_angle_gamma 90.000000
_cell_volume 2959.326575
_symmetry_space_group_name_H-M "C 2/M"
_symmetry_group_IT_number 12
_symmetry_cell_setting 'monoclinic'
loop_
_space_group_symop_operation_xyz
x,y,z
-x,y,-z
-x,-y,-z
x,-y,z
1/2+x,1/2+y,z
1/2-x,1/2+y,-z
1/2-x,1/2-y,-z
1/2+x,1/2-y,z
loop_
_atom_site_type_symbol
_atom_site_label
_atom_site_fract_x
_atom_site_fract_y
_atom_site_fract_z
Si Si1 0.952098 0.673531 0.622579
Si Si2 0.085643 0.828357 0.721280
Si Si3 0.902176 0.324138 0.065009
Si Si4 0.292618 0.670191 0.819791
Si Si5 0.025252 0.825531 0.176816
Si Si6 0.376018 0.330545 0.563474
Si Si7 0.314128 0.825051 0.016644
O O1 0.950153 0.500000 0.652636
O O2 0.949059 0.761377 0.742974
O O3 0.907560 0.717500 0.597915
O O4 0.000000 0.719479 0.500000
O O5 0.105550 0.726224 0.797492
O O6 0.119551 0.793555 0.573923
O O7 0.031008 0.784457 0.754630
O O8 0.088596 0.000000 0.754259
O O9 0.907752 0.500000 0.052872
O O10 0.856290 0.265994 0.048018
O O11 0.950768 0.248717 0.961103
O O12 0.292493 0.500000 0.858763
O O13 0.320561 0.691074 0.668157
O O14 0.237558 0.726102 0.870789
O O15 0.320716 0.759107 0.884035
O O16 0.033946 0.000000 0.161369
O O17 0.393563 0.500000 0.564667
O O18 0.317951 0.000000 0.001570
#
# Coordination Sequence:
#
# PCOD8101124 Si02
#       7
#     8   8   8   8   8   8   8
#     4  11  22  34  52  80 113 143 173 215 266 319
#     4  10  22  38  54  75 106 143 183 225 265 313
#     4  11  23  37  55  78 108 143 180 223 271 320
#     4   9  18  34  59  84 105 135 174 217 266 318
#     4  11  22  37  57  78 106 143 184 226 266 313
#     4  10  20  36  57  80 107 143 183 221 265 317
#     4   9  19  36  55  80 111 137 169 218 271 319
#
# _framework density 18.923223
#
# number of rings (size 3 to 8) (size 9 to 14) (size 15 to 20)
#    0.000    1.857    1.429    2.571    0.000    8.000 
#    0.000    0.714    0.000    0.000    0.000    0.000 
#    0.000    0.000    0.000    0.000    0.000    0.000 
#
# Total GULP energy -347305.375607 kJ/mol
# GULP energy per Si atom -12403.763415 kJ/mol
# Density = 1.888015 g / cm^3
# Si number density = 18.923223 Si / 1000 Ang^3
#
#
#
# Elastic Constant Matrix: (Units=GPa)
#
#
# Indices 1 2 3 4 5 6 
#
# 1 64.3699 32.0540 45.9156 0.0000 1.8806 0.0000
# 2 32.0540 51.4687 38.3212 0.0000 2.0043 0.0000
# 3 45.9156 38.3212 143.0410 0.0000 -1.7277 0.0000
# 4 0.0000 0.0000 0.0000 28.8691 0.0000 5.7472
# 5 1.8806 2.0043 -1.7277 0.0000 28.1375 0.0000
# 6 0.0000 0.0000 0.0000 5.7472 0.0000 26.5776
#
#
#
# Elastic Compliance Matrix: (Units=1/GPa)
#
#
# Indices 1 2 3 4 5 6 
#
# 1 0.024934 -0.011887 -0.004833 0.000000 -0.001116 0.000000
# 2 -0.011887 0.030066 -0.004258 0.000000 -0.001609 0.000000
# 3 -0.004833 -0.004258 0.009698 0.000000 0.001222 0.000000
# 4 0.000000 0.000000 0.000000 0.036197 0.000000 -0.007827
# 5 -0.001116 -0.001609 0.001222 0.000000 0.035804 0.000000
# 6 0.000000 0.000000 0.000000 -0.007827 0.000000 0.039318
#
#
# Mechanical properties :
#
#
# Convention : Reuss Voigt Hill
#
# Bulk Modulus (GPa) = 43.97254 54.60680 49.28967
# Shear Modulus (GPa) = 22.16755 26.22274 24.19514
#
# Velocity S-wave (km/s) = 3.42635 3.72660 3.57962
# Velocity P-wave (km/s) = 6.24027 6.88741 6.57181
#
# Compressibility (1/GPa) = 0.02274146
#
# Stress axis : x y z
#
# Youngs Moduli (GPa) = 40.10512 33.26049 103.11515
#
# Poissons Ratio (x) = 0.39537 0.49833
# Poissons Ratio (y) = 0.47674 0.43911
# Poissons Ratio (z) = 0.19382 0.14164
#
# Static dielectric constant tensor:
#      x y z
#    x 3.439600 0.000000 -0.142240 
#    y 0.000000 3.405320 0.000000 
#    z -0.142240 0.000000 3.640070 
# 
# 
# High freq. dielectric constant tensor:
#      x y z
#    x 1.720290 0.000000 -0.007070 
#    y 0.000000 1.734690 0.000000 
#    z -0.007070 0.000000 1.744540 
# 
# From -- ./inp_files/186431.got.cif
#   From: 2010.06.25/outbox.cif.g09.slc.cpg/sg12_94_cif.got.tgz:186431.got - 2010.06.28 00:19:55.
