data_PCOD8101164
_publ_section_title
;
Structure prediction by ZEFSAII (Michael W. Deem and Ramdas Pophale) SiO2 
 PCOD8101164
Probable space group: C 2/M
;
_chemical_formula_sum "Si O2"
_cell_formula_units_Z 64
_cell_length_a 23.720332
_cell_length_b 9.192431
_cell_length_c 14.789033
_cell_angle_alpha 90.000000
_cell_angle_beta 86.358801
_cell_angle_gamma 90.000000
_cell_volume 3218.202238
_symmetry_space_group_name_H-M "C 2/M"
_symmetry_group_IT_number 12
_symmetry_cell_setting 'monoclinic'
loop_
_space_group_symop_operation_xyz
x,y,z
-x,y,-z
-x,-y,-z
x,-y,z
1/2+x,1/2+y,z
1/2-x,1/2+y,-z
1/2-x,1/2-y,-z
1/2+x,1/2-y,z
loop_
_atom_site_type_symbol
_atom_site_label
_atom_site_fract_x
_atom_site_fract_y
_atom_site_fract_z
Si Si1 0.563914 0.827095 0.013967
Si Si2 0.380591 0.335506 0.829253
Si Si3 0.140884 0.328915 0.844639
Si Si4 0.775499 0.669063 0.583308
Si Si5 0.760977 0.171562 0.770418
Si Si6 0.927409 0.670566 0.318062
Si Si7 0.963336 0.835792 0.659710
Si Si8 0.597339 0.834948 0.478707
O O1 0.606619 0.763784 0.933307
O O2 0.565471 0.000000 0.019311
O O3 0.500000 0.773511 0.000000
O O4 0.585359 0.767124 0.106904
O O5 0.381778 0.500000 0.866985
O O6 0.316120 0.281438 0.821833
O O7 0.408777 0.327144 0.728450
O O8 0.132846 0.500000 0.848514
O O9 0.207226 0.288080 0.839121
O O10 0.114458 0.268993 0.754287
O O11 0.757378 0.500000 0.582947
O O12 0.750000 0.750000 0.500000
O O13 0.754162 0.742341 0.677536
O O14 0.842570 0.686214 0.573620
O O15 0.762609 0.000000 0.746792
O O16 0.938263 0.500000 0.306448
O O17 0.899211 0.710170 0.416756
O O18 0.986660 0.749362 0.297345
O O19 0.948718 0.765533 0.564801
O O20 0.982863 0.000000 0.640567
O O21 0.576029 0.000000 0.471012
#
# Coordination Sequence:
#
# PCOD8101164 Si02
#       8
#     8   8   8   8   8   8   8   8
#     4  10  21  38  62  90 115 146 192 242 288 342
#     4  10  22  38  58  84 116 154 189 234 297 350
#     4   9  19  37  61  85 112 149 192 236 287 343
#     4  11  22  36  57  84 115 154 199 243 288 338
#     4  10  20  39  61  82 115 155 194 236 288 348
#     4  10  20  36  57  81 110 148 191 236 285 338
#     4  11  22  36  54  81 115 151 189 232 288 344
#     4  10  21  36  55  81 111 148 194 236 280 339
#
# _framework density 19.886879
#
# number of rings (size 3 to 8) (size 9 to 14) (size 15 to 20)
#    0.000    1.875    1.250    2.625    0.000    7.750 
#    0.000    3.125    0.000    0.000    0.000    0.000 
#    0.000    0.000    0.000    0.000    0.000    0.000 
#
# Total GULP energy -396859.558558 kJ/mol
# GULP energy per Si atom -12401.861205 kJ/mol
# Density = 1.984162 g / cm^3
# Si number density = 19.886879 Si / 1000 Ang^3
#
#
#
# Elastic Constant Matrix: (Units=GPa)
#
#
# Indices 1 2 3 4 5 6 
#
# 1 109.3717 34.9631 30.7283 0.0000 2.1154 0.0000
# 2 34.9631 59.1263 34.5224 0.0000 6.8055 0.0000
# 3 30.7283 34.5224 90.3631 0.0000 5.0608 0.0000
# 4 0.0000 0.0000 0.0000 27.3565 0.0000 0.6543
# 5 2.1154 6.8055 5.0608 0.0000 38.4064 0.0000
# 6 0.0000 0.0000 0.0000 0.6543 0.0000 24.9596
#
#
#
# Elastic Compliance Matrix: (Units=1/GPa)
#
#
# Indices 1 2 3 4 5 6 
#
# 1 0.011485 -0.005873 -0.001697 0.000000 0.000632 0.000000
# 2 -0.005873 0.025071 -0.007405 0.000000 -0.003143 0.000000
# 3 -0.001697 -0.007405 0.014501 0.000000 -0.000505 0.000000
# 4 0.000000 0.000000 0.000000 0.036577 0.000000 -0.000959
# 5 0.000632 -0.003143 -0.000505 0.000000 0.026626 0.000000
# 6 0.000000 0.000000 0.000000 -0.000959 0.000000 0.040090
#
#
# Mechanical properties :
#
#
# Convention : Reuss Voigt Hill
#
# Bulk Modulus (GPa) = 47.37859 51.03208 49.20533
# Shear Modulus (GPa) = 26.13186 28.72100 27.42643
#
# Velocity S-wave (km/s) = 3.62888 3.80441 3.71768
# Velocity P-wave (km/s) = 6.43694 6.70932 6.57454
#
# Compressibility (1/GPa) = 0.02110658
#
# Stress axis : x y z
#
# Youngs Moduli (GPa) = 87.06795 39.88606 68.96134
#
# Poissons Ratio (x) = 0.23427 0.11704
# Poissons Ratio (y) = 0.51138 0.51066
# Poissons Ratio (z) = 0.14777 0.29536
#
# Static dielectric constant tensor:
#      x y z
#    x 3.814430 0.000000 -0.113240 
#    y 0.000000 3.474540 0.000000 
#    z -0.113240 0.000000 3.590760 
# 
# 
# High freq. dielectric constant tensor:
#      x y z
#    x 1.788760 0.000000 -0.002680 
#    y 0.000000 1.755270 0.000000 
#    z -0.002680 0.000000 1.774770 
# 
# From -- ./inp_files/238612.got.cif
#   From: 2010.06.25/outbox.cif.g09.slc.cpg/sg12_120_cif.got.tgz:238612.got - 2010.06.28 00:19:55.
