data_PCOD8101237
_publ_section_title
;
Structure prediction by ZEFSAII (Michael W. Deem and Ramdas Pophale) SiO2 
 PCOD8101237
Probable space group: C 2/M
;
_chemical_formula_sum "Si O2"
_cell_formula_units_Z 56
_cell_length_a 30.260988
_cell_length_b 8.791568
_cell_length_c 13.956680
_cell_angle_alpha 90.000000
_cell_angle_beta 48.583889
_cell_angle_gamma 90.000000
_cell_volume 2784.514254
_symmetry_space_group_name_H-M "C 2/M"
_symmetry_group_IT_number 12
_symmetry_cell_setting 'monoclinic'
loop_
_space_group_symop_operation_xyz
x,y,z
-x,y,-z
-x,-y,-z
x,-y,z
1/2+x,1/2+y,z
1/2-x,1/2+y,-z
1/2-x,1/2-y,-z
1/2+x,1/2-y,z
loop_
_atom_site_type_symbol
_atom_site_label
_atom_site_fract_x
_atom_site_fract_y
_atom_site_fract_z
Si Si1 0.686725 0.820394 0.618575
Si Si2 0.634319 0.680220 0.522170
Si Si3 0.809814 0.820845 0.881045
Si Si4 0.482482 0.319094 0.418109
Si Si5 0.155636 0.826232 0.859891
Si Si6 0.715403 0.173125 0.269445
Si Si7 0.086880 0.819345 0.137215
O O1 0.750000 0.750000 0.500000
O O2 0.633414 0.752662 0.629608
O O3 0.665033 0.783183 0.756900
O O4 0.691703 0.000000 0.598615
O O5 0.635305 0.500000 0.529483
O O6 0.581426 0.735484 0.527833
O O7 0.696365 0.746240 0.394976
O O8 0.819955 0.770140 0.758077
O O9 0.862546 0.752407 0.867364
O O10 0.806467 0.000000 0.893766
O O11 0.750000 0.750000 0.000000
O O12 0.500000 0.255790 0.500000
O O13 0.485038 0.500000 0.420167
O O14 0.526168 0.259164 0.270899
O O15 0.214026 0.819471 0.843086
O O16 0.145886 0.000000 0.838494
O O17 0.100928 0.770337 0.006463
O O18 0.693385 0.000000 0.298345
O O19 0.088102 0.000000 0.138664
#
# Coordination Sequence:
#
# PCOD8101237 Si02
#       7
#     8   8   8   8   8   8   8
#     4  12  24  39  60  87 120 156 195 245 300 358
#     4  11  22  37  61  90 116 152 198 245 297 352
#     4  11  20  32  52  81 117 153 192 239 296 357
#     4   9  18  35  61  91 119 151 199 248 288 342
#     4  10  20  36  57  83 116 154 194 240 294 351
#     4  11  21  34  53  82 118 155 191 239 293 353
#     4   9  18  35  57  82 116 155 195 247 296 341
#
# _framework density 20.111228000000001
#
# number of rings (size 3 to 8) (size 9 to 14) (size 15 to 20)
#    0.000    1.571    2.857    3.429    0.000    2.857 
#    0.000    0.714    0.000   15.429    0.000    0.000 
#    0.000    0.000    0.000    0.000    0.000    0.000 
#
# Total GULP energy -346978.762199 kJ/mol
# GULP energy per Si atom -12392.098650 kJ/mol
# Density = 2.006545 g / cm^3
# Si number density = 20.111228 Si / 1000 Ang^3
#
#
#
# Elastic Constant Matrix: (Units=GPa)
#
#
# Indices 1 2 3 4 5 6 
#
# 1 93.4633 30.5006 33.7658 0.0000 8.6868 0.0000
# 2 30.5006 77.0641 22.0837 0.0001 -1.5315 0.0002
# 3 33.7658 22.0837 130.0362 0.0000 1.4373 0.0000
# 4 0.0000 0.0001 0.0000 26.1881 0.0000 7.6892
# 5 8.6868 -1.5315 1.4373 0.0000 22.2252 0.0000
# 6 0.0000 0.0002 0.0000 7.6892 0.0000 25.6850
#
#
#
# Elastic Compliance Matrix: (Units=1/GPa)
#
#
# Indices 1 2 3 4 5 6 
#
# 1 0.013747 -0.004778 -0.002697 0.000000 -0.005528 0.000000
# 2 -0.004778 0.015327 -0.001396 0.000000 0.003014 0.000000
# 3 -0.002697 -0.001396 0.008623 0.000000 0.000400 0.000000
# 4 0.000000 0.000000 0.000000 0.041865 0.000000 -0.012533
# 5 -0.005528 0.003014 0.000400 0.000000 0.047336 0.000000
# 6 0.000000 0.000000 0.000000 -0.012533 0.000000 0.042685
#
#
# Mechanical properties :
#
#
# Convention : Reuss Voigt Hill
#
# Bulk Modulus (GPa) = 50.11032 52.58488 51.34760
# Shear Modulus (GPa) = 25.77638 29.10056 27.43847
#
# Velocity S-wave (km/s) = 3.58396 3.80805 3.69770
# Velocity P-wave (km/s) = 6.48822 6.74824 6.61951
#
# Compressibility (1/GPa) = 0.01995597
#
# Stress axis : x y z
#
# Youngs Moduli (GPa) = 72.74499 65.24450 115.96773
#
# Poissons Ratio (x) = 0.31172 0.31277
# Poissons Ratio (y) = 0.34755 0.16185
# Poissons Ratio (z) = 0.19620 0.09106
#
# Static dielectric constant tensor:
#      x y z
#    x 3.897460 0.000000 0.236310 
#    y 0.000000 4.211170 0.000000 
#    z 0.236310 0.000000 3.979070 
# 
# 
# High freq. dielectric constant tensor:
#      x y z
#    x 1.777040 0.000000 0.016970 
#    y 0.000000 1.754980 0.000000 
#    z 0.016970 0.000000 1.793530 
# 
# From -- ./inp_files/248905.got.cif
#   From: 2010.06.25/outbox.cif.g09.slc.cpg/sg12_125_cif.got.tgz:248905.got - 2010.06.28 00:19:55.
