data_PCOD8101467
_publ_section_title
;
Structure prediction by ZEFSAII (Michael W. Deem and Ramdas Pophale) SiO2 
 PCOD8101467
Probable space group: C 2/M
;
_chemical_formula_sum "Si O2"
_cell_formula_units_Z 40
_cell_length_a 8.977502
_cell_length_b 9.637731
_cell_length_c 33.193243
_cell_angle_alpha 90.000000
_cell_angle_beta 37.890164
_cell_angle_gamma 90.000000
_cell_volume 1763.819991
_symmetry_space_group_name_H-M "C 2/M"
_symmetry_group_IT_number 12
_symmetry_cell_setting 'monoclinic'
loop_
_space_group_symop_operation_xyz
x,y,z
-x,y,-z
-x,-y,-z
x,-y,z
1/2+x,1/2+y,z
1/2-x,1/2+y,-z
1/2-x,1/2-y,-z
1/2+x,1/2-y,z
loop_
_atom_site_type_symbol
_atom_site_label
_atom_site_fract_x
_atom_site_fract_y
_atom_site_fract_z
Si Si1 0.747982 0.348675 0.565507
Si Si2 0.245738 0.350568 0.258089
Si Si3 0.485840 0.840253 0.941395
Si Si4 0.430146 0.158324 0.862906
Si Si5 0.744825 0.726906 0.654004
O O1 0.764543 0.500000 0.542429
O O2 0.709604 0.366268 0.621817
O O3 0.518192 0.280682 0.593449
O O4 0.000000 0.268820 0.500000
O O5 0.343415 0.500000 0.221265
O O6 0.385708 0.221002 0.208859
O O7 0.288632 0.353427 0.296948
O O8 0.962550 0.344656 0.306108
O O9 0.557420 0.844227 0.879116
O O10 0.699174 0.757958 0.918123
O O11 0.457788 0.000000 0.963230
O O12 0.250000 0.750000 0.000000
O O13 0.359446 0.000000 0.865100
#
# Coordination Sequence:
#
# PCOD8101467 Si02
#       5
#     8   8   8   8   8
#     4  10  20  36  58  83 114 153 195 241 296 356
#     4  11  23  39  60  86 118 157 200 246 299 357
#     4  11  24  42  65  93 125 161 202 247 297 353
#     4  11  25  42  62  91 124 158 201 250 298 353
#     4  10  22  37  57  85 118 151 196 248 297 353
#
# _framework density 22.678051
#
# number of rings (size 3 to 8) (size 9 to 14) (size 15 to 20)
#    0.000    1.400    0.000    4.800    0.000   13.600 
#    0.000    0.000    0.000    9.600    0.000    0.000 
#    0.000    0.000    0.000    0.000    0.000    0.000 
#
# Total GULP energy -247841.158999 kJ/mol
# GULP energy per Si atom -12392.057950 kJ/mol
# Density = 2.262644 g / cm^3
# Si number density = 22.678051 Si / 1000 Ang^3
#
#
#
# Elastic Constant Matrix: (Units=GPa)
#
#
# Indices 1 2 3 4 5 6 
#
# 1 96.7061 23.3160 8.7470 0.0000 -4.0705 -0.0001
# 2 23.3160 157.4960 24.8593 -0.0001 -9.9804 -0.0002
# 3 8.7470 24.8593 77.3322 -0.0008 -4.3017 -0.0008
# 4 0.0000 -0.0001 -0.0008 26.7920 0.0001 -2.7983
# 5 -4.0705 -9.9804 -4.3017 0.0001 36.5219 0.0004
# 6 -0.0001 -0.0002 -0.0008 -2.7983 0.0004 14.5882
#
#
#
# Elastic Compliance Matrix: (Units=1/GPa)
#
#
# Indices 1 2 3 4 5 6 
#
# 1 0.010782 -0.001437 -0.000717 0.000000 0.000725 0.000000
# 2 -0.001437 0.006973 -0.001995 0.000000 0.001510 0.000000
# 3 -0.000717 -0.001995 0.013709 0.000000 0.000990 0.000001
# 4 0.000000 0.000000 0.000000 0.038088 0.000000 0.007306
# 5 0.000725 0.001510 0.000990 0.000000 0.027991 -0.000001
# 6 0.000000 0.000000 0.000001 0.007306 -0.000001 0.069950
#
#
# Mechanical properties :
#
#
# Convention : Reuss Voigt Hill
#
# Bulk Modulus (GPa) = 43.16818 49.48654 46.32736
# Shear Modulus (GPa) = 27.24608 33.88789 30.56699
#
# Velocity S-wave (km/s) = 3.46992 3.86982 3.67531
# Velocity P-wave (km/s) = 5.92709 6.46808 6.20348
#
# Compressibility (1/GPa) = 0.02316521
#
# Stress axis : x y z
#
# Youngs Moduli (GPa) = 92.74306 143.41638 72.94649
#
# Poissons Ratio (x) = 0.20611 0.05233
# Poissons Ratio (y) = 0.13328 0.14552
# Poissons Ratio (z) = 0.06653 0.28610
#
# Static dielectric constant tensor:
#      x y z
#    x 4.211730 0.000000 -0.086420 
#    y 0.000000 3.973850 0.000000 
#    z -0.086420 0.000000 4.062810 
# 
# 
# High freq. dielectric constant tensor:
#      x y z
#    x 1.904330 0.000000 -0.003180 
#    y 0.000000 1.885830 0.000000 
#    z -0.003180 0.000000 1.898180 
# 
# From -- ./inp_files/371929.got.cif
#   From: 2010.06.25/outbox.cif.g09.slc.cpg/sg12_186_cif.got.tgz:371929.got - 2010.06.28 00:19:55.
