data_PCOD8101331
_publ_section_title
;
Structure prediction by ZEFSAII (Michael W. Deem and Ramdas Pophale) SiO2 
 PCOD8101331
Probable space group: C 2/M
;
_chemical_formula_sum "Si O2"
_cell_formula_units_Z 56
_cell_length_a 19.505204
_cell_length_b 8.877581
_cell_length_c 20.285055
_cell_angle_alpha 90.000000
_cell_angle_beta 55.928093
_cell_angle_gamma 90.000000
_cell_volume 2909.560604
_symmetry_space_group_name_H-M "C 2/M"
_symmetry_group_IT_number 12
_symmetry_cell_setting 'monoclinic'
loop_
_space_group_symop_operation_xyz
x,y,z
-x,y,-z
-x,-y,-z
x,-y,z
1/2+x,1/2+y,z
1/2-x,1/2+y,-z
1/2-x,1/2-y,-z
1/2+x,1/2-y,z
loop_
_atom_site_type_symbol
_atom_site_label
_atom_site_fract_x
_atom_site_fract_y
_atom_site_fract_z
Si Si1 0.165059 0.824081 0.564795
Si Si2 0.057856 0.322726 0.140530
Si Si3 0.383871 0.321009 0.265041
Si Si4 0.688528 0.827387 0.183652
Si Si5 0.316727 0.326058 0.009677
Si Si6 0.587430 0.677179 0.473040
Si Si7 0.776693 0.177994 0.702272
O O1 0.250000 0.750000 0.500000
O O2 0.131282 0.762698 0.652249
O O3 0.099626 0.782971 0.543122
O O4 0.181338 0.000000 0.560299
O O5 0.047361 0.500000 0.139501
O O6 0.117174 0.279670 0.170131
O O7 0.096734 0.258945 0.051003
O O8 0.969600 0.246716 0.195241
O O9 0.387725 0.500000 0.258490
O O10 0.310886 0.261140 0.257718
O O11 0.682096 0.719356 0.250046
O O12 0.674694 0.000000 0.212742
O O13 0.781172 0.808978 0.102945
O O14 0.326811 0.500000 0.984960
O O15 0.250000 0.250000 0.000000
O O16 0.500000 0.751751 0.500000
O O17 0.584074 0.500000 0.462355
O O18 0.662379 0.739921 0.387904
O O19 0.762932 0.000000 0.705037
#
# Coordination Sequence:
#
# PCOD8101331 Si02
#       7
#     8   8   8   8   8   8   8
#     4  10  20  36  58  80 108 146 187 229 278 334
#     4  10  21  37  59  86 116 148 187 237 282 333
#     4  11  23  37  57  82 114 152 191 235 282 339
#     4   9  20  37  57  83 117 149 179 228 284 333
#     4   9  17  33  57  84 115 150 186 229 281 334
#     4   9  19  35  55  80 111 142 181 233 279 324
#     4  11  22  36  58  82 112 152 190 233 281 335
#
# _framework density 19.246893
#
# number of rings (size 3 to 8) (size 9 to 14) (size 15 to 20)
#    0.000    2.143    1.429    2.571    2.000    4.000 
#    0.000    0.714    0.000    6.429    0.000    0.000 
#    0.000    0.000    0.000    0.000    0.000    0.000 
#
# Total GULP energy -347147.068521 kJ/mol
# GULP energy per Si atom -12398.109590 kJ/mol
# Density = 1.920309 g / cm^3
# Si number density = 19.246893 Si / 1000 Ang^3
#
#
#
# Elastic Constant Matrix: (Units=GPa)
#
#
# Indices 1 2 3 4 5 6 
#
# 1 86.4935 23.5213 21.3198 0.0000 -19.8579 -0.0004
# 2 23.5213 65.0765 22.2819 0.0001 -6.4463 -0.0012
# 3 21.3198 22.2819 65.8557 0.0000 -20.1282 0.0001
# 4 0.0000 0.0001 0.0000 28.0609 0.0000 -0.3017
# 5 -19.8579 -6.4463 -20.1282 0.0000 37.0964 0.0000
# 6 -0.0004 -0.0012 0.0001 -0.3017 0.0000 29.4256
#
#
#
# Elastic Compliance Matrix: (Units=1/GPa)
#
#
# Indices 1 2 3 4 5 6 
#
# 1 0.014466 -0.004140 -0.001361 0.000000 0.006286 0.000000
# 2 -0.004140 0.018566 -0.005554 0.000000 -0.002003 0.000001
# 3 -0.001361 -0.005554 0.020364 0.000000 0.009355 0.000000
# 4 0.000000 0.000000 0.000000 0.035641 0.000000 0.000365
# 5 0.006286 -0.002003 0.009355 0.000000 0.035050 0.000000
# 6 0.000000 0.000001 0.000000 0.000365 0.000000 0.033988
#
#
# Mechanical properties :
#
#
# Convention : Reuss Voigt Hill
#
# Bulk Modulus (GPa) = 31.96303 39.07463 35.51883
# Shear Modulus (GPa) = 26.23122 28.93677 27.58400
#
# Velocity S-wave (km/s) = 3.69573 3.88164 3.78983
# Velocity P-wave (km/s) = 5.90374 6.35888 6.13553
#
# Compressibility (1/GPa) = 0.03128614
#
# Stress axis : x y z
#
# Youngs Moduli (GPa) = 69.12744 53.86200 49.10650
#
# Poissons Ratio (x) = 0.22298 0.06685
# Poissons Ratio (y) = 0.28618 0.27273
# Poissons Ratio (z) = 0.09410 0.29914
#
# Static dielectric constant tensor:
#      x y z
#    x 3.420030 0.000000 -0.007790 
#    y 0.000000 3.440840 0.000000 
#    z -0.007790 0.000000 4.008770 
# 
# 
# High freq. dielectric constant tensor:
#      x y z
#    x 1.736340 0.000000 -0.007480 
#    y 0.000000 1.741160 0.000000 
#    z -0.007480 0.000000 1.757850 
# 
# From -- ./inp_files/313761.got.cif
#   From: 2010.06.25/outbox.cif.g09.slc.cpg/sg12_157_cif.got.tgz:313761.got - 2010.06.28 00:19:55.
