data_PCOD8101854
_publ_section_title
;
Structure prediction by ZEFSAII (Michael W. Deem and Ramdas Pophale) SiO2 
 PCOD8101854
Probable space group: C 2/M
;
_chemical_formula_sum "Si O2"
_cell_formula_units_Z 56
_cell_length_a 20.239525
_cell_length_b 8.925871
_cell_length_c 27.530244
_cell_angle_alpha 90.000000
_cell_angle_beta 34.989942
_cell_angle_gamma 90.000000
_cell_volume 2851.959696
_symmetry_space_group_name_H-M "C 2/M"
_symmetry_group_IT_number 12
_symmetry_cell_setting 'monoclinic'
loop_
_space_group_symop_operation_xyz
x,y,z
-x,y,-z
-x,-y,-z
x,-y,z
1/2+x,1/2+y,z
1/2-x,1/2+y,-z
1/2-x,1/2-y,-z
1/2+x,1/2-y,z
loop_
_atom_site_type_symbol
_atom_site_label
_atom_site_fract_x
_atom_site_fract_y
_atom_site_fract_z
Si Si1 0.542297 0.171791 0.247877
Si Si2 0.172130 0.677483 0.779948
Si Si3 0.565568 0.177233 0.508973
Si Si4 0.909473 0.823029 0.681904
Si Si5 0.460426 0.174613 0.969469
Si Si6 0.746047 0.173920 0.054351
Si Si7 0.198898 0.325358 0.654414
O O1 0.576934 0.281305 0.270248
O O2 0.622226 0.204663 0.153222
O O3 0.411194 0.205530 0.312531
O O4 0.557095 0.000000 0.255892
O O5 0.169212 0.500000 0.785346
O O6 0.286077 0.738057 0.738092
O O7 0.172044 0.733065 0.724708
O O8 0.058492 0.740699 0.874721
O O9 0.500000 0.234159 0.500000
O O10 0.508326 0.246062 0.590984
O O11 0.696743 0.230923 0.430043
O O12 0.561330 0.000000 0.515477
O O13 0.919838 0.000000 0.669204
O O14 0.437866 0.000000 0.973175
O O15 0.500000 0.204671 0.000000
O O16 0.342677 0.261727 0.031786
O O17 0.768247 0.000000 0.033149
O O18 0.750000 0.250000 0.000000
O O19 0.232675 0.500000 0.635079
#
# Coordination Sequence:
#
# PCOD8101854 Si02
#       7
#     8   8   8   8   8   8   8
#     4  10  23  41  60  86 122 158 193 244 302 346
#     4   9  18  34  58  86 113 150 198 245 290 340
#     4  11  23  39  60  89 123 152 186 240 301 350
#     4  11  22  38  64  90 117 156 199 242 289 352
#     4  10  20  36  59  87 121 157 198 248 300 355
#     4  11  23  40  62  87 121 162 203 249 300 356
#     4  10  20  38  62  83 111 153 201 243 284 347
#
# _framework density 19.635621
#
# number of rings (size 3 to 8) (size 9 to 14) (size 15 to 20)
#    0.000    1.714    1.429    3.000    0.000    6.571 
#    0.000    3.571    0.000    0.000    0.000    0.000 
#    0.000    0.000    0.000    0.000    0.000    0.000 
#
# Total GULP energy -347344.629458 kJ/mol
# GULP energy per Si atom -12405.165338 kJ/mol
# Density = 1.959093 g / cm^3
# Si number density = 19.635621 Si / 1000 Ang^3
#
#
#
# Elastic Constant Matrix: (Units=GPa)
#
#
# Indices 1 2 3 4 5 6 
#
# 1 87.8635 36.5564 20.1839 0.0003 -1.9189 -0.0002
# 2 36.5564 68.8077 33.6513 0.0009 -1.4508 -0.0013
# 3 20.1839 33.6513 96.2803 0.0001 -8.4362 -0.0005
# 4 0.0003 0.0009 0.0001 27.6556 0.0001 0.3440
# 5 -1.9189 -1.4508 -8.4362 0.0001 35.0427 -0.0005
# 6 -0.0002 -0.0013 -0.0005 0.3440 -0.0005 32.6513
#
#
#
# Elastic Compliance Matrix: (Units=1/GPa)
#
#
# Indices 1 2 3 4 5 6 
#
# 1 0.014631 -0.007577 -0.000384 0.000000 0.000395 0.000000
# 2 -0.007577 0.021473 -0.006002 -0.000001 -0.000971 0.000001
# 3 -0.000384 -0.006002 0.012811 0.000000 0.002815 0.000000
# 4 0.000000 -0.000001 0.000000 0.036164 0.000000 -0.000381
# 5 0.000395 -0.000971 0.002815 0.000000 0.029196 0.000000
# 6 0.000000 0.000001 0.000000 -0.000381 0.000000 0.030631
#
#
# Mechanical properties :
#
#
# Convention : Reuss Voigt Hill
#
# Bulk Modulus (GPa) = 47.64323 48.19274 47.91799
# Shear Modulus (GPa) = 27.80435 29.90724 28.85579
#
# Velocity S-wave (km/s) = 3.76708 3.90694 3.83765
# Velocity P-wave (km/s) = 6.57553 6.70441 6.64028
#
# Compressibility (1/GPa) = 0.02098934
#
# Stress axis : x y z
#
# Youngs Moduli (GPa) = 68.35016 46.56907 78.05596
#
# Poissons Ratio (x) = 0.35284 0.03000
# Poissons Ratio (y) = 0.51787 0.46849
# Poissons Ratio (z) = 0.02627 0.27951
#
# Static dielectric constant tensor:
#      x y z
#    x 3.623190 0.000000 -0.074110 
#    y 0.000000 3.409930 0.000000 
#    z -0.074110 0.000000 3.768800 
# 
# 
# High freq. dielectric constant tensor:
#      x y z
#    x 1.773030 0.000000 -0.001770 
#    y 0.000000 1.748440 0.000000 
#    z -0.001770 0.000000 1.781280 
# 
# From -- ./inp_files/230971.got.cif
#   From: 2010.06.25/outbox.cif.g09.slc.cpg/sg12_116_cif.got.tgz:230971.got - 2010.06.28 00:19:55.
