data_PCOD8101429
_publ_section_title
;
Structure prediction by ZEFSAII (Michael W. Deem and Ramdas Pophale) SiO2 
 PCOD8101429
Probable space group: C 2/M
;
_chemical_formula_sum "Si O2"
_cell_formula_units_Z 64
_cell_length_a 28.164714
_cell_length_b 9.078312
_cell_length_c 12.094098
_cell_angle_alpha 90.000000
_cell_angle_beta 97.744386
_cell_angle_gamma 90.000000
_cell_volume 3064.111777
_symmetry_space_group_name_H-M "C 2/M"
_symmetry_group_IT_number 12
_symmetry_cell_setting 'monoclinic'
loop_
_space_group_symop_operation_xyz
x,y,z
-x,y,-z
-x,-y,-z
x,-y,z
1/2+x,1/2+y,z
1/2-x,1/2+y,-z
1/2-x,1/2-y,-z
1/2+x,1/2-y,z
loop_
_atom_site_type_symbol
_atom_site_label
_atom_site_fract_x
_atom_site_fract_y
_atom_site_fract_z
Si Si1 0.300478 0.673135 0.034199
Si Si2 0.522465 0.330928 0.389885
Si Si3 0.300539 0.335915 0.399154
Si Si4 0.349509 0.169458 0.241643
Si Si5 0.405838 0.169044 0.734020
Si Si6 0.436900 0.333455 0.199487
Si Si7 0.398606 0.669689 0.951883
Si Si8 0.696063 0.164160 0.386076
O O1 0.292233 0.500000 0.027403
O O2 0.343963 0.720000 0.965122
O O3 0.250000 0.750000 0.000000
O O4 0.317150 0.721405 0.159837
O O5 0.500000 0.271671 0.500000
O O6 0.537199 0.500000 0.413736
O O7 0.569452 0.241234 0.367003
O O8 0.488230 0.314336 0.272148
O O9 0.321921 0.500000 0.388192
O O10 0.333754 0.207853 0.360098
O O11 0.301182 0.299078 0.528487
O O12 0.246138 0.328787 0.334040
O O13 0.404874 0.210651 0.248572
O O14 0.340902 0.000000 0.208424
O O15 0.420205 0.241154 0.855519
O O16 0.348684 0.189866 0.708368
O O17 0.421776 0.000000 0.741929
O O18 0.417446 0.500000 0.214446
O O19 0.434962 0.303812 0.066757
O O20 0.398309 0.500000 0.917011
O O21 0.691965 0.000000 0.439592
#
# Coordination Sequence:
#
# PCOD8101429 Si02
#       8
#     8   8   8   8   8   8   8   8
#     4  10  21  37  57  86 122 162 207 256 304 355
#     4  10  23  43  67  94 120 154 202 250 309 378
#     4  10  20  36  58  82 113 158 204 248 296 357
#     4  11  22  35  56  87 120 159 201 245 302 362
#     4  11  24  40  61  91 126 160 198 252 311 364
#     4   9  20  41  64  88 120 157 203 257 306 360
#     4   9  20  39  61  86 119 160 205 249 300 362
#     4   9  21  39  55  81 117 155 197 246 302 357
#
# _framework density 20.886966000000001
#
# number of rings (size 3 to 8) (size 9 to 14) (size 15 to 20)
#    0.000    2.125    0.000    3.000    3.500    5.250 
#    0.000    2.500    0.000    0.000    0.000    0.000 
#    0.000    0.000    0.000    0.000    0.000    0.000 
#
# Total GULP energy -396587.734783 kJ/mol
# GULP energy per Si atom -12393.366712 kJ/mol
# Density = 2.083943 g / cm^3
# Si number density = 20.886966 Si / 1000 Ang^3
#
#
#
# Elastic Constant Matrix: (Units=GPa)
#
#
# Indices 1 2 3 4 5 6 
#
# 1 46.4129 33.3673 25.3154 0.0000 1.9261 0.0000
# 2 33.3673 93.3270 35.2474 0.0000 -12.1914 0.0000
# 3 25.3154 35.2474 81.9257 0.0000 -12.2504 0.0000
# 4 0.0000 0.0000 0.0000 30.3649 0.0000 -6.0401
# 5 1.9261 -12.1914 -12.2504 0.0000 31.4230 0.0000
# 6 0.0000 0.0000 0.0000 -6.0401 0.0000 29.9564
#
#
#
# Elastic Compliance Matrix: (Units=1/GPa)
#
#
# Indices 1 2 3 4 5 6 
#
# 1 0.033244 -0.010342 -0.007144 0.000000 -0.008835 0.000000
# 2 -0.010342 0.016282 -0.002941 0.000000 0.005804 0.000000
# 3 -0.007144 -0.002941 0.016538 0.000000 0.005744 0.000000
# 4 0.000000 0.000000 0.000000 0.034309 0.000000 0.006918
# 5 -0.008835 0.005804 0.005744 0.000000 0.036857 0.000000
# 6 0.000000 0.000000 0.000000 0.006918 0.000000 0.034777
#
#
# Mechanical properties :
#
#
# Convention : Reuss Voigt Hill
#
# Bulk Modulus (GPa) = 39.66836 45.50284 42.58560
# Shear Modulus (GPa) = 22.59744 26.86456 24.73100
#
# Velocity S-wave (km/s) = 3.29278 3.59024 3.44472
# Velocity P-wave (km/s) = 5.78703 6.24652 6.02116
#
# Compressibility (1/GPa) = 0.02520901
#
# Stress axis : x y z
#
# Youngs Moduli (GPa) = 30.08057 61.41911 60.46590
#
# Poissons Ratio (x) = 0.63518 0.43199
# Poissons Ratio (y) = 0.31108 0.17785
# Poissons Ratio (z) = 0.21491 0.18066
#
# Static dielectric constant tensor:
#      x y z
#    x 3.798350 0.000000 0.028440 
#    y 0.000000 3.730960 0.000000 
#    z 0.028440 0.000000 3.631900 
# 
# 
# High freq. dielectric constant tensor:
#      x y z
#    x 1.813660 0.000000 -0.001000 
#    y 0.000000 1.815790 0.000000 
#    z -0.001000 0.000000 1.807360 
# 
# From -- ./inp_files/187463.got.cif
#   From: 2010.06.25/outbox.cif.g09.slc.cpg/sg12_94_cif.got.tgz:187463.got - 2010.06.28 00:19:55.
