data_PCOD8101515
_publ_section_title
;
Structure prediction by ZEFSAII (Michael W. Deem and Ramdas Pophale) SiO2 
 PCOD8101515
Probable space group: C 2/M
;
_chemical_formula_sum "Si O2"
_cell_formula_units_Z 44
_cell_length_a 21.930813
_cell_length_b 9.334898
_cell_length_c 11.188742
_cell_angle_alpha 90.000000
_cell_angle_beta 70.744203
_cell_angle_gamma 90.000000
_cell_volume 2162.435528
_symmetry_space_group_name_H-M "C 2/M"
_symmetry_group_IT_number 12
_symmetry_cell_setting 'monoclinic'
loop_
_space_group_symop_operation_xyz
x,y,z
-x,y,-z
-x,-y,-z
x,-y,z
1/2+x,1/2+y,z
1/2-x,1/2+y,-z
1/2-x,1/2-y,-z
1/2+x,1/2-y,z
loop_
_atom_site_type_symbol
_atom_site_label
_atom_site_fract_x
_atom_site_fract_y
_atom_site_fract_z
Si Si1 0.095125 0.659149 0.240885
Si Si2 0.940665 0.836146 0.955369
Si Si3 0.799145 0.828440 0.702012
Si Si4 0.116156 0.836440 0.567608
Si Si5 0.500000 0.230271 0.500000
Si Si6 0.166709 0.833600 0.783587
O O1 0.119072 0.500000 0.190757
O O2 0.055784 0.729619 0.158325
O O3 0.156327 0.761972 0.222878
O O4 0.048363 0.639559 0.386249
O O5 0.947593 0.000000 0.905900
O O6 0.875036 0.813786 0.070920
O O7 0.000000 0.794128 0.000000
O O8 0.830139 0.772513 0.557314
O O9 0.728149 0.766778 0.759798
O O10 0.798904 0.000000 0.715616
O O11 0.126181 0.774077 0.694709
O O12 0.043659 0.822041 0.563522
O O13 0.132689 0.000000 0.567930
O O14 0.187117 0.000000 0.755256
#
# Coordination Sequence:
#
# PCOD8101515 Si02
#       6
#     8   8   8   8   4   8
#     4  11  23  39  59  84 115 148 186 234 284 334
#     4  10  22  40  61  85 114 150 190 229 274 335
#     4  10  21  37  58  85 114 148 191 234 279 334
#     4   9  18  33  57  87 116 149 189 231 277 333
#     4  10  20  36  58  86 115 148 185 230 285 336
#     4  10  20  36  58  84 115 150 187 231 282 331
#
# _framework density 20.347425000000001
#
# number of rings (size 3 to 8) (size 9 to 14) (size 15 to 20)
#    0.000    2.000    0.000    3.273    0.000    5.455 
#    0.000    6.364    0.000    0.000    0.000    0.000 
#    0.000    0.000    0.000    0.000    0.000    0.000 
#
# Total GULP energy -272704.839098 kJ/mol
# GULP energy per Si atom -12395.674504 kJ/mol
# Density = 2.030111 g / cm^3
# Si number density = 20.347425 Si / 1000 Ang^3
#
#
#
# Elastic Constant Matrix: (Units=GPa)
#
#
# Indices 1 2 3 4 5 6 
#
# 1 131.7485 53.0575 40.6449 0.0000 5.1139 0.0000
# 2 53.0575 104.6171 44.0431 0.0000 10.8795 0.0000
# 3 40.6449 44.0431 74.1394 0.0000 14.9523 0.0000
# 4 0.0000 0.0000 0.0000 19.3596 0.0000 1.4021
# 5 5.1139 10.8795 14.9523 0.0000 31.2842 0.0000
# 6 0.0000 0.0000 0.0000 1.4021 0.0000 19.6229
#
#
#
# Elastic Compliance Matrix: (Units=1/GPa)
#
#
# Indices 1 2 3 4 5 6 
#
# 1 0.010174 -0.003784 -0.003607 0.000000 0.001377 0.000000
# 2 -0.003784 0.014177 -0.006062 0.000000 -0.001414 0.000000
# 3 -0.003607 -0.006062 0.020499 0.000000 -0.007100 0.000000
# 4 0.000000 0.000000 0.000000 0.051923 0.000000 -0.003710
# 5 0.001377 -0.001414 -0.007100 0.000000 0.035625 0.000000
# 6 0.000000 0.000000 0.000000 -0.003710 0.000000 0.051226
#
#
# Mechanical properties :
#
#
# Convention : Reuss Voigt Hill
#
# Bulk Modulus (GPa) = 55.73390 65.11069 60.42229
# Shear Modulus (GPa) = 23.09356 25.57064 24.33210
#
# Velocity S-wave (km/s) = 3.37257 3.54884 3.46183
# Velocity P-wave (km/s) = 6.52811 6.99009 6.76305
#
# Compressibility (1/GPa) = 0.01794240
#
# Stress axis : x y z
#
# Youngs Moduli (GPa) = 98.29422 70.53630 48.78368
#
# Poissons Ratio (x) = 0.26693 0.17596
# Poissons Ratio (y) = 0.37197 0.29574
# Poissons Ratio (z) = 0.35455 0.42760
#
# Static dielectric constant tensor:
#      x y z
#    x 3.717490 0.000000 0.198540 
#    y 0.000000 3.417250 0.000000 
#    z 0.198540 0.000000 3.923820 
# 
# 
# High freq. dielectric constant tensor:
#      x y z
#    x 1.801550 0.000000 0.004410 
#    y 0.000000 1.774760 0.000000 
#    z 0.004410 0.000000 1.798360 
# 
# From -- ./inp_files/162990.got.cif
#   From: 2010.06.25/outbox.cif.g09.slc.cpg/sg12_82_cif.got.tgz:162990.got - 2010.06.28 00:19:55.
