data_PCOD8101945
_publ_section_title
;
Structure prediction by ZEFSAII (Michael W. Deem and Ramdas Pophale) SiO2 
 PCOD8101945
Probable space group: C 2/M
;
_chemical_formula_sum "Si O2"
_cell_formula_units_Z 64
_cell_length_a 17.118623
_cell_length_b 13.770425
_cell_length_c 15.285624
_cell_angle_alpha 90.000000
_cell_angle_beta 66.262117
_cell_angle_gamma 90.000000
_cell_volume 3298.440502
_symmetry_space_group_name_H-M "C 2/M"
_symmetry_group_IT_number 12
_symmetry_cell_setting 'monoclinic'
loop_
_space_group_symop_operation_xyz
x,y,z
-x,y,-z
-x,-y,-z
x,-y,z
1/2+x,1/2+y,z
1/2-x,1/2+y,-z
1/2-x,1/2-y,-z
1/2+x,1/2-y,z
loop_
_atom_site_type_symbol
_atom_site_label
_atom_site_fract_x
_atom_site_fract_y
_atom_site_fract_z
Si Si1 0.459204 0.744818 0.613281
Si Si2 0.636475 0.240448 0.591965
Si Si3 0.767645 0.610792 0.572646
Si Si4 0.518886 0.887314 0.090493
Si Si5 0.825112 0.731104 0.898364
Si Si6 0.338842 0.110415 0.259234
Si Si7 0.666775 0.388161 0.238733
Si Si8 0.673205 0.890510 0.268403
O O1 0.500000 0.735990 0.500000
O O2 0.536640 0.739189 0.647955
O O3 0.393155 0.656778 0.658480
O O4 0.415127 0.847263 0.654640
O O5 0.682550 0.344990 0.567565
O O6 0.652942 0.177551 0.495843
O O7 0.678377 0.180641 0.652181
O O8 0.779478 0.500000 0.535731
O O9 0.759635 0.615215 0.681931
O O10 0.594347 0.820085 0.092998
O O11 0.431917 0.866227 0.180362
O O12 0.547041 0.000000 0.085439
O O13 0.500000 0.858141 0.000000
O O14 0.851992 0.834723 0.845028
O O15 0.791211 0.666248 0.832083
O O16 0.750000 0.750000 0.000000
O O17 0.265947 0.127533 0.219347
O O18 0.334025 0.000000 0.295060
O O19 0.643310 0.500000 0.237068
O O20 0.654302 0.000000 0.247979
#
# Coordination Sequence:
#
# PCOD8101945 Si02
#       8
#     8   8   8   8   8   8   8   8
#     4  11  22  37  56  84 118 158 200 244 299 353
#     4  11  21  35  56  79 114 151 194 245 283 348
#     4  10  22  37  55  80 111 152 194 239 292 347
#     4  10  21  38  61  92 121 149 192 248 306 357
#     4  11  22  37  62  91 121 155 193 238 301 364
#     4  10  20  36  60  85 113 153 199 247 297 345
#     4  10  23  40  58  84 121 160 202 248 293 354
#     4  10  21  39  60  87 121 152 193 246 304 358
#
# _framework density 19.403109000000001
#
# number of rings (size 3 to 8) (size 9 to 14) (size 15 to 20)
#    0.000    1.625    1.250    4.500    1.750    5.000 
#    0.000    0.000    0.000    0.375    0.000    0.000 
#    0.000    0.000    0.000    0.000    0.000    0.000 
#
# Total GULP energy -396743.898712 kJ/mol
# GULP energy per Si atom -12398.246835 kJ/mol
# Density = 1.935895 g / cm^3
# Si number density = 19.403109 Si / 1000 Ang^3
#
#
#
# Elastic Constant Matrix: (Units=GPa)
#
#
# Indices 1 2 3 4 5 6 
#
# 1 99.3814 51.8350 31.7599 0.0000 -8.0726 0.0000
# 2 51.8350 137.2371 53.6111 0.0000 -2.9148 0.0000
# 3 31.7599 53.6111 121.9743 0.0000 -1.7806 0.0000
# 4 0.0000 0.0000 0.0000 23.9009 0.0000 4.2367
# 5 -8.0726 -2.9148 -1.7806 0.0000 31.4994 0.0000
# 6 0.0000 0.0000 0.0000 4.2367 0.0000 31.3070
#
#
#
# Elastic Compliance Matrix: (Units=1/GPa)
#
#
# Indices 1 2 3 4 5 6 
#
# 1 0.012991 -0.004275 -0.001462 0.000000 0.002851 0.000000
# 2 -0.004275 0.010215 -0.003382 0.000000 -0.000341 0.000000
# 3 -0.001462 -0.003382 0.010064 0.000000 -0.000119 0.000000
# 4 0.000000 0.000000 0.000000 0.042868 0.000000 -0.005801
# 5 0.002851 -0.000341 -0.000119 0.000000 0.032439 0.000000
# 6 0.000000 0.000000 0.000000 -0.005801 0.000000 0.032727
#
#
# Mechanical properties :
#
#
# Convention : Reuss Voigt Hill
#
# Bulk Modulus (GPa) = 66.52325 70.33386 68.42856
# Shear Modulus (GPa) = 30.38566 32.10058 31.24312
#
# Velocity S-wave (km/s) = 3.96159 4.07185 4.01710
# Velocity P-wave (km/s) = 7.43538 7.64422 7.54052
#
# Compressibility (1/GPa) = 0.01503234
#
# Stress axis : x y z
#
# Youngs Moduli (GPa) = 76.97776 97.89392 99.36669
#
# Poissons Ratio (x) = 0.41850 0.14527
# Poissons Ratio (y) = 0.32908 0.33603
# Poissons Ratio (z) = 0.11254 0.33105
#
# Static dielectric constant tensor:
#      x y z
#    x 3.596910 0.000000 0.040900 
#    y 0.000000 3.616370 0.000000 
#    z 0.040900 0.000000 3.555440 
# 
# 
# High freq. dielectric constant tensor:
#      x y z
#    x 1.752880 0.000000 0.006530 
#    y 0.000000 1.756030 0.000000 
#    z 0.006530 0.000000 1.755030 
# 
# From -- ./inp_files/225245.got.cif
#   From: 2010.06.25/outbox.cif.g09.slc.cpg/sg12_113_cif.got.tgz:225245.got - 2010.06.28 00:19:55.
