data_PCOD8101644
_publ_section_title
;
Structure prediction by ZEFSAII (Michael W. Deem and Ramdas Pophale) SiO2 
 PCOD8101644
Probable space group: C 2/M
;
_chemical_formula_sum "Si O2"
_cell_formula_units_Z 64
_cell_length_a 18.492309
_cell_length_b 13.969581
_cell_length_c 17.600990
_cell_angle_alpha 90.000000
_cell_angle_beta 129.533733
_cell_angle_gamma 90.000000
_cell_volume 3506.765871
_symmetry_space_group_name_H-M "C 2/M"
_symmetry_group_IT_number 12
_symmetry_cell_setting 'monoclinic'
loop_
_space_group_symop_operation_xyz
x,y,z
-x,y,-z
-x,-y,-z
x,-y,z
1/2+x,1/2+y,z
1/2-x,1/2+y,-z
1/2-x,1/2-y,-z
1/2+x,1/2-y,z
loop_
_atom_site_type_symbol
_atom_site_label
_atom_site_fract_x
_atom_site_fract_y
_atom_site_fract_z
Si Si1 0.102280 0.766938 0.377323
Si Si2 0.642337 0.228847 0.916234
Si Si3 0.224067 0.241734 0.605350
Si Si4 0.598862 0.107486 0.591355
Si Si5 0.898734 0.391886 0.968380
Si Si6 0.432131 0.388417 0.230408
Si Si7 0.052848 0.608725 0.729285
Si Si8 0.223534 0.111390 0.750412
O O1 0.161716 0.788743 0.491975
O O2 0.168806 0.756172 0.348392
O O3 0.042728 0.669183 0.342006
O O4 0.036488 0.859706 0.324775
O O5 0.593206 0.329523 0.862747
O O6 0.624585 0.152308 0.837895
O O7 0.750000 0.250000 0.000000
O O8 0.598891 0.184648 0.962899
O O9 0.187375 0.341378 0.613740
O O10 0.214485 0.162357 0.663719
O O11 0.500000 0.155946 0.500000
O O12 0.609437 0.110929 0.688713
O O13 0.600606 0.000000 0.560209
O O14 0.875038 0.500000 0.981708
O O15 0.821532 0.360273 0.855148
O O16 0.000000 0.389892 0.000000
O O17 0.425695 0.500000 0.206849
O O18 0.361172 0.358200 0.250438
O O19 0.025390 0.500000 0.733300
O O20 0.218389 0.000000 0.728999
#
# Coordination Sequence:
#
# PCOD8101644 Si02
#       8
#     8   8   8   8   8   8   8   8
#     4  10  23  37  56  86 113 156 188 233 289 338
#     4  11  21  36  61  85 113 150 190 233 286 340
#     4  11  22  37  58  83 118 149 193 235 284 344
#     4  10  20  36  59  82 109 146 185 236 287 331
#     4  10  22  39  60  89 119 147 184 239 298 341
#     4  10  22  40  58  81 117 154 193 233 282 345
#     4  10  21  37  59  87 112 143 191 238 286 340
#     4  10  22  38  59  87 116 150 190 238 291 344
#
# _framework density 18.250433000000001
#
# number of rings (size 3 to 8) (size 9 to 14) (size 15 to 20)
#    0.000    1.750    2.500    1.875    3.500    2.000 
#    0.000    3.750    0.000    0.375    0.000    0.000 
#    0.000    0.000    0.000    0.000    0.000    0.000 
#
# Total GULP energy -396837.661087 kJ/mol
# GULP energy per Si atom -12401.176909 kJ/mol
# Density = 1.820889 g / cm^3
# Si number density = 18.250433 Si / 1000 Ang^3
#
#
#
# Elastic Constant Matrix: (Units=GPa)
#
#
# Indices 1 2 3 4 5 6 
#
# 1 107.6142 48.4406 43.8750 0.0000 3.6758 0.0000
# 2 48.4406 108.0744 49.6368 0.0000 -8.9048 0.0000
# 3 43.8750 49.6368 110.3388 0.0000 0.6822 0.0000
# 4 0.0000 0.0000 0.0000 28.9476 0.0000 0.2678
# 5 3.6758 -8.9048 0.6822 0.0000 29.4594 0.0000
# 6 0.0000 0.0000 0.0000 0.2678 0.0000 25.0434
#
#
#
# Elastic Compliance Matrix: (Units=1/GPa)
#
#
# Indices 1 2 3 4 5 6 
#
# 1 0.012645 -0.004543 -0.002967 0.000000 -0.002882 0.000000
# 2 -0.004543 0.013700 -0.004386 0.000000 0.004810 0.000000
# 3 -0.002967 -0.004386 0.012224 0.000000 -0.001239 0.000000
# 4 0.000000 0.000000 0.000000 0.034549 0.000000 -0.000369
# 5 -0.002882 0.004810 -0.001239 0.000000 0.035787 0.000000
# 6 0.000000 0.000000 0.000000 -0.000369 0.000000 0.039935
#
#
# Mechanical properties :
#
#
# Convention : Reuss Voigt Hill
#
# Bulk Modulus (GPa) = 67.67301 67.77024 67.72163
# Shear Modulus (GPa) = 28.16001 28.96175 28.56088
#
# Velocity S-wave (km/s) = 3.93234 3.98792 3.96023
# Velocity P-wave (km/s) = 7.60121 7.64322 7.62224
#
# Compressibility (1/GPa) = 0.01477694
#
# Stress axis : x y z
#
# Youngs Moduli (GPa) = 79.08061 72.99346 81.80860
#
# Poissons Ratio (x) = 0.33158 0.24272
# Poissons Ratio (y) = 0.35924 0.35884
# Poissons Ratio (z) = 0.23462 0.32018
#
# Static dielectric constant tensor:
#      x y z
#    x 3.373860 0.000000 0.060950 
#    y 0.000000 3.451810 0.000000 
#    z 0.060950 0.000000 3.493340 
# 
# 
# High freq. dielectric constant tensor:
#      x y z
#    x 1.704300 0.000000 0.002310 
#    y 0.000000 1.707640 0.000000 
#    z 0.002310 0.000000 1.715410 
# 
# From -- ./inp_files/225295.got.cif
#   From: 2010.06.25/outbox.cif.g09.slc.cpg/sg12_113_cif.got.tgz:225295.got - 2010.06.28 00:19:55.
