data_PCOD8101673
_publ_section_title
;
Structure prediction by ZEFSAII (Michael W. Deem and Ramdas Pophale) SiO2 
 PCOD8101673
Probable space group: C 2/M
;
_chemical_formula_sum "Si O2"
_cell_formula_units_Z 64
_cell_length_a 29.979641
_cell_length_b 9.413308
_cell_length_c 12.204001
_cell_angle_alpha 90.000000
_cell_angle_beta 92.160386
_cell_angle_gamma 90.000000
_cell_volume 3441.613790
_symmetry_space_group_name_H-M "C 2/M"
_symmetry_group_IT_number 12
_symmetry_cell_setting 'monoclinic'
loop_
_space_group_symop_operation_xyz
x,y,z
-x,y,-z
-x,-y,-z
x,-y,z
1/2+x,1/2+y,z
1/2-x,1/2+y,-z
1/2-x,1/2-y,-z
1/2+x,1/2-y,z
loop_
_atom_site_type_symbol
_atom_site_label
_atom_site_fract_x
_atom_site_fract_y
_atom_site_fract_z
Si Si1 0.476462 0.338153 0.723732
Si Si2 0.186430 0.837741 0.486427
Si Si3 0.437628 0.164814 0.305890
Si Si4 0.779486 0.332615 0.089776
Si Si5 0.548423 0.662100 0.039536
Si Si6 0.382103 0.163189 0.090556
Si Si7 0.735529 0.834242 0.664772
Si Si8 0.414632 0.336397 0.518137
O O1 0.493276 0.500000 0.709978
O O2 0.518508 0.235890 0.740691
O O3 0.446265 0.325765 0.829264
O O4 0.446964 0.288905 0.618616
O O5 0.216892 0.795106 0.385270
O O6 0.196692 0.744366 0.594197
O O7 0.135705 0.812612 0.445379
O O8 0.195509 0.000000 0.520727
O O9 0.397498 0.187630 0.216868
O O10 0.424690 0.237751 0.417237
O O11 0.447290 0.000000 0.328476
O O12 0.772325 0.500000 0.073112
O O13 0.830876 0.288938 0.076991
O O14 0.764027 0.283970 0.209484
O O15 0.750000 0.250000 0.000000
O O16 0.552156 0.500000 0.998693
O O17 0.500000 0.723581 0.000000
O O18 0.588726 0.747602 0.990882
O O19 0.388021 0.000000 0.057662
O O20 0.724268 0.000000 0.657347
O O21 0.422875 0.500000 0.485673
#
# Coordination Sequence:
#
# PCOD8101673 Si02
#       8
#     8   8   8   8   8   8   8   8
#     4  10  21  37  55  78 110 144 179 226 276 319
#     4   9  18  33  55  82 106 138 182 223 268 325
#     4  11  22  36  56  80 108 143 183 223 268 325
#     4  10  22  39  57  81 113 147 184 227 277 331
#     4  10  20  36  59  84 108 140 189 235 269 320
#     4  10  22  38  57  82 112 147 184 226 280 332
#     4   9  18  35  58  80 108 142 178 223 274 323
#     4  10  21  35  52  77 111 145 178 220 273 326
#
# _framework density 18.595928000000001
#
# number of rings (size 3 to 8) (size 9 to 14) (size 15 to 20)
#    0.000    2.125    1.250    1.500    0.000    6.750 
#    0.000    2.500    0.000    0.000    0.000    0.000 
#    0.000    0.000    0.000    0.000    0.000    0.000 
#
# Total GULP energy -396891.211630 kJ/mol
# GULP energy per Si atom -12402.850363 kJ/mol
# Density = 1.855360 g / cm^3
# Si number density = 18.595928 Si / 1000 Ang^3
#
#
#
# Elastic Constant Matrix: (Units=GPa)
#
#
# Indices 1 2 3 4 5 6 
#
# 1 116.8030 55.6296 70.1956 0.0000 6.2094 0.0000
# 2 55.6296 71.4135 54.7989 0.0000 1.4014 0.0000
# 3 70.1956 54.7989 123.8302 0.0000 -2.7603 0.0000
# 4 0.0000 0.0000 0.0000 32.7835 0.0000 -0.8156
# 5 6.2094 1.4014 -2.7603 0.0000 29.1693 0.0000
# 6 0.0000 0.0000 0.0000 -0.8156 0.0000 29.9381
#
#
#
# Elastic Compliance Matrix: (Units=1/GPa)
#
#
# Indices 1 2 3 4 5 6 
#
# 1 0.015924 -0.008098 -0.005522 0.000000 -0.003523 0.000000
# 2 -0.008098 0.025428 -0.006665 0.000000 -0.000128 0.000000
# 3 -0.005522 -0.006665 0.014218 0.000000 0.002841 0.000000
# 4 0.000000 0.000000 0.000000 0.030524 0.000000 0.000832
# 5 -0.003523 -0.000128 0.002841 0.000000 0.035308 0.000000
# 6 0.000000 0.000000 0.000000 0.000832 0.000000 0.033425
#
#
# Mechanical properties :
#
#
# Convention : Reuss Voigt Hill
#
# Bulk Modulus (GPa) = 66.66304 74.81055 70.73680
# Shear Modulus (GPa) = 24.95043 27.13969 26.04506
#
# Velocity S-wave (km/s) = 3.66692 3.82441 3.74649
# Velocity P-wave (km/s) = 7.33855 7.73423 7.53899
#
# Compressibility (1/GPa) = 0.01500082
#
# Stress axis : x y z
#
# Youngs Moduli (GPa) = 62.79802 39.32631 70.33137
#
# Poissons Ratio (x) = 0.31848 0.38834
# Poissons Ratio (y) = 0.50856 0.46876
# Poissons Ratio (z) = 0.34675 0.26211
#
# Static dielectric constant tensor:
#      x y z
#    x 3.506610 0.000000 -0.035330 
#    y 0.000000 3.395580 0.000000 
#    z -0.035330 0.000000 3.438660 
# 
# 
# High freq. dielectric constant tensor:
#      x y z
#    x 1.725040 0.000000 -0.004470 
#    y 0.000000 1.716070 0.000000 
#    z -0.004470 0.000000 1.726870 
# 
# From -- ./inp_files/187445.got.cif
#   From: 2010.06.25/outbox.cif.g09.slc.cpg/sg12_94_cif.got.tgz:187445.got - 2010.06.28 00:19:55.
