data_PCOD8101978
_publ_section_title
;
Structure prediction by ZEFSAII (Michael W. Deem and Ramdas Pophale) SiO2 
 PCOD8101978
Probable space group: C 2/M
;
_chemical_formula_sum "Si O2"
_cell_formula_units_Z 56
_cell_length_a 17.795718
_cell_length_b 8.776130
_cell_length_c 18.542653
_cell_angle_alpha 90.000000
_cell_angle_beta 104.022706
_cell_angle_gamma 90.000000
_cell_volume 2809.646001
_symmetry_space_group_name_H-M "C 2/M"
_symmetry_group_IT_number 12
_symmetry_cell_setting 'monoclinic'
loop_
_space_group_symop_operation_xyz
x,y,z
-x,y,-z
-x,-y,-z
x,-y,z
1/2+x,1/2+y,z
1/2-x,1/2+y,-z
1/2-x,1/2-y,-z
1/2+x,1/2-y,z
loop_
_atom_site_type_symbol
_atom_site_label
_atom_site_fract_x
_atom_site_fract_y
_atom_site_fract_z
Si Si1 0.467405 0.324851 0.569070
Si Si2 0.807860 0.320326 0.570732
Si Si3 0.592391 0.675944 0.721020
Si Si4 0.879802 0.321763 0.865788
Si Si5 0.262949 0.819533 0.717230
Si Si6 0.667569 0.678780 0.996408
Si Si7 0.946861 0.323491 0.141047
O O1 0.500000 0.271023 0.500000
O O2 0.439662 0.500000 0.559335
O O3 0.395687 0.220202 0.573101
O O4 0.535420 0.300560 0.641502
O O5 0.797077 0.500000 0.566665
O O6 0.750000 0.250000 0.500000
O O7 0.787097 0.253418 0.644947
O O8 0.595131 0.500000 0.746757
O O9 0.676658 0.733994 0.716223
O O10 0.563232 0.782336 0.778127
O O11 0.866094 0.500000 0.876345
O O12 0.821227 0.256881 0.791806
O O13 0.866532 0.234651 0.936485
O O14 0.965805 0.285954 0.859992
O O15 0.268899 0.000000 0.715898
O O16 0.677795 0.500000 0.001101
O O17 0.750000 0.750000 0.000000
O O18 0.609784 0.721437 0.919169
O O19 0.927091 0.500000 0.123687
#
# Coordination Sequence:
#
# PCOD8101978 Si02
#       7
#     8   8   8   8   8   8   8
#     4  10  21  38  59  85 119 158 198 241 293 350
#     4  11  22  38  60  86 117 154 198 245 295 351
#     4  10  20  36  60  86 115 155 201 245 289 342
#     4  10  21  39  62  87 118 156 195 236 287 347
#     4   9  19  37  60  84 113 153 195 237 290 347
#     4  12  25  41  62  88 118 152 194 243 294 349
#     4  11  23  39  60  88 122 158 196 239 289 345
#
# _framework density 19.931338
#
# number of rings (size 3 to 8) (size 9 to 14) (size 15 to 20)
#    0.000    1.571    0.000    5.143    0.000    8.286 
#    0.000    4.286    0.000    0.000    0.000    0.000 
#    0.000    0.000    0.000    0.000    0.000    0.000 
#
# Total GULP energy -347358.895995 kJ/mol
# GULP energy per Si atom -12405.674857 kJ/mol
# Density = 1.988597 g / cm^3
# Si number density = 19.931338 Si / 1000 Ang^3
#
#
#
# Elastic Constant Matrix: (Units=GPa)
#
#
# Indices 1 2 3 4 5 6 
#
# 1 148.8372 51.4529 59.9066 0.0000 -5.2671 0.0000
# 2 51.4529 64.7979 34.9775 0.0000 -4.6040 0.0000
# 3 59.9066 34.9775 132.8705 0.0000 -9.9532 0.0000
# 4 0.0000 0.0000 0.0000 32.2105 0.0000 0.5956
# 5 -5.2671 -4.6040 -9.9532 0.0000 45.2682 0.0000
# 6 0.0000 0.0000 0.0000 0.5956 0.0000 29.8264
#
#
#
# Elastic Compliance Matrix: (Units=1/GPa)
#
#
# Indices 1 2 3 4 5 6 
#
# 1 0.010109 -0.006493 -0.002857 0.000000 -0.000112 0.000000
# 2 -0.006493 0.022188 -0.002848 0.000000 0.000875 0.000000
# 3 -0.002857 -0.002848 0.009677 0.000000 0.001506 0.000000
# 4 0.000000 0.000000 0.000000 0.031057 0.000000 -0.000620
# 5 -0.000112 0.000875 0.001506 0.000000 0.022497 0.000000
# 6 0.000000 0.000000 0.000000 -0.000620 0.000000 0.033540
#
#
# Mechanical properties :
#
#
# Convention : Reuss Voigt Hill
#
# Bulk Modulus (GPa) = 56.88936 71.01995 63.95465
# Shear Modulus (GPa) = 31.38263 34.80562 33.09412
#
# Velocity S-wave (km/s) = 3.97235 4.18338 4.07923
# Velocity P-wave (km/s) = 7.04585 7.68400 7.37184
#
# Compressibility (1/GPa) = 0.01757798
#
# Stress axis : x y z
#
# Youngs Moduli (GPa) = 98.91749 45.06968 103.34066
#
# Poissons Ratio (x) = 0.29264 0.29526
# Poissons Ratio (y) = 0.64229 0.29429
# Poissons Ratio (z) = 0.28262 0.12835
#
# Static dielectric constant tensor:
#      x y z
#    x 3.821900 0.000000 -0.000990 
#    y 0.000000 3.408840 0.000000 
#    z -0.000990 0.000000 3.844550 
# 
# 
# High freq. dielectric constant tensor:
#      x y z
#    x 1.796470 0.000000 0.000630 
#    y 0.000000 1.760670 0.000000 
#    z 0.000630 0.000000 1.798710 
# 
# From -- ./inp_files/275645.got.cif
#   From: 2010.06.25/outbox.cif.g09.slc.cpg/sg12_138_cif.got.tgz:275645.got - 2010.06.28 00:19:55.
