data_PCOD8101107
_publ_section_title
;
Structure prediction by ZEFSAII (Michael W. Deem and Ramdas Pophale) SiO2 
 PCOD8101107
Probable space group: C 2/M
;
_chemical_formula_sum "Si O2"
_cell_formula_units_Z 56
_cell_length_a 18.651049
_cell_length_b 9.329525
_cell_length_c 20.483097
_cell_angle_alpha 90.000000
_cell_angle_beta 124.580006
_cell_angle_gamma 90.000000
_cell_volume 2934.504080
_symmetry_space_group_name_H-M "C 2/M"
_symmetry_group_IT_number 12
_symmetry_cell_setting 'monoclinic'
loop_
_space_group_symop_operation_xyz
x,y,z
-x,y,-z
-x,-y,-z
x,-y,z
1/2+x,1/2+y,z
1/2-x,1/2+y,-z
1/2-x,1/2-y,-z
1/2+x,1/2-y,z
loop_
_atom_site_type_symbol
_atom_site_label
_atom_site_fract_x
_atom_site_fract_y
_atom_site_fract_z
Si Si1 0.415159 0.166969 0.495470
Si Si2 0.900951 0.834350 0.219109
Si Si3 0.410550 0.666846 0.627128
Si Si4 0.769736 0.166557 0.660677
Si Si5 0.591985 0.837436 0.036198
Si Si6 0.333504 0.162944 0.063722
Si Si7 0.267059 0.167972 0.790199
O O1 0.500000 0.223137 0.500000
O O2 0.402889 0.248268 0.556463
O O3 0.330130 0.198474 0.408586
O O4 0.425287 0.000000 0.516929
O O5 0.884206 0.735017 0.148859
O O6 0.832256 0.797505 0.240749
O O7 0.996812 0.798456 0.293200
O O8 0.890638 0.000000 0.192437
O O9 0.400773 0.500000 0.605696
O O10 0.333851 0.718274 0.635959
O O11 0.793292 0.252014 0.737901
O O12 0.785689 0.000000 0.683006
O O13 0.671250 0.770930 0.119443
O O14 0.584678 0.000000 0.057564
O O15 0.500000 0.756435 0.000000
O O16 0.603969 0.831811 0.965538
O O17 0.308037 0.000000 0.068892
O O18 0.250000 0.250000 0.000000
O O19 0.279106 0.000000 0.784262
#
# Coordination Sequence:
#
# PCOD8101107 Si02
#       7
#     8   8   8   8   8   8   8
#     4  10  21  38  60  84 113 146 184 229 272 326
#     4  10  21  38  56  80 113 145 185 232 276 328
#     4  10  22  38  58  83 115 148 180 228 280 329
#     4  10  22  38  55  82 117 146 178 229 283 326
#     4   9  19  35  54  78 110 144 184 232 275 319
#     4  11  21  36  59  83 110 147 187 233 281 327
#     4  10  20  36  57  79 107 146 187 228 270 326
#
# _framework density 19.083293000000001
#
# number of rings (size 3 to 8) (size 9 to 14) (size 15 to 20)
#    0.000    2.000    1.429    1.714    2.000    2.571 
#    0.000    0.000    0.000    2.143    0.000    0.000 
#    0.000    0.000    0.000    0.000    0.000    0.000 
#
# Total GULP energy -347210.473987 kJ/mol
# GULP energy per Si atom -12400.374071 kJ/mol
# Density = 1.903986 g / cm^3
# Si number density = 19.083293 Si / 1000 Ang^3
#
#
#
# Elastic Constant Matrix: (Units=GPa)
#
#
# Indices 1 2 3 4 5 6 
#
# 1 126.0433 26.4469 39.1819 0.0000 -0.6455 0.0000
# 2 26.4469 54.2522 39.8132 0.0000 -12.2194 0.0000
# 3 39.1819 39.8132 84.1024 0.0000 -16.9238 0.0000
# 4 0.0000 0.0000 0.0000 33.4374 0.0000 -12.0755
# 5 -0.6455 -12.2194 -16.9238 0.0000 38.6875 0.0000
# 6 0.0000 0.0000 0.0000 -12.0755 0.0000 22.9911
#
#
#
# Elastic Compliance Matrix: (Units=1/GPa)
#
#
# Indices 1 2 3 4 5 6 
#
# 1 0.009606 -0.002411 -0.003788 0.000000 -0.002258 0.000000
# 2 -0.002411 0.029256 -0.011924 0.000000 0.003984 0.000000
# 3 -0.003788 -0.011924 0.020318 0.000000 0.005059 0.000000
# 4 0.000000 0.000000 0.000000 0.036907 0.000000 0.019385
# 5 -0.002258 0.003984 0.005059 0.000000 0.029282 0.000000
# 6 0.000000 0.000000 0.000000 0.019385 0.000000 0.053676
#
#
# Mechanical properties :
#
#
# Convention : Reuss Voigt Hill
#
# Bulk Modulus (GPa) = 43.60740 52.80911 48.20825
# Shear Modulus (GPa) = 22.42790 29.62024 26.02407
#
# Velocity S-wave (km/s) = 3.43193 3.94401 3.69685
# Velocity P-wave (km/s) = 6.21328 6.96228 6.59842
#
# Compressibility (1/GPa) = 0.02293189
#
# Stress axis : x y z
#
# Youngs Moduli (GPa) = 104.10423 34.18105 49.21773
#
# Poissons Ratio (x) = 0.08242 0.18644
# Poissons Ratio (y) = 0.25104 0.58689
# Poissons Ratio (z) = 0.39436 0.40759
#
# Static dielectric constant tensor:
#      x y z
#    x 3.652880 0.000000 0.390380 
#    y 0.000000 3.357270 0.000000 
#    z 0.390380 0.000000 2.776610 
# 
# 
# High freq. dielectric constant tensor:
#      x y z
#    x 1.757350 0.000000 0.004380 
#    y 0.000000 1.722430 0.000000 
#    z 0.004380 0.000000 1.749580 
# 
# From -- ./inp_files/320256.got.cif
#   From: 2010.06.25/outbox.cif.g09.slc.cpg/sg12_161_cif.got.tgz:320256.got - 2010.06.28 00:19:55.
