data_PCOD8101015
_publ_section_title
;
Structure prediction by ZEFSAII (Michael W. Deem and Ramdas Pophale) SiO2 
 PCOD8101015
Probable space group: C 2/M
;
_chemical_formula_sum "Si O2"
_cell_formula_units_Z 56
_cell_length_a 32.459038
_cell_length_b 14.954362
_cell_length_c 12.904408
_cell_angle_alpha 90.000000
_cell_angle_beta 25.501945
_cell_angle_gamma 90.000000
_cell_volume 2696.850534
_symmetry_space_group_name_H-M "C 2/M"
_symmetry_group_IT_number 12
_symmetry_cell_setting 'monoclinic'
loop_
_space_group_symop_operation_xyz
x,y,z
-x,y,-z
-x,-y,-z
x,-y,z
1/2+x,1/2+y,z
1/2-x,1/2+y,-z
1/2-x,1/2-y,-z
1/2+x,1/2-y,z
loop_
_atom_site_type_symbol
_atom_site_label
_atom_site_fract_x
_atom_site_fract_y
_atom_site_fract_z
Si Si1 0.486381 0.402269 0.728406
Si Si2 0.910230 0.229753 0.637534
Si Si3 0.040859 0.400105 0.010609
Si Si4 0.611015 0.179733 0.525007
Si Si5 0.431634 0.353167 0.253523
Si Si6 0.784199 0.395153 0.254330
Si Si7 0.684033 0.277801 0.942411
O O1 0.451302 0.500000 0.768758
O O2 0.569045 0.366616 0.462916
O O3 0.527608 0.418198 0.749884
O O4 0.402851 0.327707 0.916939
O O5 0.890964 0.302447 0.592940
O O6 0.000000 0.264700 0.500000
O O7 0.823043 0.219415 0.916196
O O8 0.065035 0.500000 0.922185
O O9 0.958424 0.402082 0.287477
O O10 0.142360 0.361926 0.822144
O O11 0.000000 0.349517 0.000000
O O12 0.564447 0.257578 0.700207
O O13 0.721442 0.167183 0.306302
O O14 0.325123 0.382894 0.460183
O O15 0.500000 0.357565 0.000000
O O16 0.802858 0.500000 0.181337
O O17 0.805507 0.327328 0.110856
#
# Coordination Sequence:
#
# PCOD8101015 Si02
#       7
#     8   8   8   8   8   8   8
#     4  10  21  36  56  85 117 146 181 226 277 332
#     4   9  18  34  56  79 108 144 180 223 276 322
#     4  10  21  37  55  76 108 148 185 224 270 322
#     4  10  20  36  56  81 111 144 186 227 268 327
#     4  10  21  37  59  84 110 142 181 230 281 327
#     4  10  21  38  59  82 109 144 186 228 274 327
#     4  10  21  36  57  83 113 147 181 224 276 327
#
# _framework density 20.764963000000002
#
# number of rings (size 3 to 8) (size 9 to 14) (size 15 to 20)
#    0.000    2.143    0.000    3.857    0.000    5.429 
#    0.000    5.714    0.000    9.429    0.000    0.000 
#    0.000    0.000    0.000    0.000    0.000    0.000 
#
# Total GULP energy -346893.842577 kJ/mol
# GULP energy per Si atom -12389.065806 kJ/mol
# Density = 2.071770 g / cm^3
# Si number density = 20.764963 Si / 1000 Ang^3
#
#
#
# Elastic Constant Matrix: (Units=GPa)
#
#
# Indices 1 2 3 4 5 6 
#
# 1 135.6776 22.1746 73.7314 0.0000 -3.9785 0.0000
# 2 22.1746 64.9461 34.4270 0.0000 2.2065 0.0000
# 3 73.7314 34.4270 141.7011 0.0000 3.0467 0.0000
# 4 0.0000 0.0000 0.0000 16.7806 0.0000 -2.3858
# 5 -3.9785 2.2065 3.0467 0.0000 31.1110 0.0000
# 6 0.0000 0.0000 0.0000 -2.3858 0.0000 15.8049
#
#
#
# Elastic Compliance Matrix: (Units=1/GPa)
#
#
# Indices 1 2 3 4 5 6 
#
# 1 0.010422 -0.000834 -0.005261 0.000000 0.001907 0.000000
# 2 -0.000834 0.017762 -0.003860 0.000000 -0.000988 0.000000
# 3 -0.005261 -0.003860 0.010764 0.000000 -0.001453 0.000000
# 4 0.000000 0.000000 0.000000 0.060900 0.000000 0.009193
# 5 0.001907 -0.000988 -0.001453 0.000000 0.032599 0.000000
# 6 0.000000 0.000000 0.000000 0.009193 0.000000 0.064659
#
#
# Mechanical properties :
#
#
# Convention : Reuss Voigt Hill
#
# Bulk Modulus (GPa) = 52.53030 66.99898 59.76464
# Shear Modulus (GPa) = 22.38523 26.87208 24.62866
#
# Velocity S-wave (km/s) = 3.28690 3.60127 3.44767
# Velocity P-wave (km/s) = 6.30535 7.04469 6.68525
#
# Compressibility (1/GPa) = 0.01903663
#
# Stress axis : x y z
#
# Youngs Moduli (GPa) = 95.95359 56.30014 92.90536
#
# Poissons Ratio (x) = 0.04697 0.48878
# Poissons Ratio (y) = 0.08005 0.35861
# Poissons Ratio (z) = 0.50482 0.21732
#
# Static dielectric constant tensor:
#      x y z
#    x 4.027880 0.000000 -0.060310 
#    y 0.000000 3.551420 0.000000 
#    z -0.060310 0.000000 3.839600 
# 
# 
# High freq. dielectric constant tensor:
#      x y z
#    x 1.820200 0.000000 -0.009710 
#    y 0.000000 1.789940 0.000000 
#    z -0.009710 0.000000 1.813750 
# 
# From -- ./inp_files/189642.got.cif
#   From: 2010.06.25/outbox.cif.g09.slc.cpg/sg12_95_cif.got.tgz:189642.got - 2010.06.28 00:19:55.
