data_PCOD8101974
_publ_section_title
;
Structure prediction by ZEFSAII (Michael W. Deem and Ramdas Pophale) SiO2 
 PCOD8101974
Probable space group: C 2/M
;
_chemical_formula_sum "Si O2"
_cell_formula_units_Z 64
_cell_length_a 16.370612
_cell_length_b 8.890801
_cell_length_c 27.268722
_cell_angle_alpha 90.000000
_cell_angle_beta 127.177736
_cell_angle_gamma 90.000000
_cell_volume 3162.282939
_symmetry_space_group_name_H-M "C 2/M"
_symmetry_group_IT_number 12
_symmetry_cell_setting 'monoclinic'
loop_
_space_group_symop_operation_xyz
x,y,z
-x,y,-z
-x,-y,-z
x,-y,z
1/2+x,1/2+y,z
1/2-x,1/2+y,-z
1/2-x,1/2-y,-z
1/2+x,1/2-y,z
loop_
_atom_site_type_symbol
_atom_site_label
_atom_site_fract_x
_atom_site_fract_y
_atom_site_fract_z
Si Si1 0.794427 0.828374 0.721919
Si Si2 0.712634 0.177159 0.133342
Si Si3 0.135990 0.825300 0.726446
Si Si4 0.311205 0.320947 0.066467
Si Si5 0.452639 0.174752 0.615693
Si Si6 0.545433 0.675088 0.137823
Si Si7 0.777118 0.172984 0.603082
Si Si8 0.911733 0.163361 0.504324
O O1 0.704371 0.715514 0.704218
O O2 0.896553 0.791094 0.789984
O O3 0.813664 0.801486 0.671905
O O4 0.759160 0.000000 0.719184
O O5 0.803407 0.224308 0.203019
O O6 0.752765 0.234015 0.094860
O O7 0.604845 0.249087 0.112965
O O8 0.694218 0.000000 0.126673
O O9 0.030719 0.733974 0.685516
O O10 0.109224 0.000000 0.717064
O O11 0.308326 0.500000 0.063108
O O12 0.429435 0.264255 0.104333
O O13 0.250000 0.250000 0.000000
O O14 0.339150 0.211705 0.592226
O O15 0.467934 0.261433 0.570760
O O16 0.468960 0.000000 0.612943
O O17 0.542782 0.500000 0.124519
O O18 0.661375 0.217914 0.549544
O O19 0.794940 0.000000 0.594393
O O20 0.000000 0.123029 0.500000
O O21 0.860206 0.000000 0.499402
#
# Coordination Sequence:
#
# PCOD8101974 Si02
#       8
#     8   8   8   8   8   8   8   8
#     4   9  19  36  60  86 114 149 190 235 289 350
#     4   9  20  38  61  87 120 159 199 246 300 357
#     4  10  20  36  60  86 115 149 190 237 291 350
#     4  10  22  39  60  87 121 161 202 245 294 354
#     4  12  25  39  57  83 116 150 190 238 288 344
#     4   9  19  37  61  87 119 158 201 247 296 353
#     4  11  23  38  59  85 114 150 190 235 290 347
#     4  11  24  42  62  82 110 148 190 238 289 344
#
# _framework density 20.238544000000001
#
# number of rings (size 3 to 8) (size 9 to 14) (size 15 to 20)
#    0.000    1.875    0.000    3.375    1.750    6.000 
#    0.000    2.500    0.000    0.000    0.000    0.000 
#    0.000    0.000    0.000    0.000    0.000    0.000 
#
# Total GULP energy -396705.808472 kJ/mol
# GULP energy per Si atom -12397.056515 kJ/mol
# Density = 2.019248 g / cm^3
# Si number density = 20.238544 Si / 1000 Ang^3
#
#
#
# Elastic Constant Matrix: (Units=GPa)
#
#
# Indices 1 2 3 4 5 6 
#
# 1 108.9599 32.7924 44.3317 0.0000 -3.9618 0.0000
# 2 32.7924 72.0766 34.6253 0.0000 -6.7246 0.0000
# 3 44.3317 34.6253 101.2551 0.0000 -0.3600 0.0000
# 4 0.0000 0.0000 0.0000 58.1683 0.0000 2.1772
# 5 -3.9618 -6.7246 -0.3600 0.0000 34.7227 0.0000
# 6 0.0000 0.0000 0.0000 2.1772 0.0000 32.1566
#
#
#
# Elastic Compliance Matrix: (Units=1/GPa)
#
#
# Indices 1 2 3 4 5 6 
#
# 1 0.011864 -0.003401 -0.004029 0.000000 0.000653 0.000000
# 2 -0.003401 0.017930 -0.004631 0.000000 0.003036 0.000000
# 3 -0.004029 -0.004631 0.013219 0.000000 -0.001220 0.000000
# 4 0.000000 0.000000 0.000000 0.017235 0.000000 -0.001167
# 5 0.000653 0.003036 -0.001220 0.000000 0.029450 0.000000
# 6 0.000000 0.000000 0.000000 -0.001167 0.000000 0.031177
#
#
# Mechanical properties :
#
#
# Convention : Reuss Voigt Hill
#
# Bulk Modulus (GPa) = 52.93759 56.19891 54.56825
# Shear Modulus (GPa) = 33.04798 36.37901 34.71350
#
# Velocity S-wave (km/s) = 4.04533 4.24431 4.14601
# Velocity P-wave (km/s) = 6.93060 7.20051 7.06684
#
# Compressibility (1/GPa) = 0.01889017
#
# Stress axis : x y z
#
# Youngs Moduli (GPa) = 84.28594 55.77311 75.64637
#
# Poissons Ratio (x) = 0.18971 0.30478
# Poissons Ratio (y) = 0.28669 0.35034
# Poissons Ratio (z) = 0.33959 0.25830
#
# Static dielectric constant tensor:
#      x y z
#    x 3.711220 0.000000 -0.000140 
#    y 0.000000 3.640670 0.000000 
#    z -0.000140 0.000000 3.760180 
# 
# 
# High freq. dielectric constant tensor:
#      x y z
#    x 1.791410 0.000000 0.000850 
#    y 0.000000 1.788820 0.000000 
#    z 0.000850 0.000000 1.793020 
# 
# From -- ./inp_files/375531.got.cif
#   From: 2010.06.25/outbox.cif.g09.slc.cpg/sg12_188_cif.got.tgz:375531.got - 2010.06.28 00:19:55.
