data_PCOD8101608
_publ_section_title
;
Structure prediction by ZEFSAII (Michael W. Deem and Ramdas Pophale) SiO2 
 PCOD8101608
Probable space group: C 2/M
;
_chemical_formula_sum "Si O2"
_cell_formula_units_Z 48
_cell_length_a 23.871248
_cell_length_b 9.326322
_cell_length_c 10.920773
_cell_angle_alpha 90.000000
_cell_angle_beta 80.004912
_cell_angle_gamma 90.000000
_cell_volume 2394.401263
_symmetry_space_group_name_H-M "C 2/M"
_symmetry_group_IT_number 12
_symmetry_cell_setting 'monoclinic'
loop_
_space_group_symop_operation_xyz
x,y,z
-x,y,-z
-x,-y,-z
x,-y,z
1/2+x,1/2+y,z
1/2-x,1/2+y,-z
1/2-x,1/2-y,-z
1/2+x,1/2-y,z
loop_
_atom_site_type_symbol
_atom_site_label
_atom_site_fract_x
_atom_site_fract_y
_atom_site_fract_z
Si Si1 0.958350 0.666205 0.124784
Si Si2 0.233945 0.667613 0.125330
Si Si3 0.192776 0.837479 0.521579
Si Si4 0.478147 0.833988 0.646326
Si Si5 0.135397 0.833172 0.288718
Si Si6 0.350533 0.663912 0.210621
O O1 0.947682 0.500000 0.107829
O O2 0.897668 0.741696 0.124675
O O3 0.978312 0.696040 0.257588
O O4 0.000000 0.722531 0.000000
O O5 0.223548 0.500000 0.105600
O O6 0.175639 0.738540 0.189468
O O7 0.285711 0.696173 0.197580
O O8 0.250000 0.750000 0.000000
O O9 0.250000 0.750000 0.500000
O O10 0.155650 0.809964 0.417872
O O11 0.149423 0.796090 0.646241
O O12 0.213228 0.000000 0.528354
O O13 0.500000 0.797422 0.500000
O O14 0.427518 0.727422 0.697918
O O15 0.458585 0.000000 0.657178
O O16 0.136825 0.000000 0.248157
O O17 0.366844 0.500000 0.177642
#
# Coordination Sequence:
#
# PCOD8101608 Si02
#       6
#     8   8   8   8   8   8
#     4  10  23  41  61  88 118 156 204 252 304 361
#     4  11  24  41  61  88 124 162 203 249 303 364
#     4  10  20  36  58  88 122 154 194 241 295 357
#     4  10  22  41  63  88 121 164 209 253 307 366
#     4  11  23  38  62  94 124 158 202 250 307 366
#     4  10  22  40  62  89 120 156 198 247 302 357
#
# _framework density 20.046765000000001
#
# number of rings (size 3 to 8) (size 9 to 14) (size 15 to 20)
#    0.000    1.667    1.667    2.000    2.333    4.000 
#    0.000    0.000    0.000    0.000    0.000    0.000 
#    0.000    0.000    0.000    0.000    0.000    0.000 
#
# Total GULP energy -297516.872011 kJ/mol
# GULP energy per Si atom -12396.536334 kJ/mol
# Density = 2.000114 g / cm^3
# Si number density = 20.046765 Si / 1000 Ang^3
#
#
#
# Elastic Constant Matrix: (Units=GPa)
#
#
# Indices 1 2 3 4 5 6 
#
# 1 74.0924 44.4758 9.7387 0.0000 -16.9117 0.0000
# 2 44.4758 80.5221 22.5411 0.0000 -1.3380 0.0000
# 3 9.7387 22.5411 90.4893 0.0000 3.7844 0.0000
# 4 0.0000 0.0000 0.0000 32.5034 0.0000 -8.7062
# 5 -16.9117 -1.3380 3.7844 0.0000 21.7967 0.0000
# 6 0.0000 0.0000 0.0000 -8.7062 0.0000 39.6073
#
#
#
# Elastic Compliance Matrix: (Units=1/GPa)
#
#
# Indices 1 2 3 4 5 6 
#
# 1 0.026658 -0.014361 -0.000121 0.000000 0.019822 0.000000
# 2 -0.014361 0.021129 -0.003330 0.000000 -0.009267 0.000000
# 3 -0.000121 -0.003330 0.011993 0.000000 -0.002380 0.000000
# 4 0.000000 0.000000 0.000000 0.032691 0.000000 0.007186
# 5 0.019822 -0.009267 -0.002380 0.000000 0.061103 0.000000
# 6 0.000000 0.000000 0.000000 0.007186 0.000000 0.026827
#
#
# Mechanical properties :
#
#
# Convention : Reuss Voigt Hill
#
# Bulk Modulus (GPa) = 41.39686 44.29055 42.84370
# Shear Modulus (GPa) = 22.31379 30.00469 26.15924
#
# Velocity S-wave (km/s) = 3.33991 3.87296 3.61627
# Velocity P-wave (km/s) = 5.96392 6.49164 6.23337
#
# Compressibility (1/GPa) = 0.02415642
#
# Stress axis : x y z
#
# Youngs Moduli (GPa) = 37.51286 47.32750 83.38106
#
# Poissons Ratio (x) = 0.67967 0.01006
# Poissons Ratio (y) = 0.53872 0.27768
# Poissons Ratio (z) = 0.00453 0.15761
#
# Static dielectric constant tensor:
#      x y z
#    x 3.252540 0.000000 0.007310 
#    y 0.000000 3.688790 0.000000 
#    z 0.007310 0.000000 3.738050 
# 
# 
# High freq. dielectric constant tensor:
#      x y z
#    x 1.781580 0.000000 -0.000290 
#    y 0.000000 1.783280 0.000000 
#    z -0.000290 0.000000 1.798510 
# 
# From -- ./inp_files/172953.got.cif
#   From: 2010.06.25/outbox.cif.g09.slc.cpg/sg12_87_cif.got.tgz:172953.got - 2010.06.28 00:19:55.
