data_PCOD8101967
_publ_section_title
;
Structure prediction by ZEFSAII (Michael W. Deem and Ramdas Pophale) SiO2 
 PCOD8101967
Probable space group: C 2/M
;
_chemical_formula_sum "Si O2"
_cell_formula_units_Z 44
_cell_length_a 18.705190
_cell_length_b 9.531571
_cell_length_c 17.328150
_cell_angle_alpha 90.000000
_cell_angle_beta 136.039161
_cell_angle_gamma 90.000000
_cell_volume 2144.581182
_symmetry_space_group_name_H-M "C 2/M"
_symmetry_group_IT_number 12
_symmetry_cell_setting 'monoclinic'
loop_
_space_group_symop_operation_xyz
x,y,z
-x,y,-z
-x,-y,-z
x,-y,z
1/2+x,1/2+y,z
1/2-x,1/2+y,-z
1/2-x,1/2-y,-z
1/2+x,1/2-y,z
loop_
_atom_site_type_symbol
_atom_site_label
_atom_site_fract_x
_atom_site_fract_y
_atom_site_fract_z
Si Si1 0.555162 0.335398 0.461530
Si Si2 0.581689 0.164038 0.762440
Si Si3 0.500000 0.795585 0.000000
Si Si4 0.711979 0.657561 0.142088
Si Si5 0.248548 0.162364 0.347700
Si Si6 0.059616 0.349771 0.211778
O O1 0.500000 0.314278 0.500000
O O2 0.571219 0.500000 0.455505
O O3 0.488879 0.261857 0.344705
O O4 0.664244 0.256322 0.545605
O O5 0.699642 0.220894 0.845819
O O6 0.545055 0.182987 0.822377
O O7 0.574844 0.000000 0.730348
O O8 0.597519 0.713163 0.042414
O O9 0.537165 0.878890 0.103826
O O10 0.697825 0.500000 0.106834
O O11 0.756875 0.676879 0.262557
O O12 0.138442 0.223688 0.288869
O O13 0.256717 0.000000 0.380455
O O14 0.105139 0.500000 0.276418
#
# Coordination Sequence:
#
# PCOD8101967 Si02
#       6
#     8   8   4   8   8   8
#     4  11  22  36  58  90 122 153 187 234 291 344
#     4  10  21  38  59  84 117 156 197 239 283 340
#     4  10  20  36  60  86 113 152 193 240 297 350
#     4   9  18  34  57  85 113 147 195 243 285 340
#     4  10  20  36  61  86 115 157 197 234 281 342
#     4  10  22  39  58  84 118 154 194 243 292 340
#
# _framework density 20.516828
#
# number of rings (size 3 to 8) (size 9 to 14) (size 15 to 20)
#    0.000    2.000    1.818    1.636    0.000    3.636 
#    0.000    0.909    0.000    0.000    0.000    0.000 
#    0.000    0.000    0.000    0.000    0.000    0.000 
#
# Total GULP energy -272555.343915 kJ/mol
# GULP energy per Si atom -12388.879269 kJ/mol
# Density = 2.047013 g / cm^3
# Si number density = 20.516828 Si / 1000 Ang^3
#
#
#
# Elastic Constant Matrix: (Units=GPa)
#
#
# Indices 1 2 3 4 5 6 
#
# 1 161.5365 57.0786 40.8717 0.0000 26.8339 0.0000
# 2 57.0786 109.7407 42.0127 0.0000 19.6301 0.0000
# 3 40.8717 42.0127 69.2963 0.0000 22.8599 0.0000
# 4 0.0000 0.0000 0.0000 32.2178 0.0000 -5.4598
# 5 26.8339 19.6301 22.8599 0.0000 37.5839 0.0000
# 6 0.0000 0.0000 0.0000 -5.4598 0.0000 28.0255
#
#
#
# Elastic Compliance Matrix: (Units=1/GPa)
#
#
# Indices 1 2 3 4 5 6 
#
# 1 0.008274 -0.002958 -0.002061 0.000000 -0.003109 0.000000
# 2 -0.002958 0.013083 -0.005792 0.000000 -0.001198 0.000000
# 3 -0.002061 -0.005792 0.022111 0.000000 -0.008952 0.000000
# 4 0.000000 0.000000 0.000000 0.032098 0.000000 0.006253
# 5 -0.003109 -0.001198 -0.008952 0.000000 0.034898 0.000000
# 6 0.000000 0.000000 0.000000 0.006253 0.000000 0.036900
#
#
# Mechanical properties :
#
#
# Convention : Reuss Voigt Hill
#
# Bulk Modulus (GPa) = 45.77568 68.94439 57.36003
# Shear Modulus (GPa) = 28.36615 32.93948 30.65281
#
# Velocity S-wave (km/s) = 3.72234 4.01120 3.86947
# Velocity P-wave (km/s) = 6.39016 7.42494 6.92690
#
# Compressibility (1/GPa) = 0.02184566
#
# Stress axis : x y z
#
# Youngs Moduli (GPa) = 120.86511 76.43728 45.22674
#
# Poissons Ratio (x) = 0.22612 0.09321
# Poissons Ratio (y) = 0.35755 0.26193
# Poissons Ratio (z) = 0.24909 0.44269
#
# Static dielectric constant tensor:
#      x y z
#    x 4.119350 0.000000 0.296100 
#    y 0.000000 3.710290 0.000000 
#    z 0.296100 0.000000 3.724780 
# 
# 
# High freq. dielectric constant tensor:
#      x y z
#    x 1.816980 0.000000 0.010610 
#    y 0.000000 1.799930 0.000000 
#    z 0.010610 0.000000 1.781890 
# 
# From -- ./inp_files/275870.got.cif
#   From: 2010.06.25/outbox.cif.g09.slc.cpg/sg12_138_cif.got.tgz:275870.got - 2010.06.28 00:19:55.
