data_PCOD8101562
_publ_section_title
;
Structure prediction by ZEFSAII (Michael W. Deem and Ramdas Pophale) SiO2 
 PCOD8101562
Probable space group: C 2/M
;
_chemical_formula_sum "Si O2"
_cell_formula_units_Z 56
_cell_length_a 18.826730
_cell_length_b 9.184088
_cell_length_c 26.838175
_cell_angle_alpha 90.000000
_cell_angle_beta 40.381612
_cell_angle_gamma 90.000000
_cell_volume 3006.460107
_symmetry_space_group_name_H-M "C 2/M"
_symmetry_group_IT_number 12
_symmetry_cell_setting 'monoclinic'
loop_
_space_group_symop_operation_xyz
x,y,z
-x,y,-z
-x,-y,-z
x,-y,z
1/2+x,1/2+y,z
1/2-x,1/2+y,-z
1/2-x,1/2-y,-z
1/2+x,1/2-y,z
loop_
_atom_site_type_symbol
_atom_site_label
_atom_site_fract_x
_atom_site_fract_y
_atom_site_fract_z
Si Si1 0.683536 0.172190 0.078441
Si Si2 0.862979 0.827561 0.447599
Si Si3 0.974461 0.668818 0.571644
Si Si4 0.720371 0.671580 0.267998
Si Si5 0.442402 0.656807 0.300882
Si Si6 0.931199 0.667012 0.215541
Si Si7 0.695034 0.660769 0.168342
O O1 0.555776 0.213834 0.136552
O O2 0.734544 0.228248 0.104098
O O3 0.701599 0.000000 0.066612
O O4 0.750000 0.250000 0.000000
O O5 0.750000 0.750000 0.500000
O O6 0.932719 0.784810 0.361811
O O7 0.922563 0.753911 0.461586
O O8 0.850892 0.000000 0.462815
O O9 0.971544 0.500000 0.589478
O O10 0.861904 0.743008 0.651273
O O11 0.000000 0.684231 0.500000
O O12 0.690713 0.500000 0.286929
O O13 0.846205 0.703652 0.216720
O O14 0.712311 0.724995 0.214809
O O15 0.383097 0.500000 0.328354
O O16 0.386236 0.757981 0.289803
O O17 0.569230 0.641263 0.222396
O O18 0.928952 0.500000 0.230339
O O19 0.751859 0.500000 0.133683
#
# Coordination Sequence:
#
# PCOD8101562 Si02
#       7
#     8   8   8   8   8   8   8
#     4  10  20  36  58  86 116 147 184 226 274 333
#     4  11  23  39  57  80 110 146 191 241 292 345
#     4  11  25  41  56  80 115 154 196 243 293 344
#     4  10  20  38  60  83 112 148 190 236 287 343
#     4   9  18  34  54  76 105 140 181 228 278 331
#     4   9  20  35  56  85 112 142 186 230 274 332
#     4   9  17  34  58  81 106 142 182 224 276 333
#
# _framework density 18.626556000000001
#
# number of rings (size 3 to 8) (size 9 to 14) (size 15 to 20)
#    0.000    2.143    1.429    1.286    2.000    4.000 
#    0.000    0.714    0.000    4.286    0.000    0.000 
#    0.000    0.000    0.000    0.000    0.000    0.000 
#
# Total GULP energy -346970.235916 kJ/mol
# GULP energy per Si atom -12391.794140 kJ/mol
# Density = 1.858416 g / cm^3
# Si number density = 18.626556 Si / 1000 Ang^3
#
#
#
# Elastic Constant Matrix: (Units=GPa)
#
#
# Indices 1 2 3 4 5 6 
#
# 1 122.9240 63.6039 50.9200 -0.0002 10.0932 0.0007
# 2 63.6039 100.8753 62.3615 -0.0005 10.2859 0.0016
# 3 50.9200 62.3615 85.0400 0.0000 17.8098 -0.0002
# 4 -0.0002 -0.0005 0.0000 28.5109 0.0000 5.3156
# 5 10.0932 10.2859 17.8098 0.0000 31.2679 0.0000
# 6 0.0007 0.0016 -0.0002 5.3156 0.0000 31.5533
#
#
#
# Elastic Compliance Matrix: (Units=1/GPa)
#
#
# Indices 1 2 3 4 5 6 
#
# 1 0.012515 -0.005978 -0.003038 0.000000 -0.000343 0.000000
# 2 -0.005978 0.021082 -0.012299 0.000001 0.002000 -0.000001
# 3 -0.003038 -0.012299 0.024463 0.000000 -0.008907 0.000001
# 4 0.000000 0.000001 0.000000 0.036212 0.000000 -0.006100
# 5 -0.000343 0.002000 -0.008907 0.000000 0.036508 0.000000
# 6 0.000000 -0.000001 0.000001 -0.006100 0.000000 0.032720
#
#
# Mechanical properties :
#
#
# Convention : Reuss Voigt Hill
#
# Bulk Modulus (GPa) = 64.81152 73.62333 69.21743
# Shear Modulus (GPa) = 23.66611 27.06335 25.36473
#
# Velocity S-wave (km/s) = 3.56835 3.81589 3.69419
# Velocity P-wave (km/s) = 7.20058 7.68287 7.44563
#
# Compressibility (1/GPa) = 0.01542936
#
# Stress axis : x y z
#
# Youngs Moduli (GPa) = 79.90551 47.43445 40.87783
#
# Poissons Ratio (x) = 0.28354 0.12420
# Poissons Ratio (y) = 0.47764 0.50277
# Poissons Ratio (z) = 0.24278 0.58341
#
# Static dielectric constant tensor:
#      x y z
#    x 3.398610 0.000000 0.125010 
#    y 0.000000 3.730740 0.000000 
#    z 0.125010 0.000000 3.250080 
# 
# 
# High freq. dielectric constant tensor:
#      x y z
#    x 1.726260 0.000000 0.011120 
#    y 0.000000 1.726910 0.000000 
#    z 0.011120 0.000000 1.709520 
# 
# From -- ./inp_files/362967.got.cif
#   From: 2010.06.25/outbox.cif.g09.slc.cpg/sg12_182_cif.got.tgz:362967.got - 2010.06.28 00:19:55.
