data_PCOD8101535
_publ_section_title
;
Structure prediction by ZEFSAII (Michael W. Deem and Ramdas Pophale) SiO2 
 PCOD8101535
Probable space group: C 2/M
;
_chemical_formula_sum "Si O2"
_cell_formula_units_Z 56
_cell_length_a 27.573797
_cell_length_b 18.554567
_cell_length_c 8.195845
_cell_angle_alpha 90.000000
_cell_angle_beta 42.945914
_cell_angle_gamma 90.000000
_cell_volume 2856.830112
_symmetry_space_group_name_H-M "C 2/M"
_symmetry_group_IT_number 12
_symmetry_cell_setting 'monoclinic'
loop_
_space_group_symop_operation_xyz
x,y,z
-x,y,-z
-x,-y,-z
x,-y,z
1/2+x,1/2+y,z
1/2-x,1/2+y,-z
1/2-x,1/2-y,-z
1/2+x,1/2-y,z
loop_
_atom_site_type_symbol
_atom_site_label
_atom_site_fract_x
_atom_site_fract_y
_atom_site_fract_z
Si Si1 0.289173 0.298153 0.653177
Si Si2 0.924213 0.815243 0.111231
Si Si3 0.783407 0.419986 0.382190
Si Si4 0.150198 0.920685 0.916890
Si Si5 0.939121 0.709053 0.772906
Si Si6 0.818946 0.204542 0.951065
Si Si7 0.945225 0.583360 0.992604
O O1 0.366196 0.285245 0.383381
O O2 0.242935 0.360620 0.682032
O O3 0.294551 0.315977 0.831266
O O4 0.245773 0.222196 0.761252
O O5 0.897071 0.892969 0.117626
O O6 0.933498 0.758294 0.945891
O O7 0.000000 0.829761 0.000000
O O8 0.781111 0.500000 0.304994
O O9 0.733040 0.420963 0.663932
O O10 0.863437 0.404246 0.249598
O O11 0.123961 0.000000 0.032824
O O12 0.138968 0.866275 0.094215
O O13 0.867889 0.723098 0.841340
O O14 0.953901 0.628149 0.802050
O O15 0.000000 0.733525 0.500000
O O16 0.961749 0.500000 0.911660
O O17 0.000000 0.610242 0.000000
#
# Coordination Sequence:
#
# PCOD8101535 Si02
#       7
#     8   8   8   8   8   8   8
#     4  10  20  36  58  85 114 150 192 230 288 341
#     4  10  21  36  60  85 114 152 190 236 282 344
#     4   9  18  35  57  82 113 149 192 233 281 342
#     4   9  20  36  57  83 114 150 188 235 287 340
#     4  11  22  37  57  84 116 149 188 239 286 338
#     4  10  21  35  57  84 116 145 190 238 283 342
#     4  10  21  37  56  80 112 153 197 236 282 339
#
# _framework density 19.602146000000001
#
# number of rings (size 3 to 8) (size 9 to 14) (size 15 to 20)
#    0.000    2.143    1.429    1.286    2.000    2.857 
#    2.571    0.000    0.000   14.571    0.000    0.000 
#    0.000    0.000    0.000    0.000    0.000    0.000 
#
# Total GULP energy -346922.697724 kJ/mol
# GULP energy per Si atom -12390.096347 kJ/mol
# Density = 1.955753 g / cm^3
# Si number density = 19.602146 Si / 1000 Ang^3
#
#
#
# Elastic Constant Matrix: (Units=GPa)
#
#
# Indices 1 2 3 4 5 6 
#
# 1 96.2202 35.8002 25.4723 0.0000 -20.6207 0.0000
# 2 35.8002 98.0186 27.4664 0.0000 3.5968 0.0000
# 3 25.4723 27.4664 103.0928 0.0000 -14.9520 0.0000
# 4 0.0000 0.0000 0.0000 8.6884 0.0000 -6.3242
# 5 -20.6207 3.5968 -14.9520 0.0000 29.6833 0.0000
# 6 0.0000 0.0000 0.0000 -6.3242 0.0000 18.4051
#
#
#
# Elastic Compliance Matrix: (Units=1/GPa)
#
#
# Indices 1 2 3 4 5 6 
#
# 1 0.014989 -0.005697 -0.000621 0.000000 0.010790 0.000000
# 2 -0.005697 0.013450 -0.003222 0.000000 -0.007210 0.000000
# 3 -0.000621 -0.003222 0.011550 0.000000 0.005777 0.000000
# 4 0.000000 0.000000 0.000000 0.153484 0.000000 0.052739
# 5 0.010790 -0.007210 0.005777 0.000000 0.044968 0.000000
# 6 0.000000 0.000000 0.000000 0.052739 0.000000 0.072455
#
#
# Mechanical properties :
#
#
# Convention : Reuss Voigt Hill
#
# Bulk Modulus (GPa) = 47.82245 52.75660 50.28953
# Shear Modulus (GPa) = 14.83925 25.26153 20.05039
#
# Velocity S-wave (km/s) = 2.75439 3.59376 3.20170
# Velocity P-wave (km/s) = 5.87920 6.64773 6.27524
#
# Compressibility (1/GPa) = 0.02091068
#
# Stress axis : x y z
#
# Youngs Moduli (GPa) = 66.71493 74.34904 86.58354
#
# Poissons Ratio (x) = 0.42354 0.05376
# Poissons Ratio (y) = 0.38005 0.27894
# Poissons Ratio (z) = 0.04142 0.23952
#
# Static dielectric constant tensor:
#      x y z
#    x 3.714770 0.000000 -0.261750 
#    y 0.000000 3.722630 0.000000 
#    z -0.261750 0.000000 3.524930 
# 
# 
# High freq. dielectric constant tensor:
#      x y z
#    x 1.762810 0.000000 -0.015670 
#    y 0.000000 1.763700 0.000000 
#    z -0.015670 0.000000 1.755720 
# 
# From -- ./inp_files/105947.got.cif
#   From: 2010.06.25/outbox.cif.g09.slc.cpg/sg12_53_cif.got.tgz:105947.got - 2010.06.28 00:19:55.
