data_PCOD8101148
_publ_section_title
;
Structure prediction by ZEFSAII (Michael W. Deem and Ramdas Pophale) SiO2 
 PCOD8101148
Probable space group: C 2/M
;
_chemical_formula_sum "Si O2"
_cell_formula_units_Z 44
_cell_length_a 12.970917
_cell_length_b 11.244455
_cell_length_c 17.607705
_cell_angle_alpha 90.000000
_cell_angle_beta 122.444061
_cell_angle_gamma 90.000000
_cell_volume 2167.259273
_symmetry_space_group_name_H-M "C 2/M"
_symmetry_group_IT_number 12
_symmetry_cell_setting 'monoclinic'
loop_
_space_group_symop_operation_xyz
x,y,z
-x,y,-z
-x,-y,-z
x,-y,z
1/2+x,1/2+y,z
1/2-x,1/2+y,-z
1/2-x,1/2-y,-z
1/2+x,1/2-y,z
loop_
_atom_site_type_symbol
_atom_site_label
_atom_site_fract_x
_atom_site_fract_y
_atom_site_fract_z
Si Si1 0.268359 0.134237 0.379935
Si Si2 0.509648 0.365460 0.337588
Si Si3 0.703356 0.132427 0.937026
Si Si4 0.722489 0.215685 0.782438
Si Si5 0.950705 0.633111 0.902168
Si Si6 0.000000 0.786076 0.500000
O O1 0.276306 0.134930 0.291730
O O2 0.378689 0.207293 0.459572
O O3 0.139849 0.186120 0.360352
O O4 0.282829 0.000000 0.414549
O O5 0.494658 0.500000 0.302223
O O6 0.403660 0.287046 0.258516
O O7 0.496891 0.366433 0.423801
O O8 0.742128 0.136044 0.864658
O O9 0.557131 0.136202 0.882089
O O10 0.747430 0.000000 0.985736
O O11 0.750000 0.250000 0.000000
O O12 0.835516 0.304238 0.819840
O O13 0.908073 0.500000 0.905492
O O14 0.000000 0.693542 0.000000
#
# Coordination Sequence:
#
# PCOD8101148 Si02
#       6
#     8   8   8   8   8   4
#     4  10  21  37  56  82 115 149 185 232 287 343
#     4  10  21  36  58  86 117 147 186 236 283 338
#     4  11  23  39  59  84 114 151 197 248 294 348
#     4  11  21  37  58  83 113 152 194 238 291 344
#     4  10  20  36  57  80 111 151 194 239 293 353
#     4  10  20  36  60  84 112 150 188 224 278 346
#
# _framework density 20.302140000000001
#
# number of rings (size 3 to 8) (size 9 to 14) (size 15 to 20)
#    0.000    1.636    1.818    3.273    0.000    0.727 
#    0.000    2.727    0.000   17.455    0.000    0.000 
#    0.000    0.000    0.000    0.000    0.000    0.000 
#
# Total GULP energy -272725.683095 kJ/mol
# GULP energy per Si atom -12396.621959 kJ/mol
# Density = 2.025593 g / cm^3
# Si number density = 20.302140 Si / 1000 Ang^3
#
#
#
# Elastic Constant Matrix: (Units=GPa)
#
#
# Indices 1 2 3 4 5 6 
#
# 1 107.7080 32.3736 11.4834 0.0000 16.2830 0.0000
# 2 32.3736 99.0487 22.7089 0.0000 16.0580 0.0000
# 3 11.4834 22.7089 57.3904 0.0000 4.6993 0.0000
# 4 0.0000 0.0000 0.0000 -34.7468 0.0000 9.8234
# 5 16.2830 16.0580 4.6993 0.0000 42.8881 0.0000
# 6 0.0000 0.0000 0.0000 9.8234 0.0000 22.0871
#
#
#
# Elastic Compliance Matrix: (Units=1/GPa)
#
#
# Indices 1 2 3 4 5 6 
#
# 1 0.010658 -0.002836 -0.000773 0.000000 -0.002900 0.000000
# 2 -0.002836 0.012475 -0.004111 0.000000 -0.003144 0.000000
# 3 -0.000773 -0.004111 0.019228 0.000000 -0.000274 0.000000
# 4 0.000000 0.000000 0.000000 -0.025565 0.000000 0.011370
# 5 -0.002900 -0.003144 -0.000274 0.000000 0.025625 0.000000
# 6 0.000000 0.000000 0.000000 0.011370 0.000000 0.040218
#
#
# Mechanical properties :
#
#
# Convention : Reuss Voigt Hill
#
# Bulk Modulus (GPa) = 37.14634 44.14208 40.64421
# Shear Modulus (GPa) = 46.70570 19.21776 32.96173
#
# Velocity S-wave (km/s) = 4.80159 3.08000 4.03371
# Velocity P-wave (km/s) = 7.00548 5.86842 6.46201
#
# Compressibility (1/GPa) = 0.02692055
#
# Stress axis : x y z
#
# Youngs Moduli (GPa) = 93.83007 80.15835 52.00618
#
# Poissons Ratio (x) = 0.22733 0.04019
# Poissons Ratio (y) = 0.26611 0.21382
# Poissons Ratio (z) = 0.07252 0.32957
#
# Static dielectric constant tensor:
#      x y z
#    x 3.839310 0.000000 0.019150 
#    y 0.000000 3.598140 0.000000 
#    z 0.019150 0.000000 3.507660 
# 
# 
# High freq. dielectric constant tensor:
#      x y z
#    x 1.810810 0.000000 -0.002190 
#    y 0.000000 1.784560 0.000000 
#    z -0.002190 0.000000 1.780080 
# 
# From -- ./inp_files/203397.got.cif
#   From: 2010.06.25/outbox.cif.g09.slc.cpg/sg12_102_cif.got.tgz:203397.got - 2010.06.28 00:19:55.
