data_PCOD8101010
_publ_section_title
;
Structure prediction by ZEFSAII (Michael W. Deem and Ramdas Pophale) SiO2 
 PCOD8101010
Probable space group: C 2/M
;
_chemical_formula_sum "Si O2"
_cell_formula_units_Z 64
_cell_length_a 15.108917
_cell_length_b 8.654218
_cell_length_c 24.622278
_cell_angle_alpha 90.000000
_cell_angle_beta 90.061890
_cell_angle_gamma 90.000000
_cell_volume 3219.505293
_symmetry_space_group_name_H-M "C 2/M"
_symmetry_group_IT_number 12
_symmetry_cell_setting 'monoclinic'
loop_
_space_group_symop_operation_xyz
x,y,z
-x,y,-z
-x,-y,-z
x,-y,z
1/2+x,1/2+y,z
1/2-x,1/2+y,-z
1/2-x,1/2-y,-z
1/2+x,1/2-y,z
loop_
_atom_site_type_symbol
_atom_site_label
_atom_site_fract_x
_atom_site_fract_y
_atom_site_fract_z
Si Si1 0.890700 0.817248 0.357543
Si Si2 0.398710 0.678837 0.741972
Si Si3 0.394539 0.317163 0.860796
Si Si4 0.415994 0.177999 0.251250
Si Si5 0.083930 0.319041 0.366651
Si Si6 0.755279 0.683839 0.059626
Si Si7 0.756912 0.682079 0.559260
Si Si8 0.415096 0.822260 0.131203
O O1 0.855733 0.731679 0.302091
O O2 0.825966 0.759001 0.405101
O O3 0.991236 0.770410 0.372779
O O4 0.884424 0.000000 0.349513
O O5 0.375511 0.500000 0.731807
O O6 0.361800 0.737553 0.800522
O O7 0.503661 0.702090 0.745950
O O8 0.366088 0.778576 0.690395
O O9 0.394975 0.500000 0.860921
O O10 0.327259 0.251506 0.905634
O O11 0.492632 0.263752 0.875827
O O12 0.372103 0.196567 0.191738
O O13 0.446742 0.000000 0.259729
O O14 0.064630 0.500000 0.369030
O O15 0.149962 0.265213 0.414298
O O16 0.753600 0.500000 0.058044
O O17 0.845093 0.744410 0.088031
O O18 0.750000 0.750000 0.000000
O O19 0.753603 0.500000 0.555295
O O20 0.750000 0.750000 0.500000
O O21 0.434704 0.000000 0.119162
#
# Coordination Sequence:
#
# PCOD8101010 Si02
#       8
#     8   8   8   8   8   8   8   8
#     4  10  20  36  56  81 110 140 172 214 263 312
#     4   9  16  29  52  81 108 137 170 209 258 315
#     4   9  19  35  55  78 107 138 172 214 262 311
#     4   9  16  29  52  81 108 137 170 209 258 315
#     4  10  20  36  56  81 110 140 172 214 263 312
#     4  10  22  39  54  74 104 139 179 222 261 308
#     4  10  24  41  56  76 106 141 181 222 261 306
#     4   9  19  35  55  78 107 138 172 214 262 311
#
# _framework density 19.878831000000002
#
# number of rings (size 3 to 8) (size 9 to 14) (size 15 to 20)
#    0.000    2.500    0.000    3.000    0.000    6.000 
#    0.000    6.250    0.000    0.000    0.000    0.000 
#    0.000    0.000    0.000    0.000    0.000    0.000 
#
# Total GULP energy -396555.662071 kJ/mol
# GULP energy per Si atom -12392.364440 kJ/mol
# Density = 1.983359 g / cm^3
# Si number density = 19.878831 Si / 1000 Ang^3
#
#
#
# Elastic Constant Matrix: (Units=GPa)
#
#
# Indices 1 2 3 4 5 6 
#
# 1 54.2162 7.4881 30.1391 0.0000 -6.0760 0.0000
# 2 7.4881 30.6065 16.0843 0.0000 -2.0529 0.0000
# 3 30.1391 16.0843 133.7955 0.0000 -3.0803 0.0000
# 4 0.0000 0.0000 0.0000 35.6795 0.0000 0.1833
# 5 -6.0760 -2.0529 -3.0803 0.0000 38.2458 0.0000
# 6 0.0000 0.0000 0.0000 0.1833 0.0000 22.3281
#
#
#
# Elastic Compliance Matrix: (Units=1/GPa)
#
#
# Indices 1 2 3 4 5 6 
#
# 1 0.021641 -0.002745 -0.004477 0.000000 0.002930 0.000000
# 2 -0.002745 0.035315 -0.003600 0.000000 0.001169 0.000000
# 3 -0.004477 -0.003600 0.008911 0.000000 -0.000187 0.000000
# 4 0.000000 0.000000 0.000000 0.028029 0.000000 -0.000230
# 5 0.002930 0.001169 -0.000187 0.000000 0.026660 0.000000
# 6 0.000000 0.000000 0.000000 -0.000230 0.000000 0.044789
#
#
# Mechanical properties :
#
#
# Convention : Reuss Voigt Hill
#
# Bulk Modulus (GPa) = 22.61328 36.22680 29.42004
# Shear Modulus (GPa) = 24.78558 30.24446 27.51502
#
# Velocity S-wave (km/s) = 3.53488 3.90480 3.72443
# Velocity P-wave (km/s) = 5.29724 6.21235 5.77296
#
# Compressibility (1/GPa) = 0.04422181
#
# Stress axis : x y z
#
# Youngs Moduli (GPa) = 46.20809 28.31673 112.21850
#
# Poissons Ratio (x) = 0.07773 0.50246
# Poissons Ratio (y) = 0.12685 0.40400
# Poissons Ratio (z) = 0.20690 0.10194
#
# Static dielectric constant tensor:
#      x y z
#    x 3.525710 0.000000 0.104570 
#    y 0.000000 3.457800 0.000000 
#    z 0.104570 0.000000 2.711720 
# 
# 
# High freq. dielectric constant tensor:
#      x y z
#    x 1.759070 0.000000 -0.000490 
#    y 0.000000 1.767010 0.000000 
#    z -0.000490 0.000000 1.785990 
# 
# From -- ./inp_files/338665.got.cif
#   From: 2010.06.25/outbox.cif.g09.slc.cpg/sg12_170_cif.got.tgz:338665.got - 2010.06.28 00:19:55.
