data_PCOD8101713
_publ_section_title
;
Structure prediction by ZEFSAII (Michael W. Deem and Ramdas Pophale) SiO2 
 PCOD8101713
Probable space group: C 2/M
;
_chemical_formula_sum "Si O2"
_cell_formula_units_Z 64
_cell_length_a 14.578473
_cell_length_b 8.767331
_cell_length_c 32.741998
_cell_angle_alpha 90.000000
_cell_angle_beta 47.511883
_cell_angle_gamma 90.000000
_cell_volume 3086.014911
_symmetry_space_group_name_H-M "C 2/M"
_symmetry_group_IT_number 12
_symmetry_cell_setting 'monoclinic'
loop_
_space_group_symop_operation_xyz
x,y,z
-x,y,-z
-x,-y,-z
x,-y,z
1/2+x,1/2+y,z
1/2-x,1/2+y,-z
1/2-x,1/2-y,-z
1/2+x,1/2-y,z
loop_
_atom_site_type_symbol
_atom_site_label
_atom_site_fract_x
_atom_site_fract_y
_atom_site_fract_z
Si Si1 0.640269 0.179427 0.058830
Si Si2 0.881148 0.677657 0.562857
Si Si3 0.351783 0.179486 0.850566
Si Si4 0.114643 0.822752 0.869818
Si Si5 0.416537 0.680327 0.639176
Si Si6 0.001232 0.170599 0.739338
Si Si7 0.372778 0.820898 0.369883
Si Si8 0.753283 0.169015 0.761038
O O1 0.652120 0.236690 0.101855
O O2 0.508914 0.233205 0.079963
O O3 0.650673 0.000000 0.052818
O O4 0.750000 0.250000 0.000000
O O5 0.846089 0.500000 0.571603
O O6 0.909869 0.723830 0.600336
O O7 0.769135 0.777028 0.577870
O O8 0.000000 0.716226 0.500000
O O9 0.222302 0.229337 0.868559
O O10 0.470183 0.256588 0.792728
O O11 0.370351 0.000000 0.841265
O O12 0.153786 0.782511 0.811369
O O13 0.086144 0.000000 0.881431
O O14 0.421021 0.500000 0.628937
O O15 0.541375 0.727526 0.625051
O O16 0.294039 0.721119 0.703324
O O17 0.101072 0.273472 0.685104
O O18 0.876960 0.166799 0.750456
O O19 0.054591 0.000000 0.729207
O O20 0.395053 0.000000 0.368955
O O21 0.693132 0.000000 0.778316
#
# Coordination Sequence:
#
# PCOD8101713 Si02
#       8
#     8   8   8   8   8   8   8   8
#     4  11  24  41  58  79 110 147 190 236 279 332
#     4  11  25  43  61  84 115 153 201 250 293 345
#     4   9  20  38  59  83 114 150 185 227 283 342
#     4  10  20  36  59  85 112 145 184 227 277 333
#     4  10  21  39  63  90 121 155 193 240 293 349
#     4   9  17  32  57  88 119 148 186 235 283 339
#     4  11  22  38  62  89 120 157 194 237 292 350
#     4   8  16  32  55  85 117 147 180 224 279 337
#
# _framework density 20.738720000000001
#
# number of rings (size 3 to 8) (size 9 to 14) (size 15 to 20)
#    0.000    2.125    0.000    3.750    0.000    8.000 
#    0.000    3.750    0.000    0.000    0.000    0.000 
#    0.000    0.000    0.000    0.000    0.000    0.000 
#
# Total GULP energy -396862.395558 kJ/mol
# GULP energy per Si atom -12401.949861 kJ/mol
# Density = 2.069152 g / cm^3
# Si number density = 20.738720 Si / 1000 Ang^3
#
#
#
# Elastic Constant Matrix: (Units=GPa)
#
#
# Indices 1 2 3 4 5 6 
#
# 1 36.6527 -3.4113 6.5227 0.0007 -6.9971 0.0005
# 2 -3.4113 57.4195 17.2667 0.0009 -7.3076 0.0005
# 3 6.5227 17.2667 80.0154 0.0007 -9.7154 0.0005
# 4 0.0007 0.0009 0.0007 38.1702 0.0003 -2.1270
# 5 -6.9971 -7.3076 -9.7154 0.0003 33.4973 0.0003
# 6 0.0005 0.0005 0.0005 -2.1270 0.0003 29.8039
#
#
#
# Elastic Compliance Matrix: (Units=1/GPa)
#
#
# Indices 1 2 3 4 5 6 
#
# 1 0.029164 0.003211 -0.002328 -0.000001 0.006117 -0.000001
# 2 0.003211 0.019274 -0.003969 0.000000 0.003724 0.000000
# 3 -0.002328 -0.003969 0.013868 0.000000 0.002670 0.000000
# 4 -0.000001 0.000000 0.000000 0.026303 -0.000001 0.001877
# 5 0.006117 0.003724 0.002670 -0.000001 0.032718 -0.000001
# 6 -0.000001 0.000000 0.000000 0.001877 -0.000001 0.033687
#
#
# Mechanical properties :
#
#
# Convention : Reuss Voigt Hill
#
# Bulk Modulus (GPa) = 17.81404 23.87154 20.84279
# Shear Modulus (GPa) = 27.79389 30.54158 29.16774
#
# Velocity S-wave (km/s) = 3.66484 3.84172 3.75432
# Velocity P-wave (km/s) = 5.14941 5.58695 5.37264
#
# Compressibility (1/GPa) = 0.05613548
#
# Stress axis : x y z
#
# Youngs Moduli (GPa) = 34.28884 51.88372 72.10865
#
# Poissons Ratio (x) = -0.16660 0.16784
# Poissons Ratio (y) = -0.11010 0.28618
# Poissons Ratio (z) = 0.07981 0.20591
#
# Static dielectric constant tensor:
#      x y z
#    x 3.718750 0.000000 0.011600 
#    y 0.000000 3.763630 0.000000 
#    z 0.011600 0.000000 3.919170 
# 
# 
# High freq. dielectric constant tensor:
#      x y z
#    x 1.807940 0.000000 -0.004240 
#    y 0.000000 1.814270 0.000000 
#    z -0.004240 0.000000 1.811290 
# 
# From -- ./inp_files/375444.got.cif
#   From: 2010.06.25/outbox.cif.g09.slc.cpg/sg12_188_cif.got.tgz:375444.got - 2010.06.28 00:19:55.
