data_PCOD8101587
_publ_section_title
;
Structure prediction by ZEFSAII (Michael W. Deem and Ramdas Pophale) SiO2 
 PCOD8101587
Probable space group: C 2/M
;
_chemical_formula_sum "Si O2"
_cell_formula_units_Z 40
_cell_length_a 14.408611
_cell_length_b 14.305619
_cell_length_c 10.062376
_cell_angle_alpha 90.000000
_cell_angle_beta 108.314679
_cell_angle_gamma 90.000000
_cell_volume 1969.034751
_symmetry_space_group_name_H-M "C 2/M"
_symmetry_group_IT_number 12
_symmetry_cell_setting 'monoclinic'
loop_
_space_group_symop_operation_xyz
x,y,z
-x,y,-z
-x,-y,-z
x,-y,z
1/2+x,1/2+y,z
1/2-x,1/2+y,-z
1/2-x,1/2-y,-z
1/2+x,1/2-y,z
loop_
_atom_site_type_symbol
_atom_site_label
_atom_site_fract_x
_atom_site_fract_y
_atom_site_fract_z
Si Si1 0.611236 0.342361 0.694317
Si Si2 0.396811 0.393953 0.598101
Si Si3 0.107658 0.393023 0.089982
Si Si4 0.211443 0.773882 0.246525
Si Si5 0.285994 0.601721 0.997146
O O1 0.494826 0.331301 0.660641
O O2 0.631537 0.401560 0.569482
O O3 0.671296 0.244975 0.702688
O O4 0.650227 0.395532 0.840579
O O5 0.411061 0.500000 0.658010
O O6 0.311940 0.340288 0.639833
O O7 0.108653 0.500000 0.144539
O O8 0.151192 0.324073 0.223464
O O9 0.173169 0.383233 0.986797
O O10 0.000000 0.360761 0.000000
O O11 0.180077 0.822602 0.094364
O O12 0.300276 0.500000 0.938151
#
# Coordination Sequence:
#
# PCOD8101587 Si02
#       5
#     8   8   8   8   8
#     4  10  21  40  57  83 119 161 194 231 285 359
#     4  11  23  39  62  87 118 158 197 238 291 350
#     4   9  19  34  53  79 113 154 190 225 283 355
#     4  11  23  35  61  90 119 143 195 250 297 330
#     4  10  20  36  58  87 119 147 186 243 297 341
#
# _framework density 20.314523000000001
#
# number of rings (size 3 to 8) (size 9 to 14) (size 15 to 20)
#    0.000    1.800    0.000    6.000    5.600    1.600 
#    0.000    2.000    0.000    0.000    0.000    5.600 
#    0.000    0.000    0.000    0.000    0.000    0.000 
#
# Total GULP energy -247882.179362 kJ/mol
# GULP energy per Si atom -12394.108968 kJ/mol
# Density = 2.026829 g / cm^3
# Si number density = 20.314523 Si / 1000 Ang^3
#
#
#
# Elastic Constant Matrix: (Units=GPa)
#
#
# Indices 1 2 3 4 5 6 
#
# 1 66.0588 36.8395 22.8829 0.0000 6.6415 0.0000
# 2 36.8395 103.7823 30.3344 0.0000 -3.0004 0.0000
# 3 22.8829 30.3344 68.6653 0.0000 2.4743 0.0000
# 4 0.0000 0.0000 0.0000 20.2746 0.0000 -5.6776
# 5 6.6415 -3.0004 2.4743 0.0000 27.9269 0.0000
# 6 0.0000 0.0000 0.0000 -5.6776 0.0000 23.4038
#
#
#
# Elastic Compliance Matrix: (Units=1/GPa)
#
#
# Indices 1 2 3 4 5 6 
#
# 1 0.020516 -0.006304 -0.003864 0.000000 -0.005214 0.000000
# 2 -0.006304 0.013075 -0.003792 0.000000 0.003240 0.000000
# 3 -0.003864 -0.003792 0.017564 0.000000 -0.001045 0.000000
# 4 0.000000 0.000000 0.000000 0.052918 0.000000 0.012837
# 5 -0.005214 0.003240 -0.001045 0.000000 0.037488 0.000000
# 6 0.000000 0.000000 0.000000 0.012837 0.000000 0.045842
#
#
# Mechanical properties :
#
#
# Convention : Reuss Voigt Hill
#
# Bulk Modulus (GPa) = 43.03887 46.51335 44.77611
# Shear Modulus (GPa) = 22.41443 24.21771 23.31607
#
# Velocity S-wave (km/s) = 3.32530 3.45648 3.39153
# Velocity P-wave (km/s) = 5.99798 6.23506 6.11767
#
# Compressibility (1/GPa) = 0.02323481
#
# Stress axis : x y z
#
# Youngs Moduli (GPa) = 48.74139 76.47968 56.93411
#
# Poissons Ratio (x) = 0.48212 0.22001
# Poissons Ratio (y) = 0.30726 0.21591
# Poissons Ratio (z) = 0.18835 0.29003
#
# Static dielectric constant tensor:
#      x y z
#    x 3.779060 0.000000 0.058320 
#    y 0.000000 3.739880 0.000000 
#    z 0.058320 0.000000 3.446260 
# 
# 
# High freq. dielectric constant tensor:
#      x y z
#    x 1.788940 0.000000 0.002940 
#    y 0.000000 1.792550 0.000000 
#    z 0.002940 0.000000 1.775520 
# 
# From -- ./inp_files/59206.got.cif
#   From: 2010.06.25/outbox.cif.g09.slc.cpg/sg12_30_cif.got.tgz:59206.got - 2010.06.28 00:19:55.
