data_PCOD8101264
_publ_section_title
;
Structure prediction by ZEFSAII (Michael W. Deem and Ramdas Pophale) SiO2 
 PCOD8101264
Probable space group: C 2/M
;
_chemical_formula_sum "Si O2"
_cell_formula_units_Z 64
_cell_length_a 14.082200
_cell_length_b 17.839072
_cell_length_c 12.620880
_cell_angle_alpha 90.000000
_cell_angle_beta 82.351463
_cell_angle_gamma 90.000000
_cell_volume 3142.326143
_symmetry_space_group_name_H-M "C 2/M"
_symmetry_group_IT_number 12
_symmetry_cell_setting 'monoclinic'
loop_
_space_group_symop_operation_xyz
x,y,z
-x,y,-z
-x,-y,-z
x,-y,z
1/2+x,1/2+y,z
1/2-x,1/2+y,-z
1/2-x,1/2-y,-z
1/2+x,1/2-y,z
loop_
_atom_site_type_symbol
_atom_site_label
_atom_site_fract_x
_atom_site_fract_y
_atom_site_fract_z
Si Si1 0.918640 0.086910 0.096589
Si Si2 0.616135 0.083531 0.653538
Si Si3 0.285484 0.915355 0.972249
Si Si4 0.158389 0.739213 0.301601
Si Si5 0.606140 0.226811 0.530060
Si Si6 0.896914 0.582209 0.748162
Si Si7 0.176172 0.325508 0.826162
Si Si8 0.045624 0.786207 0.750479
O O1 0.815232 0.108276 0.065243
O O2 0.938055 0.132594 0.201308
O O3 0.923844 0.000000 0.127414
O O4 0.000000 0.108257 0.000000
O O5 0.632353 0.140689 0.554564
O O6 0.509526 0.089739 0.715448
O O7 0.683897 0.105545 0.742377
O O8 0.640792 0.000000 0.610067
O O9 0.371914 0.910464 0.876076
O O10 0.277318 0.000000 0.019367
O O11 0.310569 0.855832 0.058567
O O12 0.172790 0.760263 0.425029
O O13 0.155371 0.648731 0.306048
O O14 0.242882 0.765163 0.214152
O O15 0.064042 0.775532 0.264739
O O16 0.500000 0.226052 0.500000
O O17 0.612188 0.278106 0.634720
O O18 0.861393 0.500000 0.712727
O O19 0.076201 0.279826 0.828209
#
# Coordination Sequence:
#
# PCOD8101264 Si02
#       8
#     8   8   8   8   8   8   8   8
#     4  10  21  38  58  80 111 153 200 245 287 338
#     4  10  20  36  57  87 120 154 194 236 291 353
#     4  10  22  38  57  85 117 156 197 237 296 353
#     4  11  21  38  60  84 119 152 197 237 294 350
#     4   9  18  36  57  86 114 152 187 239 296 346
#     4  10  20  36  57  84 118 152 193 237 287 351
#     4  11  22  37  58  83 117 158 188 244 290 347
#     4  10  21  37  55  86 113 145 193 238 290 343
#
# _framework density 20.367077999999999
#
# number of rings (size 3 to 8) (size 9 to 14) (size 15 to 20)
#    0.000    1.875    3.750    1.875    0.000    6.250 
#    0.000    2.500    0.000    7.875    0.000    0.000 
#    0.000    0.000    0.000    0.000    0.000    0.000 
#
# Total GULP energy -396669.338144 kJ/mol
# GULP energy per Si atom -12395.916817 kJ/mol
# Density = 2.032072 g / cm^3
# Si number density = 20.367078 Si / 1000 Ang^3
#
#
#
# Elastic Constant Matrix: (Units=GPa)
#
#
# Indices 1 2 3 4 5 6 
#
# 1 38.6006 15.0883 19.7639 0.0000 3.4450 0.0000
# 2 15.0883 99.0349 52.1924 0.0000 12.9188 0.0000
# 3 19.7639 52.1924 103.6322 0.0000 13.0899 0.0000
# 4 0.0000 0.0000 0.0000 29.8226 0.0000 -4.0389
# 5 3.4450 12.9188 13.0899 0.0000 21.3068 0.0000
# 6 0.0000 0.0000 0.0000 -4.0389 0.0000 19.9154
#
#
#
# Elastic Compliance Matrix: (Units=1/GPa)
#
#
# Indices 1 2 3 4 5 6 
#
# 1 0.029023 -0.001982 -0.004440 0.000000 -0.000763 0.000000
# 2 -0.001982 0.014277 -0.006244 0.000000 -0.004500 0.000000
# 3 -0.004440 -0.006244 0.014172 0.000000 -0.004203 0.000000
# 4 0.000000 0.000000 0.000000 0.034479 0.000000 0.006992
# 5 -0.000763 -0.004500 -0.004203 0.000000 0.052367 0.000000
# 6 0.000000 0.000000 0.000000 0.006992 0.000000 0.051630
#
#
# Mechanical properties :
#
#
# Convention : Reuss Voigt Hill
#
# Bulk Modulus (GPa) = 31.11507 46.15078 38.63293
# Shear Modulus (GPa) = 21.55232 24.49050 23.02141
#
# Velocity S-wave (km/s) = 3.25652 3.47141 3.36568
# Velocity P-wave (km/s) = 5.42680 6.22706 5.84065
#
# Compressibility (1/GPa) = 0.03213877
#
# Stress axis : x y z
#
# Youngs Moduli (GPa) = 34.45580 70.04239 70.56240
#
# Poissons Ratio (x) = 0.13883 0.31332
# Poissons Ratio (y) = 0.06829 0.44059
# Poissons Ratio (z) = 0.15300 0.43734
#
# Static dielectric constant tensor:
#      x y z
#    x 3.705960 0.000000 -0.039790 
#    y 0.000000 3.833090 0.000000 
#    z -0.039790 0.000000 3.826770 
# 
# 
# High freq. dielectric constant tensor:
#      x y z
#    x 1.790300 0.000000 0.000790 
#    y 0.000000 1.793060 0.000000 
#    z 0.000790 0.000000 1.792880 
# 
# From -- ./inp_files/146140.got.cif
#   From: 2010.06.25/outbox.cif.g09.slc.cpg/sg12_74_cif.got.tgz:146140.got - 2010.06.28 00:19:55.
