data_PCOD8101567
_publ_section_title
;
Structure prediction by ZEFSAII (Michael W. Deem and Ramdas Pophale) SiO2 
 PCOD8101567
Probable space group: C 2/M
;
_chemical_formula_sum "Si O2"
_cell_formula_units_Z 64
_cell_length_a 15.446128
_cell_length_b 8.545231
_cell_length_c 33.233072
_cell_angle_alpha 90.000000
_cell_angle_beta 133.660898
_cell_angle_gamma 90.000000
_cell_volume 3173.332125
_symmetry_space_group_name_H-M "C 2/M"
_symmetry_group_IT_number 12
_symmetry_cell_setting 'monoclinic'
loop_
_space_group_symop_operation_xyz
x,y,z
-x,y,-z
-x,-y,-z
x,-y,z
1/2+x,1/2+y,z
1/2-x,1/2+y,-z
1/2-x,1/2-y,-z
1/2+x,1/2-y,z
loop_
_atom_site_type_symbol
_atom_site_label
_atom_site_fract_x
_atom_site_fract_y
_atom_site_fract_z
Si Si1 0.154568 0.685688 0.438533
Si Si2 0.472674 0.176954 0.248540
Si Si3 0.778682 0.323891 0.253016
Si Si4 0.658537 0.184887 0.938445
Si Si5 0.388994 0.186031 0.368028
Si Si6 0.209983 0.817695 0.867647
Si Si7 0.900162 0.186489 0.869469
Si Si8 0.207384 0.685546 0.366451
O O1 0.157681 0.500000 0.439976
O O2 0.250000 0.750000 0.500000
O O3 0.184371 0.750755 0.403690
O O4 0.024125 0.749499 0.409309
O O5 0.399624 0.180054 0.266322
O O6 0.413435 0.286410 0.195868
O O7 0.603798 0.240780 0.302185
O O8 0.476680 0.000000 0.232675
O O9 0.738283 0.500000 0.248649
O O10 0.809748 0.241830 0.305549
O O11 0.670384 0.246601 0.192693
O O12 0.691114 0.262795 0.906803
O O13 0.526768 0.229273 0.911568
O O14 0.670190 0.000000 0.938376
O O15 0.750000 0.250000 0.000000
O O16 0.332545 0.243255 0.391650
O O17 0.389907 0.000000 0.365107
O O18 0.321876 0.726581 0.883817
O O19 0.239519 0.000000 0.876367
O O20 0.916311 0.000000 0.872990
O O21 0.213396 0.500000 0.369122
#
# Coordination Sequence:
#
# PCOD8101567 Si02
#       8
#     8   8   8   8   8   8   8   8
#     4  10  22  41  62  81 114 158 201 245 297 355
#     4   9  17  35  60  85 118 159 199 244 303 364
#     4   8  15  32  59  85 116 154 193 236 294 359
#     4  12  26  45  66  92 125 165 212 259 307 366
#     4  10  20  36  58  86 116 154 196 242 297 360
#     4  11  23  40  62  93 128 166 208 253 306 366
#     4  10  21  40  65  94 126 164 205 254 312 367
#     4  10  21  37  58  86 117 154 196 246 302 358
#
# _framework density 20.168075000000002
#
# number of rings (size 3 to 8) (size 9 to 14) (size 15 to 20)
#    0.000    2.000    1.250    3.375    1.750    2.500 
#    0.000    7.500    0.000    0.000    0.000    0.000 
#    0.000    0.000    0.000    0.000    0.000    0.000 
#
# Total GULP energy -396752.841915 kJ/mol
# GULP energy per Si atom -12398.526310 kJ/mol
# Density = 2.012217 g / cm^3
# Si number density = 20.168075 Si / 1000 Ang^3
#
#
#
# Elastic Constant Matrix: (Units=GPa)
#
#
# Indices 1 2 3 4 5 6 
#
# 1 132.0922 11.7236 75.8623 0.0000 5.9110 0.0000
# 2 11.7236 49.7885 25.2760 0.0000 -0.5677 0.0000
# 3 75.8623 25.2760 135.0831 0.0000 6.1102 0.0000
# 4 0.0000 0.0000 0.0000 30.5936 0.0000 1.0091
# 5 5.9110 -0.5677 6.1102 0.0000 26.3750 0.0000
# 6 0.0000 0.0000 0.0000 1.0091 0.0000 33.0849
#
#
#
# Elastic Compliance Matrix: (Units=1/GPa)
#
#
# Indices 1 2 3 4 5 6 
#
# 1 0.011219 0.000576 -0.006362 0.000000 -0.001028 0.000000
# 2 0.000576 0.022278 -0.004556 0.000000 0.001406 0.000000
# 3 -0.006362 -0.004556 0.011893 0.000000 -0.001427 0.000000
# 4 0.000000 0.000000 0.000000 0.032720 0.000000 -0.000998
# 5 -0.001028 0.001406 -0.001427 0.000000 0.038506 0.000000
# 6 0.000000 0.000000 0.000000 -0.000998 0.000000 0.030256
#
#
# Mechanical properties :
#
#
# Convention : Reuss Voigt Hill
#
# Bulk Modulus (GPa) = 40.47431 60.29861 50.38646
# Shear Modulus (GPa) = 28.44308 31.61749 30.03029
#
# Velocity S-wave (km/s) = 3.75947 3.96371 3.86294
# Velocity P-wave (km/s) = 6.24155 7.13519 6.70328
#
# Compressibility (1/GPa) = 0.02470703
#
# Stress axis : x y z
#
# Youngs Moduli (GPa) = 89.13401 44.88712 84.08515
#
# Poissons Ratio (x) = -0.02587 0.53494
# Poissons Ratio (y) = -0.05137 0.38307
# Poissons Ratio (z) = 0.56706 0.20450
#
# Static dielectric constant tensor:
#      x y z
#    x 3.857990 0.000000 0.008720 
#    y 0.000000 3.428710 0.000000 
#    z 0.008720 0.000000 3.857950 
# 
# 
# High freq. dielectric constant tensor:
#      x y z
#    x 1.795180 0.000000 0.001140 
#    y 0.000000 1.766270 0.000000 
#    z 0.001140 0.000000 1.791240 
# 
# From -- ./inp_files/375645.got.cif
#   From: 2010.06.25/outbox.cif.g09.slc.cpg/sg12_188_cif.got.tgz:375645.got - 2010.06.28 00:19:55.
