data_PCOD8101696
_publ_section_title
;
Structure prediction by ZEFSAII (Michael W. Deem and Ramdas Pophale) SiO2 
 PCOD8101696
Probable space group: C 2/M
;
_chemical_formula_sum "Si O2"
_cell_formula_units_Z 56
_cell_length_a 17.857613
_cell_length_b 8.430062
_cell_length_c 28.721033
_cell_angle_alpha 90.000000
_cell_angle_beta 140.939228
_cell_angle_gamma 90.000000
_cell_volume 2724.546766
_symmetry_space_group_name_H-M "C 2/M"
_symmetry_group_IT_number 12
_symmetry_cell_setting 'monoclinic'
loop_
_space_group_symop_operation_xyz
x,y,z
-x,y,-z
-x,-y,-z
x,-y,z
1/2+x,1/2+y,z
1/2-x,1/2+y,-z
1/2-x,1/2-y,-z
1/2+x,1/2-y,z
loop_
_atom_site_type_symbol
_atom_site_label
_atom_site_fract_x
_atom_site_fract_y
_atom_site_fract_z
Si Si1 0.363316 0.686246 0.427129
Si Si2 0.503032 0.184562 0.141163
Si Si3 0.228948 0.188141 0.716814
Si Si4 0.938745 0.811126 0.282791
Si Si5 0.299747 0.685126 0.571779
Si Si6 0.422891 0.683559 0.007067
Si Si7 0.331267 0.315170 0.133689
O O1 0.500000 0.730401 0.500000
O O2 0.340831 0.500000 0.422263
O O3 0.322741 0.748592 0.357116
O O4 0.288637 0.777625 0.429302
O O5 0.636787 0.248520 0.212308
O O6 0.419829 0.289002 0.133743
O O7 0.491926 0.000000 0.149182
O O8 0.464521 0.207146 0.069487
O O9 0.148276 0.258275 0.719426
O O10 0.224641 0.000000 0.716960
O O11 0.893052 0.753105 0.210619
O O12 0.070502 0.740837 0.354802
O O13 0.940874 0.000000 0.285437
O O14 0.314148 0.500000 0.572850
O O15 0.250000 0.750000 0.500000
O O16 0.443000 0.500000 0.029472
O O17 0.285473 0.711917 0.930178
O O18 0.500000 0.735178 0.000000
O O19 0.297324 0.500000 0.120375
#
# Coordination Sequence:
#
# PCOD8101696 Si02
#       7
#     8   8   8   8   8   8   8
#     4  10  20  36  59  84 114 152 190 232 284 338
#     4  11  22  37  59  85 115 150 190 234 279 333
#     4   9  18  34  57  84 112 146 190 234 278 334
#     4   9  19  36  58  84 113 148 189 233 281 333
#     4  11  22  37  58  84 116 151 190 235 282 335
#     4  11  24  41  60  84 115 148 186 234 285 337
#     4  11  22  38  61  86 115 150 189 232 280 335
#
# _framework density 20.553878000000001
#
# number of rings (size 3 to 8) (size 9 to 14) (size 15 to 20)
#    0.000    1.714    0.000    4.714    0.000    4.857 
#    0.000    2.857    0.000    6.857    0.000    0.000 
#    0.000    0.000    0.000    0.000    0.000    0.000 
#
# Total GULP energy -347347.149500 kJ/mol
# GULP energy per Si atom -12405.255339 kJ/mol
# Density = 2.050710 g / cm^3
# Si number density = 20.553878 Si / 1000 Ang^3
#
#
#
# Elastic Constant Matrix: (Units=GPa)
#
#
# Indices 1 2 3 4 5 6 
#
# 1 152.1818 13.4207 72.0026 0.0000 -2.0493 0.0000
# 2 13.4207 30.5712 13.1802 0.0001 0.0875 -0.0001
# 3 72.0026 13.1802 178.5102 0.0000 0.8258 0.0000
# 4 0.0000 0.0001 0.0000 -6.6888 0.0000 -18.1837
# 5 -2.0493 0.0875 0.8258 0.0000 45.4794 0.0000
# 6 0.0000 -0.0001 0.0000 -18.1837 0.0000 12.9890
#
#
#
# Elastic Compliance Matrix: (Units=1/GPa)
#
#
# Indices 1 2 3 4 5 6 
#
# 1 0.008279 -0.002267 -0.003174 0.000000 0.000435 0.000000
# 2 -0.002267 0.034407 -0.001625 0.000000 -0.000139 0.000000
# 3 -0.003174 -0.001625 0.007003 0.000000 -0.000267 0.000000
# 4 0.000000 0.000000 0.000000 -0.031109 0.000000 -0.043551
# 5 0.000435 -0.000139 -0.000267 0.000000 0.022013 0.000000
# 6 0.000000 0.000000 0.000000 -0.043551 0.000000 0.016020
#
#
# Mechanical properties :
#
#
# Convention : Reuss Voigt Hill
#
# Bulk Modulus (GPa) = 28.12444 62.05224 45.08834
# Shear Modulus (GPa) = 60.53523 27.86659 44.20091
#
# Velocity S-wave (km/s) = 5.43285 3.68609 4.64237
# Velocity P-wave (km/s) = 7.28475 6.95499 7.12178
#
# Compressibility (1/GPa) = 0.03555627
#
# Stress axis : x y z
#
# Youngs Moduli (GPa) = 120.79466 29.06389 142.78955
#
# Poissons Ratio (x) = 0.06589 0.45318
# Poissons Ratio (y) = 0.27386 0.23208
# Poissons Ratio (z) = 0.38338 0.04724
#
# Static dielectric constant tensor:
#      x y z
#    x 3.837230 0.000000 0.075880 
#    y 0.000000 3.200800 0.000000 
#    z 0.075880 0.000000 4.086780 
# 
# 
# High freq. dielectric constant tensor:
#      x y z
#    x 1.821120 0.000000 0.000640 
#    y 0.000000 1.775840 0.000000 
#    z 0.000640 0.000000 1.823460 
# 
# From -- ./inp_files/275082.got.cif
#   From: 2010.06.25/outbox.cif.g09.slc.cpg/sg12_138_cif.got.tgz:275082.got - 2010.06.28 00:19:55.
