data_PCOD8101038
_publ_section_title
;
Structure prediction by ZEFSAII (Michael W. Deem and Ramdas Pophale) SiO2 
 PCOD8101038
Probable space group: C 2/M
;
_chemical_formula_sum "Si O2"
_cell_formula_units_Z 32
_cell_length_a 13.346681
_cell_length_b 12.017714
_cell_length_c 9.916420
_cell_angle_alpha 90.000000
_cell_angle_beta 68.698098
_cell_angle_gamma 90.000000
_cell_volume 1481.891622
_symmetry_space_group_name_H-M "C 2/M"
_symmetry_group_IT_number 12
_symmetry_cell_setting 'monoclinic'
loop_
_space_group_symop_operation_xyz
x,y,z
-x,y,-z
-x,-y,-z
x,-y,z
1/2+x,1/2+y,z
1/2-x,1/2+y,-z
1/2-x,1/2-y,-z
1/2+x,1/2-y,z
loop_
_atom_site_type_symbol
_atom_site_label
_atom_site_fract_x
_atom_site_fract_y
_atom_site_fract_z
Si Si1 0.155865 0.874521 0.380867
Si Si2 0.469542 0.291501 0.315117
Si Si3 0.122459 0.371835 0.128684
Si Si4 0.176456 0.765331 0.846489
O O1 0.115723 0.793701 0.520687
O O2 0.268741 0.830458 0.271366
O O3 0.067917 0.875095 0.302215
O O4 0.170151 0.000000 0.427462
O O5 0.523630 0.168700 0.271599
O O6 0.411130 0.327453 0.204593
O O7 0.106823 0.500000 0.098487
O O8 0.236881 0.355727 0.146704
O O9 0.117600 0.295305 0.998395
#
# Coordination Sequence:
#
# PCOD8101038 Si02
#       4
#     8   8   8   8
#     4  10  21  38  59  83 112 146 185 227 274 329
#     4  10  20  36  56  83 113 143 182 227 274 327
#     4  10  22  38  57  83 113 146 185 229 276 327
#     4  10  21  38  58  83 113 144 186 231 272 326
#
# _framework density 21.594021999999999
#
# number of rings (size 3 to 8) (size 9 to 14) (size 15 to 20)
#    0.000    2.000    0.000    3.750    0.000    5.000 
#    0.000   11.250    0.000   13.500    0.000    0.000 
#    0.000    0.000    0.000    0.000    0.000    0.000 
#
# Total GULP energy -198345.895418 kJ/mol
# GULP energy per Si atom -12396.618464 kJ/mol
# Density = 2.154487 g / cm^3
# Si number density = 21.594022 Si / 1000 Ang^3
#
#
#
# Elastic Constant Matrix: (Units=GPa)
#
#
# Indices 1 2 3 4 5 6 
#
# 1 69.1104 9.3774 35.6027 0.0000 23.9567 0.0000
# 2 9.3774 71.8278 45.8163 0.0000 -7.1950 0.0000
# 3 35.6027 45.8163 107.6514 0.0000 4.6123 0.0000
# 4 0.0000 0.0000 0.0000 18.9361 0.0000 -2.0672
# 5 23.9567 -7.1950 4.6123 0.0000 45.1232 0.0000
# 6 0.0000 0.0000 0.0000 -2.0672 0.0000 11.3325
#
#
#
# Elastic Compliance Matrix: (Units=1/GPa)
#
#
# Indices 1 2 3 4 5 6 
#
# 1 0.021689 0.000517 -0.006933 0.000000 -0.010724 0.000000
# 2 0.000517 0.019829 -0.008772 0.000000 0.003784 0.000000
# 3 -0.006933 -0.008772 0.015285 0.000000 0.000720 0.000000
# 4 0.000000 0.000000 0.000000 0.053882 0.000000 0.009829
# 5 -0.010724 0.003784 0.000720 0.000000 0.028385 0.000000
# 6 0.000000 0.000000 0.000000 0.009829 0.000000 0.090035
#
#
# Mechanical properties :
#
#
# Convention : Reuss Voigt Hill
#
# Bulk Modulus (GPa) = 37.84308 47.79807 42.82057
# Shear Modulus (GPa) = 18.63647 25.59790 22.11718
#
# Velocity S-wave (km/s) = 2.94094 3.44672 3.20383
# Velocity P-wave (km/s) = 5.39398 6.16626 5.79300
#
# Compressibility (1/GPa) = 0.02642491
#
# Stress axis : x y z
#
# Youngs Moduli (GPa) = 46.10723 50.43021 65.42378
#
# Poissons Ratio (x) = -0.02606 0.45361
# Poissons Ratio (y) = -0.02383 0.57392
# Poissons Ratio (z) = 0.31968 0.44239
#
# Static dielectric constant tensor:
#      x y z
#    x 4.041780 0.000000 0.052820 
#    y 0.000000 3.468170 0.000000 
#    z 0.052820 0.000000 3.995450 
# 
# 
# High freq. dielectric constant tensor:
#      x y z
#    x 1.860260 0.000000 -0.001960 
#    y 0.000000 1.806410 0.000000 
#    z -0.001960 0.000000 1.853020 
# 
# From -- ./inp_files/56496.got.cif
#   From: 2010.06.25/outbox.cif.g09.slc.cpg/sg12_29_cif.got.tgz:56496.got - 2010.06.28 00:19:55.
