data_PCOD8101360
_publ_section_title
;
Structure prediction by ZEFSAII (Michael W. Deem and Ramdas Pophale) SiO2 
 PCOD8101360
Probable space group: C 2/M
;
_chemical_formula_sum "Si O2"
_cell_formula_units_Z 64
_cell_length_a 18.440058
_cell_length_b 22.330865
_cell_length_c 17.413854
_cell_angle_alpha 90.000000
_cell_angle_beta 31.707833
_cell_angle_gamma 90.000000
_cell_volume 3768.843790
_symmetry_space_group_name_H-M "C 2/M"
_symmetry_group_IT_number 12
_symmetry_cell_setting 'monoclinic'
loop_
_space_group_symop_operation_xyz
x,y,z
-x,y,-z
-x,-y,-z
x,-y,z
1/2+x,1/2+y,z
1/2-x,1/2+y,-z
1/2-x,1/2-y,-z
1/2+x,1/2-y,z
loop_
_atom_site_type_symbol
_atom_site_label
_atom_site_fract_x
_atom_site_fract_y
_atom_site_fract_z
Si Si1 0.211728 0.123771 0.203209
Si Si2 0.895449 0.781928 0.155418
Si Si3 0.954864 0.285985 0.335589
Si Si4 0.162839 0.169338 0.629632
Si Si5 0.993687 0.337115 0.871946
Si Si6 0.384557 0.751513 0.665979
Si Si7 0.049875 0.069350 0.630566
Si Si8 0.278223 0.931424 0.301888
O O1 0.135445 0.181245 0.305324
O O2 0.254754 0.080511 0.233508
O O3 0.108030 0.088217 0.241241
O O4 0.345165 0.143256 0.035268
O O5 0.892308 0.821774 0.234545
O O6 0.750128 0.783215 0.244460
O O7 0.940340 0.713843 0.133637
O O8 0.000000 0.810907 0.000000
O O9 0.898796 0.219038 0.372224
O O10 0.828741 0.327204 0.478107
O O11 0.025481 0.312952 0.196625
O O12 0.073621 0.283353 0.292337
O O13 0.113002 0.104827 0.645866
O O14 0.096689 0.392803 0.777694
O O15 0.500000 0.762676 0.500000
O O16 0.138773 0.083440 0.474097
O O17 0.055635 0.000000 0.647696
O O18 0.321436 0.000000 0.273925
#
# Coordination Sequence:
#
# PCOD8101360 Si02
#       8
#     8   8   8   8   8   8   8   8
#     4  12  23  33  52  82 119 149 184 227 271 321
#     4  11  21  36  56  86 116 140 182 226 286 336
#     4  10  21  34  56  82 111 145 190 220 280 337
#     4  10  20  36  58  81 109 147 182 234 273 330
#     4  11  22  37  53  79 117 153 184 229 272 330
#     4  12  21  33  55  82 111 151 177 224 278 336
#     4  11  23  39  58  81 108 150 198 231 268 322
#     4  11  22  37  56  77 110 155 196 225 260 324
#
# _framework density 16.981335000000001
#
# number of rings (size 3 to 8) (size 9 to 14) (size 15 to 20)
#    0.000    1.000    6.250    1.875    0.000    4.000 
#    0.000    0.000    0.000    0.375    0.000    2.625 
#    0.000    0.000    0.000    0.000    0.000    0.000 
#
# Total GULP energy -396959.816242 kJ/mol
# GULP energy per Si atom -12404.994258 kJ/mol
# Density = 1.694269 g / cm^3
# Si number density = 16.981335 Si / 1000 Ang^3
#
#
#
# Elastic Constant Matrix: (Units=GPa)
#
#
# Indices 1 2 3 4 5 6 
#
# 1 99.4722 42.4143 50.4732 0.0011 -3.3836 0.0006
# 2 42.4143 66.5917 27.6811 -0.0081 3.0956 0.0037
# 3 50.4732 27.6811 115.5005 -0.0108 4.4842 -0.0020
# 4 0.0011 -0.0081 -0.0108 19.4011 0.0016 0.6341
# 5 -3.3836 3.0956 4.4842 0.0016 23.2244 -0.0024
# 6 0.0006 0.0037 -0.0020 0.6341 -0.0024 27.4749
#
#
#
# Elastic Compliance Matrix: (Units=1/GPa)
#
#
# Indices 1 2 3 4 5 6 
#
# 1 0.016578 -0.008537 -0.005377 -0.000008 0.004591 0.000001
# 2 -0.008537 0.021125 -0.001183 0.000009 -0.003831 -0.000003
# 3 -0.005377 -0.001183 0.011401 0.000006 -0.002827 0.000001
# 4 -0.000008 0.000009 0.000006 0.051582 -0.000007 -0.001190
# 5 0.004591 -0.003831 -0.002827 -0.000007 0.044783 0.000004
# 6 0.000001 -0.000003 0.000001 -0.001190 0.000004 0.036424
#
#
# Mechanical properties :
#
#
# Convention : Reuss Voigt Hill
#
# Bulk Modulus (GPa) = 52.88541 58.07795 55.48168
# Shear Modulus (GPa) = 22.89482 24.75315 23.82398
#
# Velocity S-wave (km/s) = 3.67581 3.82208 3.74966
# Velocity P-wave (km/s) = 7.01615 7.33165 7.17563
#
# Compressibility (1/GPa) = 0.01890881
#
# Stress axis : x y z
#
# Youngs Moduli (GPa) = 60.32243 47.33836 87.71305
#
# Poissons Ratio (x) = 0.40414 0.47159
# Poissons Ratio (y) = 0.51499 0.10379
# Poissons Ratio (z) = 0.32432 0.05601
#
# Static dielectric constant tensor:
#      x y z
#    x 3.170230 -0.000010 0.003940 
#    y -0.000010 2.977160 0.000020 
#    z 0.003940 0.000020 3.278380 
# 
# 
# High freq. dielectric constant tensor:
#      x y z
#    x 1.655350 0.000000 -0.002280 
#    y 0.000000 1.626320 0.000000 
#    z -0.002280 0.000000 1.668090 
# 
# From -- ./inp_files/89573.got.cif
#   From: 2010.06.25/outbox.cif.g09.slc.cpg/sg12_45_cif.got.tgz:89573.got - 2010.06.28 00:19:55.
