data_PCOD8101129
_publ_section_title
;
Structure prediction by ZEFSAII (Michael W. Deem and Ramdas Pophale) SiO2 
 PCOD8101129
Probable space group: C 2/M
;
_chemical_formula_sum "Si O2"
_cell_formula_units_Z 56
_cell_length_a 19.031960
_cell_length_b 8.862362
_cell_length_c 26.591268
_cell_angle_alpha 90.000000
_cell_angle_beta 38.900363
_cell_angle_gamma 90.000000
_cell_volume 2816.498695
_symmetry_space_group_name_H-M "C 2/M"
_symmetry_group_IT_number 12
_symmetry_cell_setting 'monoclinic'
loop_
_space_group_symop_operation_xyz
x,y,z
-x,y,-z
-x,-y,-z
x,-y,z
1/2+x,1/2+y,z
1/2-x,1/2+y,-z
1/2-x,1/2-y,-z
1/2+x,1/2-y,z
loop_
_atom_site_type_symbol
_atom_site_label
_atom_site_fract_x
_atom_site_fract_y
_atom_site_fract_z
Si Si1 0.906321 0.326529 0.696679
Si Si2 0.598886 0.324577 0.720568
Si Si3 0.282757 0.175674 0.250746
Si Si4 0.147228 0.172510 0.171915
Si Si5 0.188369 0.824494 0.988683
Si Si6 0.980034 0.325733 0.068160
Si Si7 0.347615 0.825838 0.414622
O O1 0.874934 0.500000 0.725854
O O2 0.834669 0.266136 0.689085
O O3 0.874667 0.215960 0.759095
O O4 0.039605 0.310824 0.614496
O O5 0.632505 0.500000 0.703744
O O6 0.652400 0.237019 0.737131
O O7 0.464770 0.304183 0.798761
O O8 0.642887 0.255865 0.644083
O O9 0.355235 0.201469 0.159152
O O10 0.257836 0.000000 0.273141
O O11 0.247252 0.278024 0.097673
O O12 0.188086 0.000000 0.147006
O O13 0.190462 0.000000 0.995720
O O14 0.250000 0.750000 0.000000
O O15 0.060982 0.770287 0.058567
O O16 0.013810 0.500000 0.053638
O O17 0.000000 0.268901 0.000000
O O18 0.250000 0.750000 0.500000
O O19 0.319494 0.000000 0.420015
#
# Coordination Sequence:
#
# PCOD8101129 Si02
#       7
#     8   8   8   8   8   8   8
#     4  10  21  37  59  86 115 148 185 225 272 331
#     4  10  21  37  59  85 115 152 191 234 284 338
#     4  11  22  36  57  84 116 153 193 239 287 337
#     4  10  20  36  57  80 108 144 188 235 283 337
#     4  12  24  36  53  77 107 144 188 239 290 338
#     4  10  22  39  57  79 111 151 194 241 292 342
#     4  10  21  39  64  92 120 149 183 225 275 334
#
# _framework density 19.882842
#
# number of rings (size 3 to 8) (size 9 to 14) (size 15 to 20)
#    0.000    1.571    0.000    5.143    0.000    8.286 
#    0.000    0.714    0.000    4.286    0.000    0.000 
#    0.000    0.000    0.000    0.000    0.000    0.000 
#
# Total GULP energy -347247.821659 kJ/mol
# GULP energy per Si atom -12401.707916 kJ/mol
# Density = 1.983759 g / cm^3
# Si number density = 19.882842 Si / 1000 Ang^3
#
#
#
# Elastic Constant Matrix: (Units=GPa)
#
#
# Indices 1 2 3 4 5 6 
#
# 1 100.1480 49.6951 18.1213 0.0008 -14.3229 -0.0022
# 2 49.6951 122.1526 36.0928 0.0012 -12.5225 -0.0032
# 3 18.1213 36.0928 74.3665 -0.0001 -9.4939 0.0003
# 4 0.0008 0.0012 -0.0001 33.2829 0.0001 -0.7716
# 5 -14.3229 -12.5225 -9.4939 0.0001 24.9389 0.0004
# 6 -0.0022 -0.0032 0.0003 -0.7716 0.0004 37.9557
#
#
#
# Elastic Compliance Matrix: (Units=1/GPa)
#
#
# Indices 1 2 3 4 5 6 
#
# 1 0.013105 -0.004740 -0.000248 0.000000 0.005052 0.000000
# 2 -0.004740 0.011519 -0.004251 0.000000 0.001443 0.000001
# 3 -0.000248 -0.004251 0.016060 0.000000 0.003837 -0.000001
# 4 0.000000 0.000000 0.000000 0.030060 0.000000 0.000611
# 5 0.005052 0.001443 0.003837 0.000000 0.045185 0.000000
# 6 0.000000 0.000001 -0.000001 0.000611 0.000000 0.026359
#
#
# Mechanical properties :
#
#
# Convention : Reuss Voigt Hill
#
# Bulk Modulus (GPa) = 45.03367 56.05394 50.54381
# Shear Modulus (GPa) = 29.73216 32.08602 30.90909
#
# Velocity S-wave (km/s) = 3.87119 4.02151 3.94707
# Velocity P-wave (km/s) = 6.53301 7.05810 6.80062
#
# Compressibility (1/GPa) = 0.02220561
#
# Stress axis : x y z
#
# Youngs Moduli (GPa) = 76.30813 86.81269 62.26486
#
# Poissons Ratio (x) = 0.41152 0.01543
# Poissons Ratio (y) = 0.36172 0.26471
# Poissons Ratio (z) = 0.01890 0.36907
#
# Static dielectric constant tensor:
#      x y z
#    x 3.715020 0.000000 -0.263070 
#    y 0.000000 4.544560 0.000000 
#    z -0.263070 0.000000 3.657470 
# 
# 
# High freq. dielectric constant tensor:
#      x y z
#    x 1.782560 0.000000 -0.010700 
#    y 0.000000 1.789000 0.000000 
#    z -0.010700 0.000000 1.758070 
# 
# From -- ./inp_files/342360.got.cif
#   From: 2010.06.25/outbox.cif.g09.slc.cpg/sg12_172_cif.got.tgz:342360.got - 2010.06.28 00:19:55.
