data_PCOD8101647
_publ_section_title
;
Structure prediction by ZEFSAII (Michael W. Deem and Ramdas Pophale) SiO2 
 PCOD8101647
Probable space group: C 2/M
;
_chemical_formula_sum "Si O2"
_cell_formula_units_Z 56
_cell_length_a 11.027728
_cell_length_b 26.550963
_cell_length_c 15.114303
_cell_angle_alpha 90.000000
_cell_angle_beta 40.264839
_cell_angle_gamma 90.000000
_cell_volume 2860.244347
_symmetry_space_group_name_H-M "C 2/M"
_symmetry_group_IT_number 12
_symmetry_cell_setting 'monoclinic'
loop_
_space_group_symop_operation_xyz
x,y,z
-x,y,-z
-x,-y,-z
x,-y,z
1/2+x,1/2+y,z
1/2-x,1/2+y,-z
1/2-x,1/2-y,-z
1/2+x,1/2-y,z
loop_
_atom_site_type_symbol
_atom_site_label
_atom_site_fract_x
_atom_site_fract_y
_atom_site_fract_z
Si Si1 0.303248 0.803682 0.568477
Si Si2 0.615742 0.441627 0.181885
Si Si3 0.202944 0.349983 0.134479
Si Si4 0.157133 0.095337 0.346109
Si Si5 0.059003 0.555356 0.125356
Si Si6 0.555984 0.639659 0.830589
Si Si7 0.313153 0.808791 0.358966
O O1 0.500000 0.822348 0.500000
O O2 0.120500 0.829146 0.710734
O O3 0.290750 0.821546 0.474464
O O4 0.282301 0.744768 0.602666
O O5 0.559628 0.500000 0.228938
O O6 0.579800 0.406980 0.288737
O O7 0.484255 0.418034 0.177245
O O8 0.832375 0.436322 0.028613
O O9 0.121196 0.405207 0.163810
O O10 0.279086 0.354930 0.190677
O O11 0.037621 0.308781 0.215276
O O12 0.365727 0.335501 0.974896
O O13 0.335777 0.058858 0.239182
O O14 0.210519 0.151437 0.350951
O O15 0.000000 0.072965 0.500000
O O16 0.109463 0.500000 0.133337
#
# Coordination Sequence:
#
# PCOD8101647 Si02
#       7
#     8   8   8   8   8   8   8
#     4  11  21  37  61  82 111 147 187 230 280 338
#     4  10  21  37  57  83 114 152 192 227 277 339
#     4   9  19  37  57  82 115 142 186 235 280 321
#     4  11  21  35  55  80 117 145 183 235 279 329
#     4   9  19  35  57  81 110 150 189 228 277 334
#     4  10  20  36  59  82 112 150 182 235 280 325
#     4  10  22  38  58  85 109 146 191 229 279 339
#
# _framework density 19.578745999999999
#
# number of rings (size 3 to 8) (size 9 to 14) (size 15 to 20)
#    0.000    2.000    1.429    2.143    0.000    4.571 
#    0.000    2.857    6.286    0.429    0.000    0.000 
#    0.000    0.000    0.000    0.000    0.000    0.000 
#
# Total GULP energy -346991.204794 kJ/mol
# GULP energy per Si atom -12392.543028 kJ/mol
# Density = 1.953418 g / cm^3
# Si number density = 19.578746 Si / 1000 Ang^3
#
#
#
# Elastic Constant Matrix: (Units=GPa)
#
#
# Indices 1 2 3 4 5 6 
#
# 1 46.7751 8.9191 23.9285 0.0000 -3.7905 0.0000
# 2 8.9191 48.6693 28.7889 0.0000 9.9826 0.0000
# 3 23.9285 28.7889 123.9656 0.0000 -0.9495 0.0000
# 4 0.0000 0.0000 0.0000 30.0331 0.0000 2.4737
# 5 -3.7905 9.9826 -0.9495 0.0000 22.3357 0.0000
# 6 0.0000 0.0000 0.0000 2.4737 0.0000 16.7151
#
#
#
# Elastic Compliance Matrix: (Units=1/GPa)
#
#
# Indices 1 2 3 4 5 6 
#
# 1 0.024449 -0.003282 -0.003915 0.000000 0.005450 0.000000
# 2 -0.003282 0.027235 -0.005791 0.000000 -0.012975 0.000000
# 3 -0.003915 -0.005791 0.010185 0.000000 0.002357 0.000000
# 4 0.000000 0.000000 0.000000 0.033707 0.000000 -0.004988
# 5 0.005450 -0.012975 0.002357 0.000000 0.051596 0.000000
# 6 0.000000 0.000000 0.000000 -0.004988 0.000000 0.060564
#
#
# Mechanical properties :
#
#
# Convention : Reuss Voigt Hill
#
# Bulk Modulus (GPa) = 27.86059 38.07589 32.96824
# Shear Modulus (GPa) = 20.35184 24.33503 22.34343
#
# Velocity S-wave (km/s) = 3.22760 3.52935 3.38184
# Velocity P-wave (km/s) = 5.30573 6.00818 5.66785
#
# Compressibility (1/GPa) = 0.03589299
#
# Stress axis : x y z
#
# Youngs Moduli (GPa) = 40.90094 36.71738 98.18023
#
# Poissons Ratio (x) = 0.12052 0.38441
# Poissons Ratio (y) = 0.13425 0.56853
# Poissons Ratio (z) = 0.16014 0.21262
#
# Static dielectric constant tensor:
#      x y z
#    x 3.547960 0.000000 -0.052650 
#    y 0.000000 3.352980 0.000000 
#    z -0.052650 0.000000 3.837450 
# 
# 
# High freq. dielectric constant tensor:
#      x y z
#    x 1.759330 0.000000 -0.003340 
#    y 0.000000 1.743370 0.000000 
#    z -0.003340 0.000000 1.778700 
# 
# From -- ./inp_files/91605.got.cif
#   From: 2010.06.25/outbox.cif.g09.slc.cpg/sg12_46_cif.got.tgz:91605.got - 2010.06.28 00:19:55.
