data_PCOD8101553
_publ_section_title
;
Structure prediction by ZEFSAII (Michael W. Deem and Ramdas Pophale) SiO2 
 PCOD8101553
Probable space group: C 2/M
;
_chemical_formula_sum "Si O2"
_cell_formula_units_Z 40
_cell_length_a 29.797556
_cell_length_b 8.800423
_cell_length_c 14.976009
_cell_angle_alpha 90.000000
_cell_angle_beta 30.342189
_cell_angle_gamma 90.000000
_cell_volume 1983.864572
_symmetry_space_group_name_H-M "C 2/M"
_symmetry_group_IT_number 12
_symmetry_cell_setting 'monoclinic'
loop_
_space_group_symop_operation_xyz
x,y,z
-x,y,-z
-x,-y,-z
x,-y,z
1/2+x,1/2+y,z
1/2-x,1/2+y,-z
1/2-x,1/2-y,-z
1/2+x,1/2-y,z
loop_
_atom_site_type_symbol
_atom_site_label
_atom_site_fract_x
_atom_site_fract_y
_atom_site_fract_z
Si Si1 0.518505 0.674550 0.867538
Si Si2 0.887019 0.824758 0.937679
Si Si3 0.525998 0.680734 0.552393
Si Si4 0.716840 0.679522 0.290368
Si Si5 0.196263 0.321494 0.511836
O O1 0.551690 0.500000 0.807735
O O2 0.429821 0.695087 0.962091
O O3 0.593042 0.780288 0.696674
O O4 0.500000 0.727580 0.000000
O O5 0.954527 0.760096 0.747181
O O6 0.864363 0.000000 0.957300
O O7 0.796487 0.728255 0.087645
O O8 0.500000 0.745535 0.500000
O O9 0.526460 0.500000 0.551670
O O10 0.623990 0.740140 0.409452
O O11 0.715223 0.500000 0.305612
O O12 0.735499 0.757243 0.352914
O O13 0.210179 0.500000 0.489110
O O14 0.250000 0.250000 0.500000
#
# Coordination Sequence:
#
# PCOD8101553 Si02
#       5
#     8   8   8   8   8
#     4  10  20  36  58  85 120 161 202 245 299 361
#     4  10  20  37  60  88 123 163 203 249 306 364
#     4   9  19  38  63  88 120 164 207 249 306 369
#     4  11  22  39  62  90 123 160 205 253 304 361
#     4  12  24  38  59  87 122 161 204 250 301 359
#
# _framework density 20.162666999999999
#
# number of rings (size 3 to 8) (size 9 to 14) (size 15 to 20)
#    0.000    1.600    2.000    3.600    0.000    3.600 
#    0.000    0.000    0.000    4.200    0.000    0.000 
#    0.000    0.000    0.000    0.000    0.000    0.000 
#
# Total GULP energy -248089.762503 kJ/mol
# GULP energy per Si atom -12404.488125 kJ/mol
# Density = 2.011678 g / cm^3
# Si number density = 20.162667 Si / 1000 Ang^3
#
#
#
# Elastic Constant Matrix: (Units=GPa)
#
#
# Indices 1 2 3 4 5 6 
#
# 1 126.8343 31.7596 64.6726 0.0000 5.6383 0.0000
# 2 31.7596 83.2644 40.7322 0.0000 -6.9013 0.0000
# 3 64.6726 40.7322 157.9723 0.0000 -6.7845 0.0000
# 4 0.0000 0.0000 0.0000 37.7285 0.0000 -1.6877
# 5 5.6383 -6.9013 -6.7845 0.0000 34.3908 0.0000
# 6 0.0000 0.0000 0.0000 -1.6877 0.0000 12.4244
#
#
#
# Elastic Compliance Matrix: (Units=1/GPa)
#
#
# Indices 1 2 3 4 5 6 
#
# 1 0.010575 -0.002403 -0.003837 0.000000 -0.002973 0.000000
# 2 -0.002403 0.014438 -0.002620 0.000000 0.002774 0.000000
# 3 -0.003837 -0.002620 0.008655 0.000000 0.001811 0.000000
# 4 0.000000 0.000000 0.000000 0.026667 0.000000 0.003622
# 5 -0.002973 0.002774 0.001811 0.000000 0.030479 0.000000
# 6 0.000000 0.000000 0.000000 0.003622 0.000000 0.080979
#
#
# Mechanical properties :
#
#
# Convention : Reuss Voigt Hill
#
# Bulk Modulus (GPa) = 62.70695 71.37776 67.04236
# Shear Modulus (GPa) = 25.66365 32.30251 28.98308
#
# Velocity S-wave (km/s) = 3.57154 4.00696 3.79550
# Velocity P-wave (km/s) = 6.94089 7.54224 7.24781
#
# Compressibility (1/GPa) = 0.01594720
#
# Stress axis : x y z
#
# Youngs Moduli (GPa) = 94.56454 69.26163 115.54654
#
# Poissons Ratio (x) = 0.16642 0.44340
# Poissons Ratio (y) = 0.22721 0.30272
# Poissons Ratio (z) = 0.36288 0.18146
#
# Static dielectric constant tensor:
#      x y z
#    x 3.780680 0.000000 0.023930 
#    y 0.000000 3.465850 0.000000 
#    z 0.023930 0.000000 3.836940 
# 
# 
# High freq. dielectric constant tensor:
#      x y z
#    x 1.788450 0.000000 -0.001570 
#    y 0.000000 1.759910 0.000000 
#    z -0.001570 0.000000 1.800670 
# 
# From -- ./inp_files/211170.got.cif
#   From: 2010.06.25/outbox.cif.g09.slc.cpg/sg12_106_cif.got.tgz:211170.got - 2010.06.28 00:19:55.
