data_PCOD8101404
_publ_section_title
;
Structure prediction by ZEFSAII (Michael W. Deem and Ramdas Pophale) SiO2 
 PCOD8101404
Probable space group: C 2/M
;
_chemical_formula_sum "Si O2"
_cell_formula_units_Z 64
_cell_length_a 14.628042
_cell_length_b 9.120928
_cell_length_c 33.965676
_cell_angle_alpha 90.000000
_cell_angle_beta 49.636201
_cell_angle_gamma 90.000000
_cell_volume 3452.952669
_symmetry_space_group_name_H-M "C 2/M"
_symmetry_group_IT_number 12
_symmetry_cell_setting 'monoclinic'
loop_
_space_group_symop_operation_xyz
x,y,z
-x,y,-z
-x,-y,-z
x,-y,z
1/2+x,1/2+y,z
1/2-x,1/2+y,-z
1/2-x,1/2-y,-z
1/2+x,1/2-y,z
loop_
_atom_site_type_symbol
_atom_site_label
_atom_site_fract_x
_atom_site_fract_y
_atom_site_fract_z
Si Si1 0.419541 0.830716 0.627221
Si Si2 0.383640 0.329715 0.007259
Si Si3 0.665503 0.327048 0.554651
Si Si4 0.993966 0.666258 0.263227
Si Si5 0.786998 0.667230 0.743840
Si Si6 0.297918 0.668025 0.367491
Si Si7 0.956179 0.326553 0.186151
Si Si8 0.638042 0.670918 0.077957
O O1 0.530465 0.727329 0.587005
O O2 0.356556 0.781911 0.685279
O O3 0.329921 0.803384 0.616324
O O4 0.460953 0.000000 0.618423
O O5 0.357390 0.500000 0.023223
O O6 0.267551 0.237927 0.052706
O O7 0.500000 0.277811 0.000000
O O8 0.403170 0.301434 0.955485
O O9 0.670734 0.500000 0.546483
O O10 0.750000 0.250000 0.500000
O O11 0.711710 0.279986 0.584859
O O12 0.948897 0.500000 0.275396
O O13 0.902325 0.749422 0.316188
O O14 0.995658 0.727461 0.218465
O O15 0.127394 0.680598 0.242531
O O16 0.740579 0.500000 0.751433
O O17 0.679760 0.777116 0.782721
O O18 0.335719 0.500000 0.354634
O O19 0.967426 0.500000 0.177450
O O20 0.038896 0.247915 0.131705
O O21 0.643357 0.500000 0.086294
#
# Coordination Sequence:
#
# PCOD8101404 Si02
#       8
#     8   8   8   8   8   8   8   8
#     4  10  20  37  61  84 110 144 183 230 281 334
#     4   9  19  38  63  86 112 150 194 238 287 338
#     4  11  24  40  59  84 114 146 184 232 283 337
#     4  10  21  36  56  82 111 148 188 228 276 332
#     4  10  20  36  58  82 110 148 189 229 278 335
#     4  10  21  37  59  84 110 143 182 228 280 333
#     4  11  23  37  55  83 120 154 189 234 280 332
#     4  10  21  37  58  85 117 152 190 237 286 335
#
# _framework density 18.534860999999999
#
# number of rings (size 3 to 8) (size 9 to 14) (size 15 to 20)
#    0.000    1.875    2.500    1.125    0.000    4.750 
#    0.000    7.500    0.000    0.000    0.000    0.000 
#    0.000    0.000    0.000    0.000    0.000    0.000 
#
# Total GULP energy -396895.378789 kJ/mol
# GULP energy per Si atom -12402.980587 kJ/mol
# Density = 1.849268 g / cm^3
# Si number density = 18.534861 Si / 1000 Ang^3
#
#
#
# Elastic Constant Matrix: (Units=GPa)
#
#
# Indices 1 2 3 4 5 6 
#
# 1 113.2205 48.9294 62.9826 0.0000 -0.6707 0.0000
# 2 48.9294 74.4316 60.4742 -0.0002 -7.4760 -0.0002
# 3 62.9826 60.4742 137.1300 -0.0001 -8.7941 -0.0001
# 4 0.0000 -0.0002 -0.0001 36.8923 -0.0001 -6.5154
# 5 -0.6707 -7.4760 -8.7941 -0.0001 27.2989 -0.0001
# 6 0.0000 -0.0002 -0.0001 -6.5154 -0.0001 33.0075
#
#
#
# Elastic Compliance Matrix: (Units=1/GPa)
#
#
# Indices 1 2 3 4 5 6 
#
# 1 0.013515 -0.006177 -0.003646 0.000000 -0.002534 0.000000
# 2 -0.006177 0.023974 -0.007479 0.000000 0.004005 0.000000
# 3 -0.003646 -0.007479 0.012384 0.000000 0.001852 0.000000
# 4 0.000000 0.000000 0.000000 0.028085 0.000000 0.005544
# 5 -0.002534 0.004005 0.001852 0.000000 0.038262 0.000000
# 6 0.000000 0.000000 0.000000 0.005544 0.000000 0.031390
#
#
# Mechanical properties :
#
#
# Convention : Reuss Voigt Hill
#
# Bulk Modulus (GPa) = 65.48786 74.39496 69.94141
# Shear Modulus (GPa) = 26.69469 29.59946 28.14708
#
# Velocity S-wave (km/s) = 3.79917 4.00054 3.90115
# Velocity P-wave (km/s) = 7.39283 7.84628 7.62292
#
# Compressibility (1/GPa) = 0.01527001
#
# Stress axis : x y z
#
# Youngs Moduli (GPa) = 73.99363 41.71153 80.75073
#
# Poissons Ratio (x) = 0.25763 0.29440
# Poissons Ratio (y) = 0.45703 0.60393
# Poissons Ratio (z) = 0.26977 0.31196
#
# Static dielectric constant tensor:
#      x y z
#    x 3.595340 0.000000 0.162700 
#    y 0.000000 3.458410 0.000000 
#    z 0.162700 0.000000 3.374070 
# 
# 
# High freq. dielectric constant tensor:
#      x y z
#    x 1.729690 0.000000 0.004990 
#    y 0.000000 1.721290 0.000000 
#    z 0.004990 0.000000 1.719360 
# 
# From -- ./inp_files/359990.got.cif
#   From: 2010.06.25/outbox.cif.g09.slc.cpg/sg12_180_cif.got.tgz:359990.got - 2010.06.28 00:19:55.
