data_PCOD8101445
_publ_section_title
;
Structure prediction by ZEFSAII (Michael W. Deem and Ramdas Pophale) SiO2 
 PCOD8101445
Probable space group: C 2/M
;
_chemical_formula_sum "Si O2"
_cell_formula_units_Z 40
_cell_length_a 26.836045
_cell_length_b 8.358891
_cell_length_c 11.290842
_cell_angle_alpha 90.000000
_cell_angle_beta 125.469302
_cell_angle_gamma 90.000000
_cell_volume 2062.744399
_symmetry_space_group_name_H-M "C 2/M"
_symmetry_group_IT_number 12
_symmetry_cell_setting 'monoclinic'
loop_
_space_group_symop_operation_xyz
x,y,z
-x,y,-z
-x,-y,-z
x,-y,z
1/2+x,1/2+y,z
1/2-x,1/2+y,-z
1/2-x,1/2-y,-z
1/2+x,1/2-y,z
loop_
_atom_site_type_symbol
_atom_site_label
_atom_site_fract_x
_atom_site_fract_y
_atom_site_fract_z
Si Si1 0.225148 0.813954 0.295504
Si Si2 0.342709 0.684743 0.564058
Si Si3 0.304139 0.814326 0.994148
Si Si4 0.051384 0.686087 0.431103
Si Si5 0.577852 0.686843 0.721096
O O1 0.288367 0.717514 0.395646
O O2 0.178091 0.761239 0.333598
O O3 0.240967 0.000000 0.329694
O O4 0.194524 0.778073 0.128142
O O5 0.360774 0.500000 0.584199
O O6 0.402562 0.787033 0.614158
O O7 0.368172 0.787464 0.146457
O O8 0.293699 0.000000 0.955580
O O9 0.250000 0.750000 0.000000
O O10 0.045267 0.500000 0.453215
O O11 0.077211 0.779416 0.580411
O O12 0.985306 0.756623 0.305546
O O13 0.588480 0.500000 0.758520
#
# Coordination Sequence:
#
# PCOD8101445 Si02
#       5
#     8   8   8   8   8
#     4  10  21  37  57  83 113 145 185 229 273 324
#     4  10  20  36  58  83 112 147 185 226 273 324
#     4  12  24  39  58  82 113 146 182 225 277 329
#     4  11  21  36  58  84 113 145 184 227 273 324
#     4  11  22  38  58  82 112 145 185 228 274 326
#
# _framework density 19.391642000000001
#
# number of rings (size 3 to 8) (size 9 to 14) (size 15 to 20)
#    0.000    1.200    0.000    9.000    0.000    2.400 
#    0.000    1.000    0.000    6.000    0.000    0.000 
#    0.000    0.000    0.000    0.000    0.000    0.000 
#
# Total GULP energy -248136.027131 kJ/mol
# GULP energy per Si atom -12406.801357 kJ/mol
# Density = 1.934751 g / cm^3
# Si number density = 19.391642 Si / 1000 Ang^3
#
#
#
# Elastic Constant Matrix: (Units=GPa)
#
#
# Indices 1 2 3 4 5 6 
#
# 1 136.8106 26.0157 49.8153 0.0000 4.5422 0.0000
# 2 26.0157 77.9880 -1.8735 0.0000 -2.9105 0.0000
# 3 49.8153 -1.8735 96.5642 0.0000 7.4686 0.0000
# 4 0.0000 0.0000 0.0000 31.9986 0.0000 2.8690
# 5 4.5422 -2.9105 7.4686 0.0000 19.8817 0.0000
# 6 0.0000 0.0000 0.0000 2.8690 0.0000 31.6865
#
#
#
# Elastic Compliance Matrix: (Units=1/GPa)
#
#
# Indices 1 2 3 4 5 6 
#
# 1 0.009839 -0.003436 -0.005077 0.000000 -0.000844 0.000000
# 2 -0.003436 0.014094 0.001880 0.000000 0.002142 0.000000
# 3 -0.005077 0.001880 0.013287 0.000000 -0.003556 0.000000
# 4 0.000000 0.000000 0.000000 0.031507 0.000000 -0.002853
# 5 -0.000844 0.002142 -0.003556 0.000000 0.052140 0.000000
# 6 0.000000 0.000000 0.000000 -0.002853 0.000000 0.031818
#
#
# Mechanical properties :
#
#
# Convention : Reuss Voigt Hill
#
# Bulk Modulus (GPa) = 41.74677 51.03086 46.38882
# Shear Modulus (GPa) = 28.74644 32.54037 30.64340
#
# Velocity S-wave (km/s) = 3.85439 4.10086 3.97953
# Velocity P-wave (km/s) = 6.43299 6.98540 6.71488
#
# Compressibility (1/GPa) = 0.02395395
#
# Stress axis : x y z
#
# Youngs Moduli (GPa) = 101.63134 70.95363 75.26375
#
# Poissons Ratio (x) = 0.24378 0.38214
# Poissons Ratio (y) = 0.34918 -0.14151
# Poissons Ratio (z) = 0.51602 -0.13341
#
# Static dielectric constant tensor:
#      x y z
#    x 3.669320 0.000000 0.045410 
#    y 0.000000 3.594420 0.000000 
#    z 0.045410 0.000000 3.379810 
# 
# 
# High freq. dielectric constant tensor:
#      x y z
#    x 1.764740 0.000000 0.003840 
#    y 0.000000 1.773110 0.000000 
#    z 0.003840 0.000000 1.736890 
# 
# From -- ./inp_files/186035.got.cif
#   From: 2010.06.25/outbox.cif.g09.slc.cpg/sg12_94_cif.got.tgz:186035.got - 2010.06.28 00:19:55.
