data_PCOD8101998
_publ_section_title
;
Structure prediction by ZEFSAII (Michael W. Deem and Ramdas Pophale) SiO2 
 PCOD8101998
Probable space group: C 2/M
;
_chemical_formula_sum "Si O2"
_cell_formula_units_Z 64
_cell_length_a 28.608083
_cell_length_b 9.044287
_cell_length_c 14.170102
_cell_angle_alpha 90.000000
_cell_angle_beta 113.729033
_cell_angle_gamma 90.000000
_cell_volume 3356.408967
_symmetry_space_group_name_H-M "C 2/M"
_symmetry_group_IT_number 12
_symmetry_cell_setting 'monoclinic'
loop_
_space_group_symop_operation_xyz
x,y,z
-x,y,-z
-x,-y,-z
x,-y,z
1/2+x,1/2+y,z
1/2-x,1/2+y,-z
1/2-x,1/2-y,-z
1/2+x,1/2-y,z
loop_
_atom_site_type_symbol
_atom_site_label
_atom_site_fract_x
_atom_site_fract_y
_atom_site_fract_z
Si Si1 0.471188 0.173579 0.882285
Si Si2 0.891957 0.825149 0.519188
Si Si3 0.189379 0.826819 0.863535
Si Si4 0.695898 0.174495 0.441869
Si Si5 0.492617 0.325498 0.711883
Si Si6 0.209452 0.173115 0.093799
Si Si7 0.646139 0.827256 0.202032
Si Si8 0.589243 0.675311 0.676842
O O1 0.499412 0.253687 0.819428
O O2 0.412421 0.223491 0.838384
O O3 0.475894 0.000000 0.869586
O O4 0.500000 0.224247 0.000000
O O5 0.841740 0.739244 0.510174
O O6 0.938382 0.779657 0.624520
O O7 0.905998 0.768669 0.426200
O O8 0.881240 0.000000 0.512833
O O9 0.235197 0.745266 0.846971
O O10 0.137008 0.767127 0.776569
O O11 0.197020 0.000000 0.852236
O O12 0.188187 0.787643 0.973003
O O13 0.750000 0.250000 0.500000
O O14 0.674886 0.214456 0.321529
O O15 0.700939 0.000000 0.460442
O O16 0.497452 0.500000 0.726743
O O17 0.537213 0.262869 0.680367
O O18 0.170230 0.237133 0.136605
O O19 0.214823 0.000000 0.114109
O O20 0.650574 0.000000 0.182866
O O21 0.587498 0.500000 0.676196
#
# Coordination Sequence:
#
# PCOD8101998 Si02
#       8
#     8   8   8   8   8   8   8   8
#     4  10  22  40  60  84 116 154 193 233 286 349
#     4  10  20  37  60  86 115 150 190 232 282 341
#     4   9  19  37  56  79 113 152 186 227 285 342
#     4  11  24  41  61  85 117 153 193 240 290 344
#     4  10  20  36  60  87 115 147 189 238 281 332
#     4  10  21  35  56  83 113 146 188 237 279 328
#     4  10  22  40  60  82 114 156 190 228 290 350
#     4   9  19  35  58  84 112 147 187 229 281 339
#
# _framework density 19.067997999999999
#
# number of rings (size 3 to 8) (size 9 to 14) (size 15 to 20)
#    0.000    2.125    1.250    1.125    3.500    3.750 
#    0.000    1.250    0.000    1.500    0.000    0.000 
#    0.000    0.000    0.000    0.000    0.000    0.000 
#
# Total GULP energy -396927.910781 kJ/mol
# GULP energy per Si atom -12403.997212 kJ/mol
# Density = 1.902460 g / cm^3
# Si number density = 19.067998 Si / 1000 Ang^3
#
#
#
# Elastic Constant Matrix: (Units=GPa)
#
#
# Indices 1 2 3 4 5 6 
#
# 1 139.0932 45.4571 77.3333 0.0000 -8.3090 0.0000
# 2 45.4571 45.2151 41.5071 0.0000 -3.0130 0.0000
# 3 77.3333 41.5071 131.7598 0.0000 -0.4497 0.0000
# 4 0.0000 0.0000 0.0000 25.4673 0.0000 -3.5272
# 5 -8.3090 -3.0130 -0.4497 0.0000 38.4588 0.0000
# 6 0.0000 0.0000 0.0000 -3.5272 0.0000 30.4895
#
#
#
# Elastic Compliance Matrix: (Units=1/GPa)
#
#
# Indices 1 2 3 4 5 6 
#
# 1 0.012680 -0.008140 -0.004871 0.000000 0.002045 0.000000
# 2 -0.008140 0.036549 -0.006733 0.000000 0.001026 0.000000
# 3 -0.004871 -0.006733 0.012564 0.000000 -0.001433 0.000000
# 4 0.000000 0.000000 0.000000 0.039905 0.000000 0.004617
# 5 0.002045 0.001026 -0.001433 0.000000 0.026507 0.000000
# 6 0.000000 0.000000 0.000000 0.004617 0.000000 0.033332
#
#
# Mechanical properties :
#
#
# Convention : Reuss Voigt Hill
#
# Bulk Modulus (GPa) = 44.83050 71.62925 58.22988
# Shear Modulus (GPa) = 23.98528 29.00115 26.49322
#
# Velocity S-wave (km/s) = 3.55051 3.90415 3.73152
# Velocity P-wave (km/s) = 6.35374 7.61379 7.01213
#
# Compressibility (1/GPa) = 0.02230624
#
# Stress axis : x y z
#
# Youngs Moduli (GPa) = 78.86423 27.36048 79.58955
#
# Poissons Ratio (x) = 0.22272 0.38768
# Poissons Ratio (y) = 0.64197 0.53584
# Poissons Ratio (z) = 0.38414 0.18421
#
# Static dielectric constant tensor:
#      x y z
#    x 3.652110 0.000000 0.058340 
#    y 0.000000 3.291380 0.000000 
#    z 0.058340 0.000000 3.617900 
# 
# 
# High freq. dielectric constant tensor:
#      x y z
#    x 1.754790 0.000000 -0.000460 
#    y 0.000000 1.722320 0.000000 
#    z -0.000460 0.000000 1.751810 
# 
# From -- ./inp_files/244189.got.cif
#   From: 2010.06.25/outbox.cif.g09.slc.cpg/sg12_123_cif.got.tgz:244189.got - 2010.06.28 00:19:55.
