data_PCOD8101955
_publ_section_title
;
Structure prediction by ZEFSAII (Michael W. Deem and Ramdas Pophale) SiO2 
 PCOD8101955
Probable space group: C 2/M
;
_chemical_formula_sum "Si O2"
_cell_formula_units_Z 40
_cell_length_a 24.902955
_cell_length_b 9.063555
_cell_length_c 8.932131
_cell_angle_alpha 90.000000
_cell_angle_beta 91.398355
_cell_angle_gamma 90.000000
_cell_volume 2015.464653
_symmetry_space_group_name_H-M "C 2/M"
_symmetry_group_IT_number 12
_symmetry_cell_setting 'monoclinic'
loop_
_space_group_symop_operation_xyz
x,y,z
-x,y,-z
-x,-y,-z
x,-y,z
1/2+x,1/2+y,z
1/2-x,1/2+y,-z
1/2-x,1/2-y,-z
1/2+x,1/2-y,z
loop_
_atom_site_type_symbol
_atom_site_label
_atom_site_fract_x
_atom_site_fract_y
_atom_site_fract_z
Si Si1 0.210069 0.169045 0.686396
Si Si2 0.315478 0.328018 0.652580
Si Si3 0.591794 0.170849 0.164984
Si Si4 0.483646 0.829960 0.333513
Si Si5 0.395909 0.328415 0.146859
O O1 0.261203 0.270008 0.728030
O O2 0.185737 0.209971 0.523012
O O3 0.165469 0.198375 0.808741
O O4 0.229288 0.000000 0.687381
O O5 0.320634 0.500000 0.686816
O O6 0.366897 0.248435 0.722176
O O7 0.532408 0.194648 0.223445
O O8 0.606993 0.000000 0.155642
O O9 0.593123 0.238905 0.001493
O O10 0.500000 0.778333 0.500000
O O11 0.434352 0.728701 0.280666
O O12 0.464936 0.000000 0.333396
O O13 0.407351 0.500000 0.119709
#
# Coordination Sequence:
#
# PCOD8101955 Si02
#       5
#     8   8   8   8   8
#     4   9  20  38  58  83 114 147 185 229 279 332
#     4  10  20  36  60  86 111 144 188 234 277 326
#     4  11  23  38  57  82 115 151 185 227 279 333
#     4  10  22  40  61  84 111 146 187 229 277 333
#     4  11  23  38  58  84 115 149 185 229 278 329
#
# _framework density 19.846540999999998
#
# number of rings (size 3 to 8) (size 9 to 14) (size 15 to 20)
#    0.000    1.800    0.000    3.600    0.000    7.600 
#    0.000    0.000    0.000    0.000    0.000    0.000 
#    0.000    0.000    0.000    0.000    0.000    0.000 
#
# Total GULP energy -248121.420934 kJ/mol
# GULP energy per Si atom -12406.071047 kJ/mol
# Density = 1.980137 g / cm^3
# Si number density = 19.846541 Si / 1000 Ang^3
#
#
#
# Elastic Constant Matrix: (Units=GPa)
#
#
# Indices 1 2 3 4 5 6 
#
# 1 41.8305 30.2668 -6.7606 0.0000 -4.0358 0.0000
# 2 30.2668 91.1885 13.9187 0.0000 -0.6892 0.0000
# 3 -6.7606 13.9187 49.9505 0.0000 -15.1639 0.0000
# 4 0.0000 0.0000 0.0000 31.9421 0.0000 5.7948
# 5 -4.0358 -0.6892 -15.1639 0.0000 31.8398 0.0000
# 6 0.0000 0.0000 0.0000 5.7948 0.0000 37.5502
#
#
#
# Elastic Compliance Matrix: (Units=1/GPa)
#
#
# Indices 1 2 3 4 5 6 
#
# 1 0.036954 -0.014016 0.011967 0.000000 0.010080 0.000000
# 2 -0.014016 0.016830 -0.008201 0.000000 -0.005318 0.000000
# 3 0.011967 -0.008201 0.028444 0.000000 0.014886 0.000000
# 4 0.000000 0.000000 0.000000 0.032208 0.000000 -0.004970
# 5 0.010080 -0.005318 0.014886 0.000000 0.039659 0.000000
# 6 0.000000 0.000000 0.000000 -0.004970 0.000000 0.027398
#
#
# Mechanical properties :
#
#
# Convention : Reuss Voigt Hill
#
# Bulk Modulus (GPa) = 16.20005 28.64658 22.42331
# Shear Modulus (GPa) = 22.46483 29.96938 26.21710
#
# Velocity S-wave (km/s) = 3.36806 3.89016 3.63849
# Velocity P-wave (km/s) = 4.82758 5.88584 5.38278
#
# Compressibility (1/GPa) = 0.06172821
#
# Stress axis : x y z
#
# Youngs Moduli (GPa) = 27.06051 59.41745 35.15690
#
# Poissons Ratio (x) = 0.83280 -0.42073
# Poissons Ratio (y) = 0.37928 0.28833
# Poissons Ratio (z) = -0.32384 0.48730
#
# Static dielectric constant tensor:
#      x y z
#    x 3.632490 0.000000 -0.042210 
#    y 0.000000 3.694840 0.000000 
#    z -0.042210 0.000000 3.592350 
# 
# 
# High freq. dielectric constant tensor:
#      x y z
#    x 1.782440 0.000000 -0.002210 
#    y 0.000000 1.781750 0.000000 
#    z -0.002210 0.000000 1.777510 
# 
# From -- ./inp_files/92730.got.cif
#   From: 2010.06.25/outbox.cif.g09.slc.cpg/sg12_47_cif.got.tgz:92730.got - 2010.06.28 00:19:55.
