data_PCOD8101932
_publ_section_title
;
Structure prediction by ZEFSAII (Michael W. Deem and Ramdas Pophale) SiO2 
 PCOD8101932
Probable space group: C 2/M
;
_chemical_formula_sum "Si O2"
_cell_formula_units_Z 48
_cell_length_a 24.237807
_cell_length_b 9.066513
_cell_length_c 11.774632
_cell_angle_alpha 90.000000
_cell_angle_beta 76.798766
_cell_angle_gamma 90.000000
_cell_volume 2519.126141
_symmetry_space_group_name_H-M "C 2/M"
_symmetry_group_IT_number 12
_symmetry_cell_setting 'monoclinic'
loop_
_space_group_symop_operation_xyz
x,y,z
-x,y,-z
-x,-y,-z
x,-y,z
1/2+x,1/2+y,z
1/2-x,1/2+y,-z
1/2-x,1/2-y,-z
1/2+x,1/2-y,z
loop_
_atom_site_type_symbol
_atom_site_label
_atom_site_fract_x
_atom_site_fract_y
_atom_site_fract_z
Si Si1 0.589732 0.830285 0.497667
Si Si2 0.725341 0.329131 0.173942
Si Si3 0.951780 0.173539 0.934500
Si Si4 0.479796 0.169925 0.690678
Si Si5 0.162581 0.328083 0.010697
Si Si6 0.205024 0.826941 0.441678
O O1 0.564582 0.787969 0.386842
O O2 0.543171 0.802601 0.616429
O O3 0.642435 0.727328 0.502340
O O4 0.609208 0.000000 0.489274
O O5 0.710539 0.500000 0.160567
O O6 0.789136 0.293481 0.104360
O O7 0.720182 0.282663 0.306328
O O8 0.680466 0.233044 0.125222
O O9 0.968769 0.225619 0.801583
O O10 0.942431 0.000000 0.936592
O O11 0.894191 0.249109 0.004625
O O12 0.000000 0.221083 0.000000
O O13 0.471821 0.000000 0.730535
O O14 0.150527 0.500000 0.029399
O O15 0.250000 0.750000 0.500000
O O16 0.208378 0.000000 0.460010
#
# Coordination Sequence:
#
# PCOD8101932 Si02
#       6
#     8   8   8   8   8   8
#     4   9  19  37  59  84 111 138 176 225 272 320
#     4   9  20  38  58  82 110 140 178 224 271 320
#     4  11  24  38  52  77 114 149 181 222 270 318
#     4   9  19  37  61  84 107 140 180 222 269 322
#     4  10  20  36  60  84 106 139 182 225 270 320
#     4  11  23  37  54  79 112 148 183 221 268 320
#
# _framework density 19.054226
#
# number of rings (size 3 to 8) (size 9 to 14) (size 15 to 20)
#    0.000    2.167    0.000    3.500    0.000    8.667 
#    0.000    6.667    0.000    0.000    0.000    0.000 
#    0.000    0.000    0.000    0.000    0.000    0.000 
#
# Total GULP energy -297710.411429 kJ/mol
# GULP energy per Si atom -12404.600476 kJ/mol
# Density = 1.901086 g / cm^3
# Si number density = 19.054226 Si / 1000 Ang^3
#
#
#
# Elastic Constant Matrix: (Units=GPa)
#
#
# Indices 1 2 3 4 5 6 
#
# 1 144.9449 57.3124 26.3206 0.0000 -4.2915 0.0000
# 2 57.3124 70.9452 12.3137 0.0000 -0.8374 0.0000
# 3 26.3206 12.3137 32.3448 0.0000 -8.3270 0.0000
# 4 0.0000 0.0000 0.0000 31.6480 0.0000 -1.0381
# 5 -4.2915 -0.8374 -8.3270 0.0000 19.7104 0.0000
# 6 0.0000 0.0000 0.0000 -1.0381 0.0000 40.4620
#
#
#
# Elastic Compliance Matrix: (Units=1/GPa)
#
#
# Indices 1 2 3 4 5 6 
#
# 1 0.011144 -0.007936 -0.006182 0.000000 -0.000522 0.000000
# 2 -0.007936 0.020815 -0.001889 0.000000 -0.001642 0.000000
# 3 -0.006182 -0.001889 0.040729 0.000000 0.015780 0.000000
# 4 0.000000 0.000000 0.000000 0.031624 0.000000 0.000811
# 5 -0.000522 -0.001642 0.015780 0.000000 0.057218 0.000000
# 6 0.000000 0.000000 0.000000 0.000811 0.000000 0.024735
#
#
# Mechanical properties :
#
#
# Convention : Reuss Voigt Hill
#
# Bulk Modulus (GPa) = 24.58536 48.90315 36.74426
# Shear Modulus (GPa) = 21.56686 28.51665 25.04176
#
# Velocity S-wave (km/s) = 3.36797 3.87280 3.62917
# Velocity P-wave (km/s) = 5.29671 6.76158 6.07348
#
# Compressibility (1/GPa) = 0.04067460
#
# Stress axis : x y z
#
# Youngs Moduli (GPa) = 89.73268 48.04265 24.55248
#
# Poissons Ratio (x) = 0.38126 0.15178
# Poissons Ratio (y) = 0.71211 0.04638
# Poissons Ratio (z) = 0.55472 0.09075
#
# Static dielectric constant tensor:
#      x y z
#    x 3.430750 0.000000 -0.054980 
#    y 0.000000 3.467260 0.000000 
#    z -0.054980 0.000000 3.444900 
# 
# 
# High freq. dielectric constant tensor:
#      x y z
#    x 1.748330 0.000000 -0.009960 
#    y 0.000000 1.743990 0.000000 
#    z -0.009960 0.000000 1.741540 
# 
# From -- ./inp_files/172177.got.cif
#   From: 2010.06.25/outbox.cif.g09.slc.cpg/sg12_87_cif.got.tgz:172177.got - 2010.06.28 00:19:55.
