data_PCOD8101024
_publ_section_title
;
Structure prediction by ZEFSAII (Michael W. Deem and Ramdas Pophale) SiO2 
 PCOD8101024
Probable space group: C 2/M
;
_chemical_formula_sum "Si O2"
_cell_formula_units_Z 56
_cell_length_a 18.902598
_cell_length_b 27.737925
_cell_length_c 9.911358
_cell_angle_alpha 90.000000
_cell_angle_beta 33.281701
_cell_angle_gamma 90.000000
_cell_volume 2851.726002
_symmetry_space_group_name_H-M "C 2/M"
_symmetry_group_IT_number 12
_symmetry_cell_setting 'monoclinic'
loop_
_space_group_symop_operation_xyz
x,y,z
-x,y,-z
-x,-y,-z
x,-y,z
1/2+x,1/2+y,z
1/2-x,1/2+y,-z
1/2-x,1/2-y,-z
1/2+x,1/2-y,z
loop_
_atom_site_type_symbol
_atom_site_label
_atom_site_fract_x
_atom_site_fract_y
_atom_site_fract_z
Si Si1 0.075241 0.780734 0.678014
Si Si2 0.388034 0.608988 0.390480
Si Si3 0.745849 0.612176 0.667692
Si Si4 0.965390 0.447047 0.209891
Si Si5 0.695565 0.721146 0.778832
Si Si6 0.244622 0.554557 0.829291
Si Si7 0.859333 0.056749 0.926389
O O1 0.078331 0.836152 0.628070
O O2 0.171057 0.752327 0.420773
O O3 0.135551 0.772481 0.727734
O O4 0.921769 0.764961 0.928306
O O5 0.366519 0.603681 0.264173
O O6 0.265341 0.590634 0.670240
O O7 0.499176 0.574328 0.264931
O O8 0.880185 0.598910 0.384599
O O9 0.740614 0.666449 0.729871
O O10 0.736481 0.577336 0.809556
O O11 0.898362 0.500000 0.338053
O O12 0.000000 0.441324 0.000000
O O13 0.092423 0.445028 0.100209
O O14 0.290692 0.500000 0.720611
O O15 0.318420 0.574545 0.843126
O O16 0.852023 0.000000 0.944415
#
# Coordination Sequence:
#
# PCOD8101024 Si02
#       7
#     8   8   8   8   8   8   8
#     4   9  18  33  55  82 116 151 190 248 301 353
#     4  11  20  35  58  84 116 151 195 242 292 344
#     4  11  21  35  58  87 116 150 195 245 295 345
#     4  10  20  36  56  81 115 150 193 243 287 344
#     4   9  18  34  53  84 119 147 191 247 303 356
#     4  10  22  38  55  82 118 158 200 237 285 354
#     4  11  23  36  55  85 121 158 195 237 291 350
#
# _framework density 19.637229000000001
#
# number of rings (size 3 to 8) (size 9 to 14) (size 15 to 20)
#    0.000    1.857    2.857    1.714    0.000    5.143 
#    2.571    2.143    0.000    0.857    3.714    0.000 
#    0.000    0.000    0.000    0.000    0.000    0.000 
#
# Total GULP energy -346969.355265 kJ/mol
# GULP energy per Si atom -12391.762688 kJ/mol
# Density = 1.959253 g / cm^3
# Si number density = 19.637229 Si / 1000 Ang^3
#
#
#
# Elastic Constant Matrix: (Units=GPa)
#
#
# Indices 1 2 3 4 5 6 
#
# 1 147.8869 57.0631 26.6959 0.0000 -22.1303 0.0000
# 2 57.0631 89.2224 59.1569 0.0000 -11.4170 0.0000
# 3 26.6959 59.1569 115.3245 0.0001 -23.3923 0.0000
# 4 0.0000 0.0000 0.0001 22.2824 0.0000 -6.0904
# 5 -22.1303 -11.4170 -23.3923 0.0000 31.6617 0.0000
# 6 0.0000 0.0000 0.0000 -6.0904 0.0000 12.0911
#
#
#
# Elastic Compliance Matrix: (Units=1/GPa)
#
#
# Indices 1 2 3 4 5 6 
#
# 1 0.010117 -0.007516 0.002821 0.000000 0.006446 0.000000
# 2 -0.007516 0.022572 -0.010884 0.000000 -0.005156 0.000000
# 3 0.002821 -0.010884 0.015533 0.000000 0.009523 0.000000
# 4 0.000000 0.000000 0.000000 0.052044 0.000000 0.026215
# 5 0.006446 -0.005156 0.009523 0.000000 0.041266 0.000000
# 6 0.000000 0.000000 0.000000 0.026215 0.000000 0.095910
#
#
# Mechanical properties :
#
#
# Convention : Reuss Voigt Hill
#
# Bulk Modulus (GPa) = 58.60658 70.91840 64.76249
# Shear Modulus (GPa) = 18.22895 27.17491 22.70193
#
# Velocity S-wave (km/s) = 3.05008 3.72404 3.40379
# Velocity P-wave (km/s) = 6.50488 7.39486 6.96410
#
# Compressibility (1/GPa) = 0.01706293
#
# Stress axis : x y z
#
# Youngs Moduli (GPa) = 98.83936 44.30268 64.37852
#
# Poissons Ratio (x) = 0.33299 -0.18161
# Poissons Ratio (y) = 0.74290 0.70073
# Poissons Ratio (z) = -0.27882 0.48221
#
# Static dielectric constant tensor:
#      x y z
#    x 3.383520 0.000000 -0.101320 
#    y 0.000000 3.570490 0.000000 
#    z -0.101320 0.000000 3.915020 
# 
# 
# High freq. dielectric constant tensor:
#      x y z
#    x 1.737470 0.000000 -0.014760 
#    y 0.000000 1.757200 0.000000 
#    z -0.014760 0.000000 1.770520 
# 
# From -- ./inp_files/53264.got.cif
#   From: 2010.06.25/outbox.cif.g09.slc.cpg/sg12_27_cif.got.tgz:53264.got - 2010.06.28 00:19:55.
