data_PCOD8101595
_publ_section_title
;
Structure prediction by ZEFSAII (Michael W. Deem and Ramdas Pophale) SiO2 
 PCOD8101595
Probable space group: C 2/M
;
_chemical_formula_sum "Si O2"
_cell_formula_units_Z 56
_cell_length_a 22.648872
_cell_length_b 13.427938
_cell_length_c 9.476287
_cell_angle_alpha 90.000000
_cell_angle_beta 76.637148
_cell_angle_gamma 90.000000
_cell_volume 2803.973389
_symmetry_space_group_name_H-M "C 2/M"
_symmetry_group_IT_number 12
_symmetry_cell_setting 'monoclinic'
loop_
_space_group_symop_operation_xyz
x,y,z
-x,y,-z
-x,-y,-z
x,-y,z
1/2+x,1/2+y,z
1/2-x,1/2+y,-z
1/2-x,1/2-y,-z
1/2+x,1/2-y,z
loop_
_atom_site_type_symbol
_atom_site_label
_atom_site_fract_x
_atom_site_fract_y
_atom_site_fract_z
Si Si1 0.932874 0.107106 0.095697
Si Si2 0.382210 0.612973 0.826511
Si Si3 0.835588 0.616816 0.614503
Si Si4 0.959784 0.684678 0.161811
Si Si5 0.544019 0.217985 0.353379
Si Si6 0.234918 0.773105 0.168893
Si Si7 0.832529 0.612215 0.289832
O O1 0.931917 0.202788 0.198473
O O2 0.916180 0.000000 0.179040
O O3 0.885452 0.126109 0.994036
O O4 0.000000 0.096616 0.000000
O O5 0.395471 0.500000 0.774469
O O6 0.433356 0.681027 0.729813
O O7 0.317103 0.643573 0.801523
O O8 0.825750 0.500000 0.644577
O O9 0.903192 0.645826 0.623016
O O10 0.786749 0.673995 0.737740
O O11 0.827204 0.646502 0.455507
O O12 0.902043 0.612411 0.196599
O O13 0.004311 0.655510 0.263846
O O14 0.000000 0.673333 0.000000
O O15 0.500000 0.253364 0.500000
O O16 0.293647 0.814499 0.215014
O O17 0.250000 0.750000 0.000000
O O18 0.808262 0.500000 0.286463
#
# Coordination Sequence:
#
# PCOD8101595 Si02
#       7
#     8   8   8   8   8   8   8
#     4   9  16  30  54  80 114 157 195 235 292 356
#     4  10  20  36  58  87 122 160 199 249 307 363
#     4  10  24  44  66  89 121 167 209 250 309 376
#     4  11  21  37  61  91 127 160 204 255 311 364
#     4  11  21  37  60  91 125 162 202 255 308 366
#     4  11  24  42  66  93 123 158 205 264 316 365
#     4  11  24  43  65  90 123 165 207 253 307 371
#
# _framework density 19.97166
#
# number of rings (size 3 to 8) (size 9 to 14) (size 15 to 20)
#    0.000    1.571    4.286    1.714    2.000    2.571 
#    0.000    0.714    0.000    0.000    0.000    0.000 
#    0.000    0.000    0.000    0.000    0.000    0.000 
#
# Total GULP energy -347138.233897 kJ/mol
# GULP energy per Si atom -12397.794068 kJ/mol
# Density = 1.992620 g / cm^3
# Si number density = 19.971660 Si / 1000 Ang^3
#
#
#
# Elastic Constant Matrix: (Units=GPa)
#
#
# Indices 1 2 3 4 5 6 
#
# 1 118.4005 37.4811 51.0954 0.0000 14.8469 0.0000
# 2 37.4811 91.8860 42.2662 0.0000 7.9018 0.0000
# 3 51.0954 42.2662 117.4791 0.0000 6.5295 0.0000
# 4 0.0000 0.0000 0.0000 41.5157 0.0000 5.3554
# 5 14.8469 7.9018 6.5295 0.0000 39.6721 0.0000
# 6 0.0000 0.0000 0.0000 5.3554 0.0000 26.6193
#
#
#
# Elastic Compliance Matrix: (Units=1/GPa)
#
#
# Indices 1 2 3 4 5 6 
#
# 1 0.011297 -0.002590 -0.003810 0.000000 -0.003085 0.000000
# 2 -0.002590 0.013770 -0.003763 0.000000 -0.001154 0.000000
# 3 -0.003810 -0.003763 0.011508 0.000000 0.000281 0.000000
# 4 0.000000 0.000000 0.000000 0.024729 0.000000 -0.004975
# 5 -0.003085 -0.001154 0.000281 0.000000 0.026545 0.000000
# 6 0.000000 0.000000 0.000000 -0.004975 0.000000 0.038568
#
#
# Mechanical properties :
#
#
# Convention : Reuss Voigt Hill
#
# Bulk Modulus (GPa) = 61.54940 65.49458 63.52199
# Shear Modulus (GPa) = 32.86039 34.68961 33.77500
#
# Velocity S-wave (km/s) = 4.06069 4.17218 4.11682
# Velocity P-wave (km/s) = 7.27124 7.48829 7.38056
#
# Compressibility (1/GPa) = 0.01624711
#
# Stress axis : x y z
#
# Youngs Moduli (GPa) = 88.51977 72.62167 86.89921
#
# Poissons Ratio (x) = 0.18811 0.33109
# Poissons Ratio (y) = 0.22929 0.32704
# Poissons Ratio (z) = 0.33726 0.27330
#
# Static dielectric constant tensor:
#      x y z
#    x 3.768700 0.000000 0.279380 
#    y 0.000000 3.830500 0.000000 
#    z 0.279380 0.000000 3.526640 
# 
# 
# High freq. dielectric constant tensor:
#      x y z
#    x 1.787780 0.000000 0.017480 
#    y 0.000000 1.780240 0.000000 
#    z 0.017480 0.000000 1.766720 
# 
# From -- ./inp_files/86321.got.cif
#   From: 2010.06.25/outbox.cif.g09.slc.cpg/sg12_44_cif.got.tgz:86321.got - 2010.06.28 00:19:55.
