data_PCOD8101059
_publ_section_title
;
Structure prediction by ZEFSAII (Michael W. Deem and Ramdas Pophale) SiO2 
 PCOD8101059
Probable space group: C 2/M
;
_chemical_formula_sum "Si O2"
_cell_formula_units_Z 64
_cell_length_a 9.570334
_cell_length_b 28.400752
_cell_length_c 18.565403
_cell_angle_alpha 90.000000
_cell_angle_beta 37.572027
_cell_angle_gamma 90.000000
_cell_volume 3076.939951
_symmetry_space_group_name_H-M "C 2/M"
_symmetry_group_IT_number 12
_symmetry_cell_setting 'monoclinic'
loop_
_space_group_symop_operation_xyz
x,y,z
-x,y,-z
-x,-y,-z
x,-y,z
1/2+x,1/2+y,z
1/2-x,1/2+y,-z
1/2-x,1/2-y,-z
1/2+x,1/2-y,z
loop_
_atom_site_type_symbol
_atom_site_label
_atom_site_fract_x
_atom_site_fract_y
_atom_site_fract_z
Si Si1 0.630905 0.948618 0.512628
Si Si2 0.665426 0.202582 0.496906
Si Si3 0.111521 0.154588 0.253981
Si Si4 0.512117 0.209748 0.153914
Si Si5 0.240787 0.407270 0.617092
Si Si6 0.156783 0.050632 0.281010
Si Si7 0.922916 0.183200 0.895062
Si Si8 0.906124 0.668778 0.739103
O O1 0.500000 0.921541 0.500000
O O2 0.616810 0.923176 0.594674
O O3 0.888876 0.954945 0.384318
O O4 0.513947 0.000000 0.569729
O O5 0.500000 0.218196 0.500000
O O6 0.750000 0.250000 0.500000
O O7 0.515724 0.175379 0.616462
O O8 0.857497 0.165473 0.389592
O O9 0.265458 0.188290 0.239452
O O10 0.204662 0.100458 0.222259
O O11 0.136131 0.166788 0.160602
O O12 0.500556 0.262713 0.131195
O O13 0.573404 0.212849 0.214170
O O14 0.700472 0.177433 0.035782
O O15 0.500000 0.386554 0.500000
O O16 0.261141 0.447659 0.669046
O O17 0.060471 0.369005 0.719912
O O18 0.259376 0.000000 0.208219
O O19 0.139913 0.153887 0.837572
#
# Coordination Sequence:
#
# PCOD8101059 Si02
#       8
#     8   8   8   8   8   8   8   8
#     4   9  18  31  54  86 119 156 202 253 307 368
#     4  12  26  39  60  94 140 178 205 252 324 403
#     4  12  24  41  66  98 131 170 213 263 321 387
#     4  11  24  44  66  90 122 171 215 264 312 377
#     4  10  20  36  56  84 122 166 203 251 309 385
#     4  10  21  38  59  87 124 168 215 259 313 381
#     4  11  24  43  66  92 125 162 218 270 316 365
#     4  12  24  38  61  92 124 164 209 256 314 380
#
# _framework density 20.799886000000001
#
# number of rings (size 3 to 8) (size 9 to 14) (size 15 to 20)
#    0.000    1.125    2.500    4.875    3.500    4.500 
#    0.000    0.000    0.000    1.500    0.000    0.875 
#    0.000    0.000    0.000    0.000    0.000    0.000 
#
# Total GULP energy -396437.110632 kJ/mol
# GULP energy per Si atom -12388.659707 kJ/mol
# Density = 2.075254 g / cm^3
# Si number density = 20.799886 Si / 1000 Ang^3
#
#
#
# Elastic Constant Matrix: (Units=GPa)
#
#
# Indices 1 2 3 4 5 6 
#
# 1 166.0852 32.6353 34.0455 0.0000 6.2604 0.0000
# 2 32.6353 84.8804 12.8968 0.0000 -2.9392 0.0000
# 3 34.0455 12.8968 82.9410 0.0000 2.7950 0.0000
# 4 0.0000 0.0000 0.0000 16.0767 0.0000 -3.4980
# 5 6.2604 -2.9392 2.7950 0.0000 29.8614 0.0000
# 6 0.0000 0.0000 0.0000 -3.4980 0.0000 40.1115
#
#
#
# Elastic Compliance Matrix: (Units=1/GPa)
#
#
# Indices 1 2 3 4 5 6 
#
# 1 0.007053 -0.002387 -0.002474 0.000000 -0.001482 0.000000
# 2 -0.002387 0.012930 -0.001094 0.000000 0.001876 0.000000
# 3 -0.002474 -0.001094 0.013270 0.000000 -0.000831 0.000000
# 4 0.000000 0.000000 0.000000 0.063405 0.000000 0.005529
# 5 -0.001482 0.001876 -0.000831 0.000000 0.034061 0.000000
# 6 0.000000 0.000000 0.000000 0.005529 0.000000 0.025413
#
#
# Mechanical properties :
#
#
# Convention : Reuss Voigt Hill
#
# Bulk Modulus (GPa) = 46.85255 54.78465 50.81860
# Shear Modulus (GPa) = 28.54578 34.16518 31.35548
#
# Velocity S-wave (km/s) = 3.70861 4.05726 3.88684
# Velocity P-wave (km/s) = 6.39630 6.95302 6.68046
#
# Compressibility (1/GPa) = 0.02134355
#
# Stress axis : x y z
#
# Youngs Moduli (GPa) = 141.78167 77.33781 75.35574
#
# Poissons Ratio (x) = 0.18462 0.18643
# Poissons Ratio (y) = 0.33847 0.08243
# Poissons Ratio (z) = 0.35077 0.08460
#
# Static dielectric constant tensor:
#      x y z
#    x 4.124430 0.000000 -0.137710 
#    y 0.000000 4.132550 0.000000 
#    z -0.137710 0.000000 3.720530 
# 
# 
# High freq. dielectric constant tensor:
#      x y z
#    x 1.845100 0.000000 -0.000010 
#    y 0.000000 1.801160 0.000000 
#    z -0.000010 0.000000 1.780100 
# 
# From -- ./inp_files/260314.got.cif
#   From: 2010.06.25/outbox.cif.g09.slc.cpg/sg12_131_cif.got.tgz:260314.got - 2010.06.28 00:19:55.
