data_PCOD8101952
_publ_section_title
;
Structure prediction by ZEFSAII (Michael W. Deem and Ramdas Pophale) SiO2 
 PCOD8101952
Probable space group: C 2/M
;
_chemical_formula_sum "Si O2"
_cell_formula_units_Z 56
_cell_length_a 28.506385
_cell_length_b 8.644823
_cell_length_c 11.909813
_cell_angle_alpha 90.000000
_cell_angle_beta 107.790032
_cell_angle_gamma 90.000000
_cell_volume 2794.624216
_symmetry_space_group_name_H-M "C 2/M"
_symmetry_group_IT_number 12
_symmetry_cell_setting 'monoclinic'
loop_
_space_group_symop_operation_xyz
x,y,z
-x,y,-z
-x,-y,-z
x,-y,z
1/2+x,1/2+y,z
1/2-x,1/2+y,-z
1/2-x,1/2-y,-z
1/2+x,1/2-y,z
loop_
_atom_site_type_symbol
_atom_site_label
_atom_site_fract_x
_atom_site_fract_y
_atom_site_fract_z
Si Si1 0.803191 0.320803 0.029594
Si Si2 0.352497 0.183231 0.841419
Si Si3 0.990818 0.681361 0.656274
Si Si4 0.739505 0.817300 0.369940
Si Si5 0.173101 0.680073 0.704058
Si Si6 0.038358 0.683300 0.118137
Si Si7 0.072702 0.180606 0.580637
O O1 0.795385 0.500000 0.000795
O O2 0.832051 0.290596 0.166517
O O3 0.750000 0.250000 0.000000
O O4 0.833196 0.248519 0.946521
O O5 0.315455 0.227996 0.712535
O O6 0.406726 0.253693 0.857604
O O7 0.356515 0.000000 0.853124
O O8 0.981352 0.500000 0.629792
O O9 0.982722 0.731952 0.777387
O O10 0.952894 0.779958 0.555347
O O11 0.046501 0.724292 0.661917
O O12 0.750000 0.750000 0.500000
O O13 0.776112 0.747607 0.304758
O O14 0.746533 0.000000 0.379671
O O15 0.170430 0.500000 0.671756
O O16 0.129057 0.769010 0.611075
O O17 0.041012 0.500000 0.107337
O O18 0.000000 0.753055 0.000000
O O19 0.068303 0.000000 0.602347
#
# Coordination Sequence:
#
# PCOD8101952 Si02
#       7
#     8   8   8   8   8   8   8
#     4  10  20  36  60  85 117 151 193 245 295 354
#     4   9  19  36  57  85 119 157 195 244 299 352
#     4  10  20  37  62  90 118 151 199 250 297 357
#     4  11  23  39  60  87 125 164 203 248 300 361
#     4  11  23  38  61  91 119 152 201 251 299 358
#     4   9  19  34  58  89 120 153 195 244 296 352
#     4  11  23  39  60  85 119 159 197 245 305 359
#
# _framework density 20.038473
#
# number of rings (size 3 to 8) (size 9 to 14) (size 15 to 20)
#    0.000    1.857    1.429    3.429    4.000    0.571 
#    0.000    0.000    0.000    3.429    0.000    0.000 
#    0.000    0.000    0.000    0.000    0.000    0.000 
#
# Total GULP energy -347219.873754 kJ/mol
# GULP energy per Si atom -12400.709777 kJ/mol
# Density = 1.999286 g / cm^3
# Si number density = 20.038473 Si / 1000 Ang^3
#
#
#
# Elastic Constant Matrix: (Units=GPa)
#
#
# Indices 1 2 3 4 5 6 
#
# 1 132.0870 21.5567 75.5669 0.0000 7.8157 0.0000
# 2 21.5567 61.9194 33.4061 0.0000 1.4314 0.0000
# 3 75.5669 33.4061 134.5135 0.0000 -9.3061 0.0000
# 4 0.0000 0.0000 0.0000 19.0798 0.0000 1.1137
# 5 7.8157 1.4314 -9.3061 0.0000 38.4994 0.0000
# 6 0.0000 0.0000 0.0000 1.1137 0.0000 28.1108
#
#
#
# Elastic Compliance Matrix: (Units=1/GPa)
#
#
# Indices 1 2 3 4 5 6 
#
# 1 0.011751 -0.000331 -0.006797 0.000000 -0.004016 0.000000
# 2 -0.000331 0.018788 -0.004600 0.000000 -0.001743 0.000000
# 3 -0.006797 -0.004600 0.012715 0.000000 0.004624 0.000000
# 4 0.000000 0.000000 0.000000 0.052533 0.000000 -0.002081
# 5 -0.004016 -0.001743 0.004624 0.000000 0.027972 0.000000
# 6 0.000000 0.000000 0.000000 -0.002081 0.000000 0.035656
#
#
# Mechanical properties :
#
#
# Convention : Reuss Voigt Hill
#
# Bulk Modulus (GPa) = 50.51417 65.50882 58.01149
# Shear Modulus (GPa) = 26.38921 30.33735 28.36328
#
# Velocity S-wave (km/s) = 3.63289 3.89518 3.76632
# Velocity P-wave (km/s) = 6.54679 7.27959 6.92289
#
# Compressibility (1/GPa) = 0.01979643
#
# Stress axis : x y z
#
# Youngs Moduli (GPa) = 85.09842 53.22666 78.64630
#
# Poissons Ratio (x) = 0.01762 0.53457
# Poissons Ratio (y) = 0.02817 0.36181
# Poissons Ratio (z) = 0.57843 0.24487
#
# Static dielectric constant tensor:
#      x y z
#    x 3.850760 0.000000 -0.032870 
#    y 0.000000 3.416710 0.000000 
#    z -0.032870 0.000000 3.709240 
# 
# 
# High freq. dielectric constant tensor:
#      x y z
#    x 1.791030 0.000000 0.000320 
#    y 0.000000 1.756160 0.000000 
#    z 0.000320 0.000000 1.791700 
# 
# From -- ./inp_files/181075.got.cif
#   From: 2010.06.25/outbox.cif.g09.slc.cpg/sg12_91_cif.got.tgz:181075.got - 2010.06.28 00:19:55.
