data_PCOD8101678
_publ_section_title
;
Structure prediction by ZEFSAII (Michael W. Deem and Ramdas Pophale) SiO2 
 PCOD8101678
Probable space group: C 2/M
;
_chemical_formula_sum "Si O2"
_cell_formula_units_Z 56
_cell_length_a 18.745235
_cell_length_b 8.956999
_cell_length_c 18.000884
_cell_angle_alpha 90.000000
_cell_angle_beta 74.716844
_cell_angle_gamma 90.000000
_cell_volume 2915.481176
_symmetry_space_group_name_H-M "C 2/M"
_symmetry_group_IT_number 12
_symmetry_cell_setting 'monoclinic'
loop_
_space_group_symop_operation_xyz
x,y,z
-x,y,-z
-x,-y,-z
x,-y,z
1/2+x,1/2+y,z
1/2-x,1/2+y,-z
1/2-x,1/2-y,-z
1/2+x,1/2-y,z
loop_
_atom_site_type_symbol
_atom_site_label
_atom_site_fract_x
_atom_site_fract_y
_atom_site_fract_z
Si Si1 0.933090 0.824724 0.573087
Si Si2 0.644126 0.328851 0.697780
Si Si3 0.824040 0.325852 0.005256
Si Si4 0.783007 0.674443 0.563179
Si Si5 0.035448 0.671631 0.128406
Si Si6 0.108166 0.173319 0.874062
Si Si7 0.500023 0.826522 0.694405
O O1 0.860587 0.746751 0.561755
O O2 0.951055 0.763584 0.649553
O O3 0.000000 0.785222 0.500000
O O4 0.918557 0.000000 0.581746
O O5 0.620530 0.500000 0.690422
O O6 0.726137 0.296615 0.646049
O O7 0.644629 0.290490 0.784598
O O8 0.584962 0.228020 0.670085
O O9 0.810541 0.500000 0.016521
O O10 0.845747 0.264558 0.079253
O O11 0.750000 0.250000 0.000000
O O12 0.885160 0.288422 0.926495
O O13 0.794535 0.500000 0.545021
O O14 0.750000 0.750000 0.500000
O O15 0.013618 0.500000 0.119227
O O16 0.036644 0.705532 0.215650
O O17 0.976721 0.774608 0.102150
O O18 0.111588 0.000000 0.893228
O O19 0.498548 0.000000 0.673788
#
# Coordination Sequence:
#
# PCOD8101678 Si02
#       7
#     8   8   8   8   8   8   8
#     4  11  24  40  57  80 113 149 183 224 275 325
#     4   9  20  38  58  82 114 147 177 220 277 328
#     4  11  23  38  55  78 112 148 183 227 277 325
#     4  11  23  39  59  83 112 146 184 225 272 325
#     4   9  20  38  58  81 111 146 181 223 276 327
#     4  10  20  36  59  84 110 143 184 225 268 325
#     4  10  20  36  60  86 110 141 184 228 270 323
#
# _framework density 19.207806999999999
#
# number of rings (size 3 to 8) (size 9 to 14) (size 15 to 20)
#    0.000    1.857    0.000    3.429    0.000   10.857 
#    0.000    5.714    0.000    0.000    0.000    0.000 
#    0.000    0.000    0.000    0.000    0.000    0.000 
#
# Total GULP energy -347354.676547 kJ/mol
# GULP energy per Si atom -12405.524162 kJ/mol
# Density = 1.916409 g / cm^3
# Si number density = 19.207807 Si / 1000 Ang^3
#
#
#
# Elastic Constant Matrix: (Units=GPa)
#
#
# Indices 1 2 3 4 5 6 
#
# 1 171.0760 90.8895 85.9579 0.0000 2.5870 0.0000
# 2 90.8895 114.8780 67.6384 0.0000 -1.2016 0.0000
# 3 85.9579 67.6384 102.8370 0.0000 3.6566 0.0000
# 4 0.0000 0.0000 0.0000 34.2198 0.0000 4.5039
# 5 2.5870 -1.2016 3.6566 0.0000 32.0253 0.0000
# 6 0.0000 0.0000 0.0000 4.5039 0.0000 41.9250
#
#
#
# Elastic Compliance Matrix: (Units=1/GPa)
#
#
# Indices 1 2 3 4 5 6 
#
# 1 0.012135 -0.005947 -0.006214 0.000000 -0.000494 0.000000
# 2 -0.005947 0.017204 -0.006410 0.000000 0.001858 0.000000
# 3 -0.006214 -0.006410 0.019203 0.000000 -0.001931 0.000000
# 4 0.000000 0.000000 0.000000 0.029642 0.000000 -0.003184
# 5 -0.000494 0.001858 -0.001931 0.000000 0.031555 0.000000
# 6 0.000000 0.000000 0.000000 -0.003184 0.000000 0.024194
#
#
# Mechanical properties :
#
#
# Convention : Reuss Voigt Hill
#
# Bulk Modulus (GPa) = 87.72893 97.52916 92.62905
# Shear Modulus (GPa) = 28.59176 31.25438 29.92307
#
# Velocity S-wave (km/s) = 3.86236 4.03820 3.95125
# Velocity P-wave (km/s) = 8.10328 8.52225 8.31540
#
# Compressibility (1/GPa) = 0.01139875
#
# Stress axis : x y z
#
# Youngs Moduli (GPa) = 82.40893 58.12547 52.07567
#
# Poissons Ratio (x) = 0.34569 0.32358
# Poissons Ratio (y) = 0.49012 0.33383
# Poissons Ratio (z) = 0.51206 0.37261
#
# Static dielectric constant tensor:
#      x y z
#    x 3.158110 0.000000 -0.297970 
#    y 0.000000 3.640920 0.000000 
#    z -0.297970 0.000000 3.503210 
# 
# 
# High freq. dielectric constant tensor:
#      x y z
#    x 1.746770 0.000000 0.000970 
#    y 0.000000 1.759660 0.000000 
#    z 0.000970 0.000000 1.759170 
# 
# From -- ./inp_files/275199.got.cif
#   From: 2010.06.25/outbox.cif.g09.slc.cpg/sg12_138_cif.got.tgz:275199.got - 2010.06.28 00:19:55.
