data_PCOD8101649
_publ_section_title
;
Structure prediction by ZEFSAII (Michael W. Deem and Ramdas Pophale) SiO2 
 PCOD8101649
Probable space group: C 2/M
;
_chemical_formula_sum "Si O2"
_cell_formula_units_Z 48
_cell_length_a 15.061741
_cell_length_b 9.165174
_cell_length_c 18.518039
_cell_angle_alpha 90.000000
_cell_angle_beta 90.659101
_cell_angle_gamma 90.000000
_cell_volume 2556.125355
_symmetry_space_group_name_H-M "C 2/M"
_symmetry_group_IT_number 12
_symmetry_cell_setting 'monoclinic'
loop_
_space_group_symop_operation_xyz
x,y,z
-x,y,-z
-x,-y,-z
x,-y,z
1/2+x,1/2+y,z
1/2-x,1/2+y,-z
1/2-x,1/2-y,-z
1/2+x,1/2-y,z
loop_
_atom_site_type_symbol
_atom_site_label
_atom_site_fract_x
_atom_site_fract_y
_atom_site_fract_z
Si Si1 0.848066 0.829822 0.081497
Si Si2 0.007016 0.170580 0.678382
Si Si3 0.145049 0.331956 0.064404
Si Si4 0.990783 0.328529 0.173997
Si Si5 0.847831 0.169936 0.573794
Si Si6 0.674733 0.670562 0.588955
O O1 0.743882 0.800579 0.094905
O O2 0.902154 0.748661 0.144289
O O3 0.871076 0.000000 0.083954
O O4 0.877078 0.767618 0.004328
O O5 0.986273 0.267113 0.747510
O O6 0.102730 0.213903 0.648005
O O7 0.936678 0.212425 0.616323
O O8 0.002123 0.000000 0.698525
O O9 0.135749 0.500000 0.039891
O O10 0.075259 0.290948 0.125311
O O11 0.973143 0.500000 0.177840
O O12 0.765588 0.250144 0.610987
O O13 0.858650 0.220225 0.490748
O O14 0.828161 0.000000 0.578553
O O15 0.692922 0.500000 0.589796
#
# Coordination Sequence:
#
# PCOD8101649 Si02
#       6
#     8   8   8   8   8   8
#     4  10  20  36  59  83 105 134 175 218 259 308
#     4  10  21  36  53  75 106 142 177 213 258 313
#     4   9  20  38  57  78 106 139 173 213 262 311
#     4  11  23  37  53  76 109 144 175 212 261 312
#     4   9  18  34  56  80 104 134 175 219 261 309
#     4   9  18  34  56  79 104 136 173 216 265 312
#
# _framework density 18.778421000000002
#
# number of rings (size 3 to 8) (size 9 to 14) (size 15 to 20)
#    0.000    2.333    0.000    2.000    0.000    8.667 
#    0.000    5.000    0.000    5.000    0.000    0.000 
#    0.000    0.000    0.000    0.000    0.000    0.000 
#
# Total GULP energy -297687.825978 kJ/mol
# GULP energy per Si atom -12403.659416 kJ/mol
# Density = 1.873568 g / cm^3
# Si number density = 18.778421 Si / 1000 Ang^3
#
#
#
# Elastic Constant Matrix: (Units=GPa)
#
#
# Indices 1 2 3 4 5 6 
#
# 1 76.5784 35.5088 24.8131 0.0000 -8.9394 0.0000
# 2 35.5088 63.1903 34.3633 0.0000 -1.6147 0.0000
# 3 24.8131 34.3633 65.0143 0.0000 -9.0434 0.0000
# 4 0.0000 0.0000 0.0000 33.9272 0.0000 0.7999
# 5 -8.9394 -1.6147 -9.0434 0.0000 18.4667 0.0000
# 6 0.0000 0.0000 0.0000 0.7999 0.0000 31.7445
#
#
#
# Elastic Compliance Matrix: (Units=1/GPa)
#
#
# Indices 1 2 3 4 5 6 
#
# 1 0.018855 -0.009929 -0.000858 0.000000 0.007839 0.000000
# 2 -0.009929 0.027727 -0.012016 0.000000 -0.008266 0.000000
# 3 -0.000858 -0.012016 0.023453 0.000000 0.010019 0.000000
# 4 0.000000 0.000000 0.000000 0.029492 0.000000 -0.000743
# 5 0.007839 -0.008266 0.010019 0.000000 0.062130 0.000000
# 6 0.000000 0.000000 0.000000 -0.000743 0.000000 0.031520
#
#
# Mechanical properties :
#
#
# Convention : Reuss Voigt Hill
#
# Bulk Modulus (GPa) = 40.93122 43.79483 42.36302
# Shear Modulus (GPa) = 20.24882 24.16755 22.20818
#
# Velocity S-wave (km/s) = 3.28731 3.59135 3.44269
# Velocity P-wave (km/s) = 6.02103 6.36942 6.19768
#
# Compressibility (1/GPa) = 0.02443123
#
# Stress axis : x y z
#
# Youngs Moduli (GPa) = 53.03498 36.06529 42.63769
#
# Poissons Ratio (x) = 0.35808 0.03659
# Poissons Ratio (y) = 0.52656 0.51233
# Poissons Ratio (z) = 0.04551 0.43336
#
# Static dielectric constant tensor:
#      x y z
#    x 3.593330 0.000000 -0.033580 
#    y 0.000000 3.433740 0.000000 
#    z -0.033580 0.000000 3.402710 
# 
# 
# High freq. dielectric constant tensor:
#      x y z
#    x 1.739520 0.000000 0.000240 
#    y 0.000000 1.728040 0.000000 
#    z 0.000240 0.000000 1.722540 
# 
# From -- ./inp_files/267669.got.cif
#   From: 2010.06.25/outbox.cif.g09.slc.cpg/sg12_134_cif.got.tgz:267669.got - 2010.06.28 00:19:55.
