data_PCOD8101846
_publ_section_title
;
Structure prediction by ZEFSAII (Michael W. Deem and Ramdas Pophale) SiO2 
 PCOD8101846
Probable space group: C 2/M
;
_chemical_formula_sum "Si O2"
_cell_formula_units_Z 56
_cell_length_a 27.088968
_cell_length_b 9.012600
_cell_length_c 17.298819
_cell_angle_alpha 90.000000
_cell_angle_beta 39.764295
_cell_angle_gamma 90.000000
_cell_volume 2701.396807
_symmetry_space_group_name_H-M "C 2/M"
_symmetry_group_IT_number 12
_symmetry_cell_setting 'monoclinic'
loop_
_space_group_symop_operation_xyz
x,y,z
-x,y,-z
-x,-y,-z
x,-y,z
1/2+x,1/2+y,z
1/2-x,1/2+y,-z
1/2-x,1/2-y,-z
1/2+x,1/2-y,z
loop_
_atom_site_type_symbol
_atom_site_label
_atom_site_fract_x
_atom_site_fract_y
_atom_site_fract_z
Si Si1 0.327056 0.172845 0.931091
Si Si2 0.331262 0.824913 0.376947
Si Si3 0.348348 0.331858 0.655887
Si Si4 0.444723 0.174983 0.663842
Si Si5 0.107133 0.671256 0.533815
Si Si6 0.087114 0.175118 0.869934
Si Si7 0.824423 0.331446 0.104793
O O1 0.390789 0.233421 0.796700
O O2 0.312790 0.000000 0.938744
O O3 0.250000 0.250000 0.000000
O O4 0.357829 0.208208 0.980339
O O5 0.250000 0.750000 0.500000
O O6 0.388194 0.797646 0.380750
O O7 0.376763 0.755012 0.249268
O O8 0.317284 0.000000 0.378179
O O9 0.375308 0.500000 0.616786
O O10 0.417366 0.244886 0.616030
O O11 0.331619 0.265607 0.590039
O O12 0.267370 0.315112 0.796875
O O13 0.527366 0.228468 0.593665
O O14 0.442428 0.000000 0.654887
O O15 0.122906 0.500000 0.498242
O O16 0.142108 0.215248 0.874938
O O17 0.089319 0.000000 0.851738
O O18 0.000000 0.225743 0.000000
O O19 0.845455 0.500000 0.105201
#
# Coordination Sequence:
#
# PCOD8101846 Si02
#       7
#     8   8   8   8   8   8   8
#     4  10  20  36  59  87 119 156 198 246 296 356
#     4  11  24  44  71  97 126 166 215 268 322 382
#     4  11  22  37  58  89 123 157 198 244 297 358
#     4  10  21  37  58  84 119 158 199 242 293 359
#     4  10  23  40  60  87 117 156 201 246 300 362
#     4  11  26  45  65  95 131 166 211 268 326 381
#     4  10  22  39  62  89 120 159 205 251 302 370
#
# _framework density 20.730015999999999
#
# number of rings (size 3 to 8) (size 9 to 14) (size 15 to 20)
#    0.000    1.571    1.429    2.571    2.000    8.571 
#    0.000    0.000    0.000    0.000    0.000    0.000 
#    0.000    0.000    0.000    0.000    0.000    0.000 
#
# Total GULP energy -347068.834627 kJ/mol
# GULP energy per Si atom -12395.315522 kJ/mol
# Density = 2.068283 g / cm^3
# Si number density = 20.730016 Si / 1000 Ang^3
#
#
#
# Elastic Constant Matrix: (Units=GPa)
#
#
# Indices 1 2 3 4 5 6 
#
# 1 109.6243 41.0855 41.5994 -0.0054 10.2175 0.0041
# 2 41.0855 70.3102 41.7922 0.0032 2.3221 0.0090
# 3 41.5994 41.7922 117.8623 0.0000 16.7806 0.0058
# 4 -0.0054 0.0032 0.0000 31.1391 0.0043 1.1414
# 5 10.2175 2.3221 16.7806 0.0043 32.7573 -0.0042
# 6 0.0041 0.0090 0.0058 1.1414 -0.0042 27.2576
#
#
#
# Elastic Compliance Matrix: (Units=1/GPa)
#
#
# Indices 1 2 3 4 5 6 
#
# 1 0.012309 -0.006002 -0.001866 0.000003 -0.002458 0.000000
# 2 -0.006002 0.021090 -0.005839 -0.000004 0.003368 -0.000004
# 3 -0.001866 -0.005839 0.011943 0.000001 -0.005122 -0.000001
# 4 0.000003 -0.000004 0.000001 0.032163 -0.000006 -0.001347
# 5 -0.002458 0.003368 -0.005122 -0.000006 0.033679 0.000006
# 6 0.000000 -0.000004 -0.000001 -0.001347 0.000006 0.036743
#
#
# Mechanical properties :
#
#
# Convention : Reuss Voigt Hill
#
# Bulk Modulus (GPa) = 55.78417 60.75010 58.26714
# Shear Modulus (GPa) = 27.57591 29.78545 28.68068
#
# Velocity S-wave (km/s) = 3.65120 3.79466 3.72362
# Velocity P-wave (km/s) = 6.68904 6.96909 6.83051
#
# Compressibility (1/GPa) = 0.01792623
#
# Stress axis : x y z
#
# Youngs Moduli (GPa) = 81.24245 47.41679 83.73217
#
# Poissons Ratio (x) = 0.28460 0.15626
# Poissons Ratio (y) = 0.48763 0.48892
# Poissons Ratio (z) = 0.15161 0.27687
#
# Static dielectric constant tensor:
#      x y z
#    x 3.753540 -0.000010 0.090490 
#    y -0.000010 3.623800 -0.000010 
#    z 0.090490 -0.000010 3.984230 
# 
# 
# High freq. dielectric constant tensor:
#      x y z
#    x 1.816840 0.000000 0.012140 
#    y 0.000000 1.804970 0.000000 
#    z 0.012140 0.000000 1.828600 
# 
# From -- ./inp_files/292457.got.cif
#   From: 2010.06.25/outbox.cif.g09.slc.cpg/sg12_147_cif.got.tgz:292457.got - 2010.06.28 00:19:55.
