data_PCOD8101886
_publ_section_title
;
Structure prediction by ZEFSAII (Michael W. Deem and Ramdas Pophale) SiO2 
 PCOD8101886
Probable space group: C 2/M
;
_chemical_formula_sum "Si O2"
_cell_formula_units_Z 64
_cell_length_a 28.575719
_cell_length_b 13.485878
_cell_length_c 9.859083
_cell_angle_alpha 90.000000
_cell_angle_beta 64.770903
_cell_angle_gamma 90.000000
_cell_volume 3436.961288
_symmetry_space_group_name_H-M "C 2/M"
_symmetry_group_IT_number 12
_symmetry_cell_setting 'monoclinic'
loop_
_space_group_symop_operation_xyz
x,y,z
-x,y,-z
-x,-y,-z
x,-y,z
1/2+x,1/2+y,z
1/2-x,1/2+y,-z
1/2-x,1/2-y,-z
1/2+x,1/2-y,z
loop_
_atom_site_type_symbol
_atom_site_label
_atom_site_fract_x
_atom_site_fract_y
_atom_site_fract_z
Si Si1 0.127770 0.888023 0.749266
Si Si2 0.322743 0.115105 0.664725
Si Si3 0.595620 0.199859 0.646363
Si Si4 0.512088 0.247879 0.335588
Si Si5 0.272588 0.723433 0.327481
Si Si6 0.039958 0.885884 0.060723
Si Si7 0.353526 0.115845 0.158944
Si Si8 0.394086 0.113033 0.819803
O O1 0.107823 0.816502 0.653749
O O2 0.187211 0.866553 0.708167
O O3 0.120541 0.000000 0.705457
O O4 0.097037 0.870693 0.928323
O O5 0.366623 0.152268 0.509139
O O6 0.272280 0.184282 0.715649
O O7 0.343114 0.128865 0.791767
O O8 0.309794 0.000000 0.648424
O O9 0.536730 0.190761 0.670044
O O10 0.605183 0.141597 0.775028
O O11 0.500000 0.292038 0.500000
O O12 0.533440 0.334057 0.213031
O O13 0.557525 0.169890 0.301632
O O14 0.250000 0.750000 0.500000
O O15 0.300376 0.822366 0.237628
O O16 0.026666 0.000000 0.103405
O O17 0.000000 0.840916 0.000000
O O18 0.338860 0.000000 0.178658
O O19 0.381047 0.149002 0.986771
O O20 0.411381 0.000000 0.798708
#
# Coordination Sequence:
#
# PCOD8101886 Si02
#       8
#     8   8   8   8   8   8   8   8
#     4  10  20  36  59  89 118 148 199 246 284 344
#     4  11  22  40  59  83 121 156 192 241 297 348
#     4  11  21  36  58  90 114 154 195 238 296 345
#     4  12  23  37  60  88 121 155 198 243 289 348
#     4  11  21  35  61  91 113 149 202 237 290 344
#     4  10  21  38  61  85 115 157 196 238 292 345
#     4  10  22  40  60  87 120 150 191 244 292 347
#     4  10  24  41  59  86 121 158 193 238 295 350
#
# _framework density 18.621099999999998
#
# number of rings (size 3 to 8) (size 9 to 14) (size 15 to 20)
#    0.000    1.375    5.000    2.250    0.000    2.500 
#    0.000    1.250    0.000    0.750    0.000    0.000 
#    0.000    0.000    0.000    0.000    0.000    0.000 
#
# Total GULP energy -396812.781327 kJ/mol
# GULP energy per Si atom -12400.399416 kJ/mol
# Density = 1.857872 g / cm^3
# Si number density = 18.621100 Si / 1000 Ang^3
#
#
#
# Elastic Constant Matrix: (Units=GPa)
#
#
# Indices 1 2 3 4 5 6 
#
# 1 102.9946 34.9162 33.4244 0.0000 -8.4943 0.0000
# 2 34.9162 95.5827 35.2547 0.0000 0.4104 0.0000
# 3 33.4244 35.2547 109.9492 0.0000 7.5539 0.0000
# 4 0.0000 0.0000 0.0000 30.5257 0.0000 -1.7698
# 5 -8.4943 0.4104 7.5539 0.0000 27.7147 0.0000
# 6 0.0000 0.0000 0.0000 -1.7698 0.0000 26.3559
#
#
#
# Elastic Compliance Matrix: (Units=1/GPa)
#
#
# Indices 1 2 3 4 5 6 
#
# 1 0.012189 -0.003390 -0.002933 0.000000 0.004585 0.000000
# 2 -0.003390 0.012829 -0.003056 0.000000 -0.000396 0.000000
# 3 -0.002933 -0.003056 0.011236 0.000000 -0.003916 0.000000
# 4 0.000000 0.000000 0.000000 0.032887 0.000000 0.002208
# 5 0.004585 -0.000396 -0.003916 0.000000 0.038561 0.000000
# 6 0.000000 0.000000 0.000000 0.002208 0.000000 0.038090
#
#
# Mechanical properties :
#
#
# Convention : Reuss Voigt Hill
#
# Bulk Modulus (GPa) = 57.15917 57.30189 57.23053
# Shear Modulus (GPa) = 29.34570 30.58133 29.96351
#
# Velocity S-wave (km/s) = 3.97412 4.05692 4.01573
# Velocity P-wave (km/s) = 7.19866 7.26527 7.23204
#
# Compressibility (1/GPa) = 0.01749501
#
# Stress axis : x y z
#
# Youngs Moduli (GPa) = 82.04330 77.94582 89.00182
#
# Poissons Ratio (x) = 0.26426 0.26107
# Poissons Ratio (y) = 0.27815 0.27197
# Poissons Ratio (z) = 0.24066 0.23819
#
# Static dielectric constant tensor:
#      x y z
#    x 3.644190 0.000000 -0.109410 
#    y 0.000000 3.588420 0.000000 
#    z -0.109410 0.000000 3.622310 
# 
# 
# High freq. dielectric constant tensor:
#      x y z
#    x 1.723240 0.000000 -0.007160 
#    y 0.000000 1.725370 0.000000 
#    z -0.007160 0.000000 1.725230 
# 
# From -- ./inp_files/104487.got.cif
#   From: 2010.06.25/outbox.cif.g09.slc.cpg/sg12_53_cif.got.tgz:104487.got - 2010.06.28 00:19:55.
