data_PCOD8101075
_publ_section_title
;
Structure prediction by ZEFSAII (Michael W. Deem and Ramdas Pophale) SiO2 
 PCOD8101075
Probable space group: C 2/M
;
_chemical_formula_sum "Si O2"
_cell_formula_units_Z 56
_cell_length_a 14.275347
_cell_length_b 9.430270
_cell_length_c 29.541715
_cell_angle_alpha 90.000000
_cell_angle_beta 52.283219
_cell_angle_gamma 90.000000
_cell_volume 3145.917733
_symmetry_space_group_name_H-M "C 2/M"
_symmetry_group_IT_number 12
_symmetry_cell_setting 'monoclinic'
loop_
_space_group_symop_operation_xyz
x,y,z
-x,y,-z
-x,-y,-z
x,-y,z
1/2+x,1/2+y,z
1/2-x,1/2+y,-z
1/2-x,1/2-y,-z
1/2+x,1/2-y,z
loop_
_atom_site_type_symbol
_atom_site_label
_atom_site_fract_x
_atom_site_fract_y
_atom_site_fract_z
Si Si1 0.835386 0.841368 0.944341
Si Si2 0.209112 0.167792 0.143077
Si Si3 0.283528 0.835853 0.351384
Si Si4 0.439630 0.660574 0.064177
Si Si5 0.823938 0.333466 0.441487
Si Si6 0.907508 0.664362 0.648839
Si Si7 0.944470 0.336801 0.741536
O O1 0.838611 0.787352 0.892044
O O2 0.968264 0.834640 0.922421
O O3 0.784173 0.000000 0.961520
O O4 0.750000 0.750000 0.000000
O O5 0.338401 0.233986 0.110189
O O6 0.121149 0.231467 0.205663
O O7 0.216304 0.000000 0.148106
O O8 0.275225 0.790936 0.406398
O O9 0.190865 0.749651 0.349168
O O10 0.416183 0.805731 0.295038
O O11 0.251977 0.000000 0.355154
O O12 0.391332 0.500000 0.071065
O O13 0.500000 0.715414 0.000000
O O14 0.808230 0.500000 0.453963
O O15 0.750000 0.250000 0.500000
O O16 0.961517 0.290821 0.406204
O O17 0.885707 0.500000 0.645365
O O18 0.897151 0.695546 0.705234
O O19 0.917468 0.500000 0.762161
#
# Coordination Sequence:
#
# PCOD8101075 Si02
#       7
#     8   8   8   8   8   8   8
#     4  10  21  36  54  77 104 134 169 209 256 312
#     4  11  23  36  54  82 110 134 171 225 270 310
#     4   9  19  36  57  80 108 143 183 226 270 316
#     4  10  20  36  57  77 102 140 175 204 256 325
#     4   9  19  35  53  79 115 150 184 222 267 318
#     4   9  19  36  57  79 106 143 183 225 269 315
#     4   9  20  39  57  74 104 143 179 217 267 326
#
# _framework density 17.800846
#
# number of rings (size 3 to 8) (size 9 to 14) (size 15 to 20)
#    0.000    2.429    1.429    2.143    0.000    5.429 
#    0.000   10.000    0.000    0.000    0.000    0.000 
#    0.000    0.000    0.000    0.000    0.000    0.000 
#
# Total GULP energy -347205.918178 kJ/mol
# GULP energy per Si atom -12400.211364 kJ/mol
# Density = 1.776033 g / cm^3
# Si number density = 17.800846 Si / 1000 Ang^3
#
#
#
# Elastic Constant Matrix: (Units=GPa)
#
#
# Indices 1 2 3 4 5 6 
#
# 1 135.0141 65.3115 59.8741 0.0000 1.9007 0.0000
# 2 65.3115 91.1397 76.8812 0.0000 -0.8492 0.0000
# 3 59.8741 76.8812 142.1294 0.0000 0.4921 0.0000
# 4 0.0000 0.0000 0.0000 37.1832 0.0000 -0.3079
# 5 1.9007 -0.8492 0.4921 0.0000 17.2663 0.0000
# 6 0.0000 0.0000 0.0000 -0.3079 0.0000 35.3777
#
#
#
# Elastic Compliance Matrix: (Units=1/GPa)
#
#
# Indices 1 2 3 4 5 6 
#
# 1 0.011419 -0.007624 -0.000681 0.000000 -0.001613 0.000000
# 2 -0.007624 0.025299 -0.010482 0.000000 0.002382 0.000000
# 3 -0.000681 -0.010482 0.012995 0.000000 -0.000811 0.000000
# 4 0.000000 0.000000 0.000000 0.026896 0.000000 0.000234
# 5 -0.001613 0.002382 -0.000811 0.000000 0.058234 0.000000
# 6 0.000000 0.000000 0.000000 0.000234 0.000000 0.028268
#
#
# Mechanical properties :
#
#
# Convention : Reuss Voigt Hill
#
# Bulk Modulus (GPa) = 82.36491 85.82411 84.09451
# Shear Modulus (GPa) = 24.42212 29.04652 26.73432
#
# Velocity S-wave (km/s) = 3.70802 4.04387 3.87958
# Velocity P-wave (km/s) = 8.04383 8.37389 8.21052
#
# Compressibility (1/GPa) = 0.01214109
#
# Stress axis : x y z
#
# Youngs Moduli (GPa) = 87.57171 39.52663 76.94996
#
# Poissons Ratio (x) = 0.30133 0.05242
# Poissons Ratio (y) = 0.66761 0.80657
# Poissons Ratio (z) = 0.05965 0.41431
#
# Static dielectric constant tensor:
#      x y z
#    x 3.326230 0.000000 0.053230 
#    y 0.000000 3.275710 0.000000 
#    z 0.053230 0.000000 3.243550 
# 
# 
# High freq. dielectric constant tensor:
#      x y z
#    x 1.696210 0.000000 0.003330 
#    y 0.000000 1.688090 0.000000 
#    z 0.003330 0.000000 1.688970 
# 
# From -- ./inp_files/337912.got.cif
#   From: 2010.06.25/outbox.cif.g09.slc.cpg/sg12_169_cif.got.tgz:337912.got - 2010.06.28 00:19:55.
