data_PCOD8101650
_publ_section_title
;
Structure prediction by ZEFSAII (Michael W. Deem and Ramdas Pophale) SiO2 
 PCOD8101650
Probable space group: C 2/M
;
_chemical_formula_sum "Si O2"
_cell_formula_units_Z 48
_cell_length_a 18.260729
_cell_length_b 8.912923
_cell_length_c 20.672725
_cell_angle_alpha 90.000000
_cell_angle_beta 131.577612
_cell_angle_gamma 90.000000
_cell_volume 2516.928920
_symmetry_space_group_name_H-M "C 2/M"
_symmetry_group_IT_number 12
_symmetry_cell_setting 'monoclinic'
loop_
_space_group_symop_operation_xyz
x,y,z
-x,y,-z
-x,-y,-z
x,-y,z
1/2+x,1/2+y,z
1/2-x,1/2+y,-z
1/2-x,1/2-y,-z
1/2+x,1/2-y,z
loop_
_atom_site_type_symbol
_atom_site_label
_atom_site_fract_x
_atom_site_fract_y
_atom_site_fract_z
Si Si1 0.263218 0.677507 0.077145
Si Si2 0.510106 0.177476 0.401829
Si Si3 0.475555 0.677599 0.246611
Si Si4 0.362045 0.321462 0.756270
Si Si5 0.347741 0.822182 0.405224
Si Si6 0.887701 0.173612 0.916882
O O1 0.261932 0.500000 0.068147
O O2 0.365986 0.733148 0.167464
O O3 0.176392 0.727891 0.072684
O O4 0.250000 0.750000 0.000000
O O5 0.514904 0.257353 0.336349
O O6 0.605789 0.227823 0.499061
O O7 0.414232 0.233815 0.384409
O O8 0.507690 0.000000 0.389881
O O9 0.480419 0.500000 0.253751
O O10 0.546526 0.738853 0.231570
O O11 0.361908 0.500000 0.755731
O O12 0.261512 0.256702 0.666592
O O13 0.371153 0.264389 0.834960
O O14 0.346531 0.000000 0.401875
O O15 0.856392 0.000000 0.905308
O O16 0.000000 0.196086 0.000000
#
# Coordination Sequence:
#
# PCOD8101650 Si02
#       6
#     8   8   8   8   8   8
#     4  11  23  38  56  79 108 140 176 218 263 313
#     4   9  17  31  52  76 100 130 173 220 260 304
#     4  10  21  35  51  75 106 137 170 211 259 310
#     4   9  17  31  51  73 102 140 175 209 257 315
#     4   8  15  29  50  74  99 132 175 216 255 306
#     4  10  20  36  59  83 106 136 176 218 263 318
#
# _framework density 19.070861000000001
#
# number of rings (size 3 to 8) (size 9 to 14) (size 15 to 20)
#    0.000    2.500    0.000    3.500    0.000    6.333 
#    0.000    2.500    0.000    2.000    0.000    0.000 
#    0.000    0.000    0.000    0.000    0.000    0.000 
#
# Total GULP energy -297587.414990 kJ/mol
# GULP energy per Si atom -12399.475625 kJ/mol
# Density = 1.902745 g / cm^3
# Si number density = 19.070861 Si / 1000 Ang^3
#
#
#
# Elastic Constant Matrix: (Units=GPa)
#
#
# Indices 1 2 3 4 5 6 
#
# 1 132.4191 30.8492 71.8810 0.0000 -10.8998 0.0000
# 2 30.8492 29.3731 31.5391 0.0000 -1.6626 0.0000
# 3 71.8810 31.5391 148.3459 0.0000 -10.6393 0.0000
# 4 0.0000 0.0000 0.0000 23.2633 0.0000 -9.7668
# 5 -10.8998 -1.6626 -10.6393 0.0000 40.1814 0.0000
# 6 0.0000 0.0000 0.0000 -9.7668 0.0000 22.7278
#
#
#
# Elastic Compliance Matrix: (Units=1/GPa)
#
#
# Indices 1 2 3 4 5 6 
#
# 1 0.011636 -0.008039 -0.003799 0.000000 0.001818 0.000000
# 2 -0.008039 0.049688 -0.006807 0.000000 -0.001927 0.000000
# 3 -0.003799 -0.006807 0.010127 0.000000 0.001369 0.000000
# 4 0.000000 0.000000 0.000000 0.052449 0.000000 0.022539
# 5 0.001818 -0.001927 0.001369 0.000000 0.025663 0.000000
# 6 0.000000 0.000000 0.000000 0.022539 0.000000 0.053685
#
#
# Mechanical properties :
#
#
# Convention : Reuss Voigt Hill
#
# Bulk Modulus (GPa) = 29.27268 64.29739 46.78504
# Shear Modulus (GPa) = 19.84722 28.95909 24.40315
#
# Velocity S-wave (km/s) = 3.22950 3.90102 3.58104
# Velocity P-wave (km/s) = 5.41193 7.35383 6.45631
#
# Compressibility (1/GPa) = 0.03416155
#
# Stress axis : x y z
#
# Youngs Moduli (GPa) = 85.93677 20.12575 98.74547
#
# Poissons Ratio (x) = 0.16180 0.37512
# Poissons Ratio (y) = 0.69088 0.67212
# Poissons Ratio (z) = 0.32646 0.13699
#
# Static dielectric constant tensor:
#      x y z
#    x 3.704430 0.000000 0.149380 
#    y 0.000000 3.063920 0.000000 
#    z 0.149380 0.000000 3.834560 
# 
# 
# High freq. dielectric constant tensor:
#      x y z
#    x 1.749570 0.000000 0.001190 
#    y 0.000000 1.698310 0.000000 
#    z 0.001190 0.000000 1.761400 
# 
# From -- ./inp_files/313631.got.cif
#   From: 2010.06.25/outbox.cif.g09.slc.cpg/sg12_157_cif.got.tgz:313631.got - 2010.06.28 00:19:55.
