data_PCOD8101710
_publ_section_title
;
Structure prediction by ZEFSAII (Michael W. Deem and Ramdas Pophale) SiO2 
 PCOD8101710
Probable space group: C 2/M
;
_chemical_formula_sum "Si O2"
_cell_formula_units_Z 40
_cell_length_a 17.301968
_cell_length_b 9.944119
_cell_length_c 22.271958
_cell_angle_alpha 90.000000
_cell_angle_beta 28.709900
_cell_angle_gamma 90.000000
_cell_volume 1840.774795
_symmetry_space_group_name_H-M "C 2/M"
_symmetry_group_IT_number 12
_symmetry_cell_setting 'monoclinic'
loop_
_space_group_symop_operation_xyz
x,y,z
-x,y,-z
-x,-y,-z
x,-y,z
1/2+x,1/2+y,z
1/2-x,1/2+y,-z
1/2-x,1/2-y,-z
1/2+x,1/2-y,z
loop_
_atom_site_type_symbol
_atom_site_label
_atom_site_fract_x
_atom_site_fract_y
_atom_site_fract_z
Si Si1 0.601030 0.355262 0.037284
Si Si2 0.523154 0.647189 0.351470
Si Si3 0.739437 0.150281 0.631254
Si Si4 0.072363 0.783725 0.188226
Si Si5 0.744911 0.838836 0.269699
O O1 0.643739 0.500000 0.980828
O O2 0.579854 0.374314 0.123671
O O3 0.430650 0.307029 0.126117
O O4 0.745269 0.258832 0.920888
O O5 0.587689 0.500000 0.329155
O O6 0.347265 0.672976 0.498816
O O7 0.506220 0.638203 0.291001
O O8 0.639324 0.770723 0.289725
O O9 0.551539 0.162378 0.741439
O O10 0.797334 0.263023 0.639316
O O11 0.764467 0.000000 0.640800
O O12 0.712738 0.000000 0.297119
#
# Coordination Sequence:
#
# PCOD8101710 Si02
#       5
#     8   8   8   8   8
#     4   9  19  37  58  80 110 147 187 233 283 336
#     4  11  23  38  57  85 119 151 188 235 282 332
#     4  10  21  38  60  85 115 151 189 231 282 339
#     4  10  20  36  59  85 111 146 189 233 283 338
#     4  10  22  39  59  84 115 152 191 232 281 336
#
# _framework density 21.729982
#
# number of rings (size 3 to 8) (size 9 to 14) (size 15 to 20)
#    0.000    2.000    0.000    3.000    0.000    6.400 
#    0.000    6.000    0.000    0.000    0.000    0.000 
#    0.000    0.000    0.000    0.000    0.000    0.000 
#
# Total GULP energy -247839.110678 kJ/mol
# GULP energy per Si atom -12391.955534 kJ/mol
# Density = 2.168052 g / cm^3
# Si number density = 21.729982 Si / 1000 Ang^3
#
#
#
# Elastic Constant Matrix: (Units=GPa)
#
#
# Indices 1 2 3 4 5 6 
#
# 1 48.3461 22.2942 22.0336 0.0007 0.5149 -0.0003
# 2 22.2942 123.7954 27.5610 0.0018 -9.3116 0.0006
# 3 22.0336 27.5610 77.4967 -0.0010 -4.9203 0.0007
# 4 0.0007 0.0018 -0.0010 11.2466 0.0000 -4.2574
# 5 0.5149 -9.3116 -4.9203 0.0000 35.1297 0.0001
# 6 -0.0003 0.0006 0.0007 -4.2574 0.0001 21.0958
#
#
#
# Elastic Compliance Matrix: (Units=1/GPa)
#
#
# Indices 1 2 3 4 5 6 
#
# 1 0.024995 -0.003309 -0.006063 -0.000001 -0.002093 0.000000
# 2 -0.003309 0.009339 -0.002240 -0.000002 0.002210 -0.000001
# 3 -0.006063 -0.002240 0.015530 0.000002 0.001670 0.000000
# 4 -0.000001 -0.000002 0.000002 0.096270 0.000000 0.019428
# 5 -0.002093 0.002210 0.001670 0.000000 0.029316 0.000000
# 6 0.000000 -0.000001 0.000000 0.019428 0.000000 0.051324
#
#
# Mechanical properties :
#
#
# Convention : Reuss Voigt Hill
#
# Bulk Modulus (GPa) = 37.53645 43.71287 40.62466
# Shear Modulus (GPa) = 19.31408 25.34439 22.32924
#
# Velocity S-wave (km/s) = 2.98455 3.41887 3.20906
# Velocity P-wave (km/s) = 5.40261 5.97871 5.69794
#
# Compressibility (1/GPa) = 0.02664077
#
# Stress axis : x y z
#
# Youngs Moduli (GPa) = 40.00734 107.08098 64.39070
#
# Poissons Ratio (x) = 0.35434 0.39038
# Poissons Ratio (y) = 0.13239 0.14424
# Poissons Ratio (z) = 0.24255 0.23987
#
# Static dielectric constant tensor:
#      x y z
#    x 3.724650 0.000000 -0.042880 
#    y 0.000000 3.815080 0.000000 
#    z -0.042880 0.000000 3.939810 
# 
# 
# High freq. dielectric constant tensor:
#      x y z
#    x 1.839890 0.000000 -0.001740 
#    y 0.000000 1.847330 0.000000 
#    z -0.001740 0.000000 1.862190 
# 
# From -- ./inp_files/71340.got.cif
#   From: 2010.06.25/outbox.cif.g09.slc.cpg/sg12_36_cif.got.tgz:71340.got - 2010.06.28 00:19:55.
