data_PCOD8101468
_publ_section_title
;
Structure prediction by ZEFSAII (Michael W. Deem and Ramdas Pophale) SiO2 
 PCOD8101468
Probable space group: C 2/M
;
_chemical_formula_sum "Si O2"
_cell_formula_units_Z 40
_cell_length_a 9.133447
_cell_length_b 27.908464
_cell_length_c 7.628858
_cell_angle_alpha 90.000000
_cell_angle_beta 67.338833
_cell_angle_gamma 90.000000
_cell_volume 1794.475350
_symmetry_space_group_name_H-M "C 2/M"
_symmetry_group_IT_number 12
_symmetry_cell_setting 'monoclinic'
loop_
_space_group_symop_operation_xyz
x,y,z
-x,y,-z
-x,-y,-z
x,-y,z
1/2+x,1/2+y,z
1/2-x,1/2+y,-z
1/2-x,1/2-y,-z
1/2+x,1/2-y,z
loop_
_atom_site_type_symbol
_atom_site_label
_atom_site_fract_x
_atom_site_fract_y
_atom_site_fract_z
Si Si1 0.676649 0.278381 0.197853
Si Si2 0.293244 0.140734 0.952717
Si Si3 0.178879 0.552380 0.860102
Si Si4 0.395810 0.874139 0.377161
Si Si5 0.685821 0.303641 0.674364
O O1 0.490741 0.287657 0.282443
O O2 0.713093 0.245706 0.350234
O O3 0.750000 0.250000 0.000000
O O4 0.763491 0.329950 0.148473
O O5 0.479127 0.146247 0.822045
O O6 0.185438 0.162096 0.846669
O O7 0.242952 0.086100 0.024460
O O8 0.263410 0.500000 0.810386
O O9 0.187345 0.578408 0.665329
O O10 0.000000 0.544287 0.000000
O O11 0.500000 0.888260 0.500000
O O12 0.263134 0.833680 0.479813
#
# Coordination Sequence:
#
# PCOD8101468 Si02
#       5
#     8   8   8   8   8
#     4  10  20  36  58  83 114 154 196 230 275 340
#     4   9  18  35  56  80 112 149 190 235 280 337
#     4   9  18  34  59  86 111 146 192 239 287 342
#     4   9  19  35  55  83 117 149 189 240 290 335
#     4  10  21  38  58  85 119 154 192 237 286 335
#
# _framework density 22.290638000000001
#
# number of rings (size 3 to 8) (size 9 to 14) (size 15 to 20)
#    0.000    2.600    0.000    2.400    0.000   11.600 
#    0.000   35.000    0.000    4.800    0.000    0.000 
#    0.000    0.000    0.000    0.000    0.000    0.600 
#
# Total GULP energy -247822.268923 kJ/mol
# GULP energy per Si atom -12391.113446 kJ/mol
# Density = 2.223990 g / cm^3
# Si number density = 22.290638 Si / 1000 Ang^3
#
#
#
# Elastic Constant Matrix: (Units=GPa)
#
#
# Indices 1 2 3 4 5 6 
#
# 1 101.8687 64.7058 53.6070 0.0000 -15.7644 0.0000
# 2 64.7058 201.3777 73.3355 0.0000 -7.0601 0.0000
# 3 53.6070 73.3355 121.2022 0.0000 -0.9270 0.0000
# 4 0.0000 0.0000 0.0000 28.0328 0.0000 2.9672
# 5 -15.7644 -7.0601 -0.9270 0.0000 24.3660 0.0000
# 6 0.0000 0.0000 0.0000 2.9672 0.0000 21.8045
#
#
#
# Elastic Compliance Matrix: (Units=1/GPa)
#
#
# Indices 1 2 3 4 5 6 
#
# 1 0.015781 -0.002863 -0.005177 0.000000 0.009183 0.000000
# 2 -0.002863 0.006960 -0.002944 0.000000 0.000052 0.000000
# 3 -0.005177 -0.002944 0.012293 0.000000 -0.003735 0.000000
# 4 0.000000 0.000000 0.000000 0.036194 0.000000 -0.004925
# 5 0.009183 0.000052 -0.003735 0.000000 0.046855 0.000000
# 6 0.000000 0.000000 0.000000 -0.004925 0.000000 0.046532
#
#
# Mechanical properties :
#
#
# Convention : Reuss Voigt Hill
#
# Bulk Modulus (GPa) = 76.54233 89.74947 83.14590
# Shear Modulus (GPa) = 26.18629 30.36069 28.27349
#
# Velocity S-wave (km/s) = 3.43120 3.69458 3.56533
# Velocity P-wave (km/s) = 7.07887 7.65184 7.37093
#
# Compressibility (1/GPa) = 0.01306467
#
# Stress axis : x y z
#
# Youngs Moduli (GPa) = 63.36832 143.67999 81.34451
#
# Poissons Ratio (x) = 0.41141 0.42112
# Poissons Ratio (y) = 0.18145 0.23951
# Poissons Ratio (z) = 0.32806 0.42305
#
# Static dielectric constant tensor:
#      x y z
#    x 3.750970 0.000000 0.350960 
#    y 0.000000 4.732200 0.000000 
#    z 0.350960 0.000000 4.468780 
# 
# 
# High freq. dielectric constant tensor:
#      x y z
#    x 1.852220 0.000000 0.020270 
#    y 0.000000 1.874170 0.000000 
#    z 0.020270 0.000000 1.892270 
# 
# From -- ./inp_files/41476.got.cif
#   From: 2010.06.25/outbox.cif.g09.slc.cpg/sg12_21_cif.got.tgz:41476.got - 2010.06.28 00:19:55.
