data_PCOD8101569
_publ_section_title
;
Structure prediction by ZEFSAII (Michael W. Deem and Ramdas Pophale) SiO2 
 PCOD8101569
Probable space group: C 2/M
;
_chemical_formula_sum "Si O2"
_cell_formula_units_Z 56
_cell_length_a 22.476431
_cell_length_b 8.562302
_cell_length_c 16.253271
_cell_angle_alpha 90.000000
_cell_angle_beta 119.359141
_cell_angle_gamma 90.000000
_cell_volume 2726.200456
_symmetry_space_group_name_H-M "C 2/M"
_symmetry_group_IT_number 12
_symmetry_cell_setting 'monoclinic'
loop_
_space_group_symop_operation_xyz
x,y,z
-x,y,-z
-x,-y,-z
x,-y,z
1/2+x,1/2+y,z
1/2-x,1/2+y,-z
1/2-x,1/2-y,-z
1/2+x,1/2-y,z
loop_
_atom_site_type_symbol
_atom_site_label
_atom_site_fract_x
_atom_site_fract_y
_atom_site_fract_z
Si Si1 0.922714 0.181190 0.270136
Si Si2 0.447178 0.683541 0.830047
Si Si3 0.837754 0.818278 0.889537
Si Si4 0.908849 0.681965 0.087202
Si Si5 0.306531 0.316600 0.477913
Si Si6 0.065369 0.317621 0.353811
Si Si7 0.709674 0.680707 0.721049
O O1 0.893802 0.225832 0.160972
O O2 0.866541 0.220183 0.300573
O O3 0.990400 0.278940 0.338055
O O4 0.942635 0.000000 0.283569
O O5 0.460377 0.500000 0.844976
O O6 0.390550 0.740101 0.856066
O O7 0.517433 0.770872 0.899187
O O8 0.420812 0.726533 0.721589
O O9 0.761562 0.785948 0.807565
O O10 0.846977 0.000000 0.914131
O O11 0.850721 0.724334 0.982206
O O12 0.907413 0.500000 0.106209
O O13 0.314563 0.500000 0.497108
O O14 0.250000 0.250000 0.500000
O O15 0.378898 0.234905 0.542377
O O16 0.283997 0.276362 0.370259
O O17 0.071626 0.500000 0.340200
O O18 0.727130 0.500000 0.748903
#
# Coordination Sequence:
#
# PCOD8101569 Si02
#       7
#     8   8   8   8   8   8   8
#     4  10  21  41  63  84 113 150 194 241 287 335
#     4  10  20  36  58  86 118 152 193 239 288 341
#     4  11  23  37  57  84 116 154 193 237 289 342
#     4  11  22  36  58  86 116 152 192 237 288 343
#     4  11  23  41  63  90 121 152 189 233 286 344
#     4  11  22  37  60  89 119 154 192 234 287 342
#     4  10  24  42  61  84 113 151 194 240 286 338
#
# _framework density 20.541408000000001
#
# number of rings (size 3 to 8) (size 9 to 14) (size 15 to 20)
#    0.000    1.429    0.000    7.286    0.000    9.714 
#    0.000    2.857    0.000    0.000    0.000    0.000 
#    0.000    0.000    0.000    0.000    0.000    0.000 
#
# Total GULP energy -347385.909696 kJ/mol
# GULP energy per Si atom -12406.639632 kJ/mol
# Density = 2.049466 g / cm^3
# Si number density = 20.541408 Si / 1000 Ang^3
#
#
#
# Elastic Constant Matrix: (Units=GPa)
#
#
# Indices 1 2 3 4 5 6 
#
# 1 95.0923 26.8922 43.5117 0.0000 -6.6979 0.0000
# 2 26.8922 61.9840 19.2953 0.0000 2.8729 0.0000
# 3 43.5117 19.2953 83.9800 0.0000 18.0034 0.0000
# 4 0.0000 0.0000 0.0000 33.0157 0.0000 6.8872
# 5 -6.6979 2.8729 18.0034 0.0000 31.1794 0.0000
# 6 0.0000 0.0000 0.0000 6.8872 0.0000 31.6784
#
#
#
# Elastic Compliance Matrix: (Units=1/GPa)
#
#
# Indices 1 2 3 4 5 6 
#
# 1 0.017062 -0.004794 -0.009837 0.000000 0.009787 0.000000
# 2 -0.004794 0.018741 -0.001405 0.000000 -0.001945 0.000000
# 3 -0.009837 -0.001405 0.020260 0.000000 -0.013682 0.000000
# 4 0.000000 0.000000 0.000000 0.031728 0.000000 -0.006898
# 5 0.009787 -0.001945 -0.013682 0.000000 0.042255 0.000000
# 6 0.000000 0.000000 0.000000 -0.006898 0.000000 0.033067
#
#
# Mechanical properties :
#
#
# Convention : Reuss Voigt Hill
#
# Bulk Modulus (GPa) = 41.68161 46.71720 44.19940
# Shear Modulus (GPa) = 24.60855 29.26517 26.93686
#
# Velocity S-wave (km/s) = 3.46496 3.77860 3.62518
# Velocity P-wave (km/s) = 6.02856 6.46757 6.25192
#
# Compressibility (1/GPa) = 0.02399140
#
# Stress axis : x y z
#
# Youngs Moduli (GPa) = 58.60850 53.35998 49.35753
#
# Poissons Ratio (x) = 0.25581 0.48553
# Poissons Ratio (y) = 0.28097 0.06934
# Poissons Ratio (z) = 0.57653 0.07497
#
# Static dielectric constant tensor:
#      x y z
#    x 3.723240 0.000000 -0.015570 
#    y 0.000000 3.756600 0.000000 
#    z -0.015570 0.000000 3.709260 
# 
# 
# High freq. dielectric constant tensor:
#      x y z
#    x 1.803160 0.000000 0.002930 
#    y 0.000000 1.811200 0.000000 
#    z 0.002930 0.000000 1.805540 
# 
# From -- ./inp_files/237789.got.cif
#   From: 2010.06.25/outbox.cif.g09.slc.cpg/sg12_119_cif.got.tgz:237789.got - 2010.06.28 00:19:55.
