data_PCOD8101777
_publ_section_title
;
Structure prediction by ZEFSAII (Michael W. Deem and Ramdas Pophale) SiO2 
 PCOD8101777
Probable space group: C 2/M
;
_chemical_formula_sum "Si O2"
_cell_formula_units_Z 56
_cell_length_a 19.037639
_cell_length_b 8.870787
_cell_length_c 34.553594
_cell_angle_alpha 90.000000
_cell_angle_beta 30.566395
_cell_angle_gamma 90.000000
_cell_volume 2967.499017
_symmetry_space_group_name_H-M "C 2/M"
_symmetry_group_IT_number 12
_symmetry_cell_setting 'monoclinic'
loop_
_space_group_symop_operation_xyz
x,y,z
-x,y,-z
-x,-y,-z
x,-y,z
1/2+x,1/2+y,z
1/2-x,1/2+y,-z
1/2-x,1/2-y,-z
1/2+x,1/2-y,z
loop_
_atom_site_type_symbol
_atom_site_label
_atom_site_fract_x
_atom_site_fract_y
_atom_site_fract_z
Si Si1 0.351730 0.173746 0.195823
Si Si2 0.853175 0.325243 0.560864
Si Si3 0.394232 0.167198 0.825913
Si Si4 0.607638 0.678138 0.256382
Si Si5 0.288341 0.161538 0.308659
Si Si6 0.136793 0.821353 0.081082
Si Si7 0.817495 0.179363 0.429998
O O1 0.251001 0.224749 0.208902
O O2 0.255121 0.193122 0.279607
O O3 0.487035 0.276608 0.134939
O O4 0.398817 0.000000 0.168529
O O5 0.873352 0.500000 0.543859
O O6 0.761723 0.300233 0.642124
O O7 0.778756 0.256227 0.558838
O O8 0.000000 0.246600 0.500000
O O9 0.385538 0.247207 0.788762
O O10 0.549798 0.147589 0.764698
O O11 0.327791 0.264765 0.892122
O O12 0.325555 0.000000 0.856044
O O13 0.595401 0.500000 0.256339
O O14 0.474379 0.732115 0.345178
O O15 0.221814 0.000000 0.353025
O O16 0.148199 0.000000 0.075480
O O17 0.250000 0.750000 0.000000
O O18 0.750000 0.250000 0.500000
O O19 0.812008 0.000000 0.436401
#
# Coordination Sequence:
#
# PCOD8101777 Si02
#       7
#     8   8   8   8   8   8   8
#     4   9  20  37  57  85 117 147 188 235 283 337
#     4  10  21  35  50  72 104 140 185 240 288 336
#     4  10  20  36  59  86 115 147 189 234 279 337
#     4  10  20  37  59  82 115 155 194 240 290 345
#     4   9  18  33  53  76 102 140 185 232 279 333
#     4  11  22  39  64  91 120 152 186 227 278 336
#     4  10  22  37  53  76 110 150 193 239 294 347
#
# _framework density 18.871110000000002
#
# number of rings (size 3 to 8) (size 9 to 14) (size 15 to 20)
#    0.000    2.143    1.429    2.571    2.000    4.286 
#    0.000    0.714    0.000    4.286    0.000    0.000 
#    0.000    0.000    0.000    0.000    0.000    0.000 
#
# Total GULP energy -346976.145311 kJ/mol
# GULP energy per Si atom -12392.005190 kJ/mol
# Density = 1.882816 g / cm^3
# Si number density = 18.871110 Si / 1000 Ang^3
#
#
#
# Elastic Constant Matrix: (Units=GPa)
#
#
# Indices 1 2 3 4 5 6 
#
# 1 111.8816 45.2870 55.8329 0.0064 15.4759 0.0472
# 2 45.2870 78.6597 50.7242 0.0087 8.8254 -0.0006
# 3 55.8329 50.7242 122.4013 -0.0027 19.5355 -0.0014
# 4 0.0064 0.0087 -0.0027 31.1298 0.0009 -0.0076
# 5 15.4759 8.8254 19.5355 0.0009 27.7618 0.0069
# 6 0.0472 -0.0006 -0.0014 -0.0076 0.0069 11.2980
#
#
#
# Elastic Compliance Matrix: (Units=1/GPa)
#
#
# Indices 1 2 3 4 5 6 
#
# 1 0.013106 -0.004994 -0.003375 -0.000002 -0.003344 -0.000053
# 2 -0.004994 0.019259 -0.005824 -0.000005 0.000760 0.000021
# 3 -0.003375 -0.005824 0.012986 0.000004 -0.005405 0.000019
# 4 -0.000002 -0.000005 0.000004 0.032124 -0.000001 0.000022
# 5 -0.003344 0.000760 -0.005405 -0.000001 0.041446 -0.000012
# 6 -0.000053 0.000021 0.000019 0.000022 -0.000012 0.088511
#
#
# Mechanical properties :
#
#
# Convention : Reuss Voigt Hill
#
# Bulk Modulus (GPa) = 58.94956 68.51453 63.73204
# Shear Modulus (GPa) = 20.70620 24.77783 22.74201
#
# Velocity S-wave (km/s) = 3.31606 3.62747 3.47525
# Velocity P-wave (km/s) = 6.77993 7.34371 7.06745
#
# Compressibility (1/GPa) = 0.01696366
#
# Stress axis : x y z
#
# Youngs Moduli (GPa) = 76.29877 51.92424 77.00793
#
# Poissons Ratio (x) = 0.25932 0.25992
# Poissons Ratio (y) = 0.38105 0.44852
# Poissons Ratio (z) = 0.25752 0.30242
#
# Static dielectric constant tensor:
#      x y z
#    x 3.765440 -0.000010 0.083420 
#    y -0.000010 3.501760 -0.000070 
#    z 0.083420 -0.000070 3.452730 
# 
# 
# High freq. dielectric constant tensor:
#      x y z
#    x 1.738830 0.000000 0.010400 
#    y 0.000000 1.726860 -0.000010 
#    z 0.010400 -0.000010 1.723330 
# 
# From -- ./inp_files/313744.got.cif
#   From: 2010.06.25/outbox.cif.g09.slc.cpg/sg12_157_cif.got.tgz:313744.got - 2010.06.28 00:19:55.
