data_PCOD8101423
_publ_section_title
;
Structure prediction by ZEFSAII (Michael W. Deem and Ramdas Pophale) SiO2 
 PCOD8101423
Probable space group: C 2/M
;
_chemical_formula_sum "Si O2"
_cell_formula_units_Z 56
_cell_length_a 20.970270
_cell_length_b 18.549959
_cell_length_c 9.397706
_cell_angle_alpha 90.000000
_cell_angle_beta 123.494432
_cell_angle_gamma 90.000000
_cell_volume 3048.620406
_symmetry_space_group_name_H-M "C 2/M"
_symmetry_group_IT_number 12
_symmetry_cell_setting 'monoclinic'
loop_
_space_group_symop_operation_xyz
x,y,z
-x,y,-z
-x,-y,-z
x,-y,z
1/2+x,1/2+y,z
1/2-x,1/2+y,-z
1/2-x,1/2-y,-z
1/2+x,1/2-y,z
loop_
_atom_site_type_symbol
_atom_site_label
_atom_site_fract_x
_atom_site_fract_y
_atom_site_fract_z
Si Si1 0.148869 0.584727 0.851062
Si Si2 0.416671 0.316327 0.455514
Si Si3 0.424416 0.849201 0.494706
Si Si4 0.390282 0.417019 0.984517
Si Si5 0.210545 0.171970 0.938486
Si Si6 0.500065 0.084929 0.160459
Si Si7 0.937113 0.081639 0.726578
O O1 0.153957 0.500000 0.842744
O O2 0.144074 0.618081 0.685128
O O3 0.078616 0.609269 0.863158
O O4 0.223545 0.615343 0.020863
O O5 0.500000 0.337074 0.500000
O O6 0.414067 0.234947 0.506043
O O7 0.352759 0.328718 0.259911
O O8 0.396823 0.366870 0.563489
O O9 0.500000 0.869322 0.500000
O O10 0.429700 0.883994 0.658833
O O11 0.367674 0.500000 0.996566
O O12 0.391732 0.408109 0.817090
O O13 0.330179 0.358080 0.968749
O O14 0.473802 0.398562 0.148414
O O15 0.250000 0.250000 0.000000
O O16 0.510000 0.000000 0.168342
O O17 0.500000 0.116650 0.000000
O O18 0.929197 0.000000 0.662749
#
# Coordination Sequence:
#
# PCOD8101423 Si02
#       7
#     8   8   8   8   8   8   8
#     4  10  20  36  58  82 112 155 194 232 287 344
#     4  11  21  37  57  85 119 149 191 240 290 345
#     4   9  18  34  54  80 111 149 191 230 273 339
#     4   9  19  38  61  85 115 152 194 239 289 346
#     4  12  23  38  57  85 122 151 189 244 293 350
#     4   9  18  35  59  86 112 143 192 245 283 332
#     4   9  19  37  61  88 113 146 198 246 285 343
#
# _framework density 18.368963999999998
#
# number of rings (size 3 to 8) (size 9 to 14) (size 15 to 20)
#    0.000    2.143    2.857    1.714    0.000    3.143 
#    5.143    2.143    0.000    3.429    0.000    0.000 
#    0.000    0.000    0.000    0.000    0.000    0.000 
#
# Total GULP energy -347131.550378 kJ/mol
# GULP energy per Si atom -12397.555371 kJ/mol
# Density = 1.832716 g / cm^3
# Si number density = 18.368964 Si / 1000 Ang^3
#
#
#
# Elastic Constant Matrix: (Units=GPa)
#
#
# Indices 1 2 3 4 5 6 
#
# 1 74.9345 47.6764 48.9246 0.0000 -2.4481 0.0000
# 2 47.6764 66.3801 46.9502 0.0000 -11.8876 0.0000
# 3 48.9246 46.9502 143.9517 0.0000 -4.6690 0.0000
# 4 0.0000 0.0000 0.0000 38.1073 0.0000 2.7930
# 5 -2.4481 -11.8876 -4.6690 0.0000 26.3892 0.0000
# 6 0.0000 0.0000 0.0000 2.7930 0.0000 28.3317
#
#
#
# Elastic Compliance Matrix: (Units=1/GPa)
#
#
# Indices 1 2 3 4 5 6 
#
# 1 0.026798 -0.017902 -0.003470 0.000000 -0.006192 0.000000
# 2 -0.017902 0.033248 -0.004353 0.000000 0.012546 0.000000
# 3 -0.003470 -0.004353 0.009526 0.000000 -0.000597 0.000000
# 4 0.000000 0.000000 0.000000 0.026433 0.000000 -0.002606
# 5 -0.006192 0.012546 -0.000597 0.000000 0.042866 0.000000
# 6 0.000000 0.000000 0.000000 -0.002606 0.000000 0.035553
#
#
# Mechanical properties :
#
#
# Convention : Reuss Voigt Hill
#
# Bulk Modulus (GPa) = 55.17732 63.59652 59.38692
# Shear Modulus (GPa) = 21.55966 28.01332 24.78649
#
# Velocity S-wave (km/s) = 3.42965 3.90941 3.67736
# Velocity P-wave (km/s) = 6.76660 7.42124 7.10147
#
# Compressibility (1/GPa) = 0.01812339
#
# Stress axis : x y z
#
# Youngs Moduli (GPa) = 37.31600 30.07693 104.97200
#
# Poissons Ratio (x) = 0.53844 0.36424
# Poissons Ratio (y) = 0.66803 0.45691
# Poissons Ratio (z) = 0.12948 0.13092
#
# Static dielectric constant tensor:
#      x y z
#    x 3.271260 0.000000 0.046780 
#    y 0.000000 3.392260 0.000000 
#    z 0.046780 0.000000 3.489450 
# 
# 
# High freq. dielectric constant tensor:
#      x y z
#    x 1.687550 0.000000 0.001750 
#    y 0.000000 1.717900 0.000000 
#    z 0.001750 0.000000 1.715870 
# 
# From -- ./inp_files/88073.got.cif
#   From: 2010.06.25/outbox.cif.g09.slc.cpg/sg12_45_cif.got.tgz:88073.got - 2010.06.28 00:19:55.
