data_PCOD8101855
_publ_section_title
;
Structure prediction by ZEFSAII (Michael W. Deem and Ramdas Pophale) SiO2 
 PCOD8101855
Probable space group: C 2/M
;
_chemical_formula_sum "Si O2"
_cell_formula_units_Z 40
_cell_length_a 9.529718
_cell_length_b 17.875193
_cell_length_c 12.490971
_cell_angle_alpha 90.000000
_cell_angle_beta 102.618789
_cell_angle_gamma 90.000000
_cell_volume 2076.385118
_symmetry_space_group_name_H-M "C 2/M"
_symmetry_group_IT_number 12
_symmetry_cell_setting 'monoclinic'
loop_
_space_group_symop_operation_xyz
x,y,z
-x,y,-z
-x,-y,-z
x,-y,z
1/2+x,1/2+y,z
1/2-x,1/2+y,-z
1/2-x,1/2-y,-z
1/2+x,1/2-y,z
loop_
_atom_site_type_symbol
_atom_site_label
_atom_site_fract_x
_atom_site_fract_y
_atom_site_fract_z
Si Si1 0.738617 0.298308 0.299723
Si Si2 0.846622 0.280529 0.922994
Si Si3 0.712240 0.914091 0.236363
Si Si4 0.974112 0.587607 0.373201
Si Si5 0.454876 0.333776 0.377453
O O1 0.671819 0.278742 0.174401
O O2 0.829784 0.374244 0.304790
O O3 0.602107 0.307276 0.351060
O O4 0.843238 0.234814 0.363910
O O5 0.813636 0.363817 0.873212
O O6 0.750000 0.250000 0.000000
O O7 0.000000 0.281420 0.000000
O O8 0.606758 0.890719 0.317283
O O9 0.876652 0.901542 0.302118
O O10 0.689752 0.000000 0.199511
O O11 0.945440 0.500000 0.366119
O O12 0.000000 0.614789 0.500000
O O13 0.500000 0.364212 0.500000
#
# Coordination Sequence:
#
# PCOD8101855 Si02
#       5
#     8   8   8   8   8
#     4  11  21  36  56  83 114 147 195 238 279 336
#     4  11  22  39  59  79 106 146 193 243 292 328
#     4  10  22  39  58  85 116 148 191 234 280 342
#     4  10  20  36  59  87 122 157 185 223 279 343
#     4  11  21  34  57  85 117 152 184 228 281 341
#
# _framework density 19.264247999999998
#
# number of rings (size 3 to 8) (size 9 to 14) (size 15 to 20)
#    0.000    1.400    0.000    8.400    0.000    1.600 
#    0.000    1.000    0.000    2.400    0.000    0.000 
#    0.000    0.000    0.000    0.000    0.000    0.000 
#
# Total GULP energy -247952.686903 kJ/mol
# GULP energy per Si atom -12397.634345 kJ/mol
# Density = 1.922040 g / cm^3
# Si number density = 19.264248 Si / 1000 Ang^3
#
#
#
# Elastic Constant Matrix: (Units=GPa)
#
#
# Indices 1 2 3 4 5 6 
#
# 1 109.5562 51.0293 16.5359 0.0000 3.9702 0.0000
# 2 51.0293 93.2008 51.3967 0.0000 -0.8822 0.0000
# 3 16.5359 51.3967 93.2681 0.0000 9.2831 0.0000
# 4 0.0000 0.0000 0.0000 24.5528 0.0000 -2.9604
# 5 3.9702 -0.8822 9.2831 0.0000 45.1828 0.0000
# 6 0.0000 0.0000 0.0000 -2.9604 0.0000 26.7654
#
#
#
# Elastic Compliance Matrix: (Units=1/GPa)
#
#
# Indices 1 2 3 4 5 6 
#
# 1 0.012712 -0.008380 0.002544 0.000000 -0.001803 0.000000
# 2 -0.008380 0.021133 -0.010489 0.000000 0.003304 0.000000
# 3 0.002544 -0.010489 0.016429 0.000000 -0.003804 0.000000
# 4 0.000000 0.000000 0.000000 0.041279 0.000000 0.004566
# 5 -0.001803 0.003304 -0.003804 0.000000 0.023137 0.000000
# 6 0.000000 0.000000 0.000000 0.004566 0.000000 0.037867
#
#
# Mechanical properties :
#
#
# Convention : Reuss Voigt Hill
#
# Bulk Modulus (GPa) = 56.73941 59.32766 58.03354
# Shear Modulus (GPa) = 26.16661 31.10444 28.63553
#
# Velocity S-wave (km/s) = 3.68951 4.02259 3.85965
# Velocity P-wave (km/s) = 6.90414 7.24145 7.07481
#
# Compressibility (1/GPa) = 0.01762443
#
# Stress axis : x y z
#
# Youngs Moduli (GPa) = 78.66296 47.31871 60.86623
#
# Poissons Ratio (x) = 0.39654 -0.15482
# Poissons Ratio (y) = 0.65920 0.63842
# Poissons Ratio (z) = -0.20009 0.49632
#
# Static dielectric constant tensor:
#      x y z
#    x 3.716310 0.000000 0.055980 
#    y 0.000000 3.520850 0.000000 
#    z 0.055980 0.000000 3.475390 
# 
# 
# High freq. dielectric constant tensor:
#      x y z
#    x 1.764290 0.000000 0.003320 
#    y 0.000000 1.745340 0.000000 
#    z 0.003320 0.000000 1.752760 
# 
# From -- ./inp_files/118889.got.cif
#   From: 2010.06.25/outbox.cif.g09.slc.cpg/sg12_60_cif.got.tgz:118889.got - 2010.06.28 00:19:55.
