data_PCOD8101196
_publ_section_title
;
Structure prediction by ZEFSAII (Michael W. Deem and Ramdas Pophale) SiO2 
 PCOD8101196
Probable space group: C 2/M
;
_chemical_formula_sum "Si O2"
_cell_formula_units_Z 64
_cell_length_a 19.992784
_cell_length_b 9.058911
_cell_length_c 21.662889
_cell_angle_alpha 90.000000
_cell_angle_beta 120.027933
_cell_angle_gamma 90.000000
_cell_volume 3396.831175
_symmetry_space_group_name_H-M "C 2/M"
_symmetry_group_IT_number 12
_symmetry_cell_setting 'monoclinic'
loop_
_space_group_symop_operation_xyz
x,y,z
-x,y,-z
-x,-y,-z
x,-y,z
1/2+x,1/2+y,z
1/2-x,1/2+y,-z
1/2-x,1/2-y,-z
1/2+x,1/2-y,z
loop_
_atom_site_type_symbol
_atom_site_label
_atom_site_fract_x
_atom_site_fract_y
_atom_site_fract_z
Si Si1 0.450565 0.174746 0.191217
Si Si2 0.886196 0.172517 0.908587
Si Si3 0.275450 0.172138 0.770558
Si Si4 0.877018 0.325180 0.706291
Si Si5 0.471746 0.672934 0.555257
Si Si6 0.398273 0.328433 0.286883
Si Si7 0.168853 0.323912 0.449732
Si Si8 0.449954 0.672864 0.067978
O O1 0.538093 0.232700 0.238055
O O2 0.402328 0.235495 0.226261
O O3 0.417618 0.238513 0.111885
O O4 0.443818 0.000000 0.187514
O O5 0.810953 0.253986 0.847974
O O6 0.963068 0.225136 0.908022
O O7 0.874847 0.000000 0.893867
O O8 0.894348 0.210294 0.984764
O O9 0.316539 0.237832 0.728405
O O10 0.184984 0.205486 0.721994
O O11 0.292297 0.000000 0.784343
O O12 0.875059 0.500000 0.705170
O O13 0.855440 0.266518 0.628975
O O14 0.500000 0.712544 0.500000
O O15 0.452873 0.500000 0.552472
O O16 0.537408 0.722194 0.634244
O O17 0.394324 0.765772 0.531008
O O18 0.407598 0.500000 0.274869
O O19 0.175096 0.500000 0.457240
O O20 0.250000 0.250000 0.500000
O O21 0.448682 0.500000 0.082029
#
# Coordination Sequence:
#
# PCOD8101196 Si02
#       8
#     8   8   8   8   8   8   8   8
#     4  11  20  35  58  84 111 146 189 234 281 327
#     4   9  18  33  53  81 115 147 180 230 284 332
#     4  10  20  36  57  82 112 148 188 231 279 332
#     4   9  19  35  57  82 112 145 183 234 282 324
#     4  10  22  40  62  85 113 154 197 234 282 345
#     4  10  22  38  58  82 113 151 189 229 278 339
#     4  11  23  40  61  87 120 152 188 238 289 338
#     4   9  18  33  54  81 114 148 183 226 284 338
#
# _framework density 18.841089
#
# number of rings (size 3 to 8) (size 9 to 14) (size 15 to 20)
#    0.000    2.125    2.500    1.500    1.750    1.250 
#    0.000    3.125    0.000    0.000    0.000    0.000 
#    0.000    0.000    0.000    0.000    0.000    0.000 
#
# Total GULP energy -396863.660445 kJ/mol
# GULP energy per Si atom -12401.989389 kJ/mol
# Density = 1.879821 g / cm^3
# Si number density = 18.841089 Si / 1000 Ang^3
#
#
#
# Elastic Constant Matrix: (Units=GPa)
#
#
# Indices 1 2 3 4 5 6 
#
# 1 105.8601 40.2688 45.6548 0.0000 -7.0699 0.0000
# 2 40.2688 55.4155 37.7772 0.0000 -4.9880 0.0000
# 3 45.6548 37.7772 102.8951 0.0000 -14.3716 0.0000
# 4 0.0000 0.0000 0.0000 28.1190 0.0000 2.1251
# 5 -7.0699 -4.9880 -14.3716 0.0000 35.7208 0.0000
# 6 0.0000 0.0000 0.0000 2.1251 0.0000 28.2136
#
#
#
# Elastic Compliance Matrix: (Units=1/GPa)
#
#
# Indices 1 2 3 4 5 6 
#
# 1 0.013835 -0.007830 -0.003215 0.000000 0.000351 0.000000
# 2 -0.007830 0.028503 -0.007047 0.000000 -0.000405 0.000000
# 3 -0.003215 -0.007047 0.014310 0.000000 0.004137 0.000000
# 4 0.000000 0.000000 0.000000 0.035767 0.000000 -0.002694
# 5 0.000351 -0.000405 0.004137 0.000000 0.029672 0.000000
# 6 0.000000 0.000000 0.000000 -0.002694 0.000000 0.035647
#
#
# Mechanical properties :
#
#
# Convention : Reuss Voigt Hill
#
# Bulk Modulus (GPa) = 48.86572 56.84136 52.85354
# Shear Modulus (GPa) = 24.90795 27.77536 26.34166
#
# Velocity S-wave (km/s) = 3.63988 3.84368 3.74317
# Velocity P-wave (km/s) = 6.60734 7.06632 6.84068
#
# Compressibility (1/GPa) = 0.02046425
#
# Stress axis : x y z
#
# Youngs Moduli (GPa) = 72.28077 35.08395 69.88102
#
# Poissons Ratio (x) = 0.27472 0.22464
# Poissons Ratio (y) = 0.56598 0.49244
# Poissons Ratio (z) = 0.23236 0.24723
#
# Static dielectric constant tensor:
#      x y z
#    x 3.419880 0.000000 -0.095270 
#    y 0.000000 3.227930 0.000000 
#    z -0.095270 0.000000 3.591060 
# 
# 
# High freq. dielectric constant tensor:
#      x y z
#    x 1.725790 0.000000 -0.006920 
#    y 0.000000 1.716430 0.000000 
#    z -0.006920 0.000000 1.740940 
# 
# From -- ./inp_files/320092.got.cif
#   From: 2010.06.25/outbox.cif.g09.slc.cpg/sg12_161_cif.got.tgz:320092.got - 2010.06.28 00:19:55.
