data_PCOD8101433
_publ_section_title
;
Structure prediction by ZEFSAII (Michael W. Deem and Ramdas Pophale) SiO2 
 PCOD8101433
Probable space group: C 2/M
;
_chemical_formula_sum "Si O2"
_cell_formula_units_Z 56
_cell_length_a 22.338454
_cell_length_b 8.683504
_cell_length_c 16.647884
_cell_angle_alpha 90.000000
_cell_angle_beta 119.640726
_cell_angle_gamma 90.000000
_cell_volume 2806.717528
_symmetry_space_group_name_H-M "C 2/M"
_symmetry_group_IT_number 12
_symmetry_cell_setting 'monoclinic'
loop_
_space_group_symop_operation_xyz
x,y,z
-x,y,-z
-x,-y,-z
x,-y,z
1/2+x,1/2+y,z
1/2-x,1/2+y,-z
1/2-x,1/2-y,-z
1/2+x,1/2-y,z
loop_
_atom_site_type_symbol
_atom_site_label
_atom_site_fract_x
_atom_site_fract_y
_atom_site_fract_z
Si Si1 0.145790 0.181369 0.072267
Si Si2 0.688150 0.681401 0.656903
Si Si3 0.843061 0.317848 0.751975
Si Si4 0.057647 0.816810 0.477907
Si Si5 0.451887 0.318403 0.709887
Si Si6 0.802325 0.320991 0.171187
Si Si7 0.083454 0.679990 0.879268
O O1 0.126411 0.235008 0.148927
O O2 0.223961 0.231794 0.103204
O O3 0.134401 0.000000 0.056208
O O4 0.094853 0.269066 0.978269
O O5 0.686059 0.500000 0.655320
O O6 0.764662 0.739809 0.685061
O O7 0.632500 0.745424 0.556191
O O8 0.666473 0.734727 0.731331
O O9 0.846761 0.500000 0.767329
O O10 0.886741 0.267521 0.704564
O O11 0.042620 0.758694 0.378010
O O12 0.000000 0.749394 0.500000
O O13 0.055810 0.000000 0.479151
O O14 0.439455 0.500000 0.706200
O O15 0.520850 0.275830 0.802094
O O16 0.804629 0.500000 0.192699
O O17 0.847675 0.277903 0.124237
O O18 0.065659 0.500000 0.863416
#
# Coordination Sequence:
#
# PCOD8101433 Si02
#       7
#     8   8   8   8   8   8   8
#     4  10  20  36  58  83 110 143 185 226 268 324
#     4   9  18  34  58  83 109 146 186 224 269 322
#     4  10  21  38  57  80 111 144 182 228 277 323
#     4   9  18  34  57  85 113 141 178 223 269 320
#     4  11  23  38  57  80 108 145 188 229 269 321
#     4   9  19  34  54  83 116 145 177 223 274 326
#     4  11  22  36  54  80 114 148 182 224 278 327
#
# _framework density 19.952133
#
# number of rings (size 3 to 8) (size 9 to 14) (size 15 to 20)
#    0.000    2.143    0.000    3.000    0.000    4.571 
#    0.000    4.286    0.000    3.857    0.000    0.000 
#    0.000    0.000    0.000    0.000    0.000    0.000 
#
# Total GULP energy -347278.371764 kJ/mol
# GULP energy per Si atom -12402.798992 kJ/mol
# Density = 1.990672 g / cm^3
# Si number density = 19.952133 Si / 1000 Ang^3
#
#
#
# Elastic Constant Matrix: (Units=GPa)
#
#
# Indices 1 2 3 4 5 6 
#
# 1 95.7728 13.5199 58.9143 0.0000 -13.7994 0.0000
# 2 13.5199 26.4703 11.5813 0.0000 1.5763 0.0000
# 3 58.9143 11.5813 146.1279 0.0000 8.1123 0.0000
# 4 0.0000 0.0000 0.0000 25.9718 0.0000 -3.3771
# 5 -13.7994 1.5763 8.1123 0.0000 28.1065 0.0000
# 6 0.0000 0.0000 0.0000 -3.3771 0.0000 27.4121
#
#
#
# Elastic Compliance Matrix: (Units=1/GPa)
#
#
# Indices 1 2 3 4 5 6 
#
# 1 0.017241 -0.006368 -0.007049 0.000000 0.010856 0.000000
# 2 -0.006368 0.041536 -0.000428 0.000000 -0.005332 0.000000
# 3 -0.007049 -0.000428 0.010071 0.000000 -0.006344 0.000000
# 4 0.000000 0.000000 0.000000 0.039130 0.000000 0.004821
# 5 0.010856 -0.005332 -0.006344 0.000000 0.043039 0.000000
# 6 0.000000 0.000000 0.000000 0.004821 0.000000 0.037074
#
#
# Mechanical properties :
#
#
# Convention : Reuss Voigt Hill
#
# Bulk Modulus (GPa) = 24.29738 48.48913 36.39326
# Shear Modulus (GPa) = 21.78640 28.58845 25.18743
#
# Velocity S-wave (km/s) = 3.30803 3.78941 3.55687
# Velocity P-wave (km/s) = 5.17639 6.59558 5.92860
#
# Compressibility (1/GPa) = 0.04115670
#
# Stress axis : x y z
#
# Youngs Moduli (GPa) = 58.00237 24.07565 99.29166
#
# Poissons Ratio (x) = 0.15332 0.69990
# Poissons Ratio (y) = 0.36937 0.04254
# Poissons Ratio (z) = 0.40885 0.01031
#
# Static dielectric constant tensor:
#      x y z
#    x 3.766810 0.000000 0.076230 
#    y 0.000000 3.423050 0.000000 
#    z 0.076230 0.000000 3.766450 
# 
# 
# High freq. dielectric constant tensor:
#      x y z
#    x 1.779820 0.000000 0.002520 
#    y 0.000000 1.764980 0.000000 
#    z 0.002520 0.000000 1.784350 
# 
# From -- ./inp_files/238991.got.cif
#   From: 2010.06.25/outbox.cif.g09.slc.cpg/sg12_120_cif.got.tgz:238991.got - 2010.06.28 00:19:55.
