data_PCOD8101267
_publ_section_title
;
Structure prediction by ZEFSAII (Michael W. Deem and Ramdas Pophale) SiO2 
 PCOD8101267
Probable space group: C 2/M
;
_chemical_formula_sum "Si O2"
_cell_formula_units_Z 56
_cell_length_a 18.550079
_cell_length_b 16.081746
_cell_length_c 9.216103
_cell_angle_alpha 90.000000
_cell_angle_beta 112.100094
_cell_angle_gamma 90.000000
_cell_volume 2547.327808
_symmetry_space_group_name_H-M "C 2/M"
_symmetry_group_IT_number 12
_symmetry_cell_setting 'monoclinic'
loop_
_space_group_symop_operation_xyz
x,y,z
-x,y,-z
-x,-y,-z
x,-y,z
1/2+x,1/2+y,z
1/2-x,1/2+y,-z
1/2-x,1/2-y,-z
1/2+x,1/2-y,z
loop_
_atom_site_type_symbol
_atom_site_label
_atom_site_fract_x
_atom_site_fract_y
_atom_site_fract_z
Si Si1 0.371847 0.599471 0.548344
Si Si2 0.266713 0.906464 0.361738
Si Si3 0.023368 0.360625 0.861475
Si Si4 0.166359 0.831584 0.798396
Si Si5 0.068369 0.406862 0.461297
Si Si6 0.986184 0.836076 0.156302
Si Si7 0.194339 0.356736 0.908841
O O1 0.371551 0.500000 0.525690
O O2 0.305940 0.634186 0.609746
O O3 0.356339 0.644600 0.383078
O O4 0.452766 0.625510 0.683540
O O5 0.348624 0.860275 0.462974
O O6 0.259472 0.905681 0.182345
O O7 0.269844 0.000000 0.423245
O O8 0.010440 0.262819 0.831541
O O9 0.109757 0.392715 0.885486
O O10 0.958817 0.409564 0.722984
O O11 0.000000 0.390920 0.000000
O O12 0.098984 0.865565 0.854992
O O13 0.179076 0.734273 0.832814
O O14 0.250579 0.868162 0.908556
O O15 0.078523 0.500000 0.533502
O O16 0.000000 0.359185 0.500000
O O17 0.000000 0.866453 0.000000
#
# Coordination Sequence:
#
# PCOD8101267 Si02
#       7
#     8   8   8   8   8   8   8
#     4  11  25  42  63  92 122 158 204 256 308 356
#     4  10  22  39  59  87 121 160 203 242 294 364
#     4  10  22  36  60  90 120 156 202 247 296 354
#     4  10  23  39  61  91 121 154 201 251 301 356
#     4  10  20  36  57  84 119 158 200 244 294 355
#     4  10  22  42  63  88 122 157 201 249 302 368
#     4  10  21  40  60  87 123 161 198 244 300 358
#
# _framework density 21.983820999999999
#
# number of rings (size 3 to 8) (size 9 to 14) (size 15 to 20)
#    0.000    1.857    1.429    1.286    4.000    4.000 
#    0.000    0.000    0.000    0.000    0.000    0.000 
#    0.000    0.000    0.000    0.000    0.000    0.000 
#
# Total GULP energy -346915.904374 kJ/mol
# GULP energy per Si atom -12389.853728 kJ/mol
# Density = 2.193379 g / cm^3
# Si number density = 21.983821 Si / 1000 Ang^3
#
#
#
# Elastic Constant Matrix: (Units=GPa)
#
#
# Indices 1 2 3 4 5 6 
#
# 1 129.7582 19.3012 46.9721 0.0000 -1.4653 0.0000
# 2 19.3012 26.3691 21.2185 0.0000 1.5726 0.0000
# 3 46.9721 21.2185 164.7332 0.0000 5.3397 0.0000
# 4 0.0000 0.0000 0.0000 18.0317 0.0000 -1.4217
# 5 -1.4653 1.5726 5.3397 0.0000 50.4150 0.0000
# 6 0.0000 0.0000 0.0000 -1.4217 0.0000 15.0013
#
#
#
# Elastic Compliance Matrix: (Units=1/GPa)
#
#
# Indices 1 2 3 4 5 6 
#
# 1 0.009200 -0.005182 -0.001977 0.000000 0.000638 0.000000
# 2 -0.005182 0.045255 -0.004316 0.000000 -0.001105 0.000000
# 3 -0.001977 -0.004316 0.007212 0.000000 -0.000687 0.000000
# 4 0.000000 0.000000 0.000000 0.055875 0.000000 0.005296
# 5 0.000638 -0.001105 -0.000687 0.000000 0.019961 0.000000
# 6 0.000000 0.000000 0.000000 0.005296 0.000000 0.067163
#
#
# Mechanical properties :
#
#
# Convention : Reuss Voigt Hill
#
# Bulk Modulus (GPa) = 25.82715 55.09377 40.46046
# Shear Modulus (GPa) = 20.78826 32.24754 26.51790
#
# Velocity S-wave (km/s) = 3.07842 3.83414 3.47687
# Velocity P-wave (km/s) = 4.94058 6.68702 5.87901
#
# Compressibility (1/GPa) = 0.03871895
#
# Stress axis : x y z
#
# Youngs Moduli (GPa) = 108.69410 22.09720 138.65459
#
# Poissons Ratio (x) = 0.11450 0.27406
# Poissons Ratio (y) = 0.56322 0.59839
# Poissons Ratio (z) = 0.21484 0.09536
#
# Static dielectric constant tensor:
#      x y z
#    x 4.433000 0.000000 0.044180 
#    y 0.000000 3.664790 0.000000 
#    z 0.044180 0.000000 4.088590 
# 
# 
# High freq. dielectric constant tensor:
#      x y z
#    x 1.882050 0.000000 0.004790 
#    y 0.000000 1.832710 0.000000 
#    z 0.004790 0.000000 1.872660 
# 
# From -- ./inp_files/75970.got.cif
#   From: 2010.06.25/outbox.cif.g09.slc.cpg/sg12_38_cif.got.tgz:75970.got - 2010.06.28 00:19:55.
