data_PCOD8101143
_publ_section_title
;
Structure prediction by ZEFSAII (Michael W. Deem and Ramdas Pophale) SiO2 
 PCOD8101143
Probable space group: C 2/M
;
_chemical_formula_sum "Si O2"
_cell_formula_units_Z 64
_cell_length_a 18.149591
_cell_length_b 8.919885
_cell_length_c 30.458080
_cell_angle_alpha 90.000000
_cell_angle_beta 41.751093
_cell_angle_gamma 90.000000
_cell_volume 3283.484425
_symmetry_space_group_name_H-M "C 2/M"
_symmetry_group_IT_number 12
_symmetry_cell_setting 'monoclinic'
loop_
_space_group_symop_operation_xyz
x,y,z
-x,y,-z
-x,-y,-z
x,-y,z
1/2+x,1/2+y,z
1/2-x,1/2+y,-z
1/2-x,1/2-y,-z
1/2+x,1/2-y,z
loop_
_atom_site_type_symbol
_atom_site_label
_atom_site_fract_x
_atom_site_fract_y
_atom_site_fract_z
Si Si1 0.312028 0.325511 0.818205
Si Si2 0.943100 0.177816 0.310616
Si Si3 0.268903 0.174591 0.925068
Si Si4 0.850645 0.325651 0.188269
Si Si5 0.423882 0.325230 0.922770
Si Si6 0.044172 0.174313 0.432176
Si Si7 0.224625 0.177544 0.688943
Si Si8 0.366538 0.322936 0.438803
O O1 0.310249 0.500000 0.831961
O O2 0.436074 0.263105 0.756711
O O3 0.253110 0.231464 0.882669
O O4 0.247831 0.296210 0.801797
O O5 0.853346 0.236509 0.315694
O O6 0.911925 0.240351 0.372451
O O7 0.946039 0.000000 0.311141
O O8 0.369998 0.263989 0.902005
O O9 0.297970 0.000000 0.913357
O O10 0.155210 0.208503 0.000950
O O11 0.867134 0.500000 0.190495
O O12 0.821357 0.244063 0.245993
O O13 0.962317 0.259143 0.118063
O O14 0.447103 0.500000 0.906007
O O15 0.151845 0.271030 0.375350
O O16 0.000000 0.210779 0.500000
O O17 0.951398 0.224954 0.438960
O O18 0.074480 0.000000 0.413048
O O19 0.221079 0.000000 0.693902
O O20 0.350578 0.500000 0.444544
O O21 0.250000 0.250000 0.500000
#
# Coordination Sequence:
#
# PCOD8101143 Si02
#       8
#     8   8   8   8   8   8   8   8
#     4  10  21  38  59  81 111 151 189 230 285 346
#     4   9  19  36  56  78 106 143 183 224 277 335
#     4  10  21  37  59  86 114 147 189 236 284 338
#     4  11  23  38  58  84 114 150 192 236 286 344
#     4  10  21  38  59  83 115 152 189 233 285 339
#     4  10  21  37  57  82 114 150 186 229 283 340
#     4  11  22  36  58  84 110 145 189 237 287 340
#     4  10  20  36  57  80 110 145 182 226 275 329
#
# _framework density 19.491489999999999
#
# number of rings (size 3 to 8) (size 9 to 14) (size 15 to 20)
#    0.000    1.875    0.000    3.750    0.000    6.750 
#    0.000    4.375    0.000    0.000    0.000    0.000 
#    0.000    0.000    0.000    0.000    0.000    0.000 
#
# Total GULP energy -396973.505313 kJ/mol
# GULP energy per Si atom -12405.422041 kJ/mol
# Density = 1.944713 g / cm^3
# Si number density = 19.491490 Si / 1000 Ang^3
#
#
#
# Elastic Constant Matrix: (Units=GPa)
#
#
# Indices 1 2 3 4 5 6 
#
# 1 152.2895 55.5266 81.0680 -0.0011 -1.0249 -0.0039
# 2 55.5266 59.9805 50.7965 -0.0014 -6.1644 -0.0009
# 3 81.0680 50.7965 130.8046 -0.0002 1.8088 -0.0003
# 4 -0.0011 -0.0014 -0.0002 36.9744 -0.0002 -2.3726
# 5 -1.0249 -6.1644 1.8088 -0.0002 41.9798 -0.0011
# 6 -0.0039 -0.0009 -0.0003 -2.3726 -0.0011 28.9899
#
#
#
# Elastic Compliance Matrix: (Units=1/GPa)
#
#
# Indices 1 2 3 4 5 6 
#
# 1 0.011417 -0.006913 -0.004384 0.000000 -0.000548 0.000001
# 2 -0.006913 0.029741 -0.007328 0.000001 0.004514 0.000000
# 3 -0.004384 -0.007328 0.013232 0.000000 -0.001753 -0.000001
# 4 0.000000 0.000001 0.000000 0.027189 0.000000 0.002225
# 5 -0.000548 0.004514 -0.001753 0.000000 0.024546 0.000001
# 6 0.000001 0.000000 -0.000001 0.002225 0.000001 0.034677
#
#
# Mechanical properties :
#
#
# Convention : Reuss Voigt Hill
#
# Bulk Modulus (GPa) = 58.33860 79.76184 69.05022
# Shear Modulus (GPa) = 27.20885 31.96772 29.58828
#
# Velocity S-wave (km/s) = 3.74027 4.05419 3.90039
# Velocity P-wave (km/s) = 6.97482 7.93256 7.46906
#
# Compressibility (1/GPa) = 0.01714131
#
# Stress axis : x y z
#
# Youngs Moduli (GPa) = 87.59019 33.62315 75.57609
#
# Poissons Ratio (x) = 0.23243 0.33130
# Poissons Ratio (y) = 0.60550 0.55381
# Poissons Ratio (z) = 0.38396 0.24638
#
# Static dielectric constant tensor:
#      x y z
#    x 3.699250 0.000000 0.029120 
#    y 0.000000 3.442210 0.000010 
#    z 0.029120 0.000010 3.838360 
# 
# 
# High freq. dielectric constant tensor:
#      x y z
#    x 1.769490 0.000000 0.001060 
#    y 0.000000 1.749090 0.000000 
#    z 0.001060 0.000000 1.773930 
# 
# From -- ./inp_files/378119.got.cif
#   From: 2010.06.25/outbox.cif.g09.slc.cpg/sg12_190_cif.got.tgz:378119.got - 2010.06.28 00:19:55.
