data_PCOD8101401
_publ_section_title
;
Structure prediction by ZEFSAII (Michael W. Deem and Ramdas Pophale) SiO2 
 PCOD8101401
Probable space group: C 2/M
;
_chemical_formula_sum "Si O2"
_cell_formula_units_Z 56
_cell_length_a 31.292360
_cell_length_b 8.844784
_cell_length_c 21.334718
_cell_angle_alpha 90.000000
_cell_angle_beta 151.275572
_cell_angle_gamma 90.000000
_cell_volume 2837.879135
_symmetry_space_group_name_H-M "C 2/M"
_symmetry_group_IT_number 12
_symmetry_cell_setting 'monoclinic'
loop_
_space_group_symop_operation_xyz
x,y,z
-x,y,-z
-x,-y,-z
x,-y,z
1/2+x,1/2+y,z
1/2-x,1/2+y,-z
1/2-x,1/2-y,-z
1/2+x,1/2-y,z
loop_
_atom_site_type_symbol
_atom_site_label
_atom_site_fract_x
_atom_site_fract_y
_atom_site_fract_z
Si Si1 0.712623 0.180028 0.016065
Si Si2 0.531578 0.321406 0.107452
Si Si3 0.366955 0.677564 0.301227
Si Si4 0.405672 0.172210 0.598338
Si Si5 0.543846 0.678352 0.462013
Si Si6 0.041120 0.176616 0.855260
Si Si7 0.283234 0.327325 0.605117
O O1 0.776242 0.239113 0.154233
O O2 0.712090 0.000000 0.008134
O O3 0.750000 0.250000 0.000000
O O4 0.615029 0.234761 0.910334
O O5 0.541055 0.500000 0.111542
O O6 0.461303 0.283962 0.073190
O O7 0.628793 0.253046 0.250493
O O8 0.500000 0.250724 0.000000
O O9 0.369751 0.500000 0.297919
O O10 0.451676 0.737398 0.372245
O O11 0.376494 0.719996 0.386872
O O12 0.448001 0.223239 0.588524
O O13 0.444641 0.275731 0.704402
O O14 0.299492 0.189379 0.453842
O O15 0.432426 0.000000 0.647384
O O16 0.543674 0.500000 0.446032
O O17 0.057005 0.000000 0.865069
O O18 0.305039 0.500000 0.616626
O O19 0.250000 0.250000 0.500000
#
# Coordination Sequence:
#
# PCOD8101401 Si02
#       7
#     8   8   8   8   8   8   8
#     4  11  22  37  57  84 119 154 193 237 287 344
#     4   9  19  37  60  85 114 152 198 245 294 350
#     4   8  17  34  55  77 106 146 186 229 275 331
#     4  11  22  34  54  85 116 143 184 242 294 337
#     4   9  17  34  58  80 105 143 190 228 274 343
#     4  11  22  37  59  83 111 154 200 240 291 353
#     4  10  20  36  58  82 110 146 186 233 284 337
#
# _framework density 19.733046000000002
#
# number of rings (size 3 to 8) (size 9 to 14) (size 15 to 20)
#    0.000    2.143    1.429    3.000    0.000    2.857 
#    0.000    5.000    0.000    3.857    0.000    0.000 
#    0.000    0.000    0.000    0.000    0.000    0.000 
#
# Total GULP energy -347022.971288 kJ/mol
# GULP energy per Si atom -12393.677546 kJ/mol
# Density = 1.968813 g / cm^3
# Si number density = 19.733046 Si / 1000 Ang^3
#
#
#
# Elastic Constant Matrix: (Units=GPa)
#
#
# Indices 1 2 3 4 5 6 
#
# 1 109.4695 30.6032 45.9734 0.0000 -11.8015 0.0000
# 2 30.6032 51.3822 25.9956 0.0000 -0.3345 0.0000
# 3 45.9734 25.9956 126.5660 0.0000 -8.5554 0.0000
# 4 0.0000 0.0000 0.0000 21.5200 0.0000 -0.8076
# 5 -11.8015 -0.3345 -8.5554 0.0000 32.2567 0.0000
# 6 0.0000 0.0000 0.0000 -0.8076 0.0000 24.1507
#
#
#
# Elastic Compliance Matrix: (Units=1/GPa)
#
#
# Indices 1 2 3 4 5 6 
#
# 1 0.012456 -0.005838 -0.003077 0.000000 0.003681 0.000000
# 2 -0.005838 0.024486 -0.003091 0.000000 -0.002702 0.000000
# 3 -0.003077 -0.003091 0.009750 0.000000 0.001428 0.000000
# 4 0.000000 0.000000 0.000000 0.046527 0.000000 0.001556
# 5 0.003681 -0.002702 0.001428 0.000000 0.032699 0.000000
# 6 0.000000 0.000000 0.000000 0.001556 0.000000 0.041459
#
#
# Mechanical properties :
#
#
# Convention : Reuss Voigt Hill
#
# Bulk Modulus (GPa) = 44.09243 54.72913 49.41078
# Shear Modulus (GPa) = 25.13228 27.90851 26.52039
#
# Velocity S-wave (km/s) = 3.57264 3.76480 3.66998
# Velocity P-wave (km/s) = 6.27785 6.83325 6.56143
#
# Compressibility (1/GPa) = 0.02267963
#
# Stress axis : x y z
#
# Youngs Moduli (GPa) = 80.28294 40.84043 102.56455
#
# Poissons Ratio (x) = 0.23844 0.31554
# Poissons Ratio (y) = 0.46872 0.31704
# Poissons Ratio (z) = 0.24699 0.12624
#
# Static dielectric constant tensor:
#      x y z
#    x 3.662170 0.000000 -0.003160 
#    y 0.000000 3.310300 0.000000 
#    z -0.003160 0.000000 4.427650 
# 
# 
# High freq. dielectric constant tensor:
#      x y z
#    x 1.773370 0.000000 -0.001510 
#    y 0.000000 1.739870 0.000000 
#    z -0.001510 0.000000 1.777040 
# 
# From -- ./inp_files/329689.got.cif
#   From: 2010.06.25/outbox.cif.g09.slc.cpg/sg12_165_cif.got.tgz:329689.got - 2010.06.28 00:19:55.
