data_PCOD8101736
_publ_section_title
;
Structure prediction by ZEFSAII (Michael W. Deem and Ramdas Pophale) SiO2 
 PCOD8101736
Probable space group: C 2/M
;
_chemical_formula_sum "Si O2"
_cell_formula_units_Z 64
_cell_length_a 29.123468
_cell_length_b 13.534747
_cell_length_c 12.644717
_cell_angle_alpha 90.000000
_cell_angle_beta 37.982137
_cell_angle_gamma 90.000000
_cell_volume 3067.403898
_symmetry_space_group_name_H-M "C 2/M"
_symmetry_group_IT_number 12
_symmetry_cell_setting 'monoclinic'
loop_
_space_group_symop_operation_xyz
x,y,z
-x,y,-z
-x,-y,-z
x,-y,z
1/2+x,1/2+y,z
1/2-x,1/2+y,-z
1/2-x,1/2-y,-z
1/2+x,1/2-y,z
loop_
_atom_site_type_symbol
_atom_site_label
_atom_site_fract_x
_atom_site_fract_y
_atom_site_fract_z
Si Si1 0.578261 0.709323 0.393029
Si Si2 0.738840 0.286016 0.401581
Si Si3 0.960816 0.789931 0.960047
Si Si4 0.138558 0.386561 0.190014
Si Si5 0.126695 0.614879 0.963749
Si Si6 0.301097 0.608604 0.961602
Si Si7 0.189490 0.109435 0.812024
Si Si8 0.408141 0.382333 0.405851
O O1 0.500000 0.660736 0.500000
O O2 0.576314 0.826924 0.371295
O O3 0.643987 0.680030 0.196481
O O4 0.597966 0.677014 0.474268
O O5 0.750000 0.250000 0.500000
O O6 0.802961 0.357794 0.238401
O O7 0.740587 0.182794 0.333290
O O8 0.660900 0.343706 0.538172
O O9 0.014154 0.855142 0.789338
O O10 0.944265 0.682244 0.939691
O O11 0.883767 0.849768 0.115348
O O12 0.000000 0.772448 0.000000
O O13 0.118439 0.500000 0.244723
O O14 0.143600 0.361913 0.055760
O O15 0.216876 0.355932 0.100412
O O16 0.106736 0.500000 0.982464
O O17 0.308972 0.500000 0.896269
O O18 0.327316 0.606680 0.034311
O O19 0.208704 0.000000 0.733651
O O20 0.403277 0.500000 0.432222
#
# Coordination Sequence:
#
# PCOD8101736 Si02
#       8
#     8   8   8   8   8   8   8   8
#     4  12  23  36  57  89 129 159 189 241 300 360
#     4  11  23  39  60  89 121 152 199 257 307 354
#     4  11  24  42  61  85 118 160 210 257 299 354
#     4  10  21  39  64  89 117 159 204 243 292 359
#     4  10  21  41  66  89 118 162 211 253 299 360
#     4  10  20  36  59  85 114 151 193 236 288 355
#     4  10  21  39  62  86 116 156 200 244 294 359
#     4  12  25  40  61  91 125 160 199 248 309 368
#
# _framework density 20.864547999999999
#
# number of rings (size 3 to 8) (size 9 to 14) (size 15 to 20)
#    0.000    1.250    0.000    7.500    0.000    6.500 
#    0.000    1.250    0.000    0.000    0.000    0.000 
#    0.000    0.000    0.000    0.000    0.000    0.000 
#
# Total GULP energy -396719.755103 kJ/mol
# GULP energy per Si atom -12397.492347 kJ/mol
# Density = 2.081706 g / cm^3
# Si number density = 20.864548 Si / 1000 Ang^3
#
#
#
# Elastic Constant Matrix: (Units=GPa)
#
#
# Indices 1 2 3 4 5 6 
#
# 1 115.4453 37.1085 17.7605 0.0000 4.3501 0.0000
# 2 37.1085 141.6454 44.2107 0.0000 7.6620 0.0000
# 3 17.7605 44.2107 60.2565 0.0000 2.6810 0.0000
# 4 0.0000 0.0000 0.0000 23.2720 0.0000 2.3503
# 5 4.3501 7.6620 2.6810 0.0000 29.4090 0.0000
# 6 0.0000 0.0000 0.0000 2.3503 0.0000 -15.3262
#
#
#
# Elastic Compliance Matrix: (Units=1/GPa)
#
#
# Indices 1 2 3 4 5 6 
#
# 1 0.009549 -0.002066 -0.001265 0.000000 -0.000759 0.000000
# 2 -0.002066 0.009698 -0.006434 0.000000 -0.001634 0.000000
# 3 -0.001265 -0.006434 0.021694 0.000000 -0.000114 0.000000
# 4 0.000000 0.000000 0.000000 0.042315 0.000000 0.006489
# 5 -0.000759 -0.001634 -0.000114 0.000000 0.034552 0.000000
# 6 0.000000 0.000000 0.000000 0.006489 0.000000 -0.064253
#
#
# Mechanical properties :
#
#
# Convention : Reuss Voigt Hill
#
# Bulk Modulus (GPa) = 46.70302 57.27850 51.99076
# Shear Modulus (GPa) = 62.32770 22.02215 42.17492
#
# Velocity S-wave (km/s) = 5.47151 3.25234 4.50084
# Velocity P-wave (km/s) = 7.89614 6.45103 7.20988
#
# Compressibility (1/GPa) = 0.02141189
#
# Stress axis : x y z
#
# Youngs Moduli (GPa) = 104.71887 103.11875 46.09553
#
# Poissons Ratio (x) = 0.21302 0.05832
# Poissons Ratio (y) = 0.21633 0.29656
# Poissons Ratio (z) = 0.13249 0.66342
#
# Static dielectric constant tensor:
#      x y z
#    x 3.609770 0.000000 -0.057400 
#    y 0.000000 4.311580 0.000000 
#    z -0.057400 0.000000 3.755920 
# 
# 
# High freq. dielectric constant tensor:
#      x y z
#    x 1.820460 0.000000 0.003370 
#    y 0.000000 1.834970 0.000000 
#    z 0.003370 0.000000 1.809860 
# 
# From -- ./inp_files/183761.got.cif
#   From: 2010.06.25/outbox.cif.g09.slc.cpg/sg12_92_cif.got.tgz:183761.got - 2010.06.28 00:19:55.
