data_PCOD8101255
_publ_section_title
;
Structure prediction by ZEFSAII (Michael W. Deem and Ramdas Pophale) SiO2 
 PCOD8101255
Probable space group: C 2/M
;
_chemical_formula_sum "Si O2"
_cell_formula_units_Z 48
_cell_length_a 20.692608
_cell_length_b 12.392913
_cell_length_c 14.500406
_cell_angle_alpha 90.000000
_cell_angle_beta 137.159998
_cell_angle_gamma 90.000000
_cell_volume 2528.412602
_symmetry_space_group_name_H-M "C 2/M"
_symmetry_group_IT_number 12
_symmetry_cell_setting 'monoclinic'
loop_
_space_group_symop_operation_xyz
x,y,z
-x,y,-z
-x,-y,-z
x,-y,z
1/2+x,1/2+y,z
1/2-x,1/2+y,-z
1/2-x,1/2-y,-z
1/2+x,1/2-y,z
loop_
_atom_site_type_symbol
_atom_site_label
_atom_site_fract_x
_atom_site_fract_y
_atom_site_fract_z
Si Si1 0.973783 0.120355 0.696209
Si Si2 0.563378 0.625382 0.977699
Si Si3 0.591133 0.620688 0.648917
Si Si4 0.122325 0.500000 0.692997
Si Si5 0.678049 0.788911 0.503296
Si Si6 0.762841 0.700938 0.231691
Si Si7 0.572287 0.000000 0.425951
O O1 0.895717 0.191610 0.562160
O O2 0.002575 0.165691 0.826456
O O3 0.068593 0.118740 0.733852
O O4 0.931005 0.000000 0.661911
O O5 0.594012 0.500000 0.998873
O O6 0.500000 0.642682 0.000000
O O7 0.655051 0.701364 0.083885
O O8 0.500000 0.672433 0.500000
O O9 0.608262 0.500000 0.627884
O O10 0.687743 0.685636 0.737049
O O11 0.183538 0.608020 0.769323
O O12 0.088833 0.500000 0.552452
O O13 0.043160 0.500000 0.692302
O O14 0.750000 0.750000 0.500000
O O15 0.736567 0.815102 0.657155
O O16 0.616555 0.897021 0.418376
#
# Coordination Sequence:
#
# PCOD8101255 Si02
#       7
#     8   8   8   4   8   8   4
#     4  10  21  37  59  83 114 150 191 238 285 335
#     4  10  21  38  58  84 118 151 187 236 292 348
#     4  10  20  36  57  84 116 150 194 235 281 338
#     4   9  18  32  57  84 112 134 187 241 307 343
#     4  11  22  34  55  85 114 151 195 235 282 346
#     4  11  20  35  61  87 111 150 191 241 293 339
#     4   9  20  34  50  82 117 147 175 244 306 333
#
# _framework density 18.984241999999998
#
# number of rings (size 3 to 8) (size 9 to 14) (size 15 to 20)
#    0.000    1.833    2.500    2.000    3.500    0.667 
#    0.000    0.000    1.833    0.500    0.000    0.000 
#    0.000    0.000    0.000    0.000    0.000    0.000 
#
# Total GULP energy -297503.292446 kJ/mol
# GULP energy per Si atom -12395.970519 kJ/mol
# Density = 1.894103 g / cm^3
# Si number density = 18.984242 Si / 1000 Ang^3
#
#
#
# Elastic Constant Matrix: (Units=GPa)
#
#
# Indices 1 2 3 4 5 6 
#
# 1 99.8852 36.5886 11.9571 0.0000 7.5985 0.0000
# 2 36.5886 92.8987 23.8332 0.0000 16.6462 0.0000
# 3 11.9571 23.8332 62.0390 0.0000 5.7157 0.0000
# 4 0.0000 0.0000 0.0000 21.2889 0.0000 5.9109
# 5 7.5985 16.6462 5.7157 0.0000 31.2678 0.0000
# 6 0.0000 0.0000 0.0000 5.9109 0.0000 34.3559
#
#
#
# Elastic Compliance Matrix: (Units=1/GPa)
#
#
# Indices 1 2 3 4 5 6 
#
# 1 0.011720 -0.004408 -0.000528 0.000000 -0.000405 0.000000
# 2 -0.004408 0.014653 -0.004231 0.000000 -0.005956 0.000000
# 3 -0.000528 -0.004231 0.017929 0.000000 -0.000897 0.000000
# 4 0.000000 0.000000 0.000000 0.049329 0.000000 -0.008487
# 5 -0.000405 -0.005956 -0.000897 0.000000 0.035415 0.000000
# 6 0.000000 0.000000 0.000000 -0.008487 0.000000 0.030567
#
#
# Mechanical properties :
#
#
# Convention : Reuss Voigt Hill
#
# Bulk Modulus (GPa) = 38.50908 44.39788 41.45348
# Shear Modulus (GPa) = 26.79472 29.54546 28.17009
#
# Velocity S-wave (km/s) = 3.76096 3.94930 3.85628
# Velocity P-wave (km/s) = 6.26008 6.65082 6.45840
#
# Compressibility (1/GPa) = 0.02596790
#
# Stress axis : x y z
#
# Youngs Moduli (GPa) = 85.32273 68.24403 55.77663
#
# Poissons Ratio (x) = 0.30082 0.02946
# Poissons Ratio (y) = 0.37610 0.23599
# Poissons Ratio (z) = 0.04507 0.28874
#
# Static dielectric constant tensor:
#      x y z
#    x 3.483760 0.000000 -0.008180 
#    y 0.000000 3.468410 0.000000 
#    z -0.008180 0.000000 3.311720 
# 
# 
# High freq. dielectric constant tensor:
#      x y z
#    x 1.740480 0.000000 0.001970 
#    y 0.000000 1.730440 0.000000 
#    z 0.001970 0.000000 1.712310 
# 
# From -- ./inp_files/232836.got.cif
#   From: 2010.06.25/outbox.cif.g09.slc.cpg/sg12_117_cif.got.tgz:232836.got - 2010.06.28 00:19:55.
