data_PCOD8101298
_publ_section_title
;
Structure prediction by ZEFSAII (Michael W. Deem and Ramdas Pophale) SiO2 
 PCOD8101298
Probable space group: C 2/M
;
_chemical_formula_sum "Si O2"
_cell_formula_units_Z 64
_cell_length_a 15.173745
_cell_length_b 15.109001
_cell_length_c 18.331864
_cell_angle_alpha 90.000000
_cell_angle_beta 131.594547
_cell_angle_gamma 90.000000
_cell_volume 3143.085560
_symmetry_space_group_name_H-M "C 2/M"
_symmetry_group_IT_number 12
_symmetry_cell_setting 'monoclinic'
loop_
_space_group_symop_operation_xyz
x,y,z
-x,y,-z
-x,-y,-z
x,-y,z
1/2+x,1/2+y,z
1/2-x,1/2+y,-z
1/2-x,1/2-y,-z
1/2+x,1/2-y,z
loop_
_atom_site_type_symbol
_atom_site_label
_atom_site_fract_x
_atom_site_fract_y
_atom_site_fract_z
Si Si1 0.204286 0.242653 0.209227
Si Si2 0.133940 0.099293 0.059724
Si Si3 0.366880 0.099835 0.918672
Si Si4 0.542915 0.727047 0.255532
Si Si5 0.693367 0.337548 0.938231
Si Si6 0.098183 0.659016 0.606414
Si Si7 0.066311 0.400013 0.361299
Si Si8 0.770349 0.901149 0.582253
O O1 0.209147 0.170679 0.146434
O O2 0.197062 0.341583 0.176605
O O3 0.096599 0.223914 0.204233
O O4 0.329733 0.239684 0.318646
O O5 0.165428 0.000000 0.103974
O O6 0.152739 0.103403 0.983539
O O7 0.000000 0.123419 0.000000
O O8 0.295148 0.106837 0.954258
O O9 0.368706 0.000000 0.890881
O O10 0.500000 0.135822 0.000000
O O11 0.412146 0.686472 0.176050
O O12 0.540394 0.827740 0.284334
O O13 0.620588 0.666830 0.352972
O O14 0.750000 0.250000 0.000000
O O15 0.189073 0.599571 0.610087
O O16 0.000000 0.702272 0.500000
O O17 0.036369 0.600229 0.634407
O O18 0.068211 0.500000 0.329048
O O19 0.191838 0.377639 0.468137
O O20 0.822327 0.000000 0.603924
#
# Coordination Sequence:
#
# PCOD8101298 Si02
#       8
#     8   8   8   8   8   8   8   8
#     4  11  21  40  61  84 120 159 195 247 295 350
#     4  11  23  40  63  91 122 153 193 248 306 358
#     4  11  24  42  63  85 118 162 205 246 293 349
#     4  11  23  36  60  88 118 160 200 243 298 357
#     4  12  23  41  63  85 121 159 199 249 300 349
#     4   9  19  36  59  87 117 154 195 242 304 357
#     4  10  20  36  57  88 122 154 197 246 293 353
#     4   9  19  36  60  86 119 155 193 247 303 354
#
# _framework density 20.362155000000001
#
# number of rings (size 3 to 8) (size 9 to 14) (size 15 to 20)
#    0.000    1.500    2.500    3.000    0.000    5.500 
#    0.000    0.625    0.000    0.375    0.000    0.000 
#    0.000    0.000    0.000    0.000    0.000    0.000 
#
# Total GULP energy -396784.776957 kJ/mol
# GULP energy per Si atom -12399.524280 kJ/mol
# Density = 2.031581 g / cm^3
# Si number density = 20.362155 Si / 1000 Ang^3
#
#
#
# Elastic Constant Matrix: (Units=GPa)
#
#
# Indices 1 2 3 4 5 6 
#
# 1 87.4116 21.0270 41.3851 0.0000 9.7127 0.0000
# 2 21.0270 110.9223 53.4965 0.0000 4.9858 0.0000
# 3 41.3851 53.4965 105.0988 0.0000 8.5105 0.0000
# 4 0.0000 0.0000 0.0000 19.4800 0.0000 -4.4297
# 5 9.7127 4.9858 8.5105 0.0000 29.9161 0.0000
# 6 0.0000 0.0000 0.0000 -4.4297 0.0000 22.3325
#
#
#
# Elastic Compliance Matrix: (Units=1/GPa)
#
#
# Indices 1 2 3 4 5 6 
#
# 1 0.014341 0.000031 -0.005410 0.000000 -0.003122 0.000000
# 2 0.000031 0.011951 -0.006073 0.000000 -0.000274 0.000000
# 3 -0.005410 -0.006073 0.014854 0.000000 -0.001457 0.000000
# 4 0.000000 0.000000 0.000000 0.053759 0.000000 0.010663
# 5 -0.003122 -0.000274 -0.001457 0.000000 0.034901 0.000000
# 6 0.000000 0.000000 0.000000 0.010663 0.000000 0.046893
#
#
# Mechanical properties :
#
#
# Convention : Reuss Voigt Hill
#
# Bulk Modulus (GPa) = 54.81885 59.47222 57.14553
# Shear Modulus (GPa) = 24.30912 26.84732 25.57822
#
# Velocity S-wave (km/s) = 3.45894 3.63504 3.54809
# Velocity P-wave (km/s) = 6.55231 6.84753 6.70155
#
# Compressibility (1/GPa) = 0.01824190
#
# Stress axis : x y z
#
# Youngs Moduli (GPa) = 69.73026 83.67680 67.31982
#
# Poissons Ratio (x) = -0.00259 0.36420
# Poissons Ratio (y) = -0.00216 0.40884
# Poissons Ratio (z) = 0.37724 0.50818
#
# Static dielectric constant tensor:
#      x y z
#    x 4.578040 0.000000 -0.048980 
#    y 0.000000 3.540470 0.000000 
#    z -0.048980 0.000000 3.833500 
# 
# 
# High freq. dielectric constant tensor:
#      x y z
#    x 1.792910 0.000000 0.006900 
#    y 0.000000 1.786710 0.000000 
#    z 0.006900 0.000000 1.795880 
# 
# From -- ./inp_files/270722.got.cif
#   From: 2010.06.25/outbox.cif.g09.slc.cpg/sg12_136_cif.got.tgz:270722.got - 2010.06.28 00:19:55.
