data_PCOD8101600
_publ_section_title
;
Structure prediction by ZEFSAII (Michael W. Deem and Ramdas Pophale) SiO2 
 PCOD8101600
Probable space group: C 2/M
;
_chemical_formula_sum "Si O2"
_cell_formula_units_Z 64
_cell_length_a 26.262361
_cell_length_b 19.591432
_cell_length_c 17.209055
_cell_angle_alpha 90.000000
_cell_angle_beta 159.183626
_cell_angle_gamma 90.000000
_cell_volume 3146.608754
_symmetry_space_group_name_H-M "C 2/M"
_symmetry_group_IT_number 12
_symmetry_cell_setting 'monoclinic'
loop_
_space_group_symop_operation_xyz
x,y,z
-x,y,-z
-x,-y,-z
x,-y,z
1/2+x,1/2+y,z
1/2-x,1/2+y,-z
1/2-x,1/2-y,-z
1/2+x,1/2-y,z
loop_
_atom_site_type_symbol
_atom_site_label
_atom_site_fract_x
_atom_site_fract_y
_atom_site_fract_z
Si Si1 0.278646 0.421133 0.894770
Si Si2 0.394976 0.837586 0.470712
Si Si3 0.685613 0.080522 0.497641
Si Si4 0.157695 0.078546 0.576996
Si Si5 0.498313 0.297248 0.587009
Si Si6 0.399226 0.579863 0.674305
Si Si7 0.629986 0.922938 0.990141
Si Si8 0.273790 0.854764 0.024764
O O1 0.239404 0.500000 0.821870
O O2 0.161235 0.371079 0.689225
O O3 0.286384 0.409569 0.998480
O O4 0.433698 0.401714 0.080003
O O5 0.309988 0.876901 0.416652
O O6 0.378452 0.755039 0.452352
O O7 0.567157 0.839835 0.718815
O O8 0.811666 0.110137 0.622538
O O9 0.703066 0.000000 0.542075
O O10 0.536310 0.097357 0.242434
O O11 0.045080 0.124189 0.463271
O O12 0.167763 0.105855 0.502842
O O13 0.310024 0.087229 0.837283
O O14 0.104139 0.000000 0.502889
O O15 0.500000 0.277103 0.500000
O O16 0.658463 0.291962 0.854483
O O17 0.373833 0.500000 0.641248
O O18 0.644223 0.000000 0.981857
O O19 0.719284 0.881346 0.053828
#
# Coordination Sequence:
#
# PCOD8101600 Si02
#       8
#     8   8   8   8   8   8   8   8
#     4  11  22  38  61  91 123 159 204 254 301 355
#     4  11  25  39  56  85 119 163 204 243 299 357
#     4   9  19  39  62  87 117 155 204 253 300 357
#     4  10  20  36  58  88 119 153 197 247 304 361
#     4  12  23  39  60  88 123 159 197 241 303 369
#     4   9  19  36  62  90 117 153 201 254 306 353
#     4   9  18  32  56  89 119 149 189 242 301 358
#     4  11  21  37  58  86 117 158 198 244 296 358
#
# _framework density 20.339357
#
# number of rings (size 3 to 8) (size 9 to 14) (size 15 to 20)
#    0.000    1.750    2.500    2.250    0.000    3.750 
#    0.000    5.000    0.000    1.500    0.000    0.000 
#    0.000    0.000    0.000    0.000    0.000    0.000 
#
# Total GULP energy -396524.136868 kJ/mol
# GULP energy per Si atom -12391.379277 kJ/mol
# Density = 2.029306 g / cm^3
# Si number density = 20.339357 Si / 1000 Ang^3
#
#
#
# Elastic Constant Matrix: (Units=GPa)
#
#
# Indices 1 2 3 4 5 6 
#
# 1 105.4131 43.8606 41.5707 0.0000 5.6586 0.0000
# 2 43.8606 80.5908 36.5393 0.0000 -1.5609 0.0000
# 3 41.5707 36.5393 91.6477 0.0000 -8.3221 0.0000
# 4 0.0000 0.0000 0.0000 27.0640 0.0000 0.6483
# 5 5.6586 -1.5609 -8.3221 0.0000 33.9821 0.0000
# 6 0.0000 0.0000 0.0000 0.6483 0.0000 5.8128
#
#
#
# Elastic Compliance Matrix: (Units=1/GPa)
#
#
# Indices 1 2 3 4 5 6 
#
# 1 0.013700 -0.005566 -0.004321 0.000000 -0.003595 0.000000
# 2 -0.005566 0.017429 -0.004364 0.000000 0.000659 0.000000
# 3 -0.004321 -0.004364 0.014992 0.000000 0.004191 0.000000
# 4 0.000000 0.000000 0.000000 0.037048 0.000000 -0.004132
# 5 -0.003595 0.000659 0.004191 0.000000 0.031082 0.000000
# 6 0.000000 0.000000 0.000000 -0.004132 0.000000 0.172494
#
#
# Mechanical properties :
#
#
# Convention : Reuss Voigt Hill
#
# Bulk Modulus (GPa) = 56.76273 57.95475 57.35874
# Shear Modulus (GPa) = 15.57041 23.75052 19.66046
#
# Velocity S-wave (km/s) = 2.76983 3.42089 3.11243
# Velocity P-wave (km/s) = 6.18042 6.64523 6.41704
#
# Compressibility (1/GPa) = 0.01761719
#
# Stress axis : x y z
#
# Youngs Moduli (GPa) = 72.99453 57.37484 66.70229
#
# Poissons Ratio (x) = 0.31936 0.28824
# Poissons Ratio (y) = 0.40631 0.29111
# Poissons Ratio (z) = 0.31543 0.25040
#
# Static dielectric constant tensor:
#      x y z
#    x 3.710590 0.000000 -0.071990 
#    y 0.000000 3.651350 0.000000 
#    z -0.071990 0.000000 3.809360 
# 
# 
# High freq. dielectric constant tensor:
#      x y z
#    x 1.785580 0.000000 -0.014210 
#    y 0.000000 1.774830 0.000000 
#    z -0.014210 0.000000 1.803110 
# 
# From -- ./inp_files/294176.got.cif
#   From: 2010.06.25/outbox.cif.g09.slc.cpg/sg12_148_cif.got.tgz:294176.got - 2010.06.28 00:19:55.
