data_PCOD8101628
_publ_section_title
;
Structure prediction by ZEFSAII (Michael W. Deem and Ramdas Pophale) SiO2 
 PCOD8101628
Probable space group: C 2/M
;
_chemical_formula_sum "Si O2"
_cell_formula_units_Z 44
_cell_length_a 32.773602
_cell_length_b 10.474369
_cell_length_c 20.572337
_cell_angle_alpha 90.000000
_cell_angle_beta 18.429487
_cell_angle_gamma 90.000000
_cell_volume 2232.602751
_symmetry_space_group_name_H-M "C 2/M"
_symmetry_group_IT_number 12
_symmetry_cell_setting 'monoclinic'
loop_
_space_group_symop_operation_xyz
x,y,z
-x,y,-z
-x,-y,-z
x,-y,z
1/2+x,1/2+y,z
1/2-x,1/2+y,-z
1/2-x,1/2-y,-z
1/2+x,1/2-y,z
loop_
_atom_site_type_symbol
_atom_site_label
_atom_site_fract_x
_atom_site_fract_y
_atom_site_fract_z
Si Si1 0.404233 0.500000 0.346891
Si Si2 0.010982 0.772424 0.694634
Si Si3 0.278157 0.258905 0.240878
Si Si4 0.357150 0.000000 0.187935
Si Si5 0.955238 0.000000 0.994140
Si Si6 0.153931 0.857915 0.166522
Si Si7 0.269624 0.143359 0.120298
O O1 0.474471 0.378156 0.271723
O O2 0.250412 0.500000 0.592307
O O3 0.425183 0.500000 0.237309
O O4 0.148663 0.704471 0.475911
O O5 0.978442 0.836869 0.673256
O O6 0.903177 0.672446 0.880040
O O7 0.340799 0.126772 0.170014
O O8 0.375308 0.373208 0.103199
O O9 0.246682 0.243786 0.212195
O O10 0.500000 0.000000 0.000000
O O11 0.000000 0.000000 0.000000
O O12 0.206640 0.000000 0.069814
O O13 0.250000 0.750000 0.000000
O O14 0.147528 0.846222 0.254929
O O15 0.279116 0.000000 0.133853
#
# Coordination Sequence:
#
# PCOD8101628 Si02
#       7
#     4   8   8   4   4   8   8
#     4  10  20  40  67  85 113 163 191 239 310 364
#     4  10  20  37  61  88 122 162 202 236 300 354
#     4  11  23  40  64  87 121 158 198 253 302 362
#     4  10  22  44  63  91 117 151 197 245 302 378
#     4  12  26  46  62  91 119 151 203 260 319 373
#     4   9  18  32  57  89 126 164 205 247 282 349
#     4  10  20  36  58  90 125 161 203 246 291 345
#
# _framework density 19.707940000000001
#
# number of rings (size 3 to 8) (size 9 to 14) (size 15 to 20)
#    0.000    1.818    3.636    0.545    1.273    0.727 
#    3.273    4.545    0.000    1.091    0.000    0.000 
#    0.000    0.000    0.000    0.000    0.000    0.000 
#
# Total GULP energy -272638.246611 kJ/mol
# GULP energy per Si atom -12392.647573 kJ/mol
# Density = 1.966308 g / cm^3
# Si number density = 19.707940 Si / 1000 Ang^3
#
#
#
# Elastic Constant Matrix: (Units=GPa)
#
#
# Indices 1 2 3 4 5 6 
#
# 1 128.2101 29.9375 36.4999 0.0000 13.4197 0.0000
# 2 29.9375 99.3168 20.7618 -0.0001 5.9809 0.0000
# 3 36.4999 20.7618 75.9441 -0.0001 5.5775 0.0001
# 4 0.0000 -0.0001 -0.0001 60.8984 0.0001 -31.8635
# 5 13.4197 5.9809 5.5775 0.0001 26.8104 0.0000
# 6 0.0000 0.0000 0.0001 -31.8635 0.0000 59.9097
#
#
#
# Elastic Compliance Matrix: (Units=1/GPa)
#
#
# Indices 1 2 3 4 5 6 
#
# 1 0.009732 -0.001901 -0.003890 0.000000 -0.003638 0.000000
# 2 -0.001901 0.011137 -0.002050 0.000000 -0.001106 0.000000
# 3 -0.003890 -0.002050 0.015660 0.000000 -0.000853 0.000000
# 4 0.000000 0.000000 0.000000 0.022752 0.000000 0.012101
# 5 -0.003638 -0.001106 -0.000853 0.000000 0.039544 0.000000
# 6 0.000000 0.000000 0.000000 0.012101 0.000000 0.023128
#
#
# Mechanical properties :
#
#
# Convention : Reuss Voigt Hill
#
# Bulk Modulus (GPa) = 47.96902 53.09660 50.53281
# Shear Modulus (GPa) = 34.58171 43.94182 39.26176
#
# Velocity S-wave (km/s) = 4.19347 4.72704 4.46823
# Velocity P-wave (km/s) = 6.91663 7.53614 7.23302
#
# Compressibility (1/GPa) = 0.02084679
#
# Stress axis : x y z
#
# Youngs Moduli (GPa) = 102.75426 89.79097 63.85543
#
# Poissons Ratio (x) = 0.17071 0.24842
# Poissons Ratio (y) = 0.19536 0.13088
# Poissons Ratio (z) = 0.39976 0.18404
#
# Static dielectric constant tensor:
#      x y z
#    x 3.961710 0.000000 -0.026540 
#    y 0.000000 3.582370 0.000000 
#    z -0.026540 0.000000 3.393210 
# 
# 
# High freq. dielectric constant tensor:
#      x y z
#    x 1.777270 0.000000 0.001470 
#    y 0.000000 1.770740 0.000000 
#    z 0.001470 0.000000 1.752360 
# 
# From -- ./inp_files/296422.got.cif
#   From: 2010.06.25/outbox.cif.g09.slc.cpg/sg12_149_cif.got.tgz:296422.got - 2010.06.28 00:19:55.
