data_PCOD8101921
_publ_section_title
;
Structure prediction by ZEFSAII (Michael W. Deem and Ramdas Pophale) SiO2 
 PCOD8101921
Probable space group: C 2/M
;
_chemical_formula_sum "Si O2"
_cell_formula_units_Z 48
_cell_length_a 9.007921
_cell_length_b 10.866730
_cell_length_c 21.598299
_cell_angle_alpha 90.000000
_cell_angle_beta 81.906053
_cell_angle_gamma 90.000000
_cell_volume 2093.124660
_symmetry_space_group_name_H-M "C 2/M"
_symmetry_group_IT_number 12
_symmetry_cell_setting 'monoclinic'
loop_
_space_group_symop_operation_xyz
x,y,z
-x,y,-z
-x,-y,-z
x,-y,z
1/2+x,1/2+y,z
1/2-x,1/2+y,-z
1/2-x,1/2-y,-z
1/2+x,1/2-y,z
loop_
_atom_site_type_symbol
_atom_site_label
_atom_site_fract_x
_atom_site_fract_y
_atom_site_fract_z
Si Si1 0.379215 0.500000 0.955653
Si Si2 0.000380 0.216135 0.750937
Si Si3 0.830731 0.140260 0.531064
Si Si4 0.998719 0.243127 0.926637
Si Si5 0.254837 0.636333 0.672973
Si Si6 0.900952 0.500000 0.945927
Si Si7 0.259517 0.640961 0.167699
O O1 0.395172 0.624366 0.913052
O O2 0.500000 0.500000 0.000000
O O3 0.253797 0.500000 0.012866
O O4 0.885736 0.137626 0.716768
O O5 0.899162 0.303147 0.800956
O O6 0.106279 0.289213 0.697913
O O7 0.114183 0.135045 0.785511
O O8 0.750000 0.250000 0.500000
O O9 0.822042 0.178664 0.603511
O O10 0.000000 0.140418 0.500000
O O11 0.765515 0.000000 0.523501
O O12 0.167595 0.223913 0.891373
O O13 0.930966 0.373234 0.903933
O O14 0.000000 0.256699 0.000000
O O15 0.193251 0.500000 0.671507
O O16 0.000000 0.500000 0.000000
O O17 0.233827 0.500000 0.144994
#
# Coordination Sequence:
#
# PCOD8101921 Si02
#       7
#     4   8   8   8   8   4   8
#     4  10  20  36  60  80 112 146 182 224 294 374
#     4  10  23  40  62  89 118 163 214 258 309 360
#     4  10  21  37  61  97 135 169 210 257 308 365
#     4  10  22  42  61  88 117 153 191 249 319 383
#     4  10  20  40  64  88 125 169 209 255 306 361
#     4  10  22  38  58  84 112 142 188 230 290 378
#     4  11  23  42  62  90 121 156 207 263 313 378
#
# _framework density 22.932221999999999
#
# number of rings (size 3 to 8) (size 9 to 14) (size 15 to 20)
#    0.000    1.833    0.833    2.500    0.000    5.667 
#    9.000    4.167    0.000    0.000    0.000    0.000 
#    0.000    0.000    0.000    0.000    0.000    0.000 
#
# Total GULP energy -297337.314303 kJ/mol
# GULP energy per Si atom -12389.054763 kJ/mol
# Density = 2.288003 g / cm^3
# Si number density = 22.932222 Si / 1000 Ang^3
#
#
#
# Elastic Constant Matrix: (Units=GPa)
#
#
# Indices 1 2 3 4 5 6 
#
# 1 88.3342 43.1244 23.8526 0.0000 -24.6878 0.0000
# 2 43.1244 186.0980 42.9867 0.0000 -18.2492 0.0000
# 3 23.8526 42.9867 134.8164 0.0000 -35.8456 0.0000
# 4 0.0000 0.0000 0.0000 43.0003 0.0000 3.7558
# 5 -24.6878 -18.2492 -35.8456 0.0000 45.4436 0.0000
# 6 0.0000 0.0000 0.0000 3.7558 0.0000 38.4369
#
#
#
# Elastic Compliance Matrix: (Units=1/GPa)
#
#
# Indices 1 2 3 4 5 6 
#
# 1 0.014547 -0.002724 0.000133 0.000000 0.006914 0.000000
# 2 -0.002724 0.006355 -0.001593 0.000000 -0.000185 0.000000
# 3 0.000133 -0.001593 0.009808 0.000000 0.007169 0.000000
# 4 0.000000 0.000000 0.000000 0.023456 0.000000 -0.002292
# 5 0.006914 -0.000185 0.007169 0.000000 0.031342 0.000000
# 6 0.000000 0.000000 0.000000 -0.002292 0.000000 0.026241
#
#
# Mechanical properties :
#
#
# Convention : Reuss Voigt Hill
#
# Bulk Modulus (GPa) = 44.75986 69.90844 57.33415
# Shear Modulus (GPa) = 39.19628 45.32848 42.26238
#
# Velocity S-wave (km/s) = 4.13876 4.45075 4.29759
# Velocity P-wave (km/s) = 6.51151 7.54740 7.04851
#
# Compressibility (1/GPa) = 0.02234145
#
# Stress axis : x y z
#
# Youngs Moduli (GPa) = 68.74414 157.36595 101.95611
#
# Poissons Ratio (x) = 0.42861 -0.01356
# Poissons Ratio (y) = 0.18723 0.16246
# Poissons Ratio (z) = -0.00915 0.25075
#
# Static dielectric constant tensor:
#      x y z
#    x 4.190690 0.000000 -0.009710 
#    y 0.000000 4.692950 0.000000 
#    z -0.009710 0.000000 4.353080 
# 
# 
# High freq. dielectric constant tensor:
#      x y z
#    x 1.917340 0.000000 -0.006100 
#    y 0.000000 1.918530 0.000000 
#    z -0.006100 0.000000 1.911550 
# 
# From -- ./inp_files/332236.got.cif
#   From: 2010.06.25/outbox.cif.g09.slc.cpg/sg12_167_cif.got.tgz:332236.got - 2010.06.28 00:19:55.
