data_PCOD8101170
_publ_section_title
;
Structure prediction by ZEFSAII (Michael W. Deem and Ramdas Pophale) SiO2 
 PCOD8101170
Probable space group: C 2/M
;
_chemical_formula_sum "Si O2"
_cell_formula_units_Z 56
_cell_length_a 29.150049
_cell_length_b 8.860728
_cell_length_c 11.186413
_cell_angle_alpha 90.000000
_cell_angle_beta 102.725382
_cell_angle_gamma 90.000000
_cell_volume 2818.375104
_symmetry_space_group_name_H-M "C 2/M"
_symmetry_group_IT_number 12
_symmetry_cell_setting 'monoclinic'
loop_
_space_group_symop_operation_xyz
x,y,z
-x,y,-z
-x,-y,-z
x,-y,z
1/2+x,1/2+y,z
1/2-x,1/2+y,-z
1/2-x,1/2-y,-z
1/2+x,1/2-y,z
loop_
_atom_site_type_symbol
_atom_site_label
_atom_site_fract_x
_atom_site_fract_y
_atom_site_fract_z
Si Si1 0.611209 0.827683 0.300076
Si Si2 0.488797 0.176065 0.859424
Si Si3 0.881888 0.325564 0.422440
Si Si4 0.430022 0.678632 0.236149
Si Si5 0.790913 0.178293 0.274480
Si Si6 0.806533 0.178088 0.784911
Si Si7 0.163304 0.822452 0.941964
O O1 0.565138 0.784575 0.198244
O O2 0.599974 0.803650 0.432685
O O3 0.653001 0.717721 0.285549
O O4 0.626307 0.000000 0.283238
O O5 0.520209 0.269397 0.785276
O O6 0.499618 0.000000 0.847438
O O7 0.500000 0.229104 0.000000
O O8 0.876171 0.500000 0.384811
O O9 0.921248 0.250948 0.360812
O O10 0.831491 0.245568 0.381057
O O11 0.428820 0.500000 0.250791
O O12 0.388800 0.735443 0.122777
O O13 0.741474 0.246238 0.287204
O O14 0.800477 0.224277 0.141793
O O15 0.790724 0.000000 0.291866
O O16 0.799201 0.000000 0.785261
O O17 0.820383 0.247875 0.922742
O O18 0.161576 0.000000 0.955804
#
# Coordination Sequence:
#
# PCOD8101170 Si02
#       7
#     8   8   8   8   8   8   8
#     4  10  23  40  56  78 110 146 184 229 275 320
#     4  10  21  38  60  86 114 145 182 222 271 330
#     4  10  21  39  59  79 107 144 188 230 270 321
#     4  10  20  36  59  85 114 146 181 225 276 324
#     4  10  20  36  57  81 112 145 181 227 276 326
#     4  11  21  34  55  82 111 145 185 225 273 330
#     4   8  17  33  53  81 113 143 177 221 271 324
#
# _framework density 19.869605
#
# number of rings (size 3 to 8) (size 9 to 14) (size 15 to 20)
#    0.000    2.143    0.000    3.857    0.000    3.143 
#    0.000   10.000    0.000    0.000    0.000    0.000 
#    0.000    0.000    0.000    0.000    0.000    0.000 
#
# Total GULP energy -347303.170180 kJ/mol
# GULP energy per Si atom -12403.684649 kJ/mol
# Density = 1.982438 g / cm^3
# Si number density = 19.869605 Si / 1000 Ang^3
#
#
#
# Elastic Constant Matrix: (Units=GPa)
#
#
# Indices 1 2 3 4 5 6 
#
# 1 114.8020 45.2058 35.7569 0.0000 -6.2534 0.0000
# 2 45.2058 87.6169 34.8137 0.0000 -2.9368 0.0000
# 3 35.7569 34.8137 94.9752 0.0000 -2.4809 0.0000
# 4 0.0000 0.0000 0.0000 24.7829 0.0000 -2.5729
# 5 -6.2534 -2.9368 -2.4809 0.0000 19.2984 0.0000
# 6 0.0000 0.0000 0.0000 -2.5729 0.0000 35.9813
#
#
#
# Elastic Compliance Matrix: (Units=1/GPa)
#
#
# Indices 1 2 3 4 5 6 
#
# 1 0.011555 -0.004882 -0.002491 0.000000 0.002681 0.000000
# 2 -0.004882 0.015460 -0.003822 0.000000 0.000279 0.000000
# 3 -0.002491 -0.003822 0.012875 0.000000 0.000266 0.000000
# 4 0.000000 0.000000 0.000000 0.040652 0.000000 0.002907
# 5 0.002681 0.000279 0.000266 0.000000 0.052763 0.000000
# 6 0.000000 0.000000 0.000000 0.002907 0.000000 0.028000
#
#
# Mechanical properties :
#
#
# Convention : Reuss Voigt Hill
#
# Bulk Modulus (GPa) = 57.14071 58.77186 57.95629
# Shear Modulus (GPa) = 26.38137 28.12037 27.25087
#
# Velocity S-wave (km/s) = 3.64775 3.76606 3.70737
# Velocity P-wave (km/s) = 6.82361 6.96806 6.89622
#
# Compressibility (1/GPa) = 0.01750066
#
# Stress axis : x y z
#
# Youngs Moduli (GPa) = 86.54319 64.68242 77.67265
#
# Poissons Ratio (x) = 0.31580 0.19345
# Poissons Ratio (y) = 0.42253 0.29683
# Poissons Ratio (z) = 0.21555 0.24719
#
# Static dielectric constant tensor:
#      x y z
#    x 3.522070 0.000000 0.049410 
#    y 0.000000 3.474560 0.000000 
#    z 0.049410 0.000000 3.722080 
# 
# 
# High freq. dielectric constant tensor:
#      x y z
#    x 1.776600 0.000000 0.000530 
#    y 0.000000 1.767640 0.000000 
#    z 0.000530 0.000000 1.775100 
# 
# From -- ./inp_files/181025.got.cif
#   From: 2010.06.25/outbox.cif.g09.slc.cpg/sg12_91_cif.got.tgz:181025.got - 2010.06.28 00:19:55.
