data_PCOD8101079
_publ_section_title
;
Structure prediction by ZEFSAII (Michael W. Deem and Ramdas Pophale) SiO2 
 PCOD8101079
Probable space group: C 2/M
;
_chemical_formula_sum "Si O2"
_cell_formula_units_Z 56
_cell_length_a 14.323580
_cell_length_b 9.169615
_cell_length_c 29.775467
_cell_angle_alpha 90.000000
_cell_angle_beta 128.090499
_cell_angle_gamma 90.000000
_cell_volume 3077.914796
_symmetry_space_group_name_H-M "C 2/M"
_symmetry_group_IT_number 12
_symmetry_cell_setting 'monoclinic'
loop_
_space_group_symop_operation_xyz
x,y,z
-x,y,-z
-x,-y,-z
x,-y,z
1/2+x,1/2+y,z
1/2-x,1/2+y,-z
1/2-x,1/2-y,-z
1/2+x,1/2-y,z
loop_
_atom_site_type_symbol
_atom_site_label
_atom_site_fract_x
_atom_site_fract_y
_atom_site_fract_z
Si Si1 0.796055 0.829203 0.736601
Si Si2 0.192648 0.663767 0.942676
Si Si3 0.976107 0.330603 0.359104
Si Si4 0.897410 0.165418 0.935654
Si Si5 0.062631 0.169974 0.563440
Si Si6 0.072054 0.327637 0.144553
Si Si7 0.666411 0.829525 0.342096
O O1 0.655853 0.797571 0.697621
O O2 0.851106 0.755429 0.796244
O O3 0.854999 0.759468 0.709878
O O4 0.823898 0.000000 0.744792
O O5 0.179675 0.500000 0.956778
O O6 0.271134 0.672512 0.921819
O O7 0.064054 0.723531 0.890641
O O8 0.250000 0.750000 0.000000
O O9 0.995525 0.500000 0.374548
O O10 0.997955 0.248174 0.412240
O O11 0.070772 0.275271 0.350330
O O12 0.885763 0.277868 0.891806
O O13 0.925276 0.000000 0.927403
O O14 0.000000 0.218042 0.000000
O O15 0.202239 0.204328 0.600501
O O16 0.000000 0.229527 0.500000
O O17 0.038589 0.000000 0.562740
O O18 0.089835 0.500000 0.155591
O O19 0.649357 0.000000 0.326271
#
# Coordination Sequence:
#
# PCOD8101079 Si02
#       7
#     8   8   8   8   8   8   8
#     4  10  21  37  55  76 103 135 177 223 264 311
#     4  10  21  36  55  78 104 134 167 205 252 308
#     4   9  19  35  55  77 103 141 182 221 264 308
#     4  10  20  36  57  78 103 136 170 206 253 308
#     4   9  18  32  51  79 113 145 177 216 263 313
#     4  11  23  37  55  80 108 137 171 214 264 316
#     4   9  18  35  56  76 105 142 178 219 265 311
#
# _framework density 18.194136
#
# number of rings (size 3 to 8) (size 9 to 14) (size 15 to 20)
#    0.000    2.286    1.429    0.857    0.000    4.571 
#    0.000    5.714    0.000    0.000    0.000    0.000 
#    0.000    0.000    0.000    0.000    0.000    0.000 
#
# Total GULP energy -347265.198412 kJ/mol
# GULP energy per Si atom -12402.328515 kJ/mol
# Density = 1.815272 g / cm^3
# Si number density = 18.194136 Si / 1000 Ang^3
#
#
#
# Elastic Constant Matrix: (Units=GPa)
#
#
# Indices 1 2 3 4 5 6 
#
# 1 126.2603 43.0973 53.1370 0.0000 -14.1696 0.0000
# 2 43.0973 65.5942 55.9276 0.0000 -10.4980 0.0000
# 3 53.1370 55.9276 136.1230 0.0000 -18.6222 0.0000
# 4 0.0000 0.0000 0.0000 33.5640 0.0000 -7.2550
# 5 -14.1696 -10.4980 -18.6222 0.0000 22.3636 0.0000
# 6 0.0000 0.0000 0.0000 -7.2550 0.0000 30.8948
#
#
#
# Elastic Compliance Matrix: (Units=1/GPa)
#
#
# Indices 1 2 3 4 5 6 
#
# 1 0.010709 -0.005144 -0.001658 0.000000 0.002990 0.000000
# 2 -0.005144 0.026164 -0.008472 0.000000 0.001968 0.000000
# 3 -0.001658 -0.008472 0.012173 0.000000 0.005109 0.000000
# 4 0.000000 0.000000 0.000000 0.031387 0.000000 0.007371
# 5 0.002990 0.001968 0.005109 0.000000 0.051788 0.000000
# 6 0.000000 0.000000 0.000000 0.007371 0.000000 0.034099
#
#
# Mechanical properties :
#
#
# Convention : Reuss Voigt Hill
#
# Bulk Modulus (GPa) = 54.06117 70.25569 62.15843
# Shear Modulus (GPa) = 24.62622 29.08553 26.85588
#
# Velocity S-wave (km/s) = 3.68302 4.00261 3.84614
# Velocity P-wave (km/s) = 6.91840 7.74981 7.34587
#
# Compressibility (1/GPa) = 0.01849757
#
# Stress axis : x y z
#
# Youngs Moduli (GPa) = 93.37628 38.22048 82.14620
#
# Poissons Ratio (x) = 0.19662 0.13619
# Poissons Ratio (y) = 0.48035 0.69598
# Poissons Ratio (z) = 0.15481 0.32382
#
# Static dielectric constant tensor:
#      x y z
#    x 3.476010 0.000000 0.075690 
#    y 0.000000 3.384510 0.000000 
#    z 0.075690 0.000000 3.339690 
# 
# 
# High freq. dielectric constant tensor:
#      x y z
#    x 1.710600 0.000000 0.001010 
#    y 0.000000 1.704250 0.000000 
#    z 0.001010 0.000000 1.704620 
# 
# From -- ./inp_files/308890.got.cif
#   From: 2010.06.25/outbox.cif.g09.slc.cpg/sg12_155_cif.got.tgz:308890.got - 2010.06.28 00:19:55.
