data_PCOD8101744
_publ_section_title
;
Structure prediction by ZEFSAII (Michael W. Deem and Ramdas Pophale) SiO2 
 PCOD8101744
Probable space group: C 2/M
;
_chemical_formula_sum "Si O2"
_cell_formula_units_Z 56
_cell_length_a 17.793685
_cell_length_b 18.217744
_cell_length_c 9.564255
_cell_angle_alpha 90.000000
_cell_angle_beta 105.989984
_cell_angle_gamma 90.000000
_cell_volume 2980.403325
_symmetry_space_group_name_H-M "C 2/M"
_symmetry_group_IT_number 12
_symmetry_cell_setting 'monoclinic'
loop_
_space_group_symop_operation_xyz
x,y,z
-x,y,-z
-x,-y,-z
x,-y,z
1/2+x,1/2+y,z
1/2-x,1/2+y,-z
1/2-x,1/2-y,-z
1/2+x,1/2-y,z
loop_
_atom_site_type_symbol
_atom_site_label
_atom_site_fract_x
_atom_site_fract_y
_atom_site_fract_z
Si Si1 0.803126 0.178618 0.672770
Si Si2 0.468314 0.276881 0.828748
Si Si3 0.321368 0.305227 0.373647
Si Si4 0.444657 0.192831 0.347686
Si Si5 0.962687 0.921564 0.132698
Si Si6 0.804128 0.585990 0.202268
Si Si7 0.211144 0.917078 0.885516
O O1 0.875193 0.216623 0.789623
O O2 0.736818 0.238738 0.639235
O O3 0.829045 0.155748 0.528827
O O4 0.768059 0.107757 0.733307
O O5 0.498159 0.208068 0.754003
O O6 0.499690 0.352075 0.770058
O O7 0.500000 0.266409 0.000000
O O8 0.403477 0.269620 0.369189
O O9 0.288226 0.363295 0.246029
O O10 0.500000 0.163504 0.500000
O O11 0.383177 0.129775 0.276538
O O12 0.869967 0.910484 0.072151
O O13 0.980577 0.000000 0.218307
O O14 0.000000 0.923680 0.000000
O O15 0.820330 0.500000 0.230788
O O16 0.779360 0.604425 0.029761
O O17 0.224032 0.000000 0.837090
#
# Coordination Sequence:
#
# PCOD8101744 Si02
#       7
#     8   8   8   8   8   8   8
#     4  10  22  36  58  82 118 151 190 239 288 348
#     4  11  21  33  57  90 113 151 191 237 291 341
#     4  10  21  38  56  84 116 151 190 236 294 342
#     4  11  22  39  60  83 119 154 191 245 287 347
#     4   9  17  30  50  81 118 145 174 225 281 335
#     4  10  23  40  61  87 113 154 201 241 289 342
#     4  10  20  36  59  85 115 150 191 235 281 342
#
# _framework density 18.789403
#
# number of rings (size 3 to 8) (size 9 to 14) (size 15 to 20)
#    0.000    1.857    2.857    1.714    2.000    3.714 
#    0.000    0.000    0.000    3.000    0.000    0.000 
#    0.000    0.000    0.000    0.000    0.000    0.000 
#
# Total GULP energy -347029.440440 kJ/mol
# GULP energy per Si atom -12393.908587 kJ/mol
# Density = 1.874664 g / cm^3
# Si number density = 18.789403 Si / 1000 Ang^3
#
#
#
# Elastic Constant Matrix: (Units=GPa)
#
#
# Indices 1 2 3 4 5 6 
#
# 1 70.1314 15.4474 26.9503 0.0000 1.5937 0.0000
# 2 15.4474 64.8923 32.9899 0.0000 -13.9994 0.0000
# 3 26.9503 32.9899 113.2546 0.0000 -2.1311 0.0000
# 4 0.0000 0.0000 0.0000 24.1500 0.0000 4.5782
# 5 1.5937 -13.9994 -2.1311 0.0000 23.7827 0.0000
# 6 0.0000 0.0000 0.0000 4.5782 0.0000 9.4608
#
#
#
# Elastic Compliance Matrix: (Units=1/GPa)
#
#
# Indices 1 2 3 4 5 6 
#
# 1 0.016151 -0.002970 -0.003036 0.000000 -0.003103 0.000000
# 2 -0.002970 0.021491 -0.005321 0.000000 0.012373 0.000000
# 3 -0.003036 -0.005321 0.011066 0.000000 -0.001937 0.000000
# 4 0.000000 0.000000 0.000000 0.045590 0.000000 -0.022062
# 5 -0.003103 0.012373 -0.001937 0.000000 0.049365 0.000000
# 6 0.000000 0.000000 0.000000 -0.022062 0.000000 0.116376
#
#
# Mechanical properties :
#
#
# Convention : Reuss Voigt Hill
#
# Bulk Modulus (GPa) = 38.38341 44.33928 41.36135
# Shear Modulus (GPa) = 17.15990 23.00475 20.08232
#
# Velocity S-wave (km/s) = 3.02532 3.50286 3.27281
# Velocity P-wave (km/s) = 5.71629 6.32529 6.02849
#
# Compressibility (1/GPa) = 0.02605292
#
# Stress axis : x y z
#
# Youngs Moduli (GPa) = 61.91745 46.53045 90.37035
#
# Poissons Ratio (x) = 0.13821 0.27440
# Poissons Ratio (y) = 0.18392 0.48082
# Poissons Ratio (z) = 0.18800 0.24757
#
# Static dielectric constant tensor:
#      x y z
#    x 3.535340 0.000000 -0.040260 
#    y 0.000000 3.605000 0.000000 
#    z -0.040260 0.000000 3.448060 
# 
# 
# High freq. dielectric constant tensor:
#      x y z
#    x 1.733330 0.000000 0.004320 
#    y 0.000000 1.718660 0.000000 
#    z 0.004320 0.000000 1.722940 
# 
# From -- ./inp_files/76009.got.cif
#   From: 2010.06.25/outbox.cif.g09.slc.cpg/sg12_39_cif.got.tgz:76009.got - 2010.06.28 00:19:55.
