data_PCOD8101606
_publ_section_title
;
Structure prediction by ZEFSAII (Michael W. Deem and Ramdas Pophale) SiO2 
 PCOD8101606
Probable space group: C 2/M
;
_chemical_formula_sum "Si O2"
_cell_formula_units_Z 56
_cell_length_a 27.454087
_cell_length_b 9.279444
_cell_length_c 17.914617
_cell_angle_alpha 90.000000
_cell_angle_beta 37.356342
_cell_angle_gamma 90.000000
_cell_volume 2769.241499
_symmetry_space_group_name_H-M "C 2/M"
_symmetry_group_IT_number 12
_symmetry_cell_setting 'monoclinic'
loop_
_space_group_symop_operation_xyz
x,y,z
-x,y,-z
-x,-y,-z
x,-y,z
1/2+x,1/2+y,z
1/2-x,1/2+y,-z
1/2-x,1/2-y,-z
1/2+x,1/2-y,z
loop_
_atom_site_type_symbol
_atom_site_label
_atom_site_fract_x
_atom_site_fract_y
_atom_site_fract_z
Si Si1 0.497107 0.159618 0.091246
Si Si2 0.823039 0.662094 0.115827
Si Si3 0.230898 0.161413 0.682841
Si Si4 0.405130 0.835098 0.434731
Si Si5 0.213846 0.170902 0.116083
Si Si6 0.627959 0.332987 0.673361
Si Si7 0.030371 0.830555 0.380568
O O1 0.447368 0.292115 0.183610
O O2 0.461283 0.000000 0.154017
O O3 0.500000 0.178747 0.000000
O O4 0.584933 0.170650 0.021488
O O5 0.794014 0.500000 0.164997
O O6 0.815394 0.738506 0.204102
O O7 0.767628 0.729441 0.118948
O O8 0.325918 0.173985 0.582420
O O9 0.207689 0.201903 0.625354
O O10 0.200497 0.000000 0.734792
O O11 0.376989 0.767279 0.391874
O O12 0.477313 0.749023 0.383716
O O13 0.432388 0.000000 0.389102
O O14 0.122258 0.211796 0.249651
O O15 0.222685 0.000000 0.092751
O O16 0.250000 0.250000 0.000000
O O17 0.623442 0.500000 0.655035
O O18 0.000000 0.781133 0.500000
O O19 0.016754 0.000000 0.388325
#
# Coordination Sequence:
#
# PCOD8101606 Si02
#       7
#     8   8   8   8   8   8   8
#     4  10  20  36  58  88 121 155 195 240 292 354
#     4  10  21  38  62  87 117 158 200 240 292 357
#     4  10  22  39  59  88 121 156 197 243 295 357
#     4  11  24  40  61  88 120 156 199 249 302 357
#     4  10  23  41  62  91 123 160 203 252 308 363
#     4  11  23  38  58  86 122 159 197 241 296 356
#     4  10  22  43  67  91 121 158 208 260 309 367
#
# _framework density 20.222144
#
# number of rings (size 3 to 8) (size 9 to 14) (size 15 to 20)
#    0.000    1.714    1.429    2.143    2.000    5.143 
#    0.000    0.000    0.000    0.000    0.000    0.000 
#    0.000    0.000    0.000    0.000    0.000    0.000 
#
# Total GULP energy -347130.385512 kJ/mol
# GULP energy per Si atom -12397.513768 kJ/mol
# Density = 2.017612 g / cm^3
# Si number density = 20.222144 Si / 1000 Ang^3
#
#
#
# Elastic Constant Matrix: (Units=GPa)
#
#
# Indices 1 2 3 4 5 6 
#
# 1 124.8538 40.2757 36.5638 -0.0014 -11.2220 0.0004
# 2 40.2757 51.8852 26.2218 -0.0074 -0.9135 0.0005
# 3 36.5638 26.2218 87.2849 -0.0028 -5.7606 0.0007
# 4 -0.0014 -0.0074 -0.0028 33.5512 0.0023 3.3599
# 5 -11.2220 -0.9135 -5.7606 0.0023 33.4718 0.0004
# 6 0.0004 0.0005 0.0007 3.3599 0.0004 29.7843
#
#
#
# Elastic Compliance Matrix: (Units=1/GPa)
#
#
# Indices 1 2 3 4 5 6 
#
# 1 0.011442 -0.007676 -0.002274 -0.000002 0.003235 0.000000
# 2 -0.007676 0.027883 -0.005341 0.000006 -0.002732 -0.000001
# 3 -0.002274 -0.005341 0.014114 0.000000 0.001521 0.000000
# 4 -0.000002 0.000006 0.000000 0.030146 -0.000002 -0.003401
# 5 0.003235 -0.002732 0.001521 -0.000002 0.031148 0.000000
# 6 0.000000 -0.000001 0.000000 -0.003401 0.000000 0.033958
#
#
# Mechanical properties :
#
#
# Convention : Reuss Voigt Hill
#
# Bulk Modulus (GPa) = 43.74922 52.23850 47.99386
# Shear Modulus (GPa) = 26.75340 30.09231 28.42285
#
# Velocity S-wave (km/s) = 3.64122 3.86176 3.75311
# Velocity P-wave (km/s) = 6.27369 6.76555 6.52426
#
# Compressibility (1/GPa) = 0.02285755
#
# Stress axis : x y z
#
# Youngs Moduli (GPa) = 87.39640 35.86416 70.85076
#
# Poissons Ratio (x) = 0.27529 0.16109
# Poissons Ratio (y) = 0.67084 0.37844
# Poissons Ratio (z) = 0.19871 0.19156
#
# Static dielectric constant tensor:
#      x y z
#    x 3.825020 -0.000010 -0.185530 
#    y -0.000010 3.618360 0.000020 
#    z -0.185530 0.000020 3.780680 
# 
# 
# High freq. dielectric constant tensor:
#      x y z
#    x 1.801770 0.000000 -0.008560 
#    y 0.000000 1.785520 0.000000 
#    z -0.008560 0.000000 1.788140 
# 
# From -- ./inp_files/292424.got.cif
#   From: 2010.06.25/outbox.cif.g09.slc.cpg/sg12_147_cif.got.tgz:292424.got - 2010.06.28 00:19:55.
