data_PCOD8101811
_publ_section_title
;
Structure prediction by ZEFSAII (Michael W. Deem and Ramdas Pophale) SiO2 
 PCOD8101811
Probable space group: C 2/M
;
_chemical_formula_sum "Si O2"
_cell_formula_units_Z 64
_cell_length_a 17.246470
_cell_length_b 24.095753
_cell_length_c 14.689634
_cell_angle_alpha 90.000000
_cell_angle_beta 150.898267
_cell_angle_gamma 90.000000
_cell_volume 2969.006581
_symmetry_space_group_name_H-M "C 2/M"
_symmetry_group_IT_number 12
_symmetry_cell_setting 'monoclinic'
loop_
_space_group_symop_operation_xyz
x,y,z
-x,y,-z
-x,-y,-z
x,-y,z
1/2+x,1/2+y,z
1/2-x,1/2+y,-z
1/2-x,1/2-y,-z
1/2+x,1/2-y,z
loop_
_atom_site_type_symbol
_atom_site_label
_atom_site_fract_x
_atom_site_fract_y
_atom_site_fract_z
Si Si1 0.183525 0.277448 0.753870
Si Si2 0.270266 0.062271 0.019086
Si Si3 0.045291 0.563407 0.443481
Si Si4 0.166194 0.559505 0.119450
Si Si5 0.386631 0.263123 0.543942
Si Si6 0.190119 0.674138 0.200794
Si Si7 0.084391 0.164234 0.883286
Si Si8 0.271778 0.661877 0.659013
O O1 0.258843 0.216083 0.826029
O O2 0.238695 0.314329 0.724839
O O3 0.993788 0.268302 0.574734
O O4 0.254535 0.308076 0.914903
O O5 0.391943 0.074896 0.225081
O O6 0.199927 0.000000 0.957934
O O7 0.362247 0.068186 0.017633
O O8 0.125895 0.106222 0.876558
O O9 0.105085 0.500000 0.496078
O O10 0.185698 0.603462 0.553917
O O11 0.000000 0.578417 0.500000
O O12 0.256088 0.500000 0.227907
O O13 0.263193 0.612589 0.256971
O O14 0.000000 0.556374 0.000000
O O15 0.262598 0.306175 0.371254
O O16 0.505954 0.292418 0.733740
O O17 0.284474 0.209296 0.474669
O O18 0.000000 0.671029 0.000000
O O19 0.959609 0.151998 0.836699
#
# Coordination Sequence:
#
# PCOD8101811 Si02
#       8
#     8   8   8   8   8   8   8   8
#     4  11  22  39  60  83 119 162 201 246 300 359
#     4  10  22  40  61  88 123 160 202 251 301 358
#     4  10  21  39  63  89 120 162 208 252 302 360
#     4   9  19  37  62  88 114 152 201 248 297 357
#     4  11  23  38  58  87 119 155 201 250 301 362
#     4  10  20  36  59  86 119 151 191 247 304 353
#     4  12  24  38  60  89 123 159 200 246 306 367
#     4  11  22  37  58  87 121 153 199 251 301 360
#
# _framework density 21.556031000000001
#
# number of rings (size 3 to 8) (size 9 to 14) (size 15 to 20)
#    0.000    1.500    0.000    7.125    0.000    3.500 
#    0.000    0.625    0.000    6.750    0.000    0.000 
#    0.000    0.000    0.000    0.000    0.000    0.000 
#
# Total GULP energy -396588.664818 kJ/mol
# GULP energy per Si atom -12393.395776 kJ/mol
# Density = 2.150697 g / cm^3
# Si number density = 21.556031 Si / 1000 Ang^3
#
#
#
# Elastic Constant Matrix: (Units=GPa)
#
#
# Indices 1 2 3 4 5 6 
#
# 1 72.4983 36.8924 26.8370 0.0000 1.8240 0.0000
# 2 36.8924 173.0579 39.1429 0.0000 6.2645 0.0000
# 3 26.8370 39.1429 72.4764 0.0000 -1.0952 0.0000
# 4 0.0000 0.0000 0.0000 27.5105 0.0000 3.5940
# 5 1.8240 6.2645 -1.0952 0.0000 30.2893 0.0000
# 6 0.0000 0.0000 0.0000 3.5940 0.0000 21.9793
#
#
#
# Elastic Compliance Matrix: (Units=1/GPa)
#
#
# Indices 1 2 3 4 5 6 
#
# 1 0.016889 -0.002459 -0.004936 0.000000 -0.000687 0.000000
# 2 -0.002459 0.007009 -0.002896 0.000000 -0.001406 0.000000
# 3 -0.004936 -0.002896 0.017212 0.000000 0.001519 0.000000
# 4 0.000000 0.000000 0.000000 0.037143 0.000000 -0.006074
# 5 -0.000687 -0.001406 0.001519 0.000000 0.033402 0.000000
# 6 0.000000 0.000000 0.000000 -0.006074 0.000000 0.046490
#
#
# Mechanical properties :
#
#
# Convention : Reuss Voigt Hill
#
# Bulk Modulus (GPa) = 48.71399 58.19746 53.45572
# Shear Modulus (GPa) = 26.94389 30.29983 28.62186
#
# Velocity S-wave (km/s) = 3.53929 3.75324 3.64784
# Velocity P-wave (km/s) = 6.27296 6.77047 6.52646
#
# Compressibility (1/GPa) = 0.02052799
#
# Stress axis : x y z
#
# Youngs Moduli (GPa) = 59.20904 142.68312 58.09798
#
# Poissons Ratio (x) = 0.35087 0.28678
# Poissons Ratio (y) = 0.14560 0.16824
# Poissons Ratio (z) = 0.29226 0.41319
#
# Static dielectric constant tensor:
#      x y z
#    x 4.005790 0.000000 0.014000 
#    y 0.000000 4.558340 0.000000 
#    z 0.014000 0.000000 3.675370 
# 
# 
# High freq. dielectric constant tensor:
#      x y z
#    x 1.848790 0.000000 -0.004040 
#    y 0.000000 1.867440 0.000000 
#    z -0.004040 0.000000 1.827970 
# 
# From -- ./inp_files/228172.got.cif
#   From: 2010.06.25/outbox.cif.g09.slc.cpg/sg12_115_cif.got.tgz:228172.got - 2010.06.28 00:19:55.
