data_PCOD8101459
_publ_section_title
;
Structure prediction by ZEFSAII (Michael W. Deem and Ramdas Pophale) SiO2 
 PCOD8101459
Probable space group: C 2/M
;
_chemical_formula_sum "Si O2"
_cell_formula_units_Z 48
_cell_length_a 28.800625
_cell_length_b 15.345118
_cell_length_c 10.084038
_cell_angle_alpha 90.000000
_cell_angle_beta 29.585474
_cell_angle_gamma 90.000000
_cell_volume 2200.333848
_symmetry_space_group_name_H-M "C 2/M"
_symmetry_group_IT_number 12
_symmetry_cell_setting 'monoclinic'
loop_
_space_group_symop_operation_xyz
x,y,z
-x,y,-z
-x,-y,-z
x,-y,z
1/2+x,1/2+y,z
1/2-x,1/2+y,-z
1/2-x,1/2-y,-z
1/2+x,1/2-y,z
loop_
_atom_site_type_symbol
_atom_site_label
_atom_site_fract_x
_atom_site_fract_y
_atom_site_fract_z
Si Si1 0.262333 0.896493 0.335851
Si Si2 0.066540 0.898644 0.951954
Si Si3 0.451845 0.903054 0.993112
Si Si4 0.757949 0.158110 0.905761
Si Si5 0.062435 0.369299 0.465310
Si Si6 0.039167 0.836054 0.538755
O O1 0.174360 0.878280 0.649906
O O2 0.252927 0.838072 0.226931
O O3 0.269591 0.000000 0.282577
O O4 0.354796 0.859944 0.182904
O O5 0.048483 0.000000 0.021157
O O6 0.000000 0.864043 0.000000
O O7 0.038295 0.848934 0.155423
O O8 0.527698 0.908828 0.688353
O O9 0.424869 0.000000 0.107627
O O10 0.500000 0.853569 0.000000
O O11 0.860838 0.116713 0.678474
O O12 0.750000 0.250000 0.000000
O O13 0.670869 0.100248 0.176153
O O14 0.056550 0.265712 0.481207
O O15 0.000000 0.407175 0.500000
O O16 0.000000 0.876544 0.500000
#
# Coordination Sequence:
#
# PCOD8101459 Si02
#       6
#     8   8   8   8   8   8
#     4  10  20  37  63  89 117 155 199 241 290 353
#     4  10  20  36  58  83 113 152 196 238 288 351
#     4  10  22  39  58  86 121 150 188 245 296 345
#     4  10  20  36  58  84 118 152 191 243 287 342
#     4  10  20  37  59  82 115 153 196 235 288 350
#     4  10  22  37  56  84 120 151 192 244 290 341
#
# _framework density 21.814871
#
# number of rings (size 3 to 8) (size 9 to 14) (size 15 to 20)
#    0.000    2.000    3.333    0.000    0.000    3.333 
#    0.000    0.833    0.000    0.000    0.000    0.000 
#    0.000    0.000    0.000    0.000    0.000    0.000 
#
# Total GULP energy -297472.018347 kJ/mol
# GULP energy per Si atom -12394.667431 kJ/mol
# Density = 2.176522 g / cm^3
# Si number density = 21.814871 Si / 1000 Ang^3
#
#
#
# Elastic Constant Matrix: (Units=GPa)
#
#
# Indices 1 2 3 4 5 6 
#
# 1 212.8802 18.6833 96.5135 0.0000 -2.1002 0.0000
# 2 18.6833 25.5149 13.0899 0.0000 -0.9249 0.0000
# 3 96.5135 13.0899 191.4342 0.0000 -7.0889 0.0000
# 4 0.0000 0.0000 0.0000 24.6496 0.0000 8.9759
# 5 -2.1002 -0.9249 -7.0889 0.0000 47.0459 0.0000
# 6 0.0000 0.0000 0.0000 8.9759 0.0000 18.5014
#
#
#
# Elastic Compliance Matrix: (Units=1/GPa)
#
#
# Indices 1 2 3 4 5 6 
#
# 1 0.006320 -0.003106 -0.002982 0.000000 -0.000228 0.000000
# 2 -0.003106 0.042151 -0.001298 0.000000 0.000494 0.000000
# 3 -0.002982 -0.001298 0.006848 0.000000 0.000873 0.000000
# 4 0.000000 0.000000 0.000000 0.049273 0.000000 -0.023905
# 5 -0.000228 0.000494 0.000873 0.000000 0.021387 0.000000
# 6 0.000000 0.000000 0.000000 -0.023905 0.000000 0.065647
#
#
# Mechanical properties :
#
#
# Convention : Reuss Voigt Hill
#
# Bulk Modulus (GPa) = 24.66292 76.26698 50.46495
# Shear Modulus (GPa) = 22.73603 38.14221 30.43912
#
# Velocity S-wave (km/s) = 3.23186 4.18598 3.73947
# Velocity P-wave (km/s) = 5.02560 7.64200 6.46749
#
# Compressibility (1/GPa) = 0.04054670
#
# Stress axis : x y z
#
# Youngs Moduli (GPa) = 158.22990 23.72422 146.01983
#
# Poissons Ratio (x) = 0.07369 0.43548
# Poissons Ratio (y) = 0.49147 0.18953
# Poissons Ratio (z) = 0.47189 0.03079
#
# Static dielectric constant tensor:
#      x y z
#    x 4.304110 0.000000 -0.341750 
#    y 0.000000 3.466180 0.000000 
#    z -0.341750 0.000000 4.258510 
# 
# 
# High freq. dielectric constant tensor:
#      x y z
#    x 1.864520 0.000000 -0.008370 
#    y 0.000000 1.817990 0.000000 
#    z -0.008370 0.000000 1.876110 
# 
# From -- ./inp_files/77299.got.cif
#   From: 2010.06.25/outbox.cif.g09.slc.cpg/sg12_39_cif.got.tgz:77299.got - 2010.06.28 00:19:55.
