data_PCOD8101103
_publ_section_title
;
Structure prediction by ZEFSAII (Michael W. Deem and Ramdas Pophale) SiO2 
 PCOD8101103
Probable space group: C 2/M
;
_chemical_formula_sum "Si O2"
_cell_formula_units_Z 56
_cell_length_a 17.073346
_cell_length_b 21.812542
_cell_length_c 14.421992
_cell_angle_alpha 90.000000
_cell_angle_beta 147.640679
_cell_angle_gamma 90.000000
_cell_volume 2874.672339
_symmetry_space_group_name_H-M "C 2/M"
_symmetry_group_IT_number 12
_symmetry_cell_setting 'monoclinic'
loop_
_space_group_symop_operation_xyz
x,y,z
-x,y,-z
-x,-y,-z
x,-y,z
1/2+x,1/2+y,z
1/2-x,1/2+y,-z
1/2-x,1/2-y,-z
1/2+x,1/2-y,z
loop_
_atom_site_type_symbol
_atom_site_label
_atom_site_fract_x
_atom_site_fract_y
_atom_site_fract_z
Si Si1 0.578818 0.644764 0.987831
Si Si2 0.918152 0.782883 0.329464
Si Si3 0.081848 0.282883 0.993160
Si Si4 0.575672 0.500000 0.475982
Si Si5 0.580922 0.604007 0.791791
Si Si6 0.578818 0.855236 0.669804
Si Si7 0.919078 0.395993 0.129947
Si Si8 0.575672 0.000000 0.175362
O O1 0.750000 0.643504 0.178122
O O2 0.500000 0.617407 0.000000
O O3 0.524366 0.714375 0.913655
O O4 0.540468 0.603117 0.860326
O O5 0.944282 0.826494 0.267753
O O6 0.975634 0.714375 0.364923
O O7 0.000000 0.811251 0.500000
O O8 0.750000 0.780493 0.188848
O O9 0.055718 0.326494 0.879190
O O10 0.000000 0.311251 0.000000
O O11 0.500000 0.500000 0.500000
O O12 0.526810 0.559458 0.370165
O O13 0.750000 0.500000 0.662776
O O14 0.750000 0.584022 0.945051
O O15 0.500000 0.882593 0.500000
O O16 0.540468 0.896883 0.720610
O O17 0.026810 0.440542 0.183454
O O18 0.500000 0.000000 0.000000
#
# Coordination Sequence:
#
# PCOD8101103 Si02
#       8
#     8   8   8   4   8   8   8   4
#     4   9  18  33  54  81 112 143 176 218 266 317
#     4   9  17  30  51  80 111 142 175 214 264 319
#     4   9  17  30  51  80 111 142 175 214 264 319
#     4  12  26  42  59  80 107 138 177 222 266 314
#     4  10  20  36  57  79 107 144 183 221 265 315
#     4   9  18  33  54  81 112 143 176 218 266 317
#     4  10  20  36  57  79 107 144 183 221 265 315
#     4  12  26  42  59  80 107 138 177 222 266 314
#
# _framework density 19.480481999999999
#
# number of rings (size 3 to 8) (size 9 to 14) (size 15 to 20)
#    0.000    2.286    0.000    3.000    0.000    8.000 
#    0.000    0.714    0.000    8.571    0.000    0.000 
#    0.000    0.000    0.000    0.000    0.000    0.000 
#
# Total GULP energy -347172.086662 kJ/mol
# GULP energy per Si atom -12399.003095 kJ/mol
# Density = 1.943614 g / cm^3
# Si number density = 19.480482 Si / 1000 Ang^3
#
#
#
# Elastic Constant Matrix: (Units=GPa)
#
#
# Indices 1 2 3 4 5 6 
#
# 1 146.5946 43.4144 61.0912 0.0000 -13.6515 0.0000
# 2 43.4144 59.4325 39.4772 0.0000 -3.9732 0.0000
# 3 61.0912 39.4772 112.6272 0.0000 -20.6262 0.0000
# 4 0.0000 0.0000 0.0000 27.0769 0.0000 0.3171
# 5 -13.6515 -3.9732 -20.6262 0.0000 28.9493 0.0000
# 6 0.0000 0.0000 0.0000 0.3171 0.0000 26.7628
#
#
#
# Elastic Compliance Matrix: (Units=1/GPa)
#
#
# Indices 1 2 3 4 5 6 
#
# 1 0.009786 -0.004835 -0.003323 0.000000 0.001583 0.000000
# 2 -0.004835 0.024526 -0.006642 0.000000 -0.003646 0.000000
# 3 -0.003323 -0.006642 0.014440 0.000000 0.007809 0.000000
# 4 0.000000 0.000000 0.000000 0.036937 0.000000 -0.000438
# 5 0.001583 -0.003646 0.007809 0.000000 0.040353 0.000000
# 6 0.000000 0.000000 0.000000 -0.000438 0.000000 0.037371
#
#
# Mechanical properties :
#
#
# Convention : Reuss Voigt Hill
#
# Bulk Modulus (GPa) = 52.21645 67.40219 59.80932
# Shear Modulus (GPa) = 25.07576 28.20257 26.63916
#
# Velocity S-wave (km/s) = 3.59168 3.80904 3.70196
# Velocity P-wave (km/s) = 6.63799 7.34983 7.00296
#
# Compressibility (1/GPa) = 0.01915105
#
# Stress axis : x y z
#
# Youngs Moduli (GPa) = 102.18847 40.77371 69.25373
#
# Poissons Ratio (x) = 0.19714 0.23015
# Poissons Ratio (y) = 0.49409 0.45996
# Poissons Ratio (z) = 0.33961 0.27080
#
# Static dielectric constant tensor:
#      x y z
#    x 3.650200 0.000000 -0.111510 
#    y 0.000000 3.433480 0.000000 
#    z -0.111510 0.000000 3.539700 
# 
# 
# High freq. dielectric constant tensor:
#      x y z
#    x 1.761860 0.000000 -0.011030 
#    y 0.000000 1.740620 0.000000 
#    z -0.011030 0.000000 1.750930 
# 
# From -- ./inp_files/227667.got.cif
#   From: 2010.06.25/outbox.cif.g09.slc.cpg/sg12_114_cif.got.tgz:227667.got - 2010.06.28 00:19:55.
