data_PCOD8101373
_publ_section_title
;
Structure prediction by ZEFSAII (Michael W. Deem and Ramdas Pophale) SiO2 
 PCOD8101373
Probable space group: C 2/M
;
_chemical_formula_sum "Si O2"
_cell_formula_units_Z 48
_cell_length_a 5.194426
_cell_length_b 17.624825
_cell_length_c 26.376519
_cell_angle_alpha 90.000000
_cell_angle_beta 75.929011
_cell_angle_gamma 90.000000
_cell_volume 2342.337444
_symmetry_space_group_name_H-M "C 2/M"
_symmetry_group_IT_number 12
_symmetry_cell_setting 'monoclinic'
loop_
_space_group_symop_operation_xyz
x,y,z
-x,y,-z
-x,-y,-z
x,-y,z
1/2+x,1/2+y,z
1/2-x,1/2+y,-z
1/2-x,1/2-y,-z
1/2+x,1/2-y,z
loop_
_atom_site_type_symbol
_atom_site_label
_atom_site_fract_x
_atom_site_fract_y
_atom_site_fract_z
Si Si1 0.573377 0.589641 0.441783
Si Si2 0.735271 0.697474 0.720845
Si Si3 0.847745 0.590318 0.621723
Si Si4 0.645877 0.412650 0.817835
Si Si5 0.652811 0.780094 0.058784
Si Si6 0.935198 0.415521 0.116224
O O1 0.500000 0.625493 0.500000
O O2 0.564404 0.500000 0.446718
O O3 0.361559 0.616797 0.410546
O O4 0.864556 0.616179 0.411520
O O5 0.499355 0.754433 0.718165
O O6 0.783832 0.636252 0.674978
O O7 0.654964 0.647733 0.772806
O O8 0.833311 0.500000 0.633455
O O9 0.647569 0.500000 0.797538
O O10 0.903751 0.398215 0.840085
O O11 0.374227 0.398003 0.861464
O O12 0.390829 0.731720 0.087484
O O13 0.556698 0.866772 0.064029
O O14 0.750000 0.750000 0.000000
O O15 0.983441 0.500000 0.095336
#
# Coordination Sequence:
#
# PCOD8101373 Si02
#       6
#     8   8   8   8   8   8
#     4   9  17  31  56  87 110 138 191 246 284 327
#     4  12  25  39  57  84 117 151 188 232 284 345
#     4  10  20  36  58  81 112 151 186 232 288 339
#     4  10  22  40  61  86 114 148 191 237 285 339
#     4  10  21  37  56  83 116 152 189 228 276 330
#     4  10  21  38  61  86 114 148 189 237 283 331
#
# _framework density 20.492349999999998
#
# number of rings (size 3 to 8) (size 9 to 14) (size 15 to 20)
#    0.000    1.833    0.000    4.000    0.000    6.000 
#    0.000   10.000    0.000   10.000    0.000    0.000 
#    0.000    0.000    0.000    0.000    0.000    0.000 
#
# Total GULP energy -297453.582271 kJ/mol
# GULP energy per Si atom -12393.899261 kJ/mol
# Density = 2.044571 g / cm^3
# Si number density = 20.492350 Si / 1000 Ang^3
#
#
#
# Elastic Constant Matrix: (Units=GPa)
#
#
# Indices 1 2 3 4 5 6 
#
# 1 149.5099 23.9275 17.8824 0.0000 -8.0018 0.0000
# 2 23.9275 85.3607 50.6708 0.0000 -10.3622 0.0000
# 3 17.8824 50.6708 82.0061 0.0000 -8.5346 0.0000
# 4 0.0000 0.0000 0.0000 16.5847 0.0000 -3.9179
# 5 -8.0018 -10.3622 -8.5346 0.0000 24.1257 0.0000
# 6 0.0000 0.0000 0.0000 -3.9179 0.0000 21.5002
#
#
#
# Elastic Compliance Matrix: (Units=1/GPa)
#
#
# Indices 1 2 3 4 5 6 
#
# 1 0.007068 -0.001540 -0.000431 0.000000 0.001531 0.000000
# 2 -0.001540 0.019226 -0.011148 0.000000 0.003803 0.000000
# 3 -0.000431 -0.011148 0.019376 0.000000 0.001924 0.000000
# 4 0.000000 0.000000 0.000000 0.063009 0.000000 0.011482
# 5 0.001531 0.003803 0.001924 0.000000 0.044271 0.000000
# 6 0.000000 0.000000 0.000000 0.011482 0.000000 0.048604
#
#
# Mechanical properties :
#
#
# Convention : Reuss Voigt Hill
#
# Bulk Modulus (GPa) = 51.45618 55.75978 53.60798
# Shear Modulus (GPa) = 21.34301 27.40186 24.37243
#
# Velocity S-wave (km/s) = 3.23075 3.66071 3.45243
# Velocity P-wave (km/s) = 6.25151 6.71839 6.48915
#
# Compressibility (1/GPa) = 0.01943401
#
# Stress axis : x y z
#
# Youngs Moduli (GPa) = 141.47489 52.01358 51.60915
#
# Poissons Ratio (x) = 0.08010 0.02222
# Poissons Ratio (y) = 0.21787 0.57533
# Poissons Ratio (z) = 0.06091 0.57984
#
# Static dielectric constant tensor:
#      x y z
#    x 4.379620 0.000000 -0.079580 
#    y 0.000000 3.731340 0.000000 
#    z -0.079580 0.000000 3.544610 
# 
# 
# High freq. dielectric constant tensor:
#      x y z
#    x 1.833310 0.000000 -0.003460 
#    y 0.000000 1.793740 0.000000 
#    z -0.003460 0.000000 1.786750 
# 
# From -- ./inp_files/331046.got.cif
#   From: 2010.06.25/outbox.cif.g09.slc.cpg/sg12_166_cif.got.tgz:331046.got - 2010.06.28 00:19:55.
