data_PCOD8101419
_publ_section_title
;
Structure prediction by ZEFSAII (Michael W. Deem and Ramdas Pophale) SiO2 
 PCOD8101419
Probable space group: C 2/M
;
_chemical_formula_sum "Si O2"
_cell_formula_units_Z 32
_cell_length_a 14.477610
_cell_length_b 16.142525
_cell_length_c 20.218238
_cell_angle_alpha 90.000000
_cell_angle_beta 19.487974
_cell_angle_gamma 90.000000
_cell_volume 1576.338203
_symmetry_space_group_name_H-M "C 2/M"
_symmetry_group_IT_number 12
_symmetry_cell_setting 'monoclinic'
loop_
_space_group_symop_operation_xyz
x,y,z
-x,y,-z
-x,-y,-z
x,-y,z
1/2+x,1/2+y,z
1/2-x,1/2+y,-z
1/2-x,1/2-y,-z
1/2+x,1/2-y,z
loop_
_atom_site_type_symbol
_atom_site_label
_atom_site_fract_x
_atom_site_fract_y
_atom_site_fract_z
Si Si1 0.241906 0.311078 0.066043
Si Si2 0.989058 0.811210 0.318582
Si Si3 0.310469 0.597730 0.305885
Si Si4 0.843674 0.097759 0.539701
O O1 0.248804 0.249887 0.125784
O O2 0.961279 0.364276 0.255900
O O3 0.250000 0.250000 0.000000
O O4 0.504249 0.371990 0.881928
O O5 0.750000 0.750000 0.500000
O O6 0.907347 0.864142 0.309470
O O7 0.038255 0.872447 0.347103
O O8 0.337239 0.500000 0.293568
O O9 0.000000 0.626327 0.500000
O O10 0.000000 0.126883 0.500000
O O11 0.812697 0.000000 0.556878
#
# Coordination Sequence:
#
# PCOD8101419 Si02
#       4
#     8   8   8   8
#     4   9  19  35  55  81 111 144 182 227 274 326
#     4   9  19  35  55  81 111 144 182 227 274 326
#     4  10  20  36  58  82 112 148 184 227 277 329
#     4  10  20  36  58  82 112 148 184 227 277 329
#
# _framework density 20.300211000000001
#
# number of rings (size 3 to 8) (size 9 to 14) (size 15 to 20)
#    0.000    2.500    0.000    1.500    0.000    9.000 
#    0.000   17.500    0.000   27.000    0.000    0.000 
#    0.000    0.000    0.000    0.000    0.000    0.000 
#
# Total GULP energy -198260.846806 kJ/mol
# GULP energy per Si atom -12391.302925 kJ/mol
# Density = 2.025401 g / cm^3
# Si number density = 20.300211 Si / 1000 Ang^3
#
#
#
# Elastic Constant Matrix: (Units=GPa)
#
#
# Indices 1 2 3 4 5 6 
#
# 1 107.6053 47.9929 58.2867 0.1979 17.7312 -0.1080
# 2 47.9929 96.5460 58.6357 -0.3475 8.8215 -0.0332
# 3 58.2867 58.6357 125.5093 0.5743 22.2132 -0.0356
# 4 0.1979 -0.3475 0.5743 39.8874 -0.7445 16.8649
# 5 17.7312 8.8215 22.2132 -0.7445 26.8862 0.3525
# 6 -0.1080 -0.0332 -0.0356 16.8649 0.3525 25.1148
#
#
#
# Elastic Compliance Matrix: (Units=1/GPa)
#
#
# Indices 1 2 3 4 5 6 
#
# 1 0.013970 -0.004305 -0.003622 -0.000271 -0.004820 0.000299
# 2 -0.004305 0.015813 -0.005830 0.000428 0.002484 -0.000328
# 3 -0.003622 -0.005830 0.013608 -0.000556 -0.006963 0.000467
# 4 -0.000271 0.000428 -0.000556 0.035091 0.001779 -0.023591
# 5 -0.004820 0.002484 -0.006963 0.001779 0.045384 -0.001859
# 6 0.000299 -0.000328 0.000467 -0.023591 -0.001859 0.055686
#
#
# Mechanical properties :
#
#
# Convention : Reuss Voigt Hill
#
# Bulk Modulus (GPa) = 62.98365 73.27681 68.13023
# Shear Modulus (GPa) = 23.54492 29.36069 26.45281
#
# Velocity S-wave (km/s) = 3.40933 3.80718 3.61374
# Velocity P-wave (km/s) = 6.82580 7.44991 7.14467
#
# Compressibility (1/GPa) = 0.01587714
#
# Stress axis : x y z
#
# Youngs Moduli (GPa) = 71.57967 63.23895 73.48450
#
# Poissons Ratio (x) = 0.27226 0.26618
# Poissons Ratio (y) = 0.30817 0.42840
# Poissons Ratio (z) = 0.25928 0.36867
#
# Static dielectric constant tensor:
#      x y z
#    x 6.531090 -0.032220 -1.037550 
#    y -0.032220 4.213080 0.035890 
#    z -1.037550 0.035890 5.490470 
# 
# 
# High freq. dielectric constant tensor:
#      x y z
#    x 1.773300 0.000040 0.030370 
#    y 0.000040 1.817320 0.000020 
#    z 0.030370 0.000020 1.797270 
# 
# From -- ./inp_files/60012.got.cif
#   From: 2010.06.25/outbox.cif.g09.slc.cpg/sg12_31_cif.got.tgz:60012.got - 2010.06.28 00:19:55.
