data_PCOD8101909
_publ_section_title
;
Structure prediction by ZEFSAII (Michael W. Deem and Ramdas Pophale) SiO2 
 PCOD8101909
Probable space group: C 2/M
;
_chemical_formula_sum "Si O2"
_cell_formula_units_Z 56
_cell_length_a 14.298778
_cell_length_b 20.106442
_cell_length_c 13.586493
_cell_angle_alpha 90.000000
_cell_angle_beta 42.140336
_cell_angle_gamma 90.000000
_cell_volume 2620.782012
_symmetry_space_group_name_H-M "C 2/M"
_symmetry_group_IT_number 12
_symmetry_cell_setting 'monoclinic'
loop_
_space_group_symop_operation_xyz
x,y,z
-x,y,-z
-x,-y,-z
x,-y,z
1/2+x,1/2+y,z
1/2-x,1/2+y,-z
1/2-x,1/2-y,-z
1/2+x,1/2-y,z
loop_
_atom_site_type_symbol
_atom_site_label
_atom_site_fract_x
_atom_site_fract_y
_atom_site_fract_z
Si Si1 0.649158 0.424798 0.416145
Si Si2 0.603534 0.426616 0.677158
Si Si3 0.905076 0.427106 0.477854
Si Si4 0.621918 0.315296 0.152916
Si Si5 0.144580 0.800993 0.913391
Si Si6 0.555482 0.804317 0.348324
Si Si7 0.846260 0.653897 0.127884
O O1 0.500000 0.394998 0.500000
O O2 0.662632 0.500000 0.364969
O O3 0.664317 0.421180 0.520286
O O4 0.771368 0.380863 0.276870
O O5 0.536671 0.500000 0.746827
O O6 0.742688 0.417246 0.634331
O O7 0.491480 0.370780 0.787420
O O8 0.924466 0.500000 0.410642
O O9 0.000000 0.424248 0.500000
O O10 0.960104 0.362804 0.373311
O O11 0.555957 0.260260 0.277398
O O12 0.752582 0.352940 0.101809
O O13 0.664198 0.284320 0.014505
O O14 0.287112 0.835318 0.765692
O O15 0.135784 0.731639 0.860523
O O16 0.000000 0.840760 0.000000
O O17 0.500000 0.783211 0.500000
O O18 0.000000 0.621036 0.000000
#
# Coordination Sequence:
#
# PCOD8101909 Si02
#       7
#     8   8   8   8   8   8   8
#     4  10  20  36  59  91 124 159 205 258 306 375
#     4  10  22  38  63  95 126 164 210 259 319 379
#     4   9  20  39  60  87 124 157 201 268 318 357
#     4  11  23  39  64  89 130 171 206 264 316 378
#     4  10  24  41  59  85 133 165 204 261 323 368
#     4  10  22  38  64  96 122 159 218 260 309 383
#     4  10  21  37  59  85 125 167 200 247 317 377
#
# _framework density 21.367667999999998
#
# number of rings (size 3 to 8) (size 9 to 14) (size 15 to 20)
#    0.000    2.000    1.429    1.714    8.000    4.286 
#    0.000    0.714    0.000    3.429    0.000    0.000 
#    0.000    0.000    0.000    0.000    0.000    0.000 
#
# Total GULP energy -346912.057334 kJ/mol
# GULP energy per Si atom -12389.716333 kJ/mol
# Density = 2.131903 g / cm^3
# Si number density = 21.367668 Si / 1000 Ang^3
#
#
#
# Elastic Constant Matrix: (Units=GPa)
#
#
# Indices 1 2 3 4 5 6 
#
# 1 83.6817 11.8911 18.9373 -0.0021 -18.7611 0.0020
# 2 11.8911 91.7425 34.7168 -0.0019 -9.9376 0.0012
# 3 18.9373 34.7168 101.3913 -0.0032 -13.2331 0.0032
# 4 -0.0021 -0.0019 -0.0032 16.5919 0.0016 -6.6926
# 5 -18.7611 -9.9376 -13.2331 0.0016 46.2879 -0.0014
# 6 0.0020 0.0012 0.0032 -6.6926 -0.0014 25.3395
#
#
#
# Elastic Compliance Matrix: (Units=1/GPa)
#
#
# Indices 1 2 3 4 5 6 
#
# 1 0.013506 -0.000585 -0.001687 0.000001 0.004866 0.000000
# 2 -0.000585 0.012652 -0.004050 0.000001 0.001321 0.000000
# 3 -0.001687 -0.004050 0.011802 0.000001 0.001821 -0.000001
# 4 0.000001 0.000001 0.000001 0.067457 -0.000001 0.017817
# 5 0.004866 0.001321 0.001821 -0.000001 0.024380 0.000000
# 6 0.000000 0.000000 -0.000001 0.017817 0.000000 0.044170
#
#
# Mechanical properties :
#
#
# Convention : Reuss Voigt Hill
#
# Bulk Modulus (GPa) = 39.50209 45.32289 42.41249
# Shear Modulus (GPa) = 25.63438 31.72853 28.68145
#
# Velocity S-wave (km/s) = 3.46740 3.85760 3.66769
# Velocity P-wave (km/s) = 5.87856 6.41081 6.15044
#
# Compressibility (1/GPa) = 0.02531512
#
# Stress axis : x y z
#
# Youngs Moduli (GPa) = 74.04135 79.04066 84.72868
#
# Poissons Ratio (x) = 0.04624 0.14295
# Poissons Ratio (y) = 0.04332 0.34318
# Poissons Ratio (z) = 0.12492 0.32014
#
# Static dielectric constant tensor:
#      x y z
#    x 4.069950 0.000000 -0.410960 
#    y 0.000000 4.070370 0.000010 
#    z -0.410960 0.000010 3.839280 
# 
# 
# High freq. dielectric constant tensor:
#      x y z
#    x 1.846390 0.000000 -0.023930 
#    y 0.000000 1.827090 0.000000 
#    z -0.023930 0.000000 1.824030 
# 
# From -- ./inp_files/217651.got.cif
#   From: 2010.06.25/outbox.cif.g09.slc.cpg/sg12_109_cif.got.tgz:217651.got - 2010.06.28 00:19:55.
