data_PCOD8101306
_publ_section_title
;
Structure prediction by ZEFSAII (Michael W. Deem and Ramdas Pophale) SiO2 
 PCOD8101306
Probable space group: C 2/M
;
_chemical_formula_sum "Si O2"
_cell_formula_units_Z 56
_cell_length_a 13.669884
_cell_length_b 18.584016
_cell_length_c 12.854508
_cell_angle_alpha 90.000000
_cell_angle_beta 58.568251
_cell_angle_gamma 90.000000
_cell_volume 2786.392191
_symmetry_space_group_name_H-M "C 2/M"
_symmetry_group_IT_number 12
_symmetry_cell_setting 'monoclinic'
loop_
_space_group_symop_operation_xyz
x,y,z
-x,y,-z
-x,-y,-z
x,-y,z
1/2+x,1/2+y,z
1/2-x,1/2+y,-z
1/2-x,1/2-y,-z
1/2+x,1/2-y,z
loop_
_atom_site_type_symbol
_atom_site_label
_atom_site_fract_x
_atom_site_fract_y
_atom_site_fract_z
Si Si1 0.567800 0.709270 0.713810
Si Si2 0.218443 0.913883 0.675307
Si Si3 0.263733 0.420147 0.092702
Si Si4 0.082389 0.675796 0.543857
Si Si5 0.497921 0.919086 0.770435
Si Si6 0.811246 0.188466 0.902571
Si Si7 0.394047 0.183194 0.132589
O O1 0.602910 0.624900 0.696835
O O2 0.620181 0.752035 0.585234
O O3 0.429839 0.715719 0.787362
O O4 0.621696 0.747451 0.785408
O O5 0.230964 0.896349 0.790268
O O6 0.316173 0.872725 0.557419
O O7 0.217966 0.000000 0.653093
O O8 0.313861 0.500000 0.056074
O O9 0.134197 0.415505 0.121968
O O10 0.339942 0.373083 0.971731
O O11 0.008998 0.624569 0.658666
O O12 0.000000 0.704102 0.500000
O O13 0.576890 0.887619 0.817341
O O14 0.538095 0.000000 0.727087
O O15 0.724922 0.164909 0.859038
O O16 0.750000 0.250000 0.000000
O O17 0.500000 0.202058 0.000000
#
# Coordination Sequence:
#
# PCOD8101306 Si02
#       7
#     8   8   8   8   8   8   8
#     4  11  26  40  62  92 124 166 209 255 310 380
#     4  11  24  42  65  92 127 166 206 258 316 372
#     4  10  21  35  59  93 124 160 205 252 306 369
#     4  11  22  40  67  93 120 158 212 270 315 356
#     4  10  20  36  57  91 125 156 206 261 316 369
#     4  12  22  38  60  87 127 166 207 254 304 369
#     4  11  21  36  58  88 120 165 204 250 311 359
#
# _framework density 20.097673
#
# number of rings (size 3 to 8) (size 9 to 14) (size 15 to 20)
#    0.000    1.143    4.286    2.571    2.000    2.000 
#    0.000    1.429    0.000    0.429    0.000    0.000 
#    0.000    0.000    0.000    0.000    0.000    0.000 
#
# Total GULP energy -347130.827431 kJ/mol
# GULP energy per Si atom -12397.529551 kJ/mol
# Density = 2.005193 g / cm^3
# Si number density = 20.097673 Si / 1000 Ang^3
#
#
#
# Elastic Constant Matrix: (Units=GPa)
#
#
# Indices 1 2 3 4 5 6 
#
# 1 89.1944 48.0224 36.3951 0.0000 6.4233 0.0000
# 2 48.0224 128.2102 44.1168 0.0000 14.8446 0.0000
# 3 36.3951 44.1168 88.4894 0.0000 15.8616 0.0000
# 4 0.0000 0.0000 0.0000 32.0309 0.0000 -2.2891
# 5 6.4233 14.8446 15.8616 0.0000 31.9779 0.0000
# 6 0.0000 0.0000 0.0000 -2.2891 0.0000 26.0018
#
#
#
# Elastic Compliance Matrix: (Units=1/GPa)
#
#
# Indices 1 2 3 4 5 6 
#
# 1 0.015227 -0.004354 -0.004287 0.000000 0.001089 0.000000
# 2 -0.004354 0.010809 -0.003134 0.000000 -0.002588 0.000000
# 3 -0.004287 -0.003134 0.015598 0.000000 -0.005421 0.000000
# 4 0.000000 0.000000 0.000000 0.031418 0.000000 0.002766
# 5 0.001089 -0.002588 -0.005421 0.000000 0.034943 0.000000
# 6 0.000000 0.000000 0.000000 0.002766 0.000000 0.038702
#
#
# Mechanical properties :
#
#
# Convention : Reuss Voigt Hill
#
# Bulk Modulus (GPa) = 55.30003 62.55140 58.92572
# Shear Modulus (GPa) = 28.36481 29.82609 29.09545
#
# Velocity S-wave (km/s) = 3.76087 3.85653 3.80900
# Velocity P-wave (km/s) = 6.81426 7.14294 6.98054
#
# Compressibility (1/GPa) = 0.01808317
#
# Stress axis : x y z
#
# Youngs Moduli (GPa) = 65.67435 92.51828 64.11032
#
# Poissons Ratio (x) = 0.40285 0.27484
# Poissons Ratio (y) = 0.28596 0.20091
# Poissons Ratio (z) = 0.28155 0.28994
#
# Static dielectric constant tensor:
#      x y z
#    x 3.835950 0.000000 0.137890 
#    y 0.000000 0.298390 0.000000 
#    z 0.137890 0.000000 3.811880 
# 
# 
# High freq. dielectric constant tensor:
#      x y z
#    x 1.775500 0.000000 0.007590 
#    y 0.000000 1.788270 0.000000 
#    z 0.007590 0.000000 1.784950 
# 
# From -- ./inp_files/146038.got.cif
#   From: 2010.06.25/outbox.cif.g09.slc.cpg/sg12_74_cif.got.tgz:146038.got - 2010.06.28 00:19:55.
