data_PCOD8101858
_publ_section_title
;
Structure prediction by ZEFSAII (Michael W. Deem and Ramdas Pophale) SiO2 
 PCOD8101858
Probable space group: C 2/M
;
_chemical_formula_sum "Si O2"
_cell_formula_units_Z 52
_cell_length_a 11.763635
_cell_length_b 25.919069
_cell_length_c 9.121395
_cell_angle_alpha 90.000000
_cell_angle_beta 109.065658
_cell_angle_gamma 90.000000
_cell_volume 2628.576274
_symmetry_space_group_name_H-M "C 2/M"
_symmetry_group_IT_number 12
_symmetry_cell_setting 'monoclinic'
loop_
_space_group_symop_operation_xyz
x,y,z
-x,y,-z
-x,-y,-z
x,-y,z
1/2+x,1/2+y,z
1/2-x,1/2+y,-z
1/2-x,1/2-y,-z
1/2+x,1/2-y,z
loop_
_atom_site_type_symbol
_atom_site_label
_atom_site_fract_x
_atom_site_fract_y
_atom_site_fract_z
Si Si1 0.800441 0.000000 0.899618
Si Si2 0.000000 0.920746 0.500000
Si Si3 0.986276 0.000000 0.238986
Si Si4 0.303372 0.890631 0.193542
Si Si5 0.176865 0.801068 0.995400
Si Si6 0.034629 0.669102 0.352761
Si Si7 0.048563 0.220883 0.241964
Si Si8 0.204470 0.855634 0.459692
O O1 0.713953 0.949991 0.859487
O O2 0.889193 0.000000 0.798082
O O3 0.874717 0.000000 0.081190
O O4 0.878299 0.889209 0.470335
O O5 0.978489 0.951111 0.340900
O O6 0.445376 0.877583 0.269498
O O7 0.231106 0.881805 0.314144
O O8 0.253660 0.853418 0.043713
O O9 0.080575 0.808659 0.822321
O O10 0.250000 0.750000 0.000000
O O11 0.112860 0.789621 0.119032
O O12 0.020234 0.718634 0.244262
O O13 0.172128 0.651207 0.400066
O O14 0.000000 0.687968 0.500000
O O15 0.132778 0.198531 0.406849
#
# Coordination Sequence:
#
# PCOD8101858 Si02
#       8
#     4   4   4   8   8   8   8   8
#     4  11  22  42  69  94 117 170 214 264 314 374
#     4  11  22  42  60  94 126 160 200 269 318 362
#     4  10  24  40  66  89 127 155 213 272 313 359
#     4  10  21  40  63  89 123 158 217 257 309 373
#     4  10  20  36  59  87 123 159 204 258 315 366
#     4  10  21  39  56  86 127 164 203 255 302 381
#     4  10  21  34  57  91 120 163 206 249 311 373
#     4  10  22  36  60  90 123 163 205 255 311 379
#
# _framework density 19.782571999999998
#
# number of rings (size 3 to 8) (size 9 to 14) (size 15 to 20)
#    0.000    1.846    3.077    0.462    3.231    2.462 
#    0.000    5.000    0.000    0.923    0.000    0.000 
#    0.000    0.000    0.000    0.000    0.000    0.000 
#
# Total GULP energy -322257.608945 kJ/mol
# GULP energy per Si atom -12394.523421 kJ/mol
# Density = 1.973755 g / cm^3
# Si number density = 19.782572 Si / 1000 Ang^3
#
#
#
# Elastic Constant Matrix: (Units=GPa)
#
#
# Indices 1 2 3 4 5 6 
#
# 1 137.4949 64.9290 49.9214 0.0000 34.6947 0.0000
# 2 64.9290 148.6589 46.5205 0.0000 21.1401 0.0000
# 3 49.9214 46.5205 75.2320 0.0000 26.9862 0.0000
# 4 0.0000 0.0000 0.0000 -106.3500 0.0000 149.3833
# 5 34.6947 21.1401 26.9862 0.0000 27.7248 0.0000
# 6 0.0000 0.0000 0.0000 149.3833 0.0000 -162.8135
#
#
#
# Elastic Compliance Matrix: (Units=1/GPa)
#
#
# Indices 1 2 3 4 5 6 
#
# 1 0.012313 -0.003101 -0.002418 0.000000 -0.010690 0.000000
# 2 -0.003101 0.009199 -0.003851 0.000000 0.000615 0.000000
# 3 -0.002418 -0.003851 0.023261 0.000000 -0.016678 0.000000
# 4 0.000000 0.000000 0.000000 0.032562 0.000000 0.029876
# 5 -0.010690 0.000615 -0.016678 0.000000 0.065211 0.000000
# 6 0.000000 0.000000 0.000000 0.029876 0.000000 0.021269
#
#
# Mechanical properties :
#
#
# Convention : Reuss Voigt Hill
#
# Bulk Modulus (GPa) = 38.41434 76.01418 57.21426
# Shear Modulus (GPa) = 26.14611 -34.95341 -4.40365
#
# Velocity S-wave (km/s) = 3.63943 -4.20799 -1.49361
# Velocity P-wave (km/s) = 6.09270 3.85988 5.09999
#
# Compressibility (1/GPa) = 0.02603195
#
# Stress axis : x y z
#
# Youngs Moduli (GPa) = 81.21643 108.70889 42.99030
#
# Poissons Ratio (x) = 0.33709 0.10397
# Poissons Ratio (y) = 0.25184 0.16556
# Poissons Ratio (z) = 0.19641 0.41865
#
# Static dielectric constant tensor:
#      x y z
#    x 3.872910 0.000000 0.318830 
#    y 0.000000 3.531960 0.000000 
#    z 0.318830 0.000000 3.719880 
# 
# 
# High freq. dielectric constant tensor:
#      x y z
#    x 1.775640 0.000000 0.011320 
#    y 0.000000 1.760470 0.000000 
#    z 0.011320 0.000000 1.767680 
# 
# From -- ./inp_files/52670.got.cif
#   From: 2010.06.25/outbox.cif.g09.slc.cpg/sg12_27_cif.got.tgz:52670.got - 2010.06.28 00:19:55.
