data_PCOD8101828
_publ_section_title
;
Structure prediction by ZEFSAII (Michael W. Deem and Ramdas Pophale) SiO2 
 PCOD8101828
Probable space group: C 2/M
;
_chemical_formula_sum "Si O2"
_cell_formula_units_Z 64
_cell_length_a 19.480555
_cell_length_b 8.997662
_cell_length_c 31.087109
_cell_angle_alpha 90.000000
_cell_angle_beta 142.688606
_cell_angle_gamma 90.000000
_cell_volume 3302.851094
_symmetry_space_group_name_H-M "C 2/M"
_symmetry_group_IT_number 12
_symmetry_cell_setting 'monoclinic'
loop_
_space_group_symop_operation_xyz
x,y,z
-x,y,-z
-x,-y,-z
x,-y,z
1/2+x,1/2+y,z
1/2-x,1/2+y,-z
1/2-x,1/2-y,-z
1/2+x,1/2-y,z
loop_
_atom_site_type_symbol
_atom_site_label
_atom_site_fract_x
_atom_site_fract_y
_atom_site_fract_z
Si Si1 0.524963 0.824158 0.715773
Si Si2 0.179836 0.822865 0.003371
Si Si3 0.260102 0.676434 0.871995
Si Si4 0.822351 0.831595 0.658436
Si Si5 0.600628 0.329627 0.519391
Si Si6 0.424013 0.676274 0.880739
Si Si7 0.964315 0.829969 0.367562
Si Si8 0.260002 0.668819 0.724247
O O1 0.644532 0.762785 0.793202
O O2 0.427120 0.769746 0.698147
O O3 0.501395 0.764517 0.656555
O O4 0.524188 0.000000 0.713920
O O5 0.050896 0.762128 0.938125
O O6 0.185601 0.000000 0.001358
O O7 0.250000 0.750000 0.000000
O O8 0.231053 0.768269 0.074496
O O9 0.260136 0.500000 0.871285
O O10 0.366553 0.734176 0.896509
O O11 0.708410 0.773031 0.579950
O O12 0.819280 0.824112 0.708054
O O13 0.840760 0.000000 0.651595
O O14 0.500000 0.272635 0.500000
O O15 0.630796 0.500000 0.546007
O O16 0.564651 0.313505 0.451957
O O17 0.430363 0.500000 0.884732
O O18 0.348083 0.731637 0.803095
O O19 0.849406 0.771774 0.331616
O O20 0.946905 0.000000 0.345337
O O21 0.223840 0.500000 0.718116
#
# Coordination Sequence:
#
# PCOD8101828 Si02
#       8
#     8   8   8   8   8   8   8   8
#     4  11  23  40  61  84 119 158 195 243 296 349
#     4  10  21  36  58  87 118 153 190 236 286 338
#     4   9  18  35  60  86 110 148 200 239 277 341
#     4  11  24  38  58  89 121 152 196 245 292 350
#     4  10  21  39  61  85 116 154 194 238 294 354
#     4   9  17  34  60  85 111 149 196 237 278 333
#     4  11  22  38  62  89 117 149 194 246 291 347
#     4  10  20  36  59  87 117 152 196 240 290 349
#
# _framework density 19.377198
#
# number of rings (size 3 to 8) (size 9 to 14) (size 15 to 20)
#    0.000    1.875    2.500    1.500    1.750    3.750 
#    0.000    1.250    0.000    0.750    0.000    0.000 
#    0.000    0.000    0.000    0.000    0.000    0.000 
#
# Total GULP energy -396867.035839 kJ/mol
# GULP energy per Si atom -12402.094870 kJ/mol
# Density = 1.933309 g / cm^3
# Si number density = 19.377198 Si / 1000 Ang^3
#
#
#
# Elastic Constant Matrix: (Units=GPa)
#
#
# Indices 1 2 3 4 5 6 
#
# 1 133.7684 35.7823 58.2340 0.0000 1.6671 -0.0001
# 2 35.7823 59.3381 30.2380 0.0001 -1.2377 -0.0007
# 3 58.2340 30.2380 107.1072 0.0000 -5.7925 -0.0001
# 4 0.0000 0.0001 0.0000 18.6116 0.0000 -0.1632
# 5 1.6671 -1.2377 -5.7925 0.0000 33.7939 -0.0001
# 6 -0.0001 -0.0007 -0.0001 -0.1632 -0.0001 33.2742
#
#
#
# Elastic Compliance Matrix: (Units=1/GPa)
#
#
# Indices 1 2 3 4 5 6 
#
# 1 0.010628 -0.004035 -0.004719 0.000000 -0.001481 0.000000
# 2 -0.004035 0.021218 -0.003779 0.000000 0.000328 0.000000
# 3 -0.004719 -0.003779 0.013096 0.000000 0.002339 0.000000
# 4 0.000000 0.000000 0.000000 0.053732 0.000000 0.000264
# 5 -0.001481 0.000328 0.002339 0.000000 0.030077 0.000000
# 6 0.000000 0.000000 0.000000 0.000264 0.000000 0.030055
#
#
# Mechanical properties :
#
#
# Convention : Reuss Voigt Hill
#
# Bulk Modulus (GPa) = 50.31234 60.96912 55.64073
# Shear Modulus (GPa) = 26.24718 28.86656 27.55687
#
# Velocity S-wave (km/s) = 3.68440 3.86387 3.77520
# Velocity P-wave (km/s) = 6.64235 7.17208 6.91229
#
# Compressibility (1/GPa) = 0.01987584
#
# Stress axis : x y z
#
# Youngs Moduli (GPa) = 94.09240 47.12961 76.36137
#
# Poissons Ratio (x) = 0.19016 0.36038
# Poissons Ratio (y) = 0.37965 0.28855
# Poissons Ratio (z) = 0.44405 0.17809
#
# Static dielectric constant tensor:
#      x y z
#    x 3.602000 0.000000 -0.022290 
#    y 0.000000 3.349870 0.000000 
#    z -0.022290 0.000000 3.749520 
# 
# 
# High freq. dielectric constant tensor:
#      x y z
#    x 1.764080 0.000000 -0.005510 
#    y 0.000000 1.727200 0.000000 
#    z -0.005510 0.000000 1.764860 
# 
# From -- ./inp_files/378267.got.cif
#   From: 2010.06.25/outbox.cif.g09.slc.cpg/sg12_190_cif.got.tgz:378267.got - 2010.06.28 00:19:55.
