data_PCOD8101912
_publ_section_title
;
Structure prediction by ZEFSAII (Michael W. Deem and Ramdas Pophale) SiO2 
 PCOD8101912
Probable space group: C 2/M
;
_chemical_formula_sum "Si O2"
_cell_formula_units_Z 64
_cell_length_a 13.870932
_cell_length_b 17.978458
_cell_length_c 17.929971
_cell_angle_alpha 90.000000
_cell_angle_beta 41.265411
_cell_angle_gamma 90.000000
_cell_volume 2949.063253
_symmetry_space_group_name_H-M "C 2/M"
_symmetry_group_IT_number 12
_symmetry_cell_setting 'monoclinic'
loop_
_space_group_symop_operation_xyz
x,y,z
-x,y,-z
-x,-y,-z
x,-y,z
1/2+x,1/2+y,z
1/2-x,1/2+y,-z
1/2-x,1/2-y,-z
1/2+x,1/2-y,z
loop_
_atom_site_type_symbol
_atom_site_label
_atom_site_fract_x
_atom_site_fract_y
_atom_site_fract_z
Si Si1 0.749183 0.414285 0.035961
Si Si2 0.206596 0.736809 0.690667
Si Si3 0.903683 0.146625 0.482812
Si Si4 0.131231 0.325765 0.282175
Si Si5 0.344688 0.587351 0.069074
Si Si6 0.431158 0.083718 0.194231
Si Si7 0.112777 0.420669 0.613484
Si Si8 0.554863 0.307690 0.242595
O O1 0.703014 0.500000 0.072834
O O2 0.667623 0.368612 0.147450
O O3 0.700709 0.380754 0.984862
O O4 0.924594 0.405832 0.940227
O O5 0.301182 0.716953 0.562788
O O6 0.314952 0.787121 0.674798
O O7 0.168675 0.658577 0.757262
O O8 0.071220 0.788223 0.744086
O O9 0.787021 0.084029 0.526150
O O10 0.000591 0.164801 0.355093
O O11 0.000000 0.122820 0.500000
O O12 0.234317 0.393879 0.199968
O O13 0.964352 0.356300 0.391163
O O14 0.140357 0.268534 0.207704
O O15 0.355416 0.500000 0.056760
O O16 0.500000 0.623342 0.000000
O O17 0.473300 0.081778 0.257148
O O18 0.362159 0.000000 0.214983
O O19 0.086239 0.500000 0.589518
#
# Coordination Sequence:
#
# PCOD8101912 Si02
#       8
#     8   8   8   8   8   8   8   8
#     4  10  21  39  61  87 130 177 210 264 335 392
#     4  11  23  39  64 101 124 173 218 272 332 384
#     4  11  23  43  68  93 126 169 216 270 334 388
#     4  12  22  37  65  98 127 168 215 274 324 390
#     4  10  20  36  59  91 131 175 216 259 317 391
#     4   9  18  39  65  88 125 170 214 261 321 385
#     4  10  21  41  69  97 125 166 221 268 318 385
#     4  12  24  39  62  92 134 169 217 276 330 394
#
# _framework density 21.701806999999999
#
# number of rings (size 3 to 8) (size 9 to 14) (size 15 to 20)
#    0.000    1.375    5.000    1.500    0.000    3.750 
#    0.000    1.250    0.000    2.250    0.000    0.000 
#    0.000    0.000    0.000    0.000    0.000    0.000 
#
# Total GULP energy -396432.547180 kJ/mol
# GULP energy per Si atom -12388.517099 kJ/mol
# Density = 2.165241 g / cm^3
# Si number density = 21.701807 Si / 1000 Ang^3
#
#
#
# Elastic Constant Matrix: (Units=GPa)
#
#
# Indices 1 2 3 4 5 6 
#
# 1 83.8480 34.4904 14.9276 -0.0009 -10.1837 0.0004
# 2 34.4904 77.0612 39.3451 -0.0010 4.7151 0.0006
# 3 14.9276 39.3451 110.9770 -0.0007 -6.5863 0.0006
# 4 -0.0009 -0.0010 -0.0007 12.3660 0.0004 -2.3792
# 5 -10.1837 4.7151 -6.5863 0.0004 19.1926 -0.0003
# 6 0.0004 0.0006 0.0006 -2.3792 -0.0003 28.8816
#
#
#
# Elastic Compliance Matrix: (Units=1/GPa)
#
#
# Indices 1 2 3 4 5 6 
#
# 1 0.016785 -0.009073 0.001653 0.000000 0.011703 0.000000
# 2 -0.009073 0.021442 -0.007125 0.000001 -0.012527 0.000000
# 3 0.001653 -0.007125 0.011709 0.000000 0.006646 0.000000
# 4 0.000000 0.000001 0.000000 0.082170 -0.000002 0.006769
# 5 0.011703 -0.012527 0.006646 -0.000002 0.063671 0.000000
# 6 0.000000 0.000000 0.000000 0.006769 0.000000 0.035182
#
#
# Mechanical properties :
#
#
# Convention : Reuss Voigt Hill
#
# Bulk Modulus (GPa) = 47.96794 49.93472 48.95133
# Shear Modulus (GPa) = 18.72685 24.29623 21.51154
#
# Velocity S-wave (km/s) = 2.94073 3.34960 3.15180
# Velocity P-wave (km/s) = 5.80359 6.16597 5.98752
#
# Compressibility (1/GPa) = 0.02084726
#
# Stress axis : x y z
#
# Youngs Moduli (GPa) = 59.57536 46.63804 85.40506
#
# Poissons Ratio (x) = 0.42314 -0.14121
# Poissons Ratio (y) = 0.54052 0.60850
# Poissons Ratio (z) = -0.09850 0.33229
#
# Static dielectric constant tensor:
#      x y z
#    x 3.963520 0.000000 -0.241420 
#    y 0.000000 4.091880 0.000000 
#    z -0.241420 0.000000 3.703200 
# 
# 
# High freq. dielectric constant tensor:
#      x y z
#    x 1.842360 0.000000 -0.018900 
#    y 0.000000 1.853250 0.000000 
#    z -0.018900 0.000000 1.837440 
# 
# From -- ./inp_files/271712.got.cif
#   From: 2010.06.25/outbox.cif.g09.slc.cpg/sg12_136_cif.got.tgz:271712.got - 2010.06.28 00:19:55.
