data_PCOD8101274
_publ_section_title
;
Structure prediction by ZEFSAII (Michael W. Deem and Ramdas Pophale) SiO2 
 PCOD8101274
Probable space group: C 2/M
;
_chemical_formula_sum "Si O2"
_cell_formula_units_Z 64
_cell_length_a 8.569539
_cell_length_b 20.192276
_cell_length_c 23.588703
_cell_angle_alpha 90.000000
_cell_angle_beta 127.532145
_cell_angle_gamma 90.000000
_cell_volume 3236.878357
_symmetry_space_group_name_H-M "C 2/M"
_symmetry_group_IT_number 12
_symmetry_cell_setting 'monoclinic'
loop_
_space_group_symop_operation_xyz
x,y,z
-x,y,-z
-x,-y,-z
x,-y,z
1/2+x,1/2+y,z
1/2-x,1/2+y,-z
1/2-x,1/2-y,-z
1/2+x,1/2-y,z
loop_
_atom_site_type_symbol
_atom_site_label
_atom_site_fract_x
_atom_site_fract_y
_atom_site_fract_z
Si Si1 0.908433 0.924558 0.919355
Si Si2 0.868654 0.308150 0.140331
Si Si3 0.074535 0.695856 0.077980
Si Si4 0.548355 0.577151 0.298463
Si Si5 0.272925 0.320206 0.291390
Si Si6 0.154666 0.074839 0.862499
Si Si7 0.405878 0.841766 0.423368
Si Si8 0.623155 0.776943 0.373739
O O1 0.723894 0.878674 0.864285
O O2 0.065305 0.913083 0.904590
O O3 0.833475 0.000000 0.903961
O O4 0.000000 0.903940 0.000000
O O5 0.739005 0.248023 0.135351
O O6 0.884807 0.299828 0.076136
O O7 0.088252 0.305330 0.211612
O O8 0.158166 0.621796 0.101482
O O9 0.000000 0.715056 0.000000
O O10 0.550962 0.500000 0.314538
O O11 0.377986 0.610924 0.298630
O O12 0.505181 0.589341 0.222225
O O13 0.760948 0.608006 0.359135
O O14 0.419307 0.258994 0.312256
O O15 0.198896 0.324114 0.339881
O O16 0.233232 0.000000 0.873763
O O17 0.500000 0.876217 0.500000
O O18 0.583187 0.821661 0.420168
O O19 0.290499 0.777690 0.421861
#
# Coordination Sequence:
#
# PCOD8101274 Si02
#       8
#     8   8   8   8   8   8   8   8
#     4  10  22  40  59  80 111 150 192 239 290 345
#     4  12  23  35  57  83 115 147 187 237 290 344
#     4  12  24  37  56  83 114 147 189 241 293 342
#     4  10  22  40  58  82 117 152 192 237 280 333
#     4  10  20  36  57  85 112 150 185 234 280 334
#     4  10  22  41  60  80 112 153 195 239 289 343
#     4  10  20  36  62  90 120 152 185 228 280 338
#     4   9  20  35  59  89 120 144 186 230 279 333
#
# _framework density 19.772137000000001
#
# number of rings (size 3 to 8) (size 9 to 14) (size 15 to 20)
#    0.000    1.625    1.250    3.375    5.250    1.500 
#    0.000    0.625    0.000    0.750    0.000    0.000 
#    0.000    0.000    0.000    0.000    0.000    0.000 
#
# Total GULP energy -396868.646061 kJ/mol
# GULP energy per Si atom -12402.145189 kJ/mol
# Density = 1.972714 g / cm^3
# Si number density = 19.772137 Si / 1000 Ang^3
#
#
#
# Elastic Constant Matrix: (Units=GPa)
#
#
# Indices 1 2 3 4 5 6 
#
# 1 97.0180 45.3871 18.1334 0.0000 -13.0841 0.0000
# 2 45.3871 92.4716 22.2240 0.0000 -7.6074 0.0000
# 3 18.1334 22.2240 75.8078 0.0001 -10.4277 0.0000
# 4 0.0000 0.0000 0.0001 21.9233 0.0002 -2.5016
# 5 -13.0841 -7.6074 -10.4277 0.0002 28.2760 0.0001
# 6 0.0000 0.0000 0.0000 -2.5016 0.0001 26.9212
#
#
#
# Elastic Compliance Matrix: (Units=1/GPa)
#
#
# Indices 1 2 3 4 5 6 
#
# 1 0.014024 -0.006302 -0.000893 0.000000 0.004465 0.000000
# 2 -0.006302 0.014571 -0.002766 0.000000 -0.000016 0.000000
# 3 -0.000893 -0.002766 0.014808 0.000000 0.004303 0.000000
# 4 0.000000 0.000000 0.000000 0.046102 0.000000 0.004284
# 5 0.004465 -0.000016 0.004303 0.000000 0.039014 0.000000
# 6 0.000000 0.000000 0.000000 0.004284 0.000000 0.037544
#
#
# Mechanical properties :
#
#
# Convention : Reuss Voigt Hill
#
# Bulk Modulus (GPa) = 42.58822 48.53181 45.56002
# Shear Modulus (GPa) = 25.79816 27.39429 26.59622
#
# Velocity S-wave (km/s) = 3.61608 3.72627 3.67159
# Velocity P-wave (km/s) = 6.24668 6.56599 6.40833
#
# Compressibility (1/GPa) = 0.02348067
#
# Stress axis : x y z
#
# Youngs Moduli (GPa) = 71.30414 68.63129 67.53172
#
# Poissons Ratio (x) = 0.43248 0.06032
# Poissons Ratio (y) = 0.44933 0.18682
# Poissons Ratio (z) = 0.06369 0.18986
#
# Static dielectric constant tensor:
#      x y z
#    x 3.742660 0.000000 -0.147830 
#    y 0.000000 3.541460 0.000000 
#    z -0.147830 0.000000 3.536550 
# 
# 
# High freq. dielectric constant tensor:
#      x y z
#    x 1.779610 0.000000 -0.007470 
#    y 0.000000 1.760750 0.000000 
#    z -0.007470 0.000000 1.767970 
# 
# From -- ./inp_files/333756.got.cif
#   From: 2010.06.25/outbox.cif.g09.slc.cpg/sg12_167_cif.got.tgz:333756.got - 2010.06.28 00:19:55.
