data_PCOD8101558
_publ_section_title
;
Structure prediction by ZEFSAII (Michael W. Deem and Ramdas Pophale) SiO2 
 PCOD8101558
Probable space group: C 2/M
;
_chemical_formula_sum "Si O2"
_cell_formula_units_Z 56
_cell_length_a 20.185138
_cell_length_b 9.065553
_cell_length_c 30.417301
_cell_angle_alpha 90.000000
_cell_angle_beta 32.625080
_cell_angle_gamma 90.000000
_cell_volume 3000.874618
_symmetry_space_group_name_H-M "C 2/M"
_symmetry_group_IT_number 12
_symmetry_cell_setting 'monoclinic'
loop_
_space_group_symop_operation_xyz
x,y,z
-x,y,-z
-x,-y,-z
x,-y,z
1/2+x,1/2+y,z
1/2-x,1/2+y,-z
1/2-x,1/2-y,-z
1/2+x,1/2-y,z
loop_
_atom_site_type_symbol
_atom_site_label
_atom_site_fract_x
_atom_site_fract_y
_atom_site_fract_z
Si Si1 0.524575 0.328388 0.916570
Si Si2 0.086583 0.170574 0.345206
Si Si3 0.341285 0.173561 0.334343
Si Si4 0.584432 0.173204 0.494220
Si Si5 0.648979 0.171708 0.771505
Si Si6 0.696789 0.327394 0.899699
Si Si7 0.062944 0.829581 0.255331
O O1 0.540595 0.500000 0.899203
O O2 0.544394 0.246838 0.859465
O O3 0.625099 0.275769 0.896016
O O4 0.388231 0.293416 0.010561
O O5 0.216054 0.231227 0.291188
O O6 0.084355 0.193941 0.294680
O O7 0.979170 0.268130 0.426108
O O8 0.066899 0.000000 0.369392
O O9 0.212381 0.245532 0.417622
O O10 0.379094 0.209704 0.263212
O O11 0.442056 0.241116 0.309999
O O12 0.330972 0.000000 0.348202
O O13 0.500000 0.213425 0.500000
O O14 0.607793 0.000000 0.485464
O O15 0.643126 0.000000 0.784763
O O16 0.728980 0.500000 0.879139
O O17 0.820640 0.234515 0.836021
O O18 0.046519 0.000000 0.251980
#
# Coordination Sequence:
#
# PCOD8101558 Si02
#       7
#     8   8   8   8   8   8   8
#     4   9  18  32  56  87 117 149 189 237 281 332
#     4  10  21  38  60  85 115 150 189 235 285 339
#     4  11  24  41  61  82 115 157 189 230 288 346
#     4  11  23  38  60  90 117 145 189 240 283 331
#     4  10  20  36  58  86 114 147 193 236 282 338
#     4   9  18  34  55  84 119 153 188 229 285 342
#     4  11  23  39  59  86 118 151 190 237 285 337
#
# _framework density 18.661227
#
# number of rings (size 3 to 8) (size 9 to 14) (size 15 to 20)
#    0.000    1.857    2.857    2.143    0.000    4.571 
#    0.000    2.143    0.000    0.000    0.000    0.000 
#    0.000    0.000    0.000    0.000    0.000    0.000 
#
# Total GULP energy -347315.266120 kJ/mol
# GULP energy per Si atom -12404.116647 kJ/mol
# Density = 1.861875 g / cm^3
# Si number density = 18.661227 Si / 1000 Ang^3
#
#
#
# Elastic Constant Matrix: (Units=GPa)
#
#
# Indices 1 2 3 4 5 6 
#
# 1 51.8465 36.4705 16.8830 0.0039 -12.6385 -0.0220
# 2 36.4705 74.5015 55.8197 0.0002 -4.9930 -0.0041
# 3 16.8830 55.8197 111.4968 -0.0011 -3.1475 0.0010
# 4 0.0039 0.0002 -0.0011 40.5560 0.0021 -1.2575
# 5 -12.6385 -4.9930 -3.1475 0.0021 28.7801 -0.0002
# 6 -0.0220 -0.0041 0.0010 -1.2575 -0.0002 29.7922
#
#
#
# Elastic Compliance Matrix: (Units=1/GPa)
#
#
# Indices 1 2 3 4 5 6 
#
# 1 0.034677 -0.019965 0.005092 -0.000003 0.012321 0.000023
# 2 -0.019965 0.033163 -0.013707 0.000001 -0.004513 -0.000010
# 3 0.005092 -0.013707 0.015103 0.000000 0.001510 0.000001
# 4 -0.000003 0.000001 0.000000 0.024690 -0.000003 0.001042
# 5 0.012321 -0.004513 0.001510 -0.000003 0.039539 0.000009
# 6 0.000023 -0.000010 0.000001 0.001042 0.000009 0.033610
#
#
# Mechanical properties :
#
#
# Convention : Reuss Voigt Hill
#
# Bulk Modulus (GPa) = 38.78456 50.68791 44.73623
# Shear Modulus (GPa) = 20.28102 28.40378 24.34240
#
# Velocity S-wave (km/s) = 3.30024 3.90561 3.61562
# Velocity P-wave (km/s) = 5.94565 6.89634 6.43857
#
# Compressibility (1/GPa) = 0.02578346
#
# Stress axis : x y z
#
# Youngs Moduli (GPa) = 28.83763 30.15371 66.21285
#
# Poissons Ratio (x) = 0.60201 -0.33717
# Poissons Ratio (y) = 0.57574 0.90759
# Poissons Ratio (z) = -0.14685 0.41332
#
# Static dielectric constant tensor:
#      x y z
#    x 3.366400 -0.000010 0.020860 
#    y -0.000010 3.403380 0.000000 
#    z 0.020860 0.000000 3.467210 
# 
# 
# High freq. dielectric constant tensor:
#      x y z
#    x 1.709550 0.000000 0.002840 
#    y 0.000000 1.726230 0.000000 
#    z 0.002840 0.000000 1.735380 
# 
# From -- ./inp_files/281680.got.cif
#   From: 2010.06.25/outbox.cif.g09.slc.cpg/sg12_141_cif.got.tgz:281680.got - 2010.06.28 00:19:55.
