data_PCOD8101907
_publ_section_title
;
Structure prediction by ZEFSAII (Michael W. Deem and Ramdas Pophale) SiO2 
 PCOD8101907
Probable space group: C 2/M
;
_chemical_formula_sum "Si O2"
_cell_formula_units_Z 64
_cell_length_a 16.945180
_cell_length_b 15.313134
_cell_length_c 18.861198
_cell_angle_alpha 90.000000
_cell_angle_beta 38.626877
_cell_angle_gamma 90.000000
_cell_volume 3055.170166
_symmetry_space_group_name_H-M "C 2/M"
_symmetry_group_IT_number 12
_symmetry_cell_setting 'monoclinic'
loop_
_space_group_symop_operation_xyz
x,y,z
-x,y,-z
-x,-y,-z
x,-y,z
1/2+x,1/2+y,z
1/2-x,1/2+y,-z
1/2-x,1/2-y,-z
1/2+x,1/2-y,z
loop_
_atom_site_type_symbol
_atom_site_label
_atom_site_fract_x
_atom_site_fract_y
_atom_site_fract_z
Si Si1 0.424436 0.250415 0.482401
Si Si2 0.400541 0.399560 0.686517
Si Si3 0.216204 0.684485 0.718694
Si Si4 0.555325 0.599704 0.061325
Si Si5 0.038710 0.401232 0.319912
Si Si6 0.538744 0.101735 0.154712
Si Si7 0.296942 0.603151 0.908632
Si Si8 0.809495 0.154617 0.169097
O O1 0.500000 0.226626 0.500000
O O2 0.477843 0.338327 0.408890
O O3 0.278883 0.268500 0.605967
O O4 0.435696 0.166576 0.423160
O O5 0.445110 0.500000 0.662540
O O6 0.306800 0.392856 0.684466
O O7 0.331938 0.364555 0.805856
O O8 0.207884 0.747482 0.792078
O O9 0.080106 0.652072 0.792688
O O10 0.599738 0.500000 0.018312
O O11 0.594356 0.633205 0.112033
O O12 0.404151 0.605850 0.157498
O O13 0.628975 0.657672 0.951968
O O14 0.988422 0.500000 0.366602
O O15 0.056882 0.379916 0.224738
O O16 0.173803 0.392313 0.263883
O O17 0.518782 0.000000 0.153374
O O18 0.661057 0.140323 0.028411
O O19 0.286645 0.500000 0.916454
#
# Coordination Sequence:
#
# PCOD8101907 Si02
#       8
#     8   8   8   8   8   8   8   8
#     4  10  22  42  60  88 124 157 214 264 308 362
#     4  10  21  39  65  88 119 165 207 257 314 372
#     4  11  24  41  57  87 128 159 214 264 304 359
#     4  10  20  36  59  90 128 163 202 254 310 378
#     4  11  21  40  66  92 123 166 211 252 310 374
#     4  10  22  40  65  92 123 167 207 251 314 374
#     4   9  19  36  59  92 125 157 201 255 317 374
#     4  11  20  36  58  92 121 162 204 247 308 371
#
# _framework density 20.948098000000002
#
# number of rings (size 3 to 8) (size 9 to 14) (size 15 to 20)
#    0.000    1.750    3.750    1.875    0.000    7.000 
#    0.000    3.750    0.000    3.000    0.000    0.000 
#    0.000    0.000    0.000    0.000    0.000    0.000 
#
# Total GULP energy -396780.466884 kJ/mol
# GULP energy per Si atom -12399.389590 kJ/mol
# Density = 2.090042 g / cm^3
# Si number density = 20.948098 Si / 1000 Ang^3
#
#
#
# Elastic Constant Matrix: (Units=GPa)
#
#
# Indices 1 2 3 4 5 6 
#
# 1 95.8745 22.7062 37.0350 0.0001 -1.8677 0.0000
# 2 22.7062 87.2907 40.9740 0.0000 16.0866 0.0000
# 3 37.0350 40.9740 107.2635 0.0002 18.0059 -0.0001
# 4 0.0001 0.0000 0.0002 32.0365 0.0000 2.9210
# 5 -1.8677 16.0866 18.0059 0.0000 16.4622 0.0000
# 6 0.0000 0.0000 -0.0001 2.9210 0.0000 20.4892
#
#
#
# Elastic Compliance Matrix: (Units=1/GPa)
#
#
# Indices 1 2 3 4 5 6 
#
# 1 0.013301 -0.002870 -0.005169 0.000000 0.009968 0.000000
# 2 -0.002870 0.015926 -0.002971 0.000000 -0.012639 0.000000
# 3 -0.005169 -0.002971 0.014520 0.000000 -0.013564 0.000000
# 4 0.000000 0.000000 0.000000 0.031625 0.000000 -0.004509
# 5 0.009968 -0.012639 -0.013564 0.000000 0.089063 0.000000
# 6 0.000000 0.000000 0.000000 -0.004509 0.000000 0.049449
#
#
# Mechanical properties :
#
#
# Convention : Reuss Voigt Hill
#
# Bulk Modulus (GPa) = 46.02874 54.65101 50.33988
# Shear Modulus (GPa) = 20.56361 26.44515 23.50438
#
# Velocity S-wave (km/s) = 3.13652 3.55690 3.35330
# Velocity P-wave (km/s) = 5.92769 6.55851 6.25106
#
# Compressibility (1/GPa) = 0.02172556
#
# Stress axis : x y z
#
# Youngs Moduli (GPa) = 75.18161 62.78851 68.87263
#
# Poissons Ratio (x) = 0.18023 0.35602
# Poissons Ratio (y) = 0.21580 0.20463
# Poissons Ratio (z) = 0.38864 0.18655
#
# Static dielectric constant tensor:
#      x y z
#    x 3.819330 0.000000 0.122890 
#    y 0.000000 3.663250 0.000000 
#    z 0.122890 0.000000 4.042390 
# 
# 
# High freq. dielectric constant tensor:
#      x y z
#    x 1.813550 0.000000 0.005580 
#    y 0.000000 1.814770 0.000000 
#    z 0.005580 0.000000 1.817250 
# 
# From -- ./inp_files/278137.got.cif
#   From: 2010.06.25/outbox.cif.g09.slc.cpg/sg12_140_cif.got.tgz:278137.got - 2010.06.28 00:19:55.
