data_PCOD8101236
_publ_section_title
;
Structure prediction by ZEFSAII (Michael W. Deem and Ramdas Pophale) SiO2 
 PCOD8101236
Probable space group: C 2/M
;
_chemical_formula_sum "Si O2"
_cell_formula_units_Z 64
_cell_length_a 23.225551
_cell_length_b 9.186445
_cell_length_c 14.972896
_cell_angle_alpha 90.000000
_cell_angle_beta 92.960311
_cell_angle_gamma 90.000000
_cell_volume 3190.357720
_symmetry_space_group_name_H-M "C 2/M"
_symmetry_group_IT_number 12
_symmetry_cell_setting 'monoclinic'
loop_
_space_group_symop_operation_xyz
x,y,z
-x,y,-z
-x,-y,-z
x,-y,z
1/2+x,1/2+y,z
1/2-x,1/2+y,-z
1/2-x,1/2-y,-z
1/2+x,1/2-y,z
loop_
_atom_site_type_symbol
_atom_site_label
_atom_site_fract_x
_atom_site_fract_y
_atom_site_fract_z
Si Si1 0.785210 0.168487 0.618821
Si Si2 0.798675 0.338130 0.791386
Si Si3 0.710799 0.664684 0.930092
Si Si4 0.582693 0.833155 0.116461
Si Si5 0.160980 0.670782 0.536850
Si Si6 0.417532 0.670672 0.060857
Si Si7 0.954917 0.171189 0.418904
Si Si8 0.499038 0.670157 0.771894
O O1 0.803520 0.212321 0.719202
O O2 0.826434 0.261319 0.558420
O O3 0.717394 0.203115 0.601469
O O4 0.798665 0.000000 0.602846
O O5 0.804330 0.500000 0.748608
O O6 0.736769 0.323222 0.833162
O O7 0.848295 0.316947 0.869877
O O8 0.709417 0.500000 0.964256
O O9 0.646493 0.727412 0.922587
O O10 0.750000 0.750000 0.000000
O O11 0.557100 0.761476 0.204641
O O12 0.563105 0.000000 0.108403
O O13 0.559652 0.751024 0.026272
O O14 0.149263 0.500000 0.525832
O O15 0.105140 0.744786 0.575395
O O16 0.421214 0.500000 0.041265
O O17 0.452975 0.712808 0.151412
O O18 0.981226 0.216907 0.325422
O O19 0.000000 0.216138 0.500000
O O20 0.941608 0.000000 0.421458
O O21 0.484095 0.500000 0.772667
#
# Coordination Sequence:
#
# PCOD8101236 Si02
#       8
#     8   8   8   8   8   8   8   8
#     4  10  22  39  62  91 120 156 199 241 291 356
#     4  10  22  37  57  87 121 155 194 241 299 355
#     4  10  20  36  57  83 116 153 191 234 290 348
#     4  11  23  39  59  87 121 157 198 249 301 348
#     4  10  22  41  63  90 122 155 193 244 303 353
#     4  10  21  38  61  86 115 158 202 243 296 355
#     4  10  23  42  64  91 120 157 203 249 297 358
#     4  10  23  41  61  86 117 156 202 249 296 352
#
# _framework density 20.060445999999999
#
# number of rings (size 3 to 8) (size 9 to 14) (size 15 to 20)
#    0.000    1.875    1.250    1.500    3.500    5.750 
#    0.000    0.000    0.000    0.000    0.000    0.000 
#    0.000    0.000    0.000    0.000    0.000    0.000 
#
# Total GULP energy -396856.335031 kJ/mol
# GULP energy per Si atom -12401.760470 kJ/mol
# Density = 2.001479 g / cm^3
# Si number density = 20.060446 Si / 1000 Ang^3
#
#
#
# Elastic Constant Matrix: (Units=GPa)
#
#
# Indices 1 2 3 4 5 6 
#
# 1 84.7505 36.7473 37.9062 0.0000 -19.0433 0.0000
# 2 36.7473 70.1911 45.8872 0.0000 -8.9385 0.0000
# 3 37.9062 45.8872 129.7413 0.0000 -7.6347 0.0000
# 4 0.0000 0.0000 0.0000 28.5576 0.0000 -3.1876
# 5 -19.0433 -8.9385 -7.6347 0.0000 28.8976 0.0000
# 6 0.0000 0.0000 0.0000 -3.1876 0.0000 33.9118
#
#
#
# Elastic Compliance Matrix: (Units=1/GPa)
#
#
# Indices 1 2 3 4 5 6 
#
# 1 0.017732 -0.006626 -0.002306 0.000000 0.009026 0.000000
# 2 -0.006626 0.021490 -0.005618 0.000000 0.000796 0.000000
# 3 -0.002306 -0.005618 0.010337 0.000000 -0.000526 0.000000
# 4 0.000000 0.000000 0.000000 0.035388 0.000000 0.003326
# 5 0.009026 0.000796 -0.000526 0.000000 0.040661 0.000000
# 6 0.000000 0.000000 0.000000 0.003326 0.000000 0.029801
#
#
# Mechanical properties :
#
#
# Convention : Reuss Voigt Hill
#
# Bulk Modulus (GPa) = 48.87769 58.41827 53.64798
# Shear Modulus (GPa) = 26.13300 29.21621 27.67461
#
# Velocity S-wave (km/s) = 3.61323 3.82043 3.71827
# Velocity P-wave (km/s) = 6.46725 6.97462 6.72572
#
# Compressibility (1/GPa) = 0.02045923
#
# Stress axis : x y z
#
# Youngs Moduli (GPa) = 56.39492 46.53351 96.73694
#
# Poissons Ratio (x) = 0.30835 0.22307
# Poissons Ratio (y) = 0.37369 0.54344
# Poissons Ratio (z) = 0.13004 0.26141
#
# Static dielectric constant tensor:
#      x y z
#    x 3.841260 0.000000 -0.121160 
#    y 0.000000 3.609850 0.000000 
#    z -0.121160 0.000000 3.624110 
# 
# 
# High freq. dielectric constant tensor:
#      x y z
#    x 1.792660 0.000000 -0.004510 
#    y 0.000000 1.778990 0.000000 
#    z -0.004510 0.000000 1.780680 
# 
# From -- ./inp_files/238773.got.cif
#   From: 2010.06.25/outbox.cif.g09.slc.cpg/sg12_120_cif.got.tgz:238773.got - 2010.06.28 00:19:55.
