data_PCOD8101102
_publ_section_title
;
Structure prediction by ZEFSAII (Michael W. Deem and Ramdas Pophale) SiO2 
 PCOD8101102
Probable space group: C 2/M
;
_chemical_formula_sum "Si O2"
_cell_formula_units_Z 64
_cell_length_a 14.672556
_cell_length_b 8.787963
_cell_length_c 25.733397
_cell_angle_alpha 90.000000
_cell_angle_beta 90.231272
_cell_angle_gamma 90.000000
_cell_volume 3318.085538
_symmetry_space_group_name_H-M "C 2/M"
_symmetry_group_IT_number 12
_symmetry_cell_setting 'monoclinic'
loop_
_space_group_symop_operation_xyz
x,y,z
-x,y,-z
-x,-y,-z
x,-y,z
1/2+x,1/2+y,z
1/2-x,1/2+y,-z
1/2-x,1/2-y,-z
1/2+x,1/2-y,z
loop_
_atom_site_type_symbol
_atom_site_label
_atom_site_fract_x
_atom_site_fract_y
_atom_site_fract_z
Si Si1 0.254587 0.677451 0.424131
Si Si2 0.871428 0.680883 0.138540
Si Si3 0.396702 0.179823 0.495920
Si Si4 0.112165 0.177555 0.238394
Si Si5 0.572771 0.179366 0.747299
Si Si6 0.265853 0.677907 0.305274
Si Si7 0.668429 0.678285 0.123376
Si Si8 0.481170 0.180505 0.942290
O O1 0.270993 0.500000 0.432851
O O2 0.345902 0.759982 0.444450
O O3 0.163512 0.731909 0.454372
O O4 0.239539 0.717851 0.364120
O O5 0.872833 0.500000 0.138896
O O6 0.898971 0.739474 0.195571
O O7 0.771311 0.741788 0.124178
O O8 0.941375 0.746181 0.096030
O O9 0.500000 0.246451 0.500000
O O10 0.402126 0.000000 0.491938
O O11 0.204946 0.221628 0.266958
O O12 0.120663 0.217640 0.177732
O O13 0.032063 0.278122 0.262889
O O14 0.092821 0.000000 0.246678
O O15 0.630667 0.270396 0.704694
O O16 0.587331 0.000000 0.740504
O O17 0.253236 0.500000 0.293477
O O18 0.667486 0.500000 0.112421
O O19 0.616974 0.761996 0.076610
O O20 0.481315 0.000000 0.941808
O O21 0.500000 0.243511 0.000000
#
# Coordination Sequence:
#
# PCOD8101102 Si02
#       8
#     8   8   8   8   8   8   8   8
#     4   9  20  37  55  82 118 150 186 235 285 331
#     4   9  18  35  56  78 107 142 179 225 281 336
#     4   9  18  35  60  85 111 149 194 232 276 337
#     4  11  22  37  57  85 114 149 195 237 285 347
#     4  11  21  37  59  82 111 151 192 238 291 341
#     4  11  23  38  56  84 122 157 193 240 287 340
#     4  10  20  36  57  79 107 143 183 228 278 337
#     4  10  21  37  57  82 111 143 182 229 283 344
#
# _framework density 19.288232000000001
#
# number of rings (size 3 to 8) (size 9 to 14) (size 15 to 20)
#    0.000    2.000    2.500    1.125    0.000    3.500 
#    0.000    1.875    0.000    0.000    0.000    0.000 
#    0.000    0.000    0.000    0.000    0.000    0.000 
#
# Total GULP energy -396887.711591 kJ/mol
# GULP energy per Si atom -12402.740987 kJ/mol
# Density = 1.924433 g / cm^3
# Si number density = 19.288232 Si / 1000 Ang^3
#
#
#
# Elastic Constant Matrix: (Units=GPa)
#
#
# Indices 1 2 3 4 5 6 
#
# 1 108.4498 19.1513 14.5781 0.0000 -3.4657 0.0000
# 2 19.1513 30.0455 32.8153 0.0000 1.4993 0.0000
# 3 14.5781 32.8153 76.0188 0.0000 -4.2899 0.0000
# 4 0.0000 0.0000 0.0000 25.2645 0.0000 4.8655
# 5 -3.4657 1.4993 -4.2899 0.0000 27.1369 0.0000
# 6 0.0000 0.0000 0.0000 4.8655 0.0000 33.4751
#
#
#
# Elastic Compliance Matrix: (Units=1/GPa)
#
#
# Indices 1 2 3 4 5 6 
#
# 1 0.010622 -0.009059 0.001996 0.000000 0.002173 0.000000
# 2 -0.009059 0.072399 -0.030075 0.000000 -0.009911 0.000000
# 3 0.001996 -0.030075 0.026095 0.000000 0.006042 0.000000
# 4 0.000000 0.000000 0.000000 0.040721 0.000000 -0.005919
# 5 0.002173 -0.009911 0.006042 0.000000 0.038630 0.000000
# 6 0.000000 0.000000 0.000000 -0.005919 0.000000 0.030733
#
#
# Mechanical properties :
#
#
# Convention : Reuss Voigt Hill
#
# Bulk Modulus (GPa) = 28.70197 38.62261 33.66229
# Shear Modulus (GPa) = 16.38860 27.03990 21.71425
#
# Velocity S-wave (km/s) = 2.91807 3.74824 3.35890
# Velocity P-wave (km/s) = 5.12507 6.22895 5.70378
#
# Compressibility (1/GPa) = 0.03484082
#
# Stress axis : x y z
#
# Youngs Moduli (GPa) = 94.14687 13.81229 38.32106
#
# Poissons Ratio (x) = 0.12513 -0.07650
# Poissons Ratio (y) = 0.85288 1.15250
# Poissons Ratio (z) = -0.18794 0.41540
#
# Static dielectric constant tensor:
#      x y z
#    x 3.678560 0.000000 -0.118260 
#    y 0.000000 3.261870 0.000000 
#    z -0.118260 0.000000 3.555320 
# 
# 
# High freq. dielectric constant tensor:
#      x y z
#    x 1.761980 0.000000 -0.002690 
#    y 0.000000 1.733630 0.000000 
#    z -0.002690 0.000000 1.745140 
# 
# From -- ./inp_files/338803.got.cif
#   From: 2010.06.25/outbox.cif.g09.slc.cpg/sg12_170_cif.got.tgz:338803.got - 2010.06.28 00:19:55.
