data_PCOD8101935
_publ_section_title
;
Structure prediction by ZEFSAII (Michael W. Deem and Ramdas Pophale) SiO2 
 PCOD8101935
Probable space group: C 2/M
;
_chemical_formula_sum "Si O2"
_cell_formula_units_Z 64
_cell_length_a 18.708983
_cell_length_b 23.425391
_cell_length_c 15.457902
_cell_angle_alpha 90.000000
_cell_angle_beta 27.984597
_cell_angle_gamma 90.000000
_cell_volume 3178.902577
_symmetry_space_group_name_H-M "C 2/M"
_symmetry_group_IT_number 12
_symmetry_cell_setting 'monoclinic'
loop_
_space_group_symop_operation_xyz
x,y,z
-x,y,-z
-x,-y,-z
x,-y,z
1/2+x,1/2+y,z
1/2-x,1/2+y,-z
1/2-x,1/2-y,-z
1/2+x,1/2-y,z
loop_
_atom_site_type_symbol
_atom_site_label
_atom_site_fract_x
_atom_site_fract_y
_atom_site_fract_z
Si Si1 0.096432 0.760093 0.977997
Si Si2 0.963321 0.936046 0.639867
Si Si3 0.580599 0.389170 0.001817
Si Si4 0.741260 0.329559 0.107240
Si Si5 0.969381 0.644635 0.306612
Si Si6 0.646989 0.617464 0.591217
Si Si7 0.598484 0.935698 0.311858
Si Si8 0.016530 0.231552 0.716363
O O1 0.238505 0.715530 0.834916
O O2 0.149620 0.825815 0.912056
O O3 0.987691 0.756315 0.177355
O O4 0.000000 0.739464 0.000000
O O5 0.103669 0.922877 0.555885
O O6 0.000000 0.933021 0.500000
O O7 0.834304 0.889156 0.789371
O O8 0.904561 0.000000 0.724882
O O9 0.466715 0.392878 0.205986
O O10 0.500000 0.409908 0.000000
O O11 0.721075 0.431340 0.865619
O O12 0.648077 0.294329 0.134772
O O13 0.910169 0.346365 0.898163
O O14 0.821419 0.609027 0.433572
O O15 0.052626 0.608083 0.288426
O O16 0.933796 0.708736 0.382587
O O17 0.640497 0.682949 0.564110
O O18 0.500000 0.919357 0.500000
O O19 0.562117 0.000000 0.320955
#
# Coordination Sequence:
#
# PCOD8101935 Si02
#       8
#     8   8   8   8   8   8   8   8
#     4   9  17  30  54  86 116 141 173 221 274 332
#     4  10  23  43  61  77 105 148 197 242 285 339
#     4  10  20  38  60  85 119 156 189 223 277 343
#     4  10  20  36  60  84 112 148 185 228 281 336
#     4  11  20  35  59  85 117 148 183 232 283 338
#     4  10  21  36  59  88 116 149 188 230 281 341
#     4  11  24  39  55  80 113 149 194 243 285 331
#     4   9  18  35  55  82 116 152 183 216 274 341
#
# _framework density 20.132733999999999
#
# number of rings (size 3 to 8) (size 9 to 14) (size 15 to 20)
#    0.000    2.000    0.000    5.625    0.000    4.750 
#    0.000    9.375    0.000    1.875    0.000    0.000 
#    0.000    0.000    0.000    0.000    0.000    0.000 
#
# Total GULP energy -396506.165179 kJ/mol
# GULP energy per Si atom -12390.817662 kJ/mol
# Density = 2.008691 g / cm^3
# Si number density = 20.132734 Si / 1000 Ang^3
#
#
#
# Elastic Constant Matrix: (Units=GPa)
#
#
# Indices 1 2 3 4 5 6 
#
# 1 133.7781 43.2908 36.5294 0.1129 -2.0569 0.0180
# 2 43.2908 87.8612 12.7898 -0.1173 4.5692 -0.1398
# 3 36.5294 12.7898 73.9674 -0.0352 -13.5900 -0.0394
# 4 0.1129 -0.1173 -0.0352 40.9212 -0.0450 14.7967
# 5 -2.0569 4.5692 -13.5900 -0.0450 25.5829 -0.0111
# 6 0.0180 -0.1398 -0.0394 14.7967 -0.0111 25.9779
#
#
#
# Elastic Compliance Matrix: (Units=1/GPa)
#
#
# Indices 1 2 3 4 5 6 
#
# 1 0.010035 -0.004272 -0.004354 -0.000039 -0.000743 -0.000014
# 2 -0.004272 0.013784 -0.000874 0.000025 -0.003270 0.000060
# 3 -0.004354 -0.000874 0.017492 0.000030 0.009098 0.000011
# 4 -0.000039 0.000025 0.000030 0.030776 0.000055 -0.017529
# 5 -0.000743 -0.003270 0.009098 0.000055 0.044446 -0.000016
# 6 -0.000014 0.000060 0.000011 -0.017529 -0.000016 0.048479
#
#
# Mechanical properties :
#
#
# Convention : Reuss Voigt Hill
#
# Bulk Modulus (GPa) = 44.82057 53.42517 49.12287
# Shear Modulus (GPa) = 26.11651 32.02950 29.07301
#
# Velocity S-wave (km/s) = 3.60560 3.99296 3.80421
# Velocity P-wave (km/s) = 6.29640 6.91754 6.61426
#
# Compressibility (1/GPa) = 0.02231118
#
# Stress axis : x y z
#
# Youngs Moduli (GPa) = 99.65185 72.54816 57.16766
#
# Poissons Ratio (x) = 0.30993 0.24889
# Poissons Ratio (y) = 0.42572 0.04998
# Poissons Ratio (z) = 0.43385 0.06343
#
# Static dielectric constant tensor:
#      x y z
#    x 3.756190 -0.000080 -0.368560 
#    y -0.000080 4.072640 -0.000020 
#    z -0.368560 -0.000020 1.941480 
# 
# 
# High freq. dielectric constant tensor:
#      x y z
#    x 1.793020 -0.000010 -0.009480 
#    y -0.000010 1.796050 0.000010 
#    z -0.009480 0.000010 1.756570 
# 
# From -- ./inp_files/228136.got.cif
#   From: 2010.06.25/outbox.cif.g09.slc.cpg/sg12_115_cif.got.tgz:228136.got - 2010.06.28 00:19:55.
