data_PCOD8101692
_publ_section_title
;
Structure prediction by ZEFSAII (Michael W. Deem and Ramdas Pophale) SiO2 
 PCOD8101692
Probable space group: C 2/M
;
_chemical_formula_sum "Si O2"
_cell_formula_units_Z 32
_cell_length_a 7.547568
_cell_length_b 18.364677
_cell_length_c 18.050181
_cell_angle_alpha 90.000000
_cell_angle_beta 40.571703
_cell_angle_gamma 90.000000
_cell_volume 1627.240919
_symmetry_space_group_name_H-M "C 2/M"
_symmetry_group_IT_number 12
_symmetry_cell_setting 'monoclinic'
loop_
_space_group_symop_operation_xyz
x,y,z
-x,y,-z
-x,-y,-z
x,-y,z
1/2+x,1/2+y,z
1/2-x,1/2+y,-z
1/2-x,1/2-y,-z
1/2+x,1/2-y,z
loop_
_atom_site_type_symbol
_atom_site_label
_atom_site_fract_x
_atom_site_fract_y
_atom_site_fract_z
Si Si1 0.792595 0.417916 0.384009
Si Si2 0.902995 0.581387 0.853709
Si Si3 0.163571 0.311388 0.878433
Si Si4 0.694687 0.337051 0.790993
O O1 0.500000 0.385311 0.500000
O O2 0.825561 0.500000 0.405771
O O3 0.823100 0.419576 0.284628
O O4 0.034809 0.365753 0.338373
O O5 0.815506 0.500000 0.904953
O O6 0.966854 0.627996 0.905946
O O7 0.662770 0.617305 0.878707
O O8 0.440498 0.349533 0.817831
O O9 0.225370 0.248473 0.799567
O O10 0.000000 0.277598 0.000000
#
# Coordination Sequence:
#
# PCOD8101692 Si02
#       4
#     8   8   8   8
#     4   8  16  36  62  83 114 153 183 230 295 344
#     4   9  21  38  57  85 118 146 191 242 279 340
#     4  12  23  37  60  82 117 159 196 234 290 337
#     4  10  20  36  59  84 112 152 193 237 280 341
#
# _framework density 19.665189999999999
#
# number of rings (size 3 to 8) (size 9 to 14) (size 15 to 20)
#    1.500    0.750    2.500    0.750    0.000    2.500 
#    0.000    7.500    0.000    4.500    0.000    0.000 
#    0.000    0.000    0.000    0.000    0.000    0.000 
#
# Total GULP energy -198244.835529 kJ/mol
# GULP energy per Si atom -12390.302221 kJ/mol
# Density = 1.962043 g / cm^3
# Si number density = 19.665190 Si / 1000 Ang^3
#
#
#
# Elastic Constant Matrix: (Units=GPa)
#
#
# Indices 1 2 3 4 5 6 
#
# 1 95.1270 32.2893 -3.8299 0.0004 -22.6512 0.0000
# 2 32.2893 113.1675 -1.5388 -0.0001 -12.9171 0.0003
# 3 -3.8299 -1.5388 50.8280 -0.0004 -17.8206 0.0005
# 4 0.0004 -0.0001 -0.0004 24.2785 -0.0001 1.5326
# 5 -22.6512 -12.9171 -17.8206 -0.0001 28.9982 0.0001
# 6 0.0000 0.0003 0.0005 1.5326 0.0001 16.0197
#
#
#
# Elastic Compliance Matrix: (Units=1/GPa)
#
#
# Indices 1 2 3 4 5 6 
#
# 1 0.015047 -0.002573 0.006086 0.000000 0.014348 0.000000
# 2 -0.002573 0.009949 0.001219 0.000000 0.003171 0.000000
# 3 0.006086 0.001219 0.028076 0.000000 0.022551 -0.000001
# 4 0.000000 0.000000 0.000000 0.041439 0.000000 -0.003964
# 5 0.014348 0.003171 0.022551 0.000000 0.060964 -0.000001
# 6 0.000000 0.000000 -0.000001 -0.003964 -0.000001 0.062802
#
#
# Mechanical properties :
#
#
# Convention : Reuss Voigt Hill
#
# Bulk Modulus (GPa) = 15.99031 34.77377 25.38204
# Shear Modulus (GPa) = 21.77153 29.33942 25.55547
#
# Velocity S-wave (km/s) = 3.33094 3.86676 3.60881
# Velocity P-wave (km/s) = 4.78983 6.13654 5.50452
#
# Compressibility (1/GPa) = 0.06253786
#
# Stress axis : x y z
#
# Youngs Moduli (GPa) = 66.45827 100.51155 35.61722
#
# Poissons Ratio (x) = 0.25860 -0.21678
# Poissons Ratio (y) = 0.17099 -0.04343
# Poissons Ratio (z) = -0.40449 -0.12255
#
# Static dielectric constant tensor:
#      x y z
#    x 3.341090 0.000000 -0.146890 
#    y 0.000000 3.475770 0.000000 
#    z -0.146890 0.000000 3.409830 
# 
# 
# High freq. dielectric constant tensor:
#      x y z
#    x 1.740480 0.000000 -0.014480 
#    y 0.000000 1.767010 0.000000 
#    z -0.014480 0.000000 1.749860 
# 
# From -- ./inp_files/118116.got.cif
#   From: 2010.06.25/outbox.cif.g09.slc.cpg/sg12_60_cif.got.tgz:118116.got - 2010.06.28 00:19:55.
