data_PCOD8101016
_publ_section_title
;
Structure prediction by ZEFSAII (Michael W. Deem and Ramdas Pophale) SiO2 
 PCOD8101016
Probable space group: C 2/M
;
_chemical_formula_sum "Si O2"
_cell_formula_units_Z 48
_cell_length_a 29.063962
_cell_length_b 9.668868
_cell_length_c 18.414713
_cell_angle_alpha 90.000000
_cell_angle_beta 30.165331
_cell_angle_gamma 90.000000
_cell_volume 2600.331895
_symmetry_space_group_name_H-M "C 2/M"
_symmetry_group_IT_number 12
_symmetry_cell_setting 'monoclinic'
loop_
_space_group_symop_operation_xyz
x,y,z
-x,y,-z
-x,-y,-z
x,-y,z
1/2+x,1/2+y,z
1/2-x,1/2+y,-z
1/2-x,1/2-y,-z
1/2+x,1/2-y,z
loop_
_atom_site_type_symbol
_atom_site_label
_atom_site_fract_x
_atom_site_fract_y
_atom_site_fract_z
Si Si1 0.973978 0.656278 0.613404
Si Si2 0.542676 0.661082 0.652829
Si Si3 0.602261 0.843919 0.888749
Si Si4 0.737921 0.152379 0.082794
Si Si5 0.894836 0.160964 0.973871
Si Si6 0.256809 0.661450 0.563369
O O1 0.012237 0.500000 0.572747
O O2 0.866023 0.652703 0.753575
O O3 0.000000 0.718928 0.500000
O O4 0.011955 0.751989 0.625179
O O5 0.528195 0.500000 0.654294
O O6 0.647789 0.695091 0.526917
O O7 0.480589 0.704489 0.806374
O O8 0.606980 0.744471 0.950118
O O9 0.673642 0.794716 0.729642
O O10 0.627174 0.000000 0.878717
O O11 0.500000 0.835859 0.000000
O O12 0.800352 0.202717 0.063946
O O13 0.771964 0.000000 0.013062
O O14 0.750000 0.250000 0.000000
O O15 0.900420 0.000000 0.986147
O O16 0.250805 0.500000 0.550550
O O17 0.250000 0.750000 0.500000
#
# Coordination Sequence:
#
# PCOD8101016 Si02
#       6
#     8   8   8   8   8   8
#     4  10  22  37  55  81 113 148 188 229 271 325
#     4  10  21  38  57  81 112 145 185 229 274 326
#     4  10  22  39  58  83 113 142 179 226 274 328
#     4  10  20  36  56  81 112 147 187 227 269 322
#     4  10  21  36  57  83 111 143 183 228 271 321
#     4  10  22  39  59  84 112 144 182 225 274 331
#
# _framework density 18.459182999999999
#
# number of rings (size 3 to 8) (size 9 to 14) (size 15 to 20)
#    0.000    2.000    1.667    1.000    2.333    3.333 
#    0.000    0.000    0.000    0.000    0.000    0.000 
#    0.000    0.000    0.000    0.000    0.000    0.000 
#
# Total GULP energy -297590.104347 kJ/mol
# GULP energy per Si atom -12399.587681 kJ/mol
# Density = 1.841717 g / cm^3
# Si number density = 18.459183 Si / 1000 Ang^3
#
#
#
# Elastic Constant Matrix: (Units=GPa)
#
#
# Indices 1 2 3 4 5 6 
#
# 1 120.0617 68.5171 77.0141 0.0001 12.9925 -0.0003
# 2 68.5171 78.9172 56.8375 0.0004 20.0767 0.0002
# 3 77.0141 56.8375 136.2833 -0.0001 12.5684 0.0001
# 4 0.0001 0.0004 -0.0001 25.7714 0.0003 8.0725
# 5 12.9925 20.0767 12.5684 0.0003 40.6896 -0.0001
# 6 -0.0003 0.0002 0.0001 8.0725 -0.0001 39.7040
#
#
#
# Elastic Compliance Matrix: (Units=1/GPa)
#
#
# Indices 1 2 3 4 5 6 
#
# 1 0.019186 -0.013212 -0.005526 0.000000 0.002100 0.000000
# 2 -0.013212 0.029241 -0.003898 0.000000 -0.009005 0.000000
# 3 -0.005526 -0.003898 0.012090 0.000000 -0.000047 0.000000
# 4 0.000000 0.000000 0.000000 0.041442 0.000000 -0.008426
# 5 0.002100 -0.009005 -0.000047 0.000000 0.028363 0.000000
# 6 0.000000 0.000000 0.000000 -0.008426 0.000000 0.026899
#
#
# Mechanical properties :
#
#
# Convention : Reuss Voigt Hill
#
# Bulk Modulus (GPa) = 65.59432 82.22217 73.90824
# Shear Modulus (GPa) = 24.08741 30.09256 27.08999
#
# Velocity S-wave (km/s) = 3.61626 4.04198 3.83503
# Velocity P-wave (km/s) = 7.28343 8.15002 7.72888
#
# Compressibility (1/GPa) = 0.01524522
#
# Stress axis : x y z
#
# Youngs Moduli (GPa) = 52.12037 34.19826 82.71064
#
# Poissons Ratio (x) = 0.45184 0.45703
# Poissons Ratio (y) = 0.68863 0.32244
# Poissons Ratio (z) = 0.28800 0.13332
#
# Static dielectric constant tensor:
#      x y z
#    x 3.235230 0.000010 0.160570 
#    y 0.000010 3.316380 -0.000020 
#    z 0.160570 -0.000020 2.399050 
# 
# 
# High freq. dielectric constant tensor:
#      x y z
#    x 1.720280 0.000000 -0.008560 
#    y 0.000000 1.714300 0.000000 
#    z -0.008560 0.000000 1.732490 
# 
# From -- ./inp_files/232812.got.cif
#   From: 2010.06.25/outbox.cif.g09.slc.cpg/sg12_117_cif.got.tgz:232812.got - 2010.06.28 00:19:55.
