data_PCOD8101918
_publ_section_title
;
Structure prediction by ZEFSAII (Michael W. Deem and Ramdas Pophale) SiO2 
 PCOD8101918
Probable space group: C 2/M
;
_chemical_formula_sum "Si O2"
_cell_formula_units_Z 44
_cell_length_a 23.487499
_cell_length_b 13.105428
_cell_length_c 8.005006
_cell_angle_alpha 90.000000
_cell_angle_beta 103.240580
_cell_angle_gamma 90.000000
_cell_volume 2398.548694
_symmetry_space_group_name_H-M "C 2/M"
_symmetry_group_IT_number 12
_symmetry_cell_setting 'monoclinic'
loop_
_space_group_symop_operation_xyz
x,y,z
-x,y,-z
-x,-y,-z
x,-y,z
1/2+x,1/2+y,z
1/2-x,1/2+y,-z
1/2-x,1/2-y,-z
1/2+x,1/2-y,z
loop_
_atom_site_type_symbol
_atom_site_label
_atom_site_fract_x
_atom_site_fract_y
_atom_site_fract_z
Si Si1 0.649740 0.746288 0.412424
Si Si2 0.757224 0.798811 0.272170
Si Si3 0.538852 0.879242 0.363252
Si Si4 0.726381 0.389282 0.050998
Si Si5 0.398225 0.617373 0.905565
Si Si6 0.500000 0.231952 0.000000
O O1 0.698671 0.809072 0.341811
O O2 0.682903 0.689478 0.585109
O O3 0.601595 0.827491 0.439359
O O4 0.619740 0.654419 0.291151
O O5 0.754013 0.884701 0.128444
O O6 0.761927 0.688438 0.188290
O O7 0.500000 0.853141 0.500000
O O8 0.511260 0.837038 0.171466
O O9 0.546931 0.000000 0.348528
O O10 0.742112 0.500000 0.133766
O O11 0.656892 0.370226 0.009420
O O12 0.420279 0.500000 0.911753
O O13 0.446721 0.693314 0.010803
#
# Coordination Sequence:
#
# PCOD8101918 Si02
#       6
#     8   8   8   8   8   4
#     4   9  19  34  54  75 105 140 172 223 265 320
#     4   9  18  33  52  76 104 138 176 211 268 318
#     4  10  22  38  56  81 109 142 186 228 268 318
#     4   9  18  31  49  75 105 134 171 216 262 319
#     4   9  18  33  53  78 104 136 173 215 270 321
#     4  10  20  36  60  76 106 148 176 222 272 320
#
# _framework density 18.344425000000001
#
# number of rings (size 3 to 8) (size 9 to 14) (size 15 to 20)
#    0.000    2.727    0.000    0.545    2.545    2.182 
#    0.000    3.636    0.000    2.727    0.000    0.000 
#    0.000    0.000    0.000    0.000    0.000    0.000 
#
# Total GULP energy -272706.997320 kJ/mol
# GULP energy per Si atom -12395.772605 kJ/mol
# Density = 1.830267 g / cm^3
# Si number density = 18.344425 Si / 1000 Ang^3
#
#
#
# Elastic Constant Matrix: (Units=GPa)
#
#
# Indices 1 2 3 4 5 6 
#
# 1 76.8933 30.9329 32.6739 0.0000 -2.7571 0.0000
# 2 30.9329 76.1231 7.9556 0.0000 -4.4131 0.0000
# 3 32.6739 7.9556 63.7518 0.0000 -6.4412 0.0000
# 4 0.0000 0.0000 0.0000 9.4665 0.0000 -2.9507
# 5 -2.7571 -4.4131 -6.4412 0.0000 28.9984 0.0000
# 6 0.0000 0.0000 0.0000 -2.9507 0.0000 24.9562
#
#
#
# Elastic Compliance Matrix: (Units=1/GPa)
#
#
# Indices 1 2 3 4 5 6 
#
# 1 0.019830 -0.007150 -0.009401 0.000000 -0.001291 0.000000
# 2 -0.007150 0.015970 0.001891 0.000000 0.002171 0.000000
# 3 -0.009401 0.001891 0.020671 0.000000 0.003985 0.000000
# 4 0.000000 0.000000 0.000000 0.109678 0.000000 0.012968
# 5 -0.001291 0.002171 0.003985 0.000000 0.035577 0.000000
# 6 0.000000 0.000000 0.000000 0.012968 0.000000 0.041603
#
#
# Mechanical properties :
#
#
# Convention : Reuss Voigt Hill
#
# Bulk Modulus (GPa) = 36.83248 39.98811 38.41030
# Shear Modulus (GPa) = 17.74929 22.36461 20.05695
#
# Velocity S-wave (km/s) = 3.11393 3.49542 3.31018
# Velocity P-wave (km/s) = 5.74897 6.17547 5.96603
#
# Compressibility (1/GPa) = 0.02714995
#
# Stress axis : x y z
#
# Youngs Moduli (GPa) = 50.42828 62.61588 48.37710
#
# Poissons Ratio (x) = 0.44773 0.45482
# Poissons Ratio (y) = 0.36058 -0.09148
# Poissons Ratio (z) = 0.47410 -0.11841
#
# Static dielectric constant tensor:
#      x y z
#    x 3.445700 0.000000 -0.038870 
#    y 0.000000 3.332660 0.000000 
#    z -0.038870 0.000000 3.357620 
# 
# 
# High freq. dielectric constant tensor:
#      x y z
#    x 1.711660 0.000000 -0.001270 
#    y 0.000000 1.708500 0.000000 
#    z -0.001270 0.000000 1.708940 
# 
# From -- ./inp_files/94589.got.cif
#   From: 2010.06.25/outbox.cif.g09.slc.cpg/sg12_48_cif.got.tgz:94589.got - 2010.06.28 00:19:55.
