data_PCOD8101746
_publ_section_title
;
Structure prediction by ZEFSAII (Michael W. Deem and Ramdas Pophale) SiO2 
 PCOD8101746
Probable space group: C 2/M
;
_chemical_formula_sum "Si O2"
_cell_formula_units_Z 56
_cell_length_a 31.757781
_cell_length_b 8.621839
_cell_length_c 11.940674
_cell_angle_alpha 90.000000
_cell_angle_beta 56.563729
_cell_angle_gamma 90.000000
_cell_volume 2728.379843
_symmetry_space_group_name_H-M "C 2/M"
_symmetry_group_IT_number 12
_symmetry_cell_setting 'monoclinic'
loop_
_space_group_symop_operation_xyz
x,y,z
-x,y,-z
-x,-y,-z
x,-y,z
1/2+x,1/2+y,z
1/2-x,1/2+y,-z
1/2-x,1/2-y,-z
1/2+x,1/2-y,z
loop_
_atom_site_type_symbol
_atom_site_label
_atom_site_fract_x
_atom_site_fract_y
_atom_site_fract_z
Si Si1 0.320717 0.316229 0.148999
Si Si2 0.380486 0.317625 0.673803
Si Si3 0.194382 0.682843 0.596297
Si Si4 0.606510 0.316873 0.591917
Si Si5 0.507505 0.684872 0.863139
Si Si6 0.913424 0.184643 0.861657
Si Si7 0.767365 0.815877 0.857518
O O1 0.318542 0.500000 0.157296
O O2 0.332642 0.250876 0.253985
O O3 0.266882 0.250485 0.191102
O O4 0.364021 0.258405 0.000917
O O5 0.377827 0.500000 0.695149
O O6 0.407433 0.275359 0.516987
O O7 0.410396 0.250126 0.738295
O O8 0.323594 0.253876 0.753431
O O9 0.198754 0.500000 0.597551
O O10 0.250000 0.750000 0.500000
O O11 0.158467 0.731479 0.546363
O O12 0.615163 0.500000 0.592808
O O13 0.560814 0.256443 0.736270
O O14 0.506114 0.500000 0.865287
O O15 0.463095 0.752090 0.849377
O O16 0.500000 0.748936 0.000000
O O17 0.915854 0.000000 0.859789
O O18 0.764036 0.000000 0.863176
O O19 0.750000 0.750000 0.000000
#
# Coordination Sequence:
#
# PCOD8101746 Si02
#       7
#     8   8   8   8   8   8   8
#     4  11  21  36  59  85 116 154 193 241 298 349
#     4   9  18  32  51  80 115 149 189 240 290 343
#     4  12  25  41  60  84 115 151 193 239 289 352
#     4  10  20  36  59  85 115 152 193 242 297 346
#     4   9  17  30  52  84 116 149 194 244 292 345
#     4   9  17  31  53  83 117 149 189 241 292 343
#     4  11  20  33  52  79 116 155 196 243 294 353
#
# _framework density 20.525003000000002
#
# number of rings (size 3 to 8) (size 9 to 14) (size 15 to 20)
#    0.000    1.857    1.429    3.857    0.000    4.000 
#    0.000    3.571    0.000    4.714    0.000    1.000 
#    0.000    0.000    0.000    0.000    0.000    0.000 
#
# Total GULP energy -347193.042241 kJ/mol
# GULP energy per Si atom -12399.751509 kJ/mol
# Density = 2.047829 g / cm^3
# Si number density = 20.525003 Si / 1000 Ang^3
#
#
#
# Elastic Constant Matrix: (Units=GPa)
#
#
# Indices 1 2 3 4 5 6 
#
# 1 158.5342 20.8463 66.1004 0.0000 4.5764 0.0000
# 2 20.8463 56.7376 25.2542 0.0000 -1.0268 0.0000
# 3 66.1004 25.2542 150.2816 0.0000 7.2459 0.0000
# 4 0.0000 0.0000 0.0000 20.1115 0.0000 3.7498
# 5 4.5764 -1.0268 7.2459 0.0000 36.9573 0.0000
# 6 0.0000 0.0000 0.0000 3.7498 0.0000 24.2739
#
#
#
# Elastic Compliance Matrix: (Units=1/GPa)
#
#
# Indices 1 2 3 4 5 6 
#
# 1 0.007839 -0.001471 -0.003182 0.000000 -0.000388 0.000000
# 2 -0.001471 0.019376 -0.002669 0.000000 0.001244 0.000000
# 3 -0.003182 -0.002669 0.008568 0.000000 -0.001360 0.000000
# 4 0.000000 0.000000 0.000000 0.051197 0.000000 -0.007909
# 5 -0.000388 0.001244 -0.001360 0.000000 0.027407 0.000000
# 6 0.000000 0.000000 0.000000 -0.007909 0.000000 0.042418
#
#
# Mechanical properties :
#
#
# Convention : Reuss Voigt Hill
#
# Bulk Modulus (GPa) = 47.30619 65.55057 56.42838
# Shear Modulus (GPa) = 28.01171 33.15868 30.58520
#
# Velocity S-wave (km/s) = 3.69827 4.02372 3.86443
# Velocity P-wave (km/s) = 6.42919 7.32075 6.88941
#
# Compressibility (1/GPa) = 0.02113888
#
# Stress axis : x y z
#
# Youngs Moduli (GPa) = 127.56437 51.61041 116.71444
#
# Poissons Ratio (x) = 0.07591 0.37140
# Poissons Ratio (y) = 0.18763 0.31152
# Poissons Ratio (z) = 0.40593 0.13775
#
# Static dielectric constant tensor:
#      x y z
#    x 4.059140 0.000000 0.127450 
#    y 0.000000 3.282790 0.000000 
#    z 0.127450 0.000000 3.938850 
# 
# 
# High freq. dielectric constant tensor:
#      x y z
#    x 1.813120 0.000000 0.010880 
#    y 0.000000 1.753010 0.000000 
#    z 0.010880 0.000000 1.814960 
# 
# From -- ./inp_files/187177.got.cif
#   From: 2010.06.25/outbox.cif.g09.slc.cpg/sg12_94_cif.got.tgz:187177.got - 2010.06.28 00:19:55.
