data_PCOD8101166
_publ_section_title
;
Structure prediction by ZEFSAII (Michael W. Deem and Ramdas Pophale) SiO2 
 PCOD8101166
Probable space group: C 2/M
;
_chemical_formula_sum "Si O2"
_cell_formula_units_Z 40
_cell_length_a 27.385028
_cell_length_b 8.878970
_cell_length_c 18.651154
_cell_angle_alpha 90.000000
_cell_angle_beta 26.839992
_cell_angle_gamma 90.000000
_cell_volume 2047.574311
_symmetry_space_group_name_H-M "C 2/M"
_symmetry_group_IT_number 12
_symmetry_cell_setting 'monoclinic'
loop_
_space_group_symop_operation_xyz
x,y,z
-x,y,-z
-x,-y,-z
x,-y,z
1/2+x,1/2+y,z
1/2-x,1/2+y,-z
1/2-x,1/2-y,-z
1/2+x,1/2-y,z
loop_
_atom_site_type_symbol
_atom_site_label
_atom_site_fract_x
_atom_site_fract_y
_atom_site_fract_z
Si Si1 0.637081 0.677215 0.129181
Si Si2 0.726639 0.177894 0.738858
Si Si3 0.036120 0.820841 0.529812
Si Si4 0.173555 0.175402 0.658104
Si Si5 0.573906 0.325663 0.051913
O O1 0.648311 0.500000 0.123488
O O2 0.546333 0.740616 0.302240
O O3 0.602759 0.722442 0.094485
O O4 0.750000 0.750000 0.000000
O O5 0.844209 0.238065 0.608661
O O6 0.693220 0.255193 0.709479
O O7 0.727076 0.000000 0.726657
O O8 0.641147 0.220169 0.911417
O O9 0.000000 0.755962 0.500000
O O10 0.035622 0.000000 0.529091
O O11 0.250000 0.250000 0.500000
O O12 0.051436 0.207120 0.795248
O O13 0.199573 0.000000 0.626957
O O14 0.601914 0.500000 0.999997
#
# Coordination Sequence:
#
# PCOD8101166 Si02
#       5
#     8   8   8   8   8
#     4  10  20  36  57  81 111 146 186 232 283 337
#     4  11  22  37  60  87 113 146 191 237 281 333
#     4   9  18  34  56  81 111 148 187 228 278 336
#     4  11  23  40  61  84 114 151 189 230 281 337
#     4  10  22  39  57  80 115 155 189 229 284 340
#
# _framework density 19.535311
#
# number of rings (size 3 to 8) (size 9 to 14) (size 15 to 20)
#    0.000    1.800    0.000    4.200    0.000    9.600 
#    0.000    4.000    0.000    5.400    0.000    0.000 
#    0.000    0.000    0.000    0.000    0.000    0.000 
#
# Total GULP energy -248087.069488 kJ/mol
# GULP energy per Si atom -12404.353474 kJ/mol
# Density = 1.949085 g / cm^3
# Si number density = 19.535311 Si / 1000 Ang^3
#
#
#
# Elastic Constant Matrix: (Units=GPa)
#
#
# Indices 1 2 3 4 5 6 
#
# 1 196.9924 60.3886 87.4875 -0.0010 -0.0607 0.0001
# 2 60.3886 64.4642 63.0664 -0.0015 -3.1217 -0.0001
# 3 87.4875 63.0664 154.7149 -0.0035 8.7853 -0.0003
# 4 -0.0010 -0.0015 -0.0035 36.2137 0.0010 0.1283
# 5 -0.0607 -3.1217 8.7853 0.0010 42.2236 0.0002
# 6 0.0001 -0.0001 -0.0003 0.1283 0.0002 20.5290
#
#
#
# Elastic Compliance Matrix: (Units=1/GPa)
#
#
# Indices 1 2 3 4 5 6 
#
# 1 0.007591 -0.004819 -0.002336 0.000000 0.000141 0.000000
# 2 -0.004819 0.029598 -0.009577 0.000000 0.004174 0.000000
# 3 -0.002336 -0.009577 0.011869 0.000001 -0.003181 0.000000
# 4 0.000000 0.000000 0.000001 0.027614 -0.000001 -0.000173
# 5 0.000141 0.004174 -0.003181 -0.000001 0.024654 0.000000
# 6 0.000000 0.000000 0.000000 -0.000173 0.000000 0.048713
#
#
# Mechanical properties :
#
#
# Convention : Reuss Voigt Hill
#
# Bulk Modulus (GPa) = 64.12723 93.11739 78.62231
# Shear Modulus (GPa) = 26.49667 33.47517 29.98592
#
# Velocity S-wave (km/s) = 3.68686 4.14402 3.92211
# Velocity P-wave (km/s) = 7.14293 8.40636 7.80027
#
# Compressibility (1/GPa) = 0.01559400
#
# Stress axis : x y z
#
# Youngs Moduli (GPa) = 131.73145 33.78569 84.25105
#
# Poissons Ratio (x) = 0.16280 0.19684
# Poissons Ratio (y) = 0.63478 0.80690
# Poissons Ratio (z) = 0.30777 0.32358
#
# Static dielectric constant tensor:
#      x y z
#    x 3.777220 0.000000 -0.087200 
#    y 0.000000 3.396030 0.000000 
#    z -0.087200 0.000000 3.671230 
# 
# 
# High freq. dielectric constant tensor:
#      x y z
#    x 1.784120 0.000000 0.000220 
#    y 0.000000 1.741140 0.000000 
#    z 0.000220 0.000000 1.779830 
# 
# From -- ./inp_files/151743.got.cif
#   From: 2010.06.25/outbox.cif.g09.slc.cpg/sg12_76_cif.got.tgz:151743.got - 2010.06.28 00:19:55.
