data_PCOD8101074
_publ_section_title
;
Structure prediction by ZEFSAII (Michael W. Deem and Ramdas Pophale) SiO2 
 PCOD8101074
Probable space group: C 2/M
;
_chemical_formula_sum "Si O2"
_cell_formula_units_Z 56
_cell_length_a 19.481818
_cell_length_b 8.948304
_cell_length_c 27.325179
_cell_angle_alpha 90.000000
_cell_angle_beta 141.391372
_cell_angle_gamma 90.000000
_cell_volume 2972.459332
_symmetry_space_group_name_H-M "C 2/M"
_symmetry_group_IT_number 12
_symmetry_cell_setting 'monoclinic'
loop_
_space_group_symop_operation_xyz
x,y,z
-x,y,-z
-x,-y,-z
x,-y,z
1/2+x,1/2+y,z
1/2-x,1/2+y,-z
1/2-x,1/2-y,-z
1/2+x,1/2-y,z
loop_
_atom_site_type_symbol
_atom_site_label
_atom_site_fract_x
_atom_site_fract_y
_atom_site_fract_z
Si Si1 0.443152 0.176130 0.515190
Si Si2 0.366452 0.174614 0.063254
Si Si3 0.823285 0.177093 0.200213
Si Si4 0.398639 0.824139 0.972925
Si Si5 0.002800 0.323266 0.769897
Si Si6 0.147914 0.326200 0.683831
Si Si7 0.772169 0.826486 0.651146
O O1 0.500000 0.252868 0.500000
O O2 0.518045 0.220720 0.603771
O O3 0.313643 0.218336 0.440742
O O4 0.452616 0.000000 0.514144
O O5 0.443993 0.234557 0.149658
O O6 0.346872 0.000000 0.057609
O O7 0.250000 0.250000 0.000000
O O8 0.421124 0.215833 0.041893
O O9 0.718524 0.238560 0.111127
O O10 0.933498 0.249936 0.239939
O O11 0.805900 0.225942 0.246609
O O12 0.834217 0.000000 0.203184
O O13 0.396680 0.000000 0.962588
O O14 0.500000 0.750392 0.000000
O O15 0.010062 0.500000 0.768560
O O16 0.876743 0.275435 0.699871
O O17 0.157149 0.500000 0.703342
O O18 0.218364 0.293243 0.674166
O O19 0.805689 0.000000 0.666236
#
# Coordination Sequence:
#
# PCOD8101074 Si02
#       7
#     8   8   8   8   8   8   8
#     4   7  12  28  54  80 105 139 176 212 261 320
#     4  10  20  36  57  77 102 139 179 217 262 317
#     4  11  22  36  56  78 108 146 183 219 266 326
#     4   9  19  35  55  77 103 136 174 217 263 315
#     4  11  23  36  54  79 111 144 181 227 269 312
#     4   9  18  34  57  83 112 140 173 221 272 318
#     4   9  18  34  58  84 109 140 180 219 262 323
#
# _framework density 18.839618999999999
#
# number of rings (size 3 to 8) (size 9 to 14) (size 15 to 20)
#    0.000    2.571    1.429    2.571    2.000    1.143 
#    0.000    1.429    0.000    4.714    0.000    0.000 
#    0.000    0.000    0.000    0.000    0.000    0.000 
#
# Total GULP energy -346979.970155 kJ/mol
# GULP energy per Si atom -12392.141791 kJ/mol
# Density = 1.879674 g / cm^3
# Si number density = 18.839619 Si / 1000 Ang^3
#
#
#
# Elastic Constant Matrix: (Units=GPa)
#
#
# Indices 1 2 3 4 5 6 
#
# 1 82.2728 25.0024 23.6842 0.0000 12.8897 0.0000
# 2 25.0024 42.9609 20.2975 0.0000 4.8645 0.0002
# 3 23.6842 20.2975 80.2688 0.0000 15.5918 0.0000
# 4 0.0000 0.0000 0.0000 23.7622 0.0000 -0.6713
# 5 12.8897 4.8645 15.5918 0.0000 26.5400 0.0000
# 6 0.0000 0.0002 0.0000 -0.6713 0.0000 26.3156
#
#
#
# Elastic Compliance Matrix: (Units=1/GPa)
#
#
# Indices 1 2 3 4 5 6 
#
# 1 0.015843 -0.007834 -0.001668 0.000000 -0.005278 0.000000
# 2 -0.007834 0.030335 -0.005665 0.000000 0.001573 0.000000
# 3 -0.001668 -0.005665 0.015830 0.000000 -0.007452 0.000000
# 4 0.000000 0.000000 0.000000 0.042114 0.000000 0.001074
# 5 -0.005278 0.001573 -0.007452 0.000000 0.044332 0.000000
# 6 0.000000 0.000000 0.000000 0.001074 0.000000 0.038028
#
#
# Mechanical properties :
#
#
# Convention : Reuss Voigt Hill
#
# Bulk Modulus (GPa) = 31.57234 38.16340 34.86787
# Shear Modulus (GPa) = 21.99028 24.42478 23.20753
#
# Velocity S-wave (km/s) = 3.42019 3.60454 3.51358
# Velocity P-wave (km/s) = 5.69138 6.13389 5.91677
#
# Compressibility (1/GPa) = 0.03167330
#
# Stress axis : x y z
#
# Youngs Moduli (GPa) = 63.12047 32.96558 63.17045
#
# Poissons Ratio (x) = 0.25826 0.10538
# Poissons Ratio (y) = 0.49451 0.35783
# Poissons Ratio (z) = 0.10530 0.18674
#
# Static dielectric constant tensor:
#      x y z
#    x 3.406850 0.000000 -0.116360 
#    y 0.000000 3.122190 0.000000 
#    z -0.116360 0.000000 3.924140 
# 
# 
# High freq. dielectric constant tensor:
#      x y z
#    x 1.718830 0.000000 0.002650 
#    y 0.000000 1.700360 0.000000 
#    z 0.002650 0.000000 1.747010 
# 
# From -- ./inp_files/363122.got.cif
#   From: 2010.06.25/outbox.cif.g09.slc.cpg/sg12_182_cif.got.tgz:363122.got - 2010.06.28 00:19:55.
