data_PCOD8101676
_publ_section_title
;
Structure prediction by ZEFSAII (Michael W. Deem and Ramdas Pophale) SiO2 
 PCOD8101676
Probable space group: C 2/M
;
_chemical_formula_sum "Si O2"
_cell_formula_units_Z 56
_cell_length_a 8.942542
_cell_length_b 16.784719
_cell_length_c 20.089438
_cell_angle_alpha 90.000000
_cell_angle_beta 90.000000
_cell_angle_gamma 90.000000
_cell_volume 3015.385562
_symmetry_space_group_name_H-M "C 2/M"
_symmetry_group_IT_number 12
_symmetry_cell_setting 'monoclinic'
loop_
_space_group_symop_operation_xyz
x,y,z
-x,y,-z
-x,-y,-z
x,-y,z
1/2+x,1/2+y,z
1/2-x,1/2+y,-z
1/2-x,1/2-y,-z
1/2+x,1/2-y,z
loop_
_atom_site_type_symbol
_atom_site_label
_atom_site_fract_x
_atom_site_fract_y
_atom_site_fract_z
Si Si1 0.878752 0.406056 0.800259
Si Si2 0.251487 0.802770 0.909222
Si Si3 0.000000 0.239536 0.000000
Si Si4 0.316458 0.819036 0.200130
Si Si5 0.500000 0.239536 0.500000
Si Si6 0.683542 0.680964 0.700130
Si Si7 0.748513 0.697230 0.409222
Si Si8 0.621248 0.406056 0.300259
O O1 0.873908 0.500000 0.795327
O O2 0.771061 0.377656 0.860224
O O3 0.820313 0.369042 0.731073
O O4 0.046078 0.377242 0.814574
O O5 0.393266 0.797314 0.957668
O O6 0.240898 0.719826 0.868293
O O7 0.100294 0.816106 0.951787
O O8 0.371995 0.750000 0.250000
O O9 0.179687 0.869042 0.231073
O O10 0.393266 0.297314 0.542332
O O11 0.399707 0.183894 0.451787
O O12 0.740898 0.719826 0.631707
O O13 0.546078 0.622758 0.685426
O O14 0.728939 0.622344 0.360224
O O15 0.626091 0.500000 0.295327
#
# Coordination Sequence:
#
# PCOD8101676 Si02
#       8
#     8   8   4   8   4   8   8   8
#     4  11  22  36  56  87 118 142 175 233 292 328
#     4  10  20  37  61  85 106 148 192 233 260 336
#     4  10  20  36  62  82 106 146 204 224 264 310
#     4  10  20  36  59  84 109 147 186 229 272 334
#     4  10  20  36  62  82 106 146 204 224 264 310
#     4  10  20  36  59  84 109 147 186 229 272 334
#     4  10  20  37  61  85 106 148 192 233 260 336
#     4  11  22  36  56  87 118 142 175 233 292 328
#
# _framework density 18.571424
#
# number of rings (size 3 to 8) (size 9 to 14) (size 15 to 20)
#    0.000    1.714    2.857    3.429    4.000    0.000 
#    0.000    1.429    0.000    0.000    0.000    0.000 
#    0.000    0.000    0.000    0.000    0.000    0.000 
#
# Total GULP energy -347256.708543 kJ/mol
# GULP energy per Si atom -12402.025305 kJ/mol
# Density = 1.852915 g / cm^3
# Si number density = 18.571424 Si / 1000 Ang^3
#
#
#
# Elastic Constant Matrix: (Units=GPa)
#
#
# Indices 1 2 3 4 5 6 
#
# 1 98.3638 34.7341 41.6804 0.0000 0.0000 0.0000
# 2 34.7341 117.5207 37.3398 0.0000 0.0000 0.0000
# 3 41.6804 37.3398 99.7917 0.0000 0.0000 0.0000
# 4 0.0000 0.0000 0.0000 13.2380 0.0000 0.0000
# 5 0.0000 0.0000 0.0000 0.0000 36.3226 0.0000
# 6 0.0000 0.0000 0.0000 0.0000 0.0000 23.3769
#
#
#
# Elastic Compliance Matrix: (Units=1/GPa)
#
#
# Indices 1 2 3 4 5 6 
#
# 1 0.012917 -0.002387 -0.004502 0.000000 0.000000 0.000000
# 2 -0.002387 0.010099 -0.002782 0.000000 0.000000 0.000000
# 3 -0.004502 -0.002782 0.012942 0.000000 0.000000 0.000000
# 4 0.000000 0.000000 0.000000 0.075540 0.000000 0.000000
# 5 0.000000 0.000000 0.000000 0.000000 0.027531 0.000000
# 6 0.000000 0.000000 0.000000 0.000000 0.000000 0.042777
#
#
# Mechanical properties :
#
#
# Convention : Reuss Voigt Hill
#
# Bulk Modulus (GPa) = 60.18253 60.35385 60.26819
# Shear Modulus (GPa) = 24.19136 28.04898 26.12017
#
# Velocity S-wave (km/s) = 3.61309 3.89051 3.75436
# Velocity P-wave (km/s) = 7.06273 7.26294 7.16353
#
# Compressibility (1/GPa) = 0.01661612
#
# Stress axis : x y z
#
# Youngs Moduli (GPa) = 77.41780 99.02457 77.26830
#
# Poissons Ratio (x) = 0.23641 0.34784
# Poissons Ratio (y) = 0.18482 0.21492
# Poissons Ratio (z) = 0.34852 0.27544
#
# Static dielectric constant tensor:
#      x y z
#    x 3.534750 0.000000 0.000000 
#    y 0.000000 3.053820 0.000000 
#    z 0.000000 0.000000 3.659370 
# 
# 
# High freq. dielectric constant tensor:
#      x y z
#    x 1.736450 0.000000 0.000000 
#    y 0.000000 1.679700 0.000000 
#    z 0.000000 0.000000 1.730690 
# 
# From -- ./inp_files/300196.got.cif
#   From: 2010.06.25/outbox.cif.g09.slc.cpg/sg12_151_cif.got.tgz:300196.got - 2010.06.28 00:19:55.
