data_PCOD8101661
_publ_section_title
;
Structure prediction by ZEFSAII (Michael W. Deem and Ramdas Pophale) SiO2 
 PCOD8101661
Probable space group: C 2/M
;
_chemical_formula_sum "Si O2"
_cell_formula_units_Z 48
_cell_length_a 20.457577
_cell_length_b 13.036909
_cell_length_c 9.796552
_cell_angle_alpha 90.000000
_cell_angle_beta 89.380718
_cell_angle_gamma 90.000000
_cell_volume 2612.622773
_symmetry_space_group_name_H-M "C 2/M"
_symmetry_group_IT_number 12
_symmetry_cell_setting 'monoclinic'
loop_
_space_group_symop_operation_xyz
x,y,z
-x,y,-z
-x,-y,-z
x,-y,z
1/2+x,1/2+y,z
1/2-x,1/2+y,-z
1/2-x,1/2-y,-z
1/2+x,1/2-y,z
loop_
_atom_site_type_symbol
_atom_site_label
_atom_site_fract_x
_atom_site_fract_y
_atom_site_fract_z
Si Si1 0.788120 0.882809 0.094025
Si Si2 0.076786 0.382708 0.769957
Si Si3 0.851566 0.691454 0.484305
Si Si4 0.281967 0.614578 0.412456
Si Si5 0.650042 0.809871 0.021510
Si Si6 0.929675 0.622380 0.728420
O O1 0.779174 0.855191 0.253241
O O2 0.719848 0.866173 0.017282
O O3 0.811207 0.000000 0.073392
O O4 0.842329 0.808764 0.024860
O O5 0.077503 0.500000 0.724907
O O6 0.126569 0.323162 0.671705
O O7 0.002991 0.341559 0.759034
O O8 0.100497 0.369274 0.923726
O O9 0.790803 0.619348 0.524549
O O10 0.829549 0.810250 0.496040
O O11 0.912756 0.662209 0.577642
O O12 0.309168 0.500000 0.431492
O O13 0.619456 0.816934 0.171903
O O14 0.920052 0.500000 0.742733
#
# Coordination Sequence:
#
# PCOD8101661 Si02
#       6
#     8   8   8   8   8   8
#     4  10  20  36  59  83 112 147 179 226 283 326
#     4  11  22  35  55  85 113 145 187 226 268 327
#     4  11  21  36  57  84 110 147 184 225 271 329
#     4  10  20  36  59  83 112 147 179 226 283 326
#     4  11  21  36  57  84 110 147 184 225 271 329
#     4  11  22  37  57  79 117 153 177 222 282 329
#
# _framework density 18.372343999999998
#
# number of rings (size 3 to 8) (size 9 to 14) (size 15 to 20)
#    0.000    1.333    3.333    4.000    0.000    2.667 
#    0.000    2.500    0.000    6.000    0.000    0.000 
#    0.000    0.000    0.000    0.000    0.000    0.000 
#
# Total GULP energy -297692.679563 kJ/mol
# GULP energy per Si atom -12403.861648 kJ/mol
# Density = 1.833053 g / cm^3
# Si number density = 18.372344 Si / 1000 Ang^3
#
#
#
# Elastic Constant Matrix: (Units=GPa)
#
#
# Indices 1 2 3 4 5 6 
#
# 1 74.3831 36.9939 11.6357 0.0000 11.3352 0.0000
# 2 36.9939 95.9877 24.7623 0.0000 -4.8360 0.0000
# 3 11.6357 24.7623 57.7254 0.0000 4.6512 0.0000
# 4 0.0000 0.0000 0.0000 30.8333 0.0000 -0.8637
# 5 11.3352 -4.8360 4.6512 0.0000 29.9840 0.0000
# 6 0.0000 0.0000 0.0000 -0.8637 0.0000 22.1502
#
#
#
# Elastic Compliance Matrix: (Units=1/GPa)
#
#
# Indices 1 2 3 4 5 6 
#
# 1 0.018429 -0.007566 0.000193 0.000000 -0.008217 0.000000
# 2 -0.007566 0.015041 -0.005421 0.000000 0.006127 0.000000
# 3 0.000193 -0.005421 0.019935 0.000000 -0.004040 0.000000
# 4 0.000000 0.000000 0.000000 0.032468 0.000000 0.001266
# 5 -0.008217 0.006127 -0.004040 0.000000 0.038073 0.000000
# 6 0.000000 0.000000 0.000000 0.001266 0.000000 0.045196
#
#
# Mechanical properties :
#
#
# Convention : Reuss Voigt Hill
#
# Bulk Modulus (GPa) = 35.94861 41.65333 38.80097
# Shear Modulus (GPa) = 24.50952 26.90711 25.70832
#
# Velocity S-wave (km/s) = 3.65642 3.83109 3.74477
# Velocity P-wave (km/s) = 6.11842 6.50312 6.31370
#
# Compressibility (1/GPa) = 0.02781749
#
# Stress axis : x y z
#
# Youngs Moduli (GPa) = 54.26215 66.48390 50.16227
#
# Poissons Ratio (x) = 0.50305 -0.00969
# Poissons Ratio (y) = 0.41057 0.27192
# Poissons Ratio (z) = -0.01048 0.36039
#
# Static dielectric constant tensor:
#      x y z
#    x 3.297630 0.000000 0.026610 
#    y 0.000000 3.302030 0.000000 
#    z 0.026610 0.000000 3.370070 
# 
# 
# High freq. dielectric constant tensor:
#      x y z
#    x 1.703120 0.000000 0.001210 
#    y 0.000000 1.702280 0.000000 
#    z 0.001210 0.000000 1.720900 
# 
# From -- ./inp_files/73630.got.cif
#   From: 2010.06.25/outbox.cif.g09.slc.cpg/sg12_37_cif.got.tgz:73630.got - 2010.06.28 00:19:55.
