data_PCOD8101843
_publ_section_title
;
Structure prediction by ZEFSAII (Michael W. Deem and Ramdas Pophale) SiO2 
 PCOD8101843
Probable space group: C 2/M
;
_chemical_formula_sum "Si O2"
_cell_formula_units_Z 64
_cell_length_a 27.299647
_cell_length_b 8.920591
_cell_length_c 15.293928
_cell_angle_alpha 90.000000
_cell_angle_beta 58.830988
_cell_angle_gamma 90.000000
_cell_volume 3186.859854
_symmetry_space_group_name_H-M "C 2/M"
_symmetry_group_IT_number 12
_symmetry_cell_setting 'monoclinic'
loop_
_space_group_symop_operation_xyz
x,y,z
-x,y,-z
-x,-y,-z
x,-y,z
1/2+x,1/2+y,z
1/2-x,1/2+y,-z
1/2-x,1/2-y,-z
1/2+x,1/2-y,z
loop_
_atom_site_type_symbol
_atom_site_label
_atom_site_fract_x
_atom_site_fract_y
_atom_site_fract_z
Si Si1 0.115050 0.670812 0.049000
Si Si2 0.004743 0.176911 0.593960
Si Si3 0.628675 0.322373 0.543531
Si Si4 0.389333 0.175021 0.264702
Si Si5 0.498224 0.324529 0.901026
Si Si6 0.106895 0.328239 0.251037
Si Si7 0.189270 0.322866 0.328006
Si Si8 0.306659 0.827232 0.181858
O O1 0.094443 0.500000 0.050308
O O2 0.063040 0.782812 0.080815
O O3 0.136761 0.690611 0.128703
O O4 0.167646 0.710262 0.937038
O O5 0.953273 0.242764 0.698115
O O6 0.000000 0.238933 0.500000
O O7 0.064832 0.230758 0.577622
O O8 0.999484 0.000000 0.601256
O O9 0.635183 0.500000 0.538793
O O10 0.643193 0.255930 0.625168
O O11 0.673274 0.257089 0.432961
O O12 0.453220 0.238066 0.197233
O O13 0.354759 0.210838 0.208833
O O14 0.392601 0.000000 0.281657
O O15 0.509258 0.500000 0.878408
O O16 0.500000 0.275436 0.000000
O O17 0.093539 0.500000 0.284304
O O18 0.148237 0.262543 0.288024
O O19 0.184251 0.500000 0.344020
O O20 0.253630 0.281463 0.244377
O O21 0.287018 0.000000 0.207216
#
# Coordination Sequence:
#
# PCOD8101843 Si02
#       8
#     8   8   8   8   8   8   8   8
#     4  10  21  40  63  88 120 159 200 243 294 355
#     4  10  20  36  59  87 119 155 193 235 290 353
#     4  11  23  40  63  90 121 157 197 243 297 356
#     4  11  23  40  63  90 120 157 200 245 297 353
#     4  11  22  36  59  92 127 159 195 241 295 352
#     4  10  22  38  60  90 121 154 195 243 295 350
#     4  11  24  41  61  87 119 155 199 249 299 351
#     4  10  23  42  63  85 114 157 204 246 295 352
#
# _framework density 20.082464999999999
#
# number of rings (size 3 to 8) (size 9 to 14) (size 15 to 20)
#    0.000    1.500    2.500    2.250    0.000    7.250 
#    0.000    0.000    0.000    0.000    0.000    0.000 
#    0.000    0.000    0.000    0.000    0.000    0.000 
#
# Total GULP energy -396984.113824 kJ/mol
# GULP energy per Si atom -12405.753557 kJ/mol
# Density = 2.003676 g / cm^3
# Si number density = 20.082465 Si / 1000 Ang^3
#
#
#
# Elastic Constant Matrix: (Units=GPa)
#
#
# Indices 1 2 3 4 5 6 
#
# 1 37.0292 23.2415 31.8948 0.0000 -7.4316 0.0000
# 2 23.2415 59.8050 39.8638 0.0000 -2.3989 0.0001
# 3 31.8948 39.8638 148.8042 0.0000 4.2225 0.0000
# 4 0.0000 0.0000 0.0000 32.2181 0.0000 -4.0815
# 5 -7.4316 -2.3989 4.2225 0.0000 35.1520 0.0000
# 6 0.0000 0.0001 0.0000 -4.0815 0.0000 28.5312
#
#
#
# Elastic Compliance Matrix: (Units=1/GPa)
#
#
# Indices 1 2 3 4 5 6 
#
# 1 0.041200 -0.011706 -0.005940 0.000000 0.008625 0.000000
# 2 -0.011706 0.023830 -0.003864 0.000000 -0.000384 0.000000
# 3 -0.005940 -0.003864 0.009103 0.000000 -0.002613 0.000000
# 4 0.000000 0.000000 0.000000 0.031611 0.000000 0.004522
# 5 0.008625 -0.000384 -0.002613 0.000000 0.030559 0.000000
# 6 0.000000 0.000000 0.000000 0.004522 0.000000 0.035696
#
#
# Mechanical properties :
#
#
# Convention : Reuss Voigt Hill
#
# Bulk Modulus (GPa) = 32.14024 48.40431 40.27228
# Shear Modulus (GPa) = 22.18372 29.22282 25.70327
#
# Velocity S-wave (km/s) = 3.32721 3.81877 3.58143
# Velocity P-wave (km/s) = 5.54971 6.60296 6.09911
#
# Compressibility (1/GPa) = 0.03111364
#
# Stress axis : x y z
#
# Youngs Moduli (GPa) = 24.27178 41.96308 109.85827
#
# Poissons Ratio (x) = 0.49123 0.65251
# Poissons Ratio (y) = 0.28413 0.42450
# Poissons Ratio (z) = 0.14416 0.16215
#
# Static dielectric constant tensor:
#      x y z
#    x 3.588050 0.000000 0.189170 
#    y 0.000000 3.557110 0.000000 
#    z 0.189170 0.000000 3.786750 
# 
# 
# High freq. dielectric constant tensor:
#      x y z
#    x 1.775020 0.000000 0.011500 
#    y 0.000000 1.782110 0.000000 
#    z 0.011500 0.000000 1.799350 
# 
# From -- ./inp_files/249826.got.cif
#   From: 2010.06.25/outbox.cif.g09.slc.cpg/sg12_125_cif.got.tgz:249826.got - 2010.06.28 00:19:55.
