data_PCOD8101280
_publ_section_title
;
Structure prediction by ZEFSAII (Michael W. Deem and Ramdas Pophale) SiO2 
 PCOD8101280
Probable space group: C 2/M
;
_chemical_formula_sum "Si O2"
_cell_formula_units_Z 64
_cell_length_a 30.025551
_cell_length_b 8.801350
_cell_length_c 11.856350
_cell_angle_alpha 90.000000
_cell_angle_beta 86.358454
_cell_angle_gamma 90.000000
_cell_volume 3126.896699
_symmetry_space_group_name_H-M "C 2/M"
_symmetry_group_IT_number 12
_symmetry_cell_setting 'monoclinic'
loop_
_space_group_symop_operation_xyz
x,y,z
-x,y,-z
-x,-y,-z
x,-y,z
1/2+x,1/2+y,z
1/2-x,1/2+y,-z
1/2-x,1/2-y,-z
1/2+x,1/2-y,z
loop_
_atom_site_type_symbol
_atom_site_label
_atom_site_fract_x
_atom_site_fract_y
_atom_site_fract_z
Si Si1 0.792057 0.672989 0.050201
Si Si2 0.385141 0.674992 0.019508
Si Si3 0.833934 0.678070 0.654754
Si Si4 0.000704 0.180751 0.371489
Si Si5 0.258551 0.826028 0.300739
Si Si6 0.084738 0.180202 0.746202
Si Si7 0.411013 0.675858 0.771487
Si Si8 0.666204 0.320770 0.580033
O O1 0.792246 0.500000 0.010429
O O2 0.788498 0.689210 0.184995
O O3 0.750000 0.750000 0.000000
O O4 0.838124 0.745727 0.002836
O O5 0.373668 0.500000 0.043902
O O6 0.417087 0.695503 0.905641
O O7 0.410725 0.740934 0.125717
O O8 0.834074 0.500000 0.629682
O O9 0.785845 0.728191 0.708021
O O10 0.869739 0.719566 0.743674
O O11 0.848128 0.770941 0.541799
O O12 0.958973 0.248977 0.307931
O O13 0.000000 0.244106 0.500000
O O14 0.045148 0.234881 0.300045
O O15 0.998131 0.000000 0.374513
O O16 0.287196 0.760820 0.399513
O O17 0.245373 0.000000 0.328854
O O18 0.128044 0.235011 0.671228
O O19 0.080657 0.000000 0.744975
O O20 0.401125 0.500000 0.743155
O O21 0.673166 0.500000 0.584890
#
# Coordination Sequence:
#
# PCOD8101280 Si02
#       8
#     8   8   8   8   8   8   8   8
#     4  11  23  37  57  82 114 156 200 245 291 347
#     4  10  20  36  57  85 119 152 196 246 293 349
#     4  12  25  39  57  82 116 155 197 244 295 353
#     4   9  17  32  57  89 121 153 195 243 294 351
#     4  11  23  39  57  83 116 151 196 243 293 351
#     4   9  18  33  58  89 119 154 193 241 297 352
#     4  10  21  37  59  86 117 153 195 246 296 345
#     4  11  21  37  61  86 117 154 194 240 293 352
#
# _framework density 20.467576999999999
#
# number of rings (size 3 to 8) (size 9 to 14) (size 15 to 20)
#    0.000    1.625    1.250    4.125    0.000    7.500 
#    0.000    2.500    0.000    4.875    0.000    1.750 
#    0.000    0.000    0.000    0.000    0.000    0.000 
#
# Total GULP energy -396897.206095 kJ/mol
# GULP energy per Si atom -12403.037690 kJ/mol
# Density = 2.042099 g / cm^3
# Si number density = 20.467577 Si / 1000 Ang^3
#
#
#
# Elastic Constant Matrix: (Units=GPa)
#
#
# Indices 1 2 3 4 5 6 
#
# 1 138.1574 27.7518 56.6489 0.0000 4.9330 0.0000
# 2 27.7518 57.8361 24.9370 0.0000 0.0145 0.0000
# 3 56.6489 24.9370 122.2800 0.0000 -2.4329 0.0000
# 4 0.0000 0.0000 0.0000 22.3221 0.0000 2.7740
# 5 4.9330 0.0145 -2.4329 0.0000 40.3581 0.0000
# 6 0.0000 0.0000 0.0000 2.7740 0.0000 21.6218
#
#
#
# Elastic Compliance Matrix: (Units=1/GPa)
#
#
# Indices 1 2 3 4 5 6 
#
# 1 0.009427 -0.002882 -0.003807 0.000000 -0.001381 0.000000
# 2 -0.002882 0.019840 -0.002707 0.000000 0.000182 0.000000
# 3 -0.003807 -0.002707 0.010516 0.000000 0.001100 0.000000
# 4 0.000000 0.000000 0.000000 0.045525 0.000000 -0.005841
# 5 -0.001381 0.000182 0.001100 0.000000 0.025013 0.000000
# 6 0.000000 0.000000 0.000000 -0.005841 0.000000 0.046999
#
#
# Mechanical properties :
#
#
# Convention : Reuss Voigt Hill
#
# Bulk Modulus (GPa) = 47.64030 59.66099 53.65065
# Shear Modulus (GPa) = 27.30604 30.78947 29.04775
#
# Velocity S-wave (km/s) = 3.65651 3.88274 3.77132
# Velocity P-wave (km/s) = 6.41508 7.02234 6.72557
#
# Compressibility (1/GPa) = 0.02099063
#
# Stress axis : x y z
#
# Youngs Moduli (GPa) = 106.07433 50.40250 95.09525
#
# Poissons Ratio (x) = 0.14524 0.36205
# Poissons Ratio (y) = 0.30567 0.25747
# Poissons Ratio (z) = 0.40385 0.13646
#
# Static dielectric constant tensor:
#      x y z
#    x 3.707530 0.000000 0.011770 
#    y 0.000000 3.398650 0.000000 
#    z 0.011770 0.000000 3.941160 
# 
# 
# High freq. dielectric constant tensor:
#      x y z
#    x 1.798640 0.000000 0.000380 
#    y 0.000000 1.769030 0.000000 
#    z 0.000380 0.000000 1.817910 
# 
# From -- ./inp_files/187617.got.cif
#   From: 2010.06.25/outbox.cif.g09.slc.cpg/sg12_94_cif.got.tgz:187617.got - 2010.06.28 00:19:55.
