data_PCOD8101130
_publ_section_title
;
Structure prediction by ZEFSAII (Michael W. Deem and Ramdas Pophale) SiO2 
 PCOD8101130
Probable space group: C 2/M
;
_chemical_formula_sum "Si O2"
_cell_formula_units_Z 56
_cell_length_a 23.018923
_cell_length_b 11.639474
_cell_length_c 17.387925
_cell_angle_alpha 90.000000
_cell_angle_beta 39.942817
_cell_angle_gamma 90.000000
_cell_volume 2991.000823
_symmetry_space_group_name_H-M "C 2/M"
_symmetry_group_IT_number 12
_symmetry_cell_setting 'monoclinic'
loop_
_space_group_symop_operation_xyz
x,y,z
-x,y,-z
-x,-y,-z
x,-y,z
1/2+x,1/2+y,z
1/2-x,1/2+y,-z
1/2-x,1/2-y,-z
1/2+x,1/2-y,z
loop_
_atom_site_type_symbol
_atom_site_label
_atom_site_fract_x
_atom_site_fract_y
_atom_site_fract_z
Si Si1 0.084265 0.863914 0.865236
Si Si2 0.617266 0.772990 0.686708
Si Si3 0.784013 0.634680 0.920585
Si Si4 0.765036 0.631424 0.765276
Si Si5 0.299300 0.626360 0.532606
Si Si6 0.918488 0.773645 0.532015
Si Si7 0.994755 0.628461 0.691466
O O1 0.073118 0.815673 0.790837
O O2 0.178579 0.821008 0.806418
O O3 0.081291 0.000000 0.863545
O O4 0.000000 0.816721 0.000000
O O5 0.661487 0.710345 0.569962
O O6 0.693503 0.846339 0.653842
O O7 0.539349 0.852303 0.730061
O O8 0.763131 0.500000 0.972784
O O9 0.741777 0.644400 0.878673
O O10 0.890092 0.653386 0.808073
O O11 0.750000 0.750000 0.000000
O O12 0.782734 0.500000 0.725194
O O13 0.856681 0.696490 0.650070
O O14 0.308788 0.500000 0.488986
O O15 0.353632 0.632138 0.558356
O O16 0.000000 0.828886 0.500000
O O17 0.963234 0.703649 0.418011
O O18 0.012907 0.500000 0.646058
#
# Coordination Sequence:
#
# PCOD8101130 Si02
#       7
#     8   8   8   8   8   8   8
#     4  10  21  36  57  84 110 143 186 237 285 332
#     4  10  20  36  57  80 108 146 183 230 277 343
#     4  10  22  40  60  85 117 154 196 241 287 342
#     4  10  20  36  60  85 112 145 188 240 289 333
#     4  10  21  36  54  80 113 148 182 224 283 347
#     4  11  20  35  58  85 113 142 184 235 289 337
#     4  10  21  35  58  86 112 145 187 237 284 338
#
# _framework density 18.722829000000001
#
# number of rings (size 3 to 8) (size 9 to 14) (size 15 to 20)
#    0.000    1.857    2.857    1.286    2.000    0.857 
#    0.000    3.571    0.000    1.714    0.000    0.000 
#    0.000    0.000    0.000    0.000    0.000    0.000 
#
# Total GULP energy -346944.919639 kJ/mol
# GULP energy per Si atom -12390.889987 kJ/mol
# Density = 1.868021 g / cm^3
# Si number density = 18.722829 Si / 1000 Ang^3
#
#
#
# Elastic Constant Matrix: (Units=GPa)
#
#
# Indices 1 2 3 4 5 6 
#
# 1 106.5211 15.5710 22.4592 0.0000 -2.0338 0.0000
# 2 15.5710 66.3432 11.9844 0.0000 -0.7487 0.0000
# 3 22.4592 11.9844 49.3125 0.0000 2.5536 0.0000
# 4 0.0000 0.0000 0.0000 100.3292 0.0000 27.2763
# 5 -2.0338 -0.7487 2.5536 0.0000 22.9740 0.0000
# 6 0.0000 0.0000 0.0000 27.2763 0.0000 33.2211
#
#
#
# Elastic Compliance Matrix: (Units=1/GPa)
#
#
# Indices 1 2 3 4 5 6 
#
# 1 0.010605 -0.001661 -0.004498 0.000000 0.001385 0.000000
# 2 -0.001661 0.016046 -0.003181 0.000000 0.000729 0.000000
# 3 -0.004498 -0.003181 0.023260 0.000000 -0.003087 0.000000
# 4 0.000000 0.000000 0.000000 0.012831 0.000000 -0.010535
# 5 0.001385 0.000729 -0.003087 0.000000 0.044017 0.000000
# 6 0.000000 0.000000 0.000000 -0.010535 0.000000 0.038751
#
#
# Mechanical properties :
#
#
# Convention : Reuss Voigt Hill
#
# Bulk Modulus (GPa) = 32.01895 35.80067 33.90981
# Shear Modulus (GPa) = 28.63650 42.78233 35.70942
#
# Velocity S-wave (km/s) = 3.91512 4.78539 4.37196
# Velocity P-wave (km/s) = 6.12995 7.04955 6.60577
#
# Compressibility (1/GPa) = 0.03123151
#
# Stress axis : x y z
#
# Youngs Moduli (GPa) = 94.29102 62.32161 42.99139
#
# Poissons Ratio (x) = 0.10351 0.19339
# Poissons Ratio (y) = 0.15661 0.13675
# Poissons Ratio (z) = 0.42415 0.19824
#
# Static dielectric constant tensor:
#      x y z
#    x 3.893060 0.000000 -0.174330 
#    y 0.000000 3.356390 0.000000 
#    z -0.174330 0.000000 3.349390 
# 
# 
# High freq. dielectric constant tensor:
#      x y z
#    x 1.748500 0.000000 -0.009830 
#    y 0.000000 1.709040 0.000000 
#    z -0.009830 0.000000 1.713260 
# 
# From -- ./inp_files/289010.got.cif
#   From: 2010.06.25/outbox.cif.g09.slc.cpg/sg12_145_cif.got.tgz:289010.got - 2010.06.28 00:19:55.
