data_PCOD8101475
_publ_section_title
;
Structure prediction by ZEFSAII (Michael W. Deem and Ramdas Pophale) SiO2 
 PCOD8101475
Probable space group: C 2/M
;
_chemical_formula_sum "Si O2"
_cell_formula_units_Z 40
_cell_length_a 9.347352
_cell_length_b 18.339374
_cell_length_c 12.107617
_cell_angle_alpha 90.000000
_cell_angle_beta 97.056362
_cell_angle_gamma 90.000000
_cell_volume 2059.822607
_symmetry_space_group_name_H-M "C 2/M"
_symmetry_group_IT_number 12
_symmetry_cell_setting 'monoclinic'
loop_
_space_group_symop_operation_xyz
x,y,z
-x,y,-z
-x,-y,-z
x,-y,z
1/2+x,1/2+y,z
1/2-x,1/2+y,-z
1/2-x,1/2-y,-z
1/2+x,1/2-y,z
loop_
_atom_site_type_symbol
_atom_site_label
_atom_site_fract_x
_atom_site_fract_y
_atom_site_fract_z
Si Si1 0.998496 0.670700 0.124758
Si Si2 0.508897 0.583415 0.125528
Si Si3 0.325012 0.704817 0.201220
Si Si4 0.312569 0.916376 0.266699
Si Si5 0.646007 0.212394 0.575879
O O1 0.153379 0.699974 0.177900
O O2 0.885626 0.737744 0.117308
O O3 0.948357 0.607003 0.203574
O O4 0.000000 0.639935 0.000000
O O5 0.459842 0.500000 0.128077
O O6 0.395328 0.626167 0.189939
O O7 0.670702 0.595150 0.180820
O O8 0.500000 0.612625 0.000000
O O9 0.376116 0.732042 0.325656
O O10 0.296941 0.865528 0.373316
O O11 0.332300 0.000000 0.306237
O O12 0.500000 0.195283 0.500000
O O13 0.750000 0.250000 0.500000
#
# Coordination Sequence:
#
# PCOD8101475 Si02
#       5
#     8   8   8   8   8
#     4  11  21  34  57  85 116 150 180 222 274 332
#     4  10  20  36  58  83 116 151 177 215 275 337
#     4  11  21  36  56  83 112 143 192 232 269 328
#     4  10  22  39  57  83 115 146 185 228 275 332
#     4  11  22  39  59  78 104 144 189 236 283 320
#
# _framework density 19.419148
#
# number of rings (size 3 to 8) (size 9 to 14) (size 15 to 20)
#    0.000    1.400    0.000    8.400    0.000    1.600 
#    0.000    1.000    0.000    3.600    0.000    0.000 
#    0.000    0.000    0.000    0.000    0.000    0.000 
#
# Total GULP energy -248064.802757 kJ/mol
# GULP energy per Si atom -12403.240138 kJ/mol
# Density = 1.937495 g / cm^3
# Si number density = 19.419148 Si / 1000 Ang^3
#
#
#
# Elastic Constant Matrix: (Units=GPa)
#
#
# Indices 1 2 3 4 5 6 
#
# 1 106.5352 57.8378 32.2598 0.0000 1.6295 0.0000
# 2 57.8378 139.5233 64.3660 0.0000 -9.1695 0.0000
# 3 32.2598 64.3660 118.7519 0.0000 1.0143 0.0000
# 4 0.0000 0.0000 0.0000 27.9244 0.0000 3.8109
# 5 1.6295 -9.1695 1.0143 0.0000 37.7603 0.0000
# 6 0.0000 0.0000 0.0000 3.8109 0.0000 19.8297
#
#
#
# Elastic Compliance Matrix: (Units=1/GPa)
#
#
# Indices 1 2 3 4 5 6 
#
# 1 0.012269 -0.004889 -0.000668 0.000000 -0.001699 0.000000
# 2 -0.004889 0.011740 -0.005062 0.000000 0.003198 0.000000
# 3 -0.000668 -0.005062 0.011359 0.000000 -0.001506 0.000000
# 4 0.000000 0.000000 0.000000 0.036775 0.000000 -0.007068
# 5 -0.001699 0.003198 -0.001506 0.000000 0.027373 0.000000
# 6 0.000000 0.000000 0.000000 -0.007068 0.000000 0.051788
#
#
# Mechanical properties :
#
#
# Convention : Reuss Voigt Hill
#
# Bulk Modulus (GPa) = 70.78056 74.85973 72.82015
# Shear Modulus (GPa) = 28.20814 31.12600 29.66707
#
# Velocity S-wave (km/s) = 3.81543 4.00791 3.91285
# Velocity P-wave (km/s) = 7.47917 7.74925 7.61541
#
# Compressibility (1/GPa) = 0.01412817
#
# Stress axis : x y z
#
# Youngs Moduli (GPa) = 81.50343 85.18167 88.03469
#
# Poissons Ratio (x) = 0.41649 0.05884
# Poissons Ratio (y) = 0.39851 0.44565
# Poissons Ratio (z) = 0.05447 0.43120
#
# Static dielectric constant tensor:
#      x y z
#    x 3.645140 0.000000 -0.049180 
#    y 0.000000 3.605480 0.000000 
#    z -0.049180 0.000000 3.638140 
# 
# 
# High freq. dielectric constant tensor:
#      x y z
#    x 1.763860 0.000000 0.005190 
#    y 0.000000 1.755570 0.000000 
#    z 0.005190 0.000000 1.756970 
# 
# From -- ./inp_files/118864.got.cif
#   From: 2010.06.25/outbox.cif.g09.slc.cpg/sg12_60_cif.got.tgz:118864.got - 2010.06.28 00:19:55.
