data_PCOD8101240
_publ_section_title
;
Structure prediction by ZEFSAII (Michael W. Deem and Ramdas Pophale) SiO2 
 PCOD8101240
Probable space group: C 2/M
;
_chemical_formula_sum "Si O2"
_cell_formula_units_Z 64
_cell_length_a 23.947139
_cell_length_b 8.876565
_cell_length_c 28.536270
_cell_angle_alpha 90.000000
_cell_angle_beta 147.519973
_cell_angle_gamma 90.000000
_cell_volume 3257.426099
_symmetry_space_group_name_H-M "C 2/M"
_symmetry_group_IT_number 12
_symmetry_cell_setting 'monoclinic'
loop_
_space_group_symop_operation_xyz
x,y,z
-x,y,-z
-x,-y,-z
x,-y,z
1/2+x,1/2+y,z
1/2-x,1/2+y,-z
1/2-x,1/2-y,-z
1/2+x,1/2-y,z
loop_
_atom_site_type_symbol
_atom_site_label
_atom_site_fract_x
_atom_site_fract_y
_atom_site_fract_z
Si Si1 0.171663 0.322448 0.745690
Si Si2 0.409653 0.321493 0.162151
Si Si3 0.025077 0.822966 0.893543
Si Si4 0.294883 0.321289 0.742440
Si Si5 0.403495 0.821502 0.653939
Si Si6 0.228739 0.173956 0.602453
Si Si7 0.269679 0.323601 0.913173
Si Si8 0.448065 0.674478 0.593104
O O1 0.152660 0.500000 0.730074
O O2 0.236234 0.262146 0.746980
O O3 0.237832 0.277246 0.838259
O O4 0.061148 0.243412 0.667220
O O5 0.421941 0.500000 0.175368
O O6 0.435645 0.261303 0.128674
O O7 0.484445 0.239215 0.251701
O O8 0.293695 0.271523 0.093369
O O9 0.912220 0.753298 0.825884
O O10 0.011928 0.000000 0.880001
O O11 0.108786 0.782021 0.993043
O O12 0.297457 0.500000 0.744137
O O13 0.232662 0.267389 0.652860
O O14 0.316228 0.765402 0.628452
O O15 0.381771 0.753784 0.587272
O O16 0.405532 0.000000 0.651451
O O17 0.115222 0.198164 0.499784
O O18 0.249736 0.000000 0.628875
O O19 0.250264 0.500000 0.908932
O O20 0.458420 0.500000 0.613187
#
# Coordination Sequence:
#
# PCOD8101240 Si02
#       8
#     8   8   8   8   8   8   8   8
#     4  10  22  38  58  84 114 151 196 240 283 331
#     4  11  20  33  56  86 117 149 187 229 283 343
#     4   9  19  35  57  85 115 149 190 235 281 335
#     4  10  21  39  60  83 113 151 196 242 283 330
#     4  11  21  36  59  86 116 147 185 231 285 345
#     4  10  23  40  59  86 115 149 188 232 288 343
#     4  10  20  36  57  83 117 153 189 231 283 338
#     4  11  23  39  60  85 116 150 187 232 285 344
#
# _framework density 19.647414000000001
#
# number of rings (size 3 to 8) (size 9 to 14) (size 15 to 20)
#    0.000    1.750    2.500    1.875    0.000    3.000 
#    0.000    6.250    0.000    0.000    0.000    2.625 
#    0.000    0.000    0.000    0.000    0.000    0.000 
#
# Total GULP energy -396879.996253 kJ/mol
# GULP energy per Si atom -12402.499883 kJ/mol
# Density = 1.960270 g / cm^3
# Si number density = 19.647414 Si / 1000 Ang^3
#
#
#
# Elastic Constant Matrix: (Units=GPa)
#
#
# Indices 1 2 3 4 5 6 
#
# 1 145.5183 38.9230 53.7789 -0.0001 -6.1801 0.0000
# 2 38.9230 41.6729 26.3119 0.0003 1.4000 -0.0004
# 3 53.7789 26.3119 114.3321 -0.0001 -6.5061 0.0000
# 4 -0.0001 0.0003 -0.0001 25.3447 -0.0001 -0.6335
# 5 -6.1801 1.4000 -6.5061 -0.0001 16.4368 0.0000
# 6 0.0000 -0.0004 0.0000 -0.6335 0.0000 23.9562
#
#
#
# Elastic Compliance Matrix: (Units=1/GPa)
#
#
# Indices 1 2 3 4 5 6 
#
# 1 0.010134 -0.007828 -0.002773 0.000000 0.003379 0.000000
# 2 -0.007828 0.034541 -0.004708 0.000000 -0.007749 0.000001
# 3 -0.002773 -0.004708 0.011353 0.000000 0.003852 0.000000
# 4 0.000000 0.000000 0.000000 0.039482 0.000000 0.001044
# 5 0.003379 -0.007749 0.003852 0.000000 0.064295 0.000000
# 6 0.000000 0.000001 0.000000 0.001044 0.000000 0.041770
#
#
# Mechanical properties :
#
#
# Convention : Reuss Voigt Hill
#
# Bulk Modulus (GPa) = 39.35390 59.95009 49.65199
# Shear Modulus (GPa) = 20.77585 25.31483 23.04534
#
# Velocity S-wave (km/s) = 3.25535 3.59340 3.42854
# Velocity P-wave (km/s) = 5.84836 6.91346 6.40309
#
# Compressibility (1/GPa) = 0.02541044
#
# Stress axis : x y z
#
# Youngs Moduli (GPa) = 98.67593 28.95125 88.07868
#
# Poissons Ratio (x) = 0.22663 0.24424
# Poissons Ratio (y) = 0.77245 0.41466
# Poissons Ratio (z) = 0.27363 0.13630
#
# Static dielectric constant tensor:
#      x y z
#    x 3.726690 0.000000 0.028980 
#    y 0.000000 3.371060 0.000000 
#    z 0.028980 0.000000 3.686420 
# 
# 
# High freq. dielectric constant tensor:
#      x y z
#    x 1.765120 0.000000 -0.001360 
#    y 0.000000 1.747170 0.000000 
#    z -0.001360 0.000000 1.777770 
# 
# From -- ./inp_files/238727.got.cif
#   From: 2010.06.25/outbox.cif.g09.slc.cpg/sg12_120_cif.got.tgz:238727.got - 2010.06.28 00:19:55.
