data_PCOD8101500
_publ_section_title
;
Structure prediction by ZEFSAII (Michael W. Deem and Ramdas Pophale) SiO2 
 PCOD8101500
Probable space group: C 2/M
;
_chemical_formula_sum "Si O2"
_cell_formula_units_Z 56
_cell_length_a 9.724740
_cell_length_b 16.519117
_cell_length_c 28.647857
_cell_angle_alpha 90.000000
_cell_angle_beta 39.217971
_cell_angle_gamma 90.000000
_cell_volume 2909.786658
_symmetry_space_group_name_H-M "C 2/M"
_symmetry_group_IT_number 12
_symmetry_cell_setting 'monoclinic'
loop_
_space_group_symop_operation_xyz
x,y,z
-x,y,-z
-x,-y,-z
x,-y,z
1/2+x,1/2+y,z
1/2-x,1/2+y,-z
1/2-x,1/2-y,-z
1/2+x,1/2-y,z
loop_
_atom_site_type_symbol
_atom_site_label
_atom_site_fract_x
_atom_site_fract_y
_atom_site_fract_z
Si Si1 0.417585 0.143142 0.772917
Si Si2 0.476732 0.291725 0.452626
Si Si3 0.559043 0.404744 0.933226
Si Si4 0.899568 0.093000 0.659565
Si Si5 0.739044 0.904679 0.937333
Si Si6 0.611260 0.408401 0.774407
Si Si7 0.889819 0.195336 0.313795
O O1 0.268112 0.143379 0.858598
O O2 0.640451 0.099071 0.727172
O O3 0.301071 0.092291 0.762952
O O4 0.451844 0.233706 0.745128
O O5 0.500000 0.320121 0.500000
O O6 0.250000 0.250000 0.500000
O O7 0.501577 0.370813 0.413997
O O8 0.667219 0.227706 0.393705
O O9 0.614581 0.500000 0.918249
O O10 0.348243 0.384557 0.957908
O O11 0.500000 0.373017 0.000000
O O12 0.984997 0.142243 0.681398
O O13 0.973109 0.000000 0.644327
O O14 0.889530 0.871804 0.855446
O O15 0.718973 0.000000 0.935400
O O16 0.500000 0.863956 0.000000
O O17 0.575126 0.500000 0.767385
O O18 0.681266 0.357295 0.711614
#
# Coordination Sequence:
#
# PCOD8101500 Si02
#       7
#     8   8   8   8   8   8   8
#     4  10  20  37  58  84 117 156 196 237 291 353
#     4  11  23  44  66  87 119 158 190 226 289 355
#     4   9  17  30  51  80 113 150 194 245 295 338
#     4  11  23  39  62  93 120 148 195 244 282 338
#     4   8  15  29  49  74 105 143 187 232 282 335
#     4  10  20  36  58  84 113 150 197 242 285 341
#     4  11  23  39  62  85 118 154 189 232 294 350
#
# _framework density 19.245396
#
# number of rings (size 3 to 8) (size 9 to 14) (size 15 to 20)
#    0.000    2.000    1.429    4.286    2.000    1.429 
#    0.000    5.714    0.000    4.286    0.000    0.000 
#    0.000    0.000    0.000    0.000    0.000    0.000 
#
# Total GULP energy -347215.180010 kJ/mol
# GULP energy per Si atom -12400.542143 kJ/mol
# Density = 1.920159 g / cm^3
# Si number density = 19.245396 Si / 1000 Ang^3
#
#
#
# Elastic Constant Matrix: (Units=GPa)
#
#
# Indices 1 2 3 4 5 6 
#
# 1 88.5658 32.6891 67.8050 0.0022 2.6576 0.0007
# 2 32.6891 91.6063 48.7463 0.0003 3.5119 -0.0005
# 3 67.8050 48.7463 140.7636 0.0123 2.6647 -0.0035
# 4 0.0022 0.0003 0.0123 23.1237 0.0027 2.5114
# 5 2.6576 3.5119 2.6647 0.0027 44.6458 -0.0019
# 6 0.0007 -0.0005 -0.0035 2.5114 -0.0019 25.7677
#
#
#
# Elastic Compliance Matrix: (Units=1/GPa)
#
#
# Indices 1 2 3 4 5 6 
#
# 1 0.018267 -0.002236 -0.008016 0.000003 -0.000433 -0.000002
# 2 -0.002236 0.013683 -0.003648 0.000002 -0.000726 0.000000
# 3 -0.008016 -0.003648 0.012228 -0.000006 0.000034 0.000002
# 4 0.000003 0.000002 -0.000006 0.043708 -0.000003 -0.004260
# 5 -0.000433 -0.000726 0.000034 -0.000003 0.022479 0.000002
# 6 -0.000002 0.000000 0.000002 -0.004260 0.000002 0.039223
#
#
# Mechanical properties :
#
#
# Convention : Reuss Voigt Hill
#
# Bulk Modulus (GPa) = 61.05867 68.82405 64.94136
# Shear Modulus (GPa) = 27.34512 30.15378 28.74945
#
# Velocity S-wave (km/s) = 3.77353 3.96258 3.86921
# Velocity P-wave (km/s) = 7.12610 7.53492 7.33336
#
# Compressibility (1/GPa) = 0.01637769
#
# Stress axis : x y z
#
# Youngs Moduli (GPa) = 54.74479 73.08346 81.77891
#
# Poissons Ratio (x) = 0.16341 0.65557
# Poissons Ratio (y) = 0.12241 0.29830
# Poissons Ratio (z) = 0.43886 0.26658
#
# Static dielectric constant tensor:
#      x y z
#    x 3.592120 -0.000010 -0.023160 
#    y -0.000010 3.343630 0.000010 
#    z -0.023160 0.000010 3.739670 
# 
# 
# High freq. dielectric constant tensor:
#      x y z
#    x 1.757680 0.000000 0.001210 
#    y 0.000000 1.730240 0.000000 
#    z 0.001210 0.000000 1.756460 
# 
# From -- ./inp_files/356677.got.cif
#   From: 2010.06.25/outbox.cif.g09.slc.cpg/sg12_179_cif.got.tgz:356677.got - 2010.06.28 00:19:55.
