data_PCOD8101598
_publ_section_title
;
Structure prediction by ZEFSAII (Michael W. Deem and Ramdas Pophale) SiO2 
 PCOD8101598
Probable space group: C 2/M
;
_chemical_formula_sum "Si O2"
_cell_formula_units_Z 64
_cell_length_a 15.218607
_cell_length_b 16.218106
_cell_length_c 12.847999
_cell_angle_alpha 90.000000
_cell_angle_beta 90.930847
_cell_angle_gamma 90.000000
_cell_volume 3170.685844
_symmetry_space_group_name_H-M "C 2/M"
_symmetry_group_IT_number 12
_symmetry_cell_setting 'monoclinic'
loop_
_space_group_symop_operation_xyz
x,y,z
-x,y,-z
-x,-y,-z
x,-y,z
1/2+x,1/2+y,z
1/2-x,1/2+y,-z
1/2-x,1/2-y,-z
1/2+x,1/2-y,z
loop_
_atom_site_type_symbol
_atom_site_label
_atom_site_fract_x
_atom_site_fract_y
_atom_site_fract_z
Si Si1 0.819453 0.593505 0.254627
Si Si2 0.276795 0.294569 0.895713
Si Si3 0.661607 0.812955 0.287012
Si Si4 0.999214 0.096939 0.688863
Si Si5 0.502245 0.903391 0.621652
Si Si6 0.436641 0.597677 0.908877
Si Si7 0.324315 0.650318 0.598240
Si Si8 0.685712 0.403340 0.624915
O O1 0.829624 0.500000 0.210409
O O2 0.807329 0.662600 0.163559
O O3 0.902600 0.616815 0.328077
O O4 0.731235 0.595577 0.321932
O O5 0.331624 0.229865 0.825745
O O6 0.339838 0.369328 0.928794
O O7 0.250000 0.250000 0.000000
O O8 0.567333 0.853498 0.309031
O O9 0.683164 0.746272 0.376059
O O10 0.737745 0.882063 0.292074
O O11 0.093173 0.135727 0.660203
O O12 0.971774 0.133253 0.800109
O O13 0.925983 0.121488 0.603226
O O14 0.009506 0.000000 0.695503
O O15 0.500000 0.875655 0.500000
O O16 0.479380 0.000000 0.628782
O O17 0.431646 0.500000 0.908107
O O18 0.500000 0.630888 0.000000
O O19 0.286311 0.635900 0.483756
O O20 0.677525 0.500000 0.611617
#
# Coordination Sequence:
#
# PCOD8101598 Si02
#       8
#     8   8   8   8   8   8   8   8
#     4  10  20  39  67  90 120 166 212 253 297 365
#     4  11  25  42  62  91 124 158 203 261 320 365
#     4  11  24  40  58  88 124 160 203 254 304 361
#     4  10  20  36  58  88 118 151 193 241 299 361
#     4  10  22  41  65  92 124 168 214 251 299 366
#     4  10  21  40  65  88 115 153 202 250 303 369
#     4  11  21  36  59  90 125 158 196 247 300 366
#     4  11  23  37  58  87 124 164 199 241 296 360
#
# _framework density 20.184906999999999
#
# number of rings (size 3 to 8) (size 9 to 14) (size 15 to 20)
#    0.000    1.500    2.500    3.375    1.750    7.000 
#    0.000    1.875    0.000    1.500    0.000    0.000 
#    0.000    0.000    0.000    0.000    0.000    0.000 
#
# Total GULP energy -396804.707224 kJ/mol
# GULP energy per Si atom -12400.147101 kJ/mol
# Density = 2.013896 g / cm^3
# Si number density = 20.184907 Si / 1000 Ang^3
#
#
#
# Elastic Constant Matrix: (Units=GPa)
#
#
# Indices 1 2 3 4 5 6 
#
# 1 120.5217 33.0516 39.8995 0.0000 5.1497 0.0000
# 2 33.0516 59.2402 45.3258 0.0000 -7.1205 0.0000
# 3 39.8995 45.3258 97.6828 0.0000 4.4119 0.0000
# 4 0.0000 0.0000 0.0000 30.7326 0.0000 0.0672
# 5 5.1497 -7.1205 4.4119 0.0000 32.8946 0.0000
# 6 0.0000 0.0000 0.0000 0.0672 0.0000 27.6644
#
#
#
# Elastic Compliance Matrix: (Units=1/GPa)
#
#
# Indices 1 2 3 4 5 6 
#
# 1 0.010292 -0.004470 -0.002026 0.000000 -0.002307 0.000000
# 2 -0.004470 0.030001 -0.012496 0.000000 0.008870 0.000000
# 3 -0.002026 -0.012496 0.017074 0.000000 -0.004678 0.000000
# 4 0.000000 0.000000 0.000000 0.032539 0.000000 -0.000079
# 5 -0.002307 0.008870 -0.004678 0.000000 0.033309 0.000000
# 6 0.000000 0.000000 0.000000 -0.000079 0.000000 0.036148
#
#
# Mechanical properties :
#
#
# Convention : Reuss Voigt Hill
#
# Bulk Modulus (GPa) = 51.58622 57.11094 54.34858
# Shear Modulus (GPa) = 24.53305 28.86949 26.70127
#
# Velocity S-wave (km/s) = 3.49006 3.78597 3.64102
# Velocity P-wave (km/s) = 6.46939 6.88961 6.68280
#
# Compressibility (1/GPa) = 0.01938502
#
# Stress axis : x y z
#
# Youngs Moduli (GPa) = 97.16065 33.33226 58.56825
#
# Poissons Ratio (x) = 0.14898 0.11865
# Poissons Ratio (y) = 0.43427 0.73185
# Poissons Ratio (z) = 0.19683 0.41651
#
# Static dielectric constant tensor:
#      x y z
#    x 3.832740 0.000000 0.027710 
#    y 0.000000 3.592760 0.000000 
#    z 0.027710 0.000000 3.683130 
# 
# 
# High freq. dielectric constant tensor:
#      x y z
#    x 1.793900 0.000000 0.006690 
#    y 0.000000 1.786900 0.000000 
#    z 0.006690 0.000000 1.774170 
# 
# From -- ./inp_files/146151.got.cif
#   From: 2010.06.25/outbox.cif.g09.slc.cpg/sg12_74_cif.got.tgz:146151.got - 2010.06.28 00:19:55.
