data_PCOD8101523
_publ_section_title
;
Structure prediction by ZEFSAII (Michael W. Deem and Ramdas Pophale) SiO2 
 PCOD8101523
Probable space group: C 2/M
;
_chemical_formula_sum "Si O2"
_cell_formula_units_Z 64
_cell_length_a 32.406605
_cell_length_b 8.938385
_cell_length_c 15.247759
_cell_angle_alpha 90.000000
_cell_angle_beta 132.862580
_cell_angle_gamma 90.000000
_cell_volume 3237.390404
_symmetry_space_group_name_H-M "C 2/M"
_symmetry_group_IT_number 12
_symmetry_cell_setting 'monoclinic'
loop_
_space_group_symop_operation_xyz
x,y,z
-x,y,-z
-x,-y,-z
x,-y,z
1/2+x,1/2+y,z
1/2-x,1/2+y,-z
1/2-x,1/2-y,-z
1/2+x,1/2-y,z
loop_
_atom_site_type_symbol
_atom_site_label
_atom_site_fract_x
_atom_site_fract_y
_atom_site_fract_z
Si Si1 0.210882 0.672282 0.176498
Si Si2 0.907549 0.828534 0.803459
Si Si3 0.475347 0.322944 0.597959
Si Si4 0.087212 0.823396 0.663867
Si Si5 0.211707 0.825718 0.871561
Si Si6 0.097264 0.170335 0.998441
Si Si7 0.489112 0.823710 0.792928
Si Si8 0.791570 0.324686 0.627667
O O1 0.191351 0.500000 0.144898
O O2 0.263748 0.703138 0.190210
O O3 0.159813 0.773340 0.068115
O O4 0.227092 0.715709 0.299768
O O5 0.916947 0.815952 0.920130
O O6 0.852941 0.737950 0.695024
O O7 0.961360 0.755156 0.836244
O O8 0.901169 0.000000 0.764323
O O9 0.470839 0.500000 0.608067
O O10 0.539250 0.277666 0.663832
O O11 0.431883 0.268705 0.460276
O O12 0.458442 0.232634 0.660413
O O13 0.148228 0.757081 0.779762
O O14 0.092360 0.000000 0.666459
O O15 0.210572 0.000000 0.892368
O O16 0.250000 0.750000 0.000000
O O17 0.091994 0.000000 0.957568
O O18 0.054020 0.272766 0.882360
O O19 0.484000 0.000000 0.794880
O O20 0.791787 0.500000 0.611552
O O21 0.750000 0.250000 0.500000
#
# Coordination Sequence:
#
# PCOD8101523 Si02
#       8
#     8   8   8   8   8   8   8   8
#     4   9  20  37  55  80 116 152 189 233 290 347
#     4  10  21  38  57  80 109 145 191 238 281 331
#     4   9  18  36  60  83 107 147 195 236 280 334
#     4   8  17  36  60  82 110 146 190 238 283 333
#     4  10  21  37  57  85 116 150 192 237 286 341
#     4  10  21  37  58  80 108 146 190 234 278 335
#     4  12  24  35  53  84 117 147 181 227 285 346
#     4  10  20  36  58  84 116 155 192 233 285 343
#
# _framework density 19.769009
#
# number of rings (size 3 to 8) (size 9 to 14) (size 15 to 20)
#    0.000    2.250    0.000    3.375    1.750    5.000 
#    0.000    4.375    0.000    0.000    0.000    0.000 
#    0.000    0.000    0.000    0.000    0.000    0.000 
#
# Total GULP energy -396831.561742 kJ/mol
# GULP energy per Si atom -12400.986304 kJ/mol
# Density = 1.972401 g / cm^3
# Si number density = 19.769009 Si / 1000 Ang^3
#
#
#
# Elastic Constant Matrix: (Units=GPa)
#
#
# Indices 1 2 3 4 5 6 
#
# 1 69.8171 24.0076 31.4254 0.0000 10.3893 0.0000
# 2 24.0076 80.5102 33.7627 0.0000 1.3184 0.0000
# 3 31.4254 33.7627 110.8487 0.0000 16.0092 0.0000
# 4 0.0000 0.0000 0.0000 31.6108 0.0000 1.8012
# 5 10.3893 1.3184 16.0092 0.0000 25.8359 0.0000
# 6 0.0000 0.0000 0.0000 1.8012 0.0000 27.0074
#
#
#
# Elastic Compliance Matrix: (Units=1/GPa)
#
#
# Indices 1 2 3 4 5 6 
#
# 1 0.017830 -0.003920 -0.003135 0.000000 -0.005027 0.000000
# 2 -0.003920 0.015211 -0.003995 0.000000 0.003276 0.000000
# 3 -0.003135 -0.003995 0.011988 0.000000 -0.005964 0.000000
# 4 0.000000 0.000000 0.000000 0.031755 0.000000 -0.002118
# 5 -0.005027 0.003276 -0.005964 0.000000 0.044256 0.000000
# 6 0.000000 0.000000 0.000000 -0.002118 0.000000 0.037168
#
#
# Mechanical properties :
#
#
# Convention : Reuss Voigt Hill
#
# Bulk Modulus (GPa) = 43.61012 48.84082 46.22547
# Shear Modulus (GPa) = 26.60254 28.35616 27.47935
#
# Velocity S-wave (km/s) = 3.67232 3.79142 3.73234
# Velocity P-wave (km/s) = 6.33158 6.62766 6.48131
#
# Compressibility (1/GPa) = 0.02293046
#
# Stress axis : x y z
#
# Youngs Moduli (GPa) = 56.08463 65.74039 83.41568
#
# Poissons Ratio (x) = 0.25770 0.26149
# Poissons Ratio (y) = 0.21985 0.33324
# Poissons Ratio (z) = 0.17581 0.26263
#
# Static dielectric constant tensor:
#      x y z
#    x 3.683090 0.000000 0.060180 
#    y 0.000000 3.540980 0.000000 
#    z 0.060180 0.000000 3.693580 
# 
# 
# High freq. dielectric constant tensor:
#      x y z
#    x 1.770650 0.000000 -0.002300 
#    y 0.000000 1.755360 0.000000 
#    z -0.002300 0.000000 1.775630 
# 
# From -- ./inp_files/250101.got.cif
#   From: 2010.06.25/outbox.cif.g09.slc.cpg/sg12_126_cif.got.tgz:250101.got - 2010.06.28 00:19:55.
