data_PCOD8101723
_publ_section_title
;
Structure prediction by ZEFSAII (Michael W. Deem and Ramdas Pophale) SiO2 
 PCOD8101723
Probable space group: C 2/M
;
_chemical_formula_sum "Si O2"
_cell_formula_units_Z 48
_cell_length_a 21.392161
_cell_length_b 13.119881
_cell_length_c 12.185731
_cell_angle_alpha 90.000000
_cell_angle_beta 133.414594
_cell_angle_gamma 90.000000
_cell_volume 2484.344163
_symmetry_space_group_name_H-M "C 2/M"
_symmetry_group_IT_number 12
_symmetry_cell_setting 'monoclinic'
loop_
_space_group_symop_operation_xyz
x,y,z
-x,y,-z
-x,-y,-z
x,-y,z
1/2+x,1/2+y,z
1/2-x,1/2+y,-z
1/2-x,1/2-y,-z
1/2+x,1/2-y,z
loop_
_atom_site_type_symbol
_atom_site_label
_atom_site_fract_x
_atom_site_fract_y
_atom_site_fract_z
Si Si1 0.969571 0.000000 0.632387
Si Si2 0.532283 0.885559 0.160443
Si Si3 0.186715 0.784940 0.827454
Si Si4 0.001733 0.223911 0.707557
Si Si5 0.178290 0.275640 0.581407
Si Si6 0.357951 0.500000 0.295099
Si Si7 0.226438 0.387315 0.441161
O O1 0.978027 0.894123 0.712373
O O2 0.881643 0.000000 0.453517
O O3 0.051254 0.000000 0.653053
O O4 0.485395 0.796134 0.171435
O O5 0.633617 0.865385 0.277606
O O6 0.513273 0.000000 0.184925
O O7 0.500000 0.875957 0.000000
O O8 0.088374 0.768068 0.742167
O O9 0.210105 0.721241 0.745544
O O10 0.199751 0.903036 0.809476
O O11 0.250000 0.750000 0.000000
O O12 0.925670 0.272530 0.542011
O O13 0.218875 0.370681 0.564368
O O14 0.204768 0.179644 0.538899
O O15 0.260181 0.500000 0.462882
#
# Coordination Sequence:
#
# PCOD8101723 Si02
#       7
#     4   8   8   8   8   4   8
#     4   9  16  32  61  84 110 147 195 247 274 343
#     4   9  19  37  58  82 118 159 199 243 290 351
#     4  11  23  37  57  90 123 150 190 245 300 356
#     4  10  20  36  60  88 117 151 201 244 294 350
#     4  10  20  36  59  85 113 151 195 242 288 345
#     4   9  18  36  56  82 111 154 193 228 288 340
#     4   9  20  36  58  84 110 149 200 244 284 339
#
# _framework density 19.320993000000001
#
# number of rings (size 3 to 8) (size 9 to 14) (size 15 to 20)
#    0.000    2.333    1.667    0.500    4.667    0.000 
#    3.000    0.417    0.000    4.000    0.000    0.000 
#    0.000    0.000    0.000    0.000    0.000    0.000 
#
# Total GULP energy -297369.695257 kJ/mol
# GULP energy per Si atom -12390.403969 kJ/mol
# Density = 1.927702 g / cm^3
# Si number density = 19.320993 Si / 1000 Ang^3
#
#
#
# Elastic Constant Matrix: (Units=GPa)
#
#
# Indices 1 2 3 4 5 6 
#
# 1 75.8081 23.0059 42.6164 0.0000 -8.9837 0.0000
# 2 23.0059 85.5920 29.8109 0.0000 -8.5181 0.0000
# 3 42.6164 29.8109 102.5175 0.0000 -20.5162 0.0000
# 4 0.0000 0.0000 0.0000 25.4353 0.0000 -3.3446
# 5 -8.9837 -8.5181 -20.5162 0.0000 21.8176 0.0000
# 6 0.0000 0.0000 0.0000 -3.3446 0.0000 18.6216
#
#
#
# Elastic Compliance Matrix: (Units=1/GPa)
#
#
# Indices 1 2 3 4 5 6 
#
# 1 0.017659 -0.002433 -0.006613 0.000000 0.000103 0.000000
# 2 -0.002433 0.013398 -0.002511 0.000000 0.001868 0.000000
# 3 -0.006613 -0.002511 0.015388 0.000000 0.010767 0.000000
# 4 0.000000 0.000000 0.000000 0.040266 0.000000 0.007232
# 5 0.000103 0.001868 0.010767 0.000000 0.056731 0.000000
# 6 0.000000 0.000000 0.000000 0.007232 0.000000 0.055000
#
#
# Mechanical properties :
#
#
# Convention : Reuss Voigt Hill
#
# Bulk Modulus (GPa) = 42.85934 50.53155 46.69545
# Shear Modulus (GPa) = 21.80234 24.40719 23.10477
#
# Velocity S-wave (km/s) = 3.36285 3.55808 3.46184
# Velocity P-wave (km/s) = 6.10813 6.56432 6.34033
#
# Compressibility (1/GPa) = 0.02333213
#
# Stress axis : x y z
#
# Youngs Moduli (GPa) = 56.62748 74.63999 64.98505
#
# Poissons Ratio (x) = 0.18161 0.42973
# Poissons Ratio (y) = 0.13778 0.16315
# Poissons Ratio (z) = 0.37446 0.18739
#
# Static dielectric constant tensor:
#      x y z
#    x 3.498820 0.000000 -0.007220 
#    y 0.000000 3.946140 0.000000 
#    z -0.007220 0.000000 3.381300 
# 
# 
# High freq. dielectric constant tensor:
#      x y z
#    x 1.751470 0.000000 0.008550 
#    y 0.000000 1.752610 0.000000 
#    z 0.008550 0.000000 1.731960 
# 
# From -- ./inp_files/167664.got.cif
#   From: 2010.06.25/outbox.cif.g09.slc.cpg/sg12_84_cif.got.tgz:167664.got - 2010.06.28 00:19:55.
