data_PCOD8101737
_publ_section_title
;
Structure prediction by ZEFSAII (Michael W. Deem and Ramdas Pophale) SiO2 
 PCOD8101737
Probable space group: C 2/M
;
_chemical_formula_sum "Si O2"
_cell_formula_units_Z 36
_cell_length_a 8.768960
_cell_length_b 10.508156
_cell_length_c 18.379514
_cell_angle_alpha 90.000000
_cell_angle_beta 101.922853
_cell_angle_gamma 90.000000
_cell_volume 1657.054918
_symmetry_space_group_name_H-M "C 2/M"
_symmetry_group_IT_number 12
_symmetry_cell_setting 'monoclinic'
loop_
_space_group_symop_operation_xyz
x,y,z
-x,y,-z
-x,-y,-z
x,-y,z
1/2+x,1/2+y,z
1/2-x,1/2+y,-z
1/2-x,1/2-y,-z
1/2+x,1/2-y,z
loop_
_atom_site_type_symbol
_atom_site_label
_atom_site_fract_x
_atom_site_fract_y
_atom_site_fract_z
Si Si1 0.500000 0.749950 0.500000
Si Si2 0.626204 0.226659 0.825440
Si Si3 0.148220 0.142039 0.273314
Si Si4 0.293951 0.856975 0.601435
Si Si5 0.407502 0.857775 0.923321
O O1 0.421382 0.841946 0.551074
O O2 0.377002 0.658044 0.448962
O O3 0.715492 0.145796 0.773290
O O4 0.522448 0.337413 0.778152
O O5 0.510692 0.137728 0.860080
O O6 0.748047 0.284012 0.894407
O O7 0.178823 0.250915 0.335061
O O8 0.150958 0.000000 0.308473
O O9 0.309002 0.000000 0.635633
O O10 0.361821 0.000000 0.941215
O O11 0.500000 0.793160 0.000000
#
# Coordination Sequence:
#
# PCOD8101737 Si02
#       5
#     4   8   8   8   8
#     4  10  24  42  64  90 122 154 194 244 298 352
#     4  10  22  38  58  84 120 156 196 244 296 350
#     4  11  24  40  60  88 122 159 199 244 295 352
#     4  11  24  42  65  91 120 156 198 244 295 352
#     4  10  20  36  59  85 114 152 198 245 294 349
#
# _framework density 21.725289
#
# number of rings (size 3 to 8) (size 9 to 14) (size 15 to 20)
#    0.000    1.556    0.000    4.000    0.000   14.222 
#    0.000    0.000    0.000   10.667    0.000    0.000 
#    0.000    0.000    0.000    0.000    0.000    0.000 
#
# Total GULP energy -223210.159133 kJ/mol
# GULP energy per Si atom -12400.564396 kJ/mol
# Density = 2.167584 g / cm^3
# Si number density = 21.725289 Si / 1000 Ang^3
#
#
#
# Elastic Constant Matrix: (Units=GPa)
#
#
# Indices 1 2 3 4 5 6 
#
# 1 105.4214 25.7650 29.7250 0.0000 18.5633 0.0000
# 2 25.7650 156.2248 53.9888 0.0000 18.3419 0.0000
# 3 29.7250 53.9888 114.9097 0.0000 22.2034 0.0000
# 4 0.0000 0.0000 0.0000 30.7977 0.0000 -1.9366
# 5 18.5633 18.3419 22.2034 0.0000 52.7442 0.0000
# 6 0.0000 0.0000 0.0000 -1.9366 0.0000 7.9698
#
#
#
# Elastic Compliance Matrix: (Units=1/GPa)
#
#
# Indices 1 2 3 4 5 6 
#
# 1 0.010682 -0.000800 -0.001866 0.000000 -0.002696 0.000000
# 2 -0.000800 0.007778 -0.003243 0.000000 -0.001058 0.000000
# 3 -0.001866 -0.003243 0.011282 0.000000 -0.002965 0.000000
# 4 0.000000 0.000000 0.000000 0.032974 0.000000 0.008012
# 5 -0.002696 -0.001058 -0.002965 0.000000 0.021524 0.000000
# 6 0.000000 0.000000 0.000000 0.008012 0.000000 0.127421
#
#
# Mechanical properties :
#
#
# Convention : Reuss Voigt Hill
#
# Bulk Modulus (GPa) = 55.79506 66.16816 60.98161
# Shear Modulus (GPa) = 21.79082 36.10747 28.94914
#
# Velocity S-wave (km/s) = 3.17048 4.08119 3.65431
# Velocity P-wave (km/s) = 6.25623 7.26161 6.77759
#
# Compressibility (1/GPa) = 0.01792273
#
# Stress axis : x y z
#
# Youngs Moduli (GPa) = 93.61317 128.56900 88.63845
#
# Poissons Ratio (x) = 0.10289 0.16544
# Poissons Ratio (y) = 0.07491 0.28745
# Poissons Ratio (z) = 0.17472 0.41694
#
# Static dielectric constant tensor:
#      x y z
#    x 4.137910 0.000000 0.108090 
#    y 0.000000 3.555300 0.000000 
#    z 0.108090 0.000000 4.020400 
# 
# 
# High freq. dielectric constant tensor:
#      x y z
#    x 1.870700 0.000000 0.005960 
#    y 0.000000 1.838840 0.000000 
#    z 0.005960 0.000000 1.858740 
# 
# From -- ./inp_files/254804.got.cif
#   From: 2010.06.25/outbox.cif.g09.slc.cpg/sg12_128_cif.got.tgz:254804.got - 2010.06.28 00:19:55.
