data_PCOD8101184
_publ_section_title
;
Structure prediction by ZEFSAII (Michael W. Deem and Ramdas Pophale) SiO2 
 PCOD8101184
Probable space group: C 2/M
;
_chemical_formula_sum "Si O2"
_cell_formula_units_Z 40
_cell_length_a 8.797096
_cell_length_b 14.965983
_cell_length_c 20.019861
_cell_angle_alpha 90.000000
_cell_angle_beta 131.233308
_cell_angle_gamma 90.000000
_cell_volume 1982.174471
_symmetry_space_group_name_H-M "C 2/M"
_symmetry_group_IT_number 12
_symmetry_cell_setting 'monoclinic'
loop_
_space_group_symop_operation_xyz
x,y,z
-x,y,-z
-x,-y,-z
x,-y,z
1/2+x,1/2+y,z
1/2-x,1/2+y,-z
1/2-x,1/2-y,-z
1/2+x,1/2-y,z
loop_
_atom_site_type_symbol
_atom_site_label
_atom_site_fract_x
_atom_site_fract_y
_atom_site_fract_z
Si Si1 0.072867 0.500000 0.596055
Si Si2 0.912789 0.652368 0.728442
Si Si3 0.284701 0.500000 0.403945
Si Si4 0.272538 0.347632 0.728442
Si Si5 0.177863 0.153103 0.903957
Si Si6 0.034009 0.653103 0.903957
O O1 0.204331 0.411354 0.648255
O O2 0.000000 0.500000 0.500000
O O3 0.878521 0.500000 0.585681
O O4 0.740433 0.588646 0.648255
O O5 0.818389 0.750000 0.712259
O O6 0.988611 0.606029 0.819950
O O7 0.101933 0.660384 0.734622
O O8 0.500000 0.500000 0.500000
O O9 0.471239 0.393971 0.819950
O O10 0.326099 0.160593 0.884066
O O11 0.115042 0.250000 0.910028
O O12 0.294604 0.104369 0.000000
#
# Coordination Sequence:
#
# PCOD8101184 Si02
#       6
#     4   8   4   8   8   8
#     4  10  24  42  59  80 107 139 178 225 275 326
#     4  10  20  36  57  82 110 142 180 220 266 319
#     4  10  24  42  59  80 107 139 178 225 275 326
#     4  10  20  36  57  82 110 142 180 220 266 319
#     4   9  16  27  47  77 110 144 180 216 258 310
#     4   9  16  27  47  77 110 144 180 216 258 310
#
# _framework density 20.179859
#
# number of rings (size 3 to 8) (size 9 to 14) (size 15 to 20)
#    0.000    2.400    0.000    4.800    0.000    6.400 
#    0.000    5.000    0.000    6.000    0.000    0.000 
#    0.000    0.000    0.000    0.000    0.000    0.000 
#
# Total GULP energy -247781.091467 kJ/mol
# GULP energy per Si atom -12389.054573 kJ/mol
# Density = 2.013393 g / cm^3
# Si number density = 20.179859 Si / 1000 Ang^3
#
#
#
# Elastic Constant Matrix: (Units=GPa)
#
#
# Indices 1 2 3 4 5 6 
#
# 1 99.6928 40.7641 68.7644 0.0001 3.3826 0.0000
# 2 40.7641 86.8898 75.9018 0.0000 2.3331 0.0000
# 3 68.7644 75.9018 226.7101 0.0002 5.0516 0.0000
# 4 0.0001 0.0000 0.0002 -229.6695 0.0001 -16.4687
# 5 3.3826 2.3331 5.0516 0.0001 41.0453 0.0000
# 6 0.0000 0.0000 0.0000 -16.4687 0.0000 18.3676
#
#
#
# Elastic Compliance Matrix: (Units=1/GPa)
#
#
# Indices 1 2 3 4 5 6 
#
# 1 0.013578 -0.003913 -0.002796 0.000000 -0.000552 0.000000
# 2 -0.003913 0.017396 -0.004635 0.000000 -0.000096 0.000000
# 3 -0.002796 -0.004635 0.006819 0.000000 -0.000345 0.000000
# 4 0.000000 0.000000 0.000000 -0.004091 0.000000 -0.003668
# 5 -0.000552 -0.000096 -0.000345 0.000000 0.024457 0.000000
# 6 0.000000 0.000000 0.000000 -0.003668 0.000000 0.051155
#
#
# Mechanical properties :
#
#
# Convention : Reuss Voigt Hill
#
# Bulk Modulus (GPa) = 66.20511 87.12813 76.66662
# Shear Modulus (GPa) = 36.48659 -18.86049 8.81305
#
# Velocity S-wave (km/s) = 4.25675 -3.06047 2.09206
# Velocity P-wave (km/s) = 7.55240 5.54805 6.62644
#
# Compressibility (1/GPa) = 0.01510458
#
# Stress axis : x y z
#
# Youngs Moduli (GPa) = 73.64764 57.48406 146.65794
#
# Poissons Ratio (x) = 0.22492 0.41008
# Poissons Ratio (y) = 0.28817 0.67979
# Poissons Ratio (z) = 0.20593 0.26645
#
# Static dielectric constant tensor:
#      x y z
#    x 3.769170 0.000000 0.124220 
#    y 0.000000 3.462270 0.000000 
#    z 0.124220 0.000000 5.640140 
# 
# 
# High freq. dielectric constant tensor:
#      x y z
#    x 1.795900 0.000000 0.000630 
#    y 0.000000 1.757740 0.000000 
#    z 0.000630 0.000000 1.805310 
# 
# From -- ./inp_files/41863.got.cif
#   From: 2010.06.25/outbox.cif.g09.slc.cpg/sg12_21_cif.got.tgz:41863.got - 2010.06.28 00:19:55.
