data_PCOD8101901
_publ_section_title
;
Structure prediction by ZEFSAII (Michael W. Deem and Ramdas Pophale) SiO2 
 PCOD8101901
Probable space group: C 2/M
;
_chemical_formula_sum "Si O2"
_cell_formula_units_Z 64
_cell_length_a 22.061349
_cell_length_b 13.805407
_cell_length_c 22.287954
_cell_angle_alpha 90.000000
_cell_angle_beta 28.175096
_cell_angle_gamma 90.000000
_cell_volume 3205.145255
_symmetry_space_group_name_H-M "C 2/M"
_symmetry_group_IT_number 12
_symmetry_cell_setting 'monoclinic'
loop_
_space_group_symop_operation_xyz
x,y,z
-x,y,-z
-x,-y,-z
x,-y,z
1/2+x,1/2+y,z
1/2-x,1/2+y,-z
1/2-x,1/2-y,-z
1/2+x,1/2-y,z
loop_
_atom_site_type_symbol
_atom_site_label
_atom_site_fract_x
_atom_site_fract_y
_atom_site_fract_z
Si Si1 0.371714 0.888373 0.146016
Si Si2 0.360726 0.888705 0.777277
Si Si3 0.357506 0.611288 0.747003
Si Si4 0.611440 0.891475 0.635641
Si Si5 0.213069 0.731565 0.964475
Si Si6 0.916112 0.723355 0.223912
Si Si7 0.248826 0.888161 0.605123
Si Si8 0.009291 0.724356 0.561036
O O1 0.249941 0.873293 0.209873
O O2 0.348027 0.823142 0.225395
O O3 0.386787 0.000000 0.152596
O O4 0.500000 0.853315 0.000000
O O5 0.478614 0.863164 0.718728
O O6 0.236052 0.830036 0.907100
O O7 0.401811 0.854478 0.674849
O O8 0.323446 0.000000 0.808593
O O9 0.400949 0.500000 0.714581
O O10 0.299284 0.645033 0.861727
O O11 0.482134 0.675680 0.621375
O O12 0.641187 0.824216 0.665930
O O13 0.728640 0.883952 0.486144
O O14 0.598718 0.000000 0.671375
O O15 0.250000 0.750000 0.000000
O O16 0.065937 0.702153 0.087630
O O17 0.885790 0.838381 0.257911
O O18 0.352623 0.820557 0.546906
O O19 0.253825 0.000000 0.622946
O O20 0.000000 0.748733 0.500000
#
# Coordination Sequence:
#
# PCOD8101901 Si02
#       8
#     8   8   8   8   8   8   8   8
#     4  10  20  36  59  90 121 156 193 233 293 364
#     4   9  19  35  55  80 112 148 195 248 295 347
#     4  10  22  40  62  91 127 156 193 247 302 359
#     4   9  18  35  57  80 108 147 191 242 298 353
#     4  11  22  36  57  87 118 158 198 242 299 358
#     4  12  21  35  63  84 119 156 202 243 298 360
#     4  10  23  40  57  82 118 155 198 252 301 350
#     4  10  20  38  63  85 112 153 202 244 296 348
#
# _framework density 19.967894000000001
#
# number of rings (size 3 to 8) (size 9 to 14) (size 15 to 20)
#    0.000    1.875    2.500    2.625    0.000    2.750 
#    0.000    1.250    0.000    0.375    0.000    0.000 
#    0.000    0.000    0.000    0.000    0.000    0.000 
#
# Total GULP energy -396767.672098 kJ/mol
# GULP energy per Si atom -12398.989753 kJ/mol
# Density = 1.992245 g / cm^3
# Si number density = 19.967894 Si / 1000 Ang^3
#
#
#
# Elastic Constant Matrix: (Units=GPa)
#
#
# Indices 1 2 3 4 5 6 
#
# 1 67.1875 33.8542 21.1681 0.0014 21.5928 -0.0009
# 2 33.8542 135.3120 33.4672 0.0023 11.5241 -0.0015
# 3 21.1681 33.4672 58.6935 0.0042 16.7725 -0.0030
# 4 0.0014 0.0023 0.0042 31.1992 -0.0022 -1.3351
# 5 21.5928 11.5241 16.7725 -0.0022 25.4429 0.0013
# 6 -0.0009 -0.0015 -0.0030 -1.3351 0.0013 26.1969
#
#
#
# Elastic Compliance Matrix: (Units=1/GPa)
#
#
# Indices 1 2 3 4 5 6 
#
# 1 0.022574 -0.003951 -0.001140 -0.000002 -0.016617 0.000001
# 2 -0.003951 0.009309 -0.004480 0.000000 0.002090 0.000000
# 3 -0.001140 -0.004480 0.023591 -0.000004 -0.012555 0.000003
# 4 -0.000002 0.000000 -0.000004 0.032122 0.000006 0.001637
# 5 -0.016617 0.002090 -0.012555 0.000006 0.060736 -0.000005
# 6 0.000001 0.000000 0.000003 0.001637 -0.000005 0.038256
#
#
# Mechanical properties :
#
#
# Convention : Reuss Voigt Hill
#
# Bulk Modulus (GPa) = 27.52417 48.68578 38.10498
# Shear Modulus (GPa) = 22.95249 28.08136 25.51692
#
# Velocity S-wave (km/s) = 3.39406 3.75417 3.57865
# Velocity P-wave (km/s) = 5.40127 6.57470 6.01666
#
# Compressibility (1/GPa) = 0.03633171
#
# Stress axis : x y z
#
# Youngs Moduli (GPa) = 44.29877 107.42405 42.38843
#
# Poissons Ratio (x) = 0.42439 0.04833
# Poissons Ratio (y) = 0.17501 0.18992
# Poissons Ratio (z) = 0.05051 0.48130
#
# Static dielectric constant tensor:
#      x y z
#    x 3.490290 0.000000 0.100260 
#    y 0.000000 3.659580 0.000000 
#    z 0.100260 0.000000 3.767830 
# 
# 
# High freq. dielectric constant tensor:
#      x y z
#    x 1.762650 0.000000 0.016400 
#    y 0.000000 1.782050 0.000000 
#    z 0.016400 0.000000 1.777480 
# 
# From -- ./inp_files/349344.got.cif
#   From: 2010.06.25/outbox.cif.g09.slc.cpg/sg12_175_cif.got.tgz:349344.got - 2010.06.28 00:19:55.
