data_PCOD8101948
_publ_section_title
;
Structure prediction by ZEFSAII (Michael W. Deem and Ramdas Pophale) SiO2 
 PCOD8101948
Probable space group: C 2/M
;
_chemical_formula_sum "Si O2"
_cell_formula_units_Z 48
_cell_length_a 18.756209
_cell_length_b 8.973598
_cell_length_c 14.788790
_cell_angle_alpha 90.000000
_cell_angle_beta 98.347228
_cell_angle_gamma 90.000000
_cell_volume 2462.742801
_symmetry_space_group_name_H-M "C 2/M"
_symmetry_group_IT_number 12
_symmetry_cell_setting 'monoclinic'
loop_
_space_group_symop_operation_xyz
x,y,z
-x,y,-z
-x,-y,-z
x,-y,z
1/2+x,1/2+y,z
1/2-x,1/2+y,-z
1/2-x,1/2-y,-z
1/2+x,1/2-y,z
loop_
_atom_site_type_symbol
_atom_site_label
_atom_site_fract_x
_atom_site_fract_y
_atom_site_fract_z
Si Si1 0.804125 0.671502 0.076881
Si Si2 0.799356 0.174716 0.435521
Si Si3 0.767884 0.172393 0.744510
Si Si4 0.426604 0.834197 0.539551
Si Si5 0.418404 0.824847 0.745963
Si Si6 0.966027 0.322933 0.087293
O O1 0.806787 0.500000 0.049308
O O2 0.774496 0.694460 0.171116
O O3 0.884836 0.740324 0.084115
O O4 0.750000 0.750000 0.000000
O O5 0.750000 0.250000 0.500000
O O6 0.780694 0.240392 0.335364
O O7 0.880529 0.212826 0.477509
O O8 0.786508 0.000000 0.431667
O O9 0.847436 0.239837 0.765811
O O10 0.774050 0.000000 0.717725
O O11 0.500000 0.839353 0.500000
O O12 0.436892 0.785212 0.645578
O O13 0.390962 0.000000 0.530622
O O14 0.484816 0.768436 0.819792
O O15 0.404996 0.000000 0.756885
O O16 0.963502 0.500000 0.086346
O O17 0.000000 0.262079 0.000000
#
# Coordination Sequence:
#
# PCOD8101948 Si02
#       6
#     8   8   8   8   8   8
#     4  10  22  39  62  90 119 153 195 243 298 354
#     4  12  24  40  62  88 120 161 207 252 301 356
#     4  11  23  38  60  88 122 159 197 247 303 359
#     4  10  22  38  60  88 120 159 202 249 299 357
#     4  10  20  36  60  85 114 156 201 243 294 354
#     4   9  18  34  58  86 114 149 193 240 287 348
#
# _framework density 19.490462999999998
#
# number of rings (size 3 to 8) (size 9 to 14) (size 15 to 20)
#    0.000    1.667    1.667    3.000    2.333    3.000 
#    0.000    0.833    0.000    3.000    0.000    0.000 
#    0.000    0.000    0.000    0.000    0.000    0.000 
#
# Total GULP energy -297624.775701 kJ/mol
# GULP energy per Si atom -12401.032321 kJ/mol
# Density = 1.944610 g / cm^3
# Si number density = 19.490463 Si / 1000 Ang^3
#
#
#
# Elastic Constant Matrix: (Units=GPa)
#
#
# Indices 1 2 3 4 5 6 
#
# 1 157.4923 50.1148 85.0717 0.0000 9.3790 0.0000
# 2 50.1148 91.3783 61.3136 0.0000 7.4125 0.0000
# 3 85.0717 61.3136 122.4659 0.0000 24.2239 0.0000
# 4 0.0000 0.0000 0.0000 -1.0248 0.0000 2.1029
# 5 9.3790 7.4125 24.2239 0.0000 40.5361 0.0000
# 6 0.0000 0.0000 0.0000 2.1029 0.0000 31.8174
#
#
#
# Elastic Compliance Matrix: (Units=1/GPa)
#
#
# Indices 1 2 3 4 5 6 
#
# 1 0.010402 -0.001133 -0.007058 0.000000 0.002018 0.000000
# 2 -0.001133 0.016774 -0.008002 0.000000 0.001977 0.000000
# 3 -0.007058 -0.008002 0.018669 0.000000 -0.008060 0.000000
# 4 0.000000 0.000000 0.000000 -0.859249 0.000000 0.056791
# 5 0.002018 0.001977 -0.008060 0.000000 0.028658 0.000000
# 6 0.000000 0.000000 0.000000 0.056791 0.000000 0.027676
#
#
# Mechanical properties :
#
#
# Convention : Reuss Voigt Hill
#
# Bulk Modulus (GPa) = 74.29805 84.92629 79.61217
# Shear Modulus (GPa) = -6.94253 25.92150 9.48948
#
# Velocity S-wave (km/s) = -1.88938 3.65082 2.20893
# Velocity P-wave (km/s) = 5.78302 7.83831 6.88776
#
# Compressibility (1/GPa) = 0.01345930
#
# Stress axis : x y z
#
# Youngs Moduli (GPa) = 96.13247 59.61734 53.56472
#
# Poissons Ratio (x) = 0.06753 0.37806
# Poissons Ratio (y) = 0.10890 0.42862
# Poissons Ratio (z) = 0.67851 0.47706
#
# Static dielectric constant tensor:
#      x y z
#    x 3.712710 0.000000 0.030820 
#    y 0.000000 3.758140 0.000000 
#    z 0.030820 0.000000 3.673840 
# 
# 
# High freq. dielectric constant tensor:
#      x y z
#    x 1.770950 0.000000 0.001210 
#    y 0.000000 1.737780 0.000000 
#    z 0.001210 0.000000 1.775510 
# 
# From -- ./inp_files/221576.got.cif
#   From: 2010.06.25/outbox.cif.g09.slc.cpg/sg12_111_cif.got.tgz:221576.got - 2010.06.28 00:19:55.
