data_PCOD8101973
_publ_section_title
;
Structure prediction by ZEFSAII (Michael W. Deem and Ramdas Pophale) SiO2 
 PCOD8101973
Probable space group: C 2/M
;
_chemical_formula_sum "Si O2"
_cell_formula_units_Z 56
_cell_length_a 29.035502
_cell_length_b 11.222814
_cell_length_c 14.953867
_cell_angle_alpha 90.000000
_cell_angle_beta 36.866718
_cell_angle_gamma 90.000000
_cell_volume 2923.504263
_symmetry_space_group_name_H-M "C 2/M"
_symmetry_group_IT_number 12
_symmetry_cell_setting 'monoclinic'
loop_
_space_group_symop_operation_xyz
x,y,z
-x,y,-z
-x,-y,-z
x,-y,z
1/2+x,1/2+y,z
1/2-x,1/2+y,-z
1/2-x,1/2-y,-z
1/2+x,1/2-y,z
loop_
_atom_site_type_symbol
_atom_site_label
_atom_site_fract_x
_atom_site_fract_y
_atom_site_fract_z
Si Si1 0.835913 0.228719 0.602424
Si Si2 0.317893 0.359698 0.123764
Si Si3 0.416663 0.363383 0.131011
Si Si4 0.199409 0.140031 0.538739
Si Si5 0.514629 0.862975 0.578552
Si Si6 0.802155 0.125599 0.831158
Si Si7 0.858582 0.285344 0.895746
O O1 0.770729 0.322885 0.732489
O O2 0.818232 0.165224 0.536575
O O3 0.918239 0.292544 0.474777
O O4 0.835287 0.128292 0.679418
O O5 0.319985 0.500000 0.119253
O O6 0.361340 0.304354 0.142624
O O7 0.361855 0.315153 0.967072
O O8 0.427505 0.500000 0.085774
O O9 0.380840 0.351331 0.284697
O O10 0.500000 0.299571 0.000000
O O11 0.250000 0.250000 0.500000
O O12 0.231359 0.000000 0.500388
O O13 0.500000 0.814994 0.500000
O O14 0.439542 0.850486 0.757739
O O15 0.539309 0.000000 0.535141
O O16 0.837412 0.232076 0.832354
O O17 0.827796 0.000000 0.833858
O O18 0.709206 0.124808 0.972386
#
# Coordination Sequence:
#
# PCOD8101973 Si02
#       7
#     8   8   8   8   8   8   8
#     4  11  22  38  60  89 119 158 203 251 312 367
#     4  10  20  36  60  86 114 156 205 249 299 371
#     4   9  19  36  58  85 116 155 199 250 304 362
#     4  11  23  41  67  94 125 162 208 261 317 376
#     4  11  23  40  60  85 122 164 208 259 311 369
#     4  10  20  37  56  79 115 152 193 244 300 363
#     4  10  21  36  56  85 111 153 201 242 302 364
#
# _framework density 19.155093999999998
#
# number of rings (size 3 to 8) (size 9 to 14) (size 15 to 20)
#    0.000    1.714    2.857    1.714    2.000    0.571 
#    0.000    2.857    0.000    0.429    0.000    0.000 
#    0.000    0.000    0.000    0.000    0.000    0.000 
#
# Total GULP energy -346978.514477 kJ/mol
# GULP energy per Si atom -12392.089803 kJ/mol
# Density = 1.911150 g / cm^3
# Si number density = 19.155094 Si / 1000 Ang^3
#
#
#
# Elastic Constant Matrix: (Units=GPa)
#
#
# Indices 1 2 3 4 5 6 
#
# 1 84.8214 25.6214 35.4846 0.0000 9.9880 0.0000
# 2 25.6214 85.1899 23.2634 0.0000 -1.4249 0.0000
# 3 35.4846 23.2634 105.6323 0.0000 1.7212 0.0000
# 4 0.0000 0.0000 0.0000 11.2469 0.0000 2.5668
# 5 9.9880 -1.4249 1.7212 0.0000 40.3487 0.0000
# 6 0.0000 0.0000 0.0000 2.5668 0.0000 25.9070
#
#
#
# Elastic Compliance Matrix: (Units=1/GPa)
#
#
# Indices 1 2 3 4 5 6 
#
# 1 0.015026 -0.003424 -0.004234 0.000000 -0.003660 0.000000
# 2 -0.003424 0.013283 -0.001798 0.000000 0.001393 0.000000
# 3 -0.004234 -0.001798 0.011277 0.000000 0.000504 0.000000
# 4 0.000000 0.000000 0.000000 0.090970 0.000000 -0.009013
# 5 -0.003660 0.001393 0.000504 0.000000 0.025718 0.000000
# 6 0.000000 0.000000 0.000000 -0.009013 0.000000 0.039493
#
#
# Mechanical properties :
#
#
# Convention : Reuss Voigt Hill
#
# Bulk Modulus (GPa) = 48.37031 49.37585 48.87308
# Shear Modulus (GPa) = 22.56638 28.25214 25.40926
#
# Velocity S-wave (km/s) = 3.43605 3.84463 3.64607
# Velocity P-wave (km/s) = 6.40692 6.74841 6.57988
#
# Compressibility (1/GPa) = 0.02067384
#
# Stress axis : x y z
#
# Youngs Moduli (GPa) = 66.55138 75.28688 88.67800
#
# Poissons Ratio (x) = 0.25780 0.37545
# Poissons Ratio (y) = 0.22789 0.15941
# Poissons Ratio (z) = 0.28177 0.13534
#
# Static dielectric constant tensor:
#      x y z
#    x 3.669820 0.000000 0.015730 
#    y 0.000000 3.389440 0.000000 
#    z 0.015730 0.000000 3.556980 
# 
# 
# High freq. dielectric constant tensor:
#      x y z
#    x 1.742830 0.000000 0.008920 
#    y 0.000000 1.728710 0.000000 
#    z 0.008920 0.000000 1.753040 
# 
# From -- ./inp_files/245644.got.cif
#   From: 2010.06.25/outbox.cif.g09.slc.cpg/sg12_123_cif.got.tgz:245644.got - 2010.06.28 00:19:55.
