data_PCOD8101014
_publ_section_title
;
Structure prediction by ZEFSAII (Michael W. Deem and Ramdas Pophale) SiO2 
 PCOD8101014
Probable space group: C 2/M
;
_chemical_formula_sum "Si O2"
_cell_formula_units_Z 48
_cell_length_a 27.538064
_cell_length_b 9.425261
_cell_length_c 17.041763
_cell_angle_alpha 90.000000
_cell_angle_beta 36.154261
_cell_angle_gamma 90.000000
_cell_volume 2609.545210
_symmetry_space_group_name_H-M "C 2/M"
_symmetry_group_IT_number 12
_symmetry_cell_setting 'monoclinic'
loop_
_space_group_symop_operation_xyz
x,y,z
-x,y,-z
-x,-y,-z
x,-y,z
1/2+x,1/2+y,z
1/2-x,1/2+y,-z
1/2-x,1/2-y,-z
1/2+x,1/2-y,z
loop_
_atom_site_type_symbol
_atom_site_label
_atom_site_fract_x
_atom_site_fract_y
_atom_site_fract_z
Si Si1 0.631486 0.664330 0.850438
Si Si2 0.504587 0.834683 0.267725
Si Si3 0.264197 0.663310 0.758062
Si Si4 0.927590 0.335690 0.534889
Si Si5 0.524332 0.663766 0.843447
Si Si6 0.809930 0.661853 0.975627
O O1 0.654813 0.500000 0.832097
O O2 0.712218 0.759521 0.757772
O O3 0.600286 0.691349 0.802901
O O4 0.560372 0.709590 0.004083
O O5 0.454993 0.801301 0.411012
O O6 0.460024 0.754570 0.254741
O O7 0.505195 0.000000 0.246204
O O8 0.597853 0.779403 0.156281
O O9 0.277760 0.500000 0.716788
O O10 0.351352 0.737748 0.656173
O O11 0.213522 0.678874 0.903681
O O12 0.902569 0.500000 0.577260
O O13 0.000000 0.295844 0.500000
O O14 0.520036 0.500000 0.825104
O O15 0.804090 0.500000 0.954946
O O16 0.750000 0.750000 0.000000
#
# Coordination Sequence:
#
# PCOD8101014 Si02
#       6
#     8   8   8   8   8   8
#     4   9  18  34  56  83 114 147 183 220 272 338
#     4  10  20  36  56  81 111 143 184 229 276 330
#     4  11  22  36  56  84 114 143 182 233 281 323
#     4  10  22  40  60  78 107 154 193 224 273 335
#     4   9  18  33  56  85 113 144 182 226 274 328
#     4  10  21  35  53  80 109 139 180 229 276 325
#
# _framework density 18.394010000000002
#
# number of rings (size 3 to 8) (size 9 to 14) (size 15 to 20)
#    0.000    2.167    1.667    2.500    0.000    5.000 
#    0.000    2.500    0.000    0.000    0.000    0.000 
#    0.000    0.000    0.000    0.000    0.000    0.000 
#
# Total GULP energy -297683.643647 kJ/mol
# GULP energy per Si atom -12403.485152 kJ/mol
# Density = 1.835214 g / cm^3
# Si number density = 18.394010 Si / 1000 Ang^3
#
#
#
# Elastic Constant Matrix: (Units=GPa)
#
#
# Indices 1 2 3 4 5 6 
#
# 1 98.1880 49.5551 7.0275 -0.0035 -4.3860 0.0005
# 2 49.5551 75.4301 24.7374 -0.0103 -8.7658 0.0050
# 3 7.0275 24.7374 37.7684 -0.0056 -10.5155 0.0017
# 4 -0.0035 -0.0103 -0.0056 29.9905 0.0031 -0.8980
# 5 -4.3860 -8.7658 -10.5155 0.0031 31.4077 -0.0008
# 6 0.0005 0.0050 0.0017 -0.8980 -0.0008 36.5447
#
#
#
# Elastic Compliance Matrix: (Units=1/GPa)
#
#
# Indices 1 2 3 4 5 6 
#
# 1 0.015942 -0.012082 0.005104 -0.000001 0.000563 0.000001
# 2 -0.012082 0.026076 -0.014639 0.000005 0.000689 -0.000003
# 3 0.005104 -0.014639 0.037690 0.000002 0.009246 0.000000
# 4 -0.000001 0.000005 0.000002 0.033368 -0.000002 0.000820
# 5 0.000563 0.000689 0.009246 -0.000002 0.035206 0.000000
# 6 0.000001 -0.000003 0.000000 0.000820 0.000000 0.027384
#
#
# Mechanical properties :
#
#
# Convention : Reuss Voigt Hill
#
# Bulk Modulus (GPa) = 27.41712 41.55851 34.48781
# Shear Modulus (GPa) = 21.63963 28.25968 24.94965
#
# Velocity S-wave (km/s) = 3.43366 3.92389 3.68693
# Velocity P-wave (km/s) = 5.53695 6.57052 6.07575
#
# Compressibility (1/GPa) = 0.03647356
#
# Stress axis : x y z
#
# Youngs Moduli (GPa) = 62.72741 38.35011 26.53225
#
# Poissons Ratio (x) = 0.46333 -0.13541
# Poissons Ratio (y) = 0.75785 0.38840
# Poissons Ratio (z) = -0.32014 0.56141
#
# Static dielectric constant tensor:
#      x y z
#    x 3.382520 0.000000 -0.004770 
#    y 0.000000 3.357320 0.000010 
#    z -0.004770 0.000010 3.268760 
# 
# 
# High freq. dielectric constant tensor:
#      x y z
#    x 1.722210 0.000000 -0.001390 
#    y 0.000000 1.710210 0.000000 
#    z -0.001390 0.000000 1.700090 
# 
# From -- ./inp_files/244768.got.cif
#   From: 2010.06.25/outbox.cif.g09.slc.cpg/sg12_123_cif.got.tgz:244768.got - 2010.06.28 00:19:55.
