data_PCOD8101577
_publ_section_title
;
Structure prediction by ZEFSAII (Michael W. Deem and Ramdas Pophale) SiO2 
 PCOD8101577
Probable space group: C 2/M
;
_chemical_formula_sum "Si O2"
_cell_formula_units_Z 48
_cell_length_a 29.207504
_cell_length_b 8.758400
_cell_length_c 18.560150
_cell_angle_alpha 90.000000
_cell_angle_beta 30.451175
_cell_angle_gamma 90.000000
_cell_volume 2406.249635
_symmetry_space_group_name_H-M "C 2/M"
_symmetry_group_IT_number 12
_symmetry_cell_setting 'monoclinic'
loop_
_space_group_symop_operation_xyz
x,y,z
-x,y,-z
-x,-y,-z
x,-y,z
1/2+x,1/2+y,z
1/2-x,1/2+y,-z
1/2-x,1/2-y,-z
1/2+x,1/2-y,z
loop_
_atom_site_type_symbol
_atom_site_label
_atom_site_fract_x
_atom_site_fract_y
_atom_site_fract_z
Si Si1 0.601384 0.671361 0.389460
Si Si2 0.260045 0.819271 0.065551
Si Si3 0.088261 0.320941 0.556532
Si Si4 0.742125 0.678725 0.586779
Si Si5 0.541521 0.319646 0.871923
Si Si6 0.947919 0.818181 0.852085
O O1 0.500000 0.674207 0.500000
O O2 0.627218 0.500000 0.379648
O O3 0.671635 0.725425 0.232445
O O4 0.603221 0.788246 0.452665
O O5 0.270006 0.000000 0.044615
O O6 0.250000 0.750000 0.000000
O O7 0.347862 0.751588 0.986048
O O8 0.073286 0.500000 0.588680
O O9 0.179453 0.256505 0.469021
O O10 0.002906 0.233918 0.706685
O O11 0.752281 0.500000 0.566485
O O12 0.750000 0.750000 0.500000
O O13 0.644283 0.727290 0.746483
O O14 0.527163 0.500000 0.889017
O O15 0.498373 0.255705 0.855971
O O16 0.500000 0.246068 0.000000
O O17 0.940576 0.000000 0.861141
#
# Coordination Sequence:
#
# PCOD8101577 Si02
#       6
#     8   8   8   8   8   8
#     4  10  23  43  65  89 119 156 198 243 301 368
#     4  11  24  42  65  93 125 157 196 247 300 362
#     4  11  23  37  61  92 124 157 203 259 300 352
#     4  10  20  36  58  86 119 157 201 248 297 351
#     4   9  19  35  57  84 117 159 205 248 293 353
#     4  11  22  38  63  88 121 167 206 245 302 361
#
# _framework density 19.948053999999999
#
# number of rings (size 3 to 8) (size 9 to 14) (size 15 to 20)
#    0.000    1.667    1.667    2.500    2.333    3.667 
#    0.000    0.000    0.000    2.500    0.000    0.000 
#    0.000    0.000    0.000    0.000    0.000    0.000 
#
# Total GULP energy -297537.218099 kJ/mol
# GULP energy per Si atom -12397.384087 kJ/mol
# Density = 1.990265 g / cm^3
# Si number density = 19.948054 Si / 1000 Ang^3
#
#
#
# Elastic Constant Matrix: (Units=GPa)
#
#
# Indices 1 2 3 4 5 6 
#
# 1 98.0751 30.9187 55.0959 0.0020 -0.0516 -0.0004
# 2 30.9187 49.9356 47.7851 -0.0017 -4.5569 0.0045
# 3 55.0959 47.7851 166.8119 -0.0062 2.5853 0.0063
# 4 0.0020 -0.0017 -0.0062 27.5718 0.0043 -1.5663
# 5 -0.0516 -4.5569 2.5853 0.0043 42.2963 -0.0032
# 6 -0.0004 0.0045 0.0063 -1.5663 -0.0032 27.9965
#
#
#
# Elastic Compliance Matrix: (Units=1/GPa)
#
#
# Indices 1 2 3 4 5 6 
#
# 1 0.013602 -0.005743 -0.002841 -0.000002 -0.000428 0.000002
# 2 -0.005743 0.030528 -0.006906 0.000000 0.003704 -0.000003
# 3 -0.002841 -0.006906 0.008931 0.000002 -0.001293 -0.000001
# 4 -0.000002 0.000000 0.000002 0.036385 -0.000004 0.002036
# 5 -0.000428 0.003704 -0.001293 -0.000004 0.024120 0.000002
# 6 0.000002 -0.000003 -0.000001 0.002036 0.000002 0.035833
#
#
# Mechanical properties :
#
#
# Convention : Reuss Voigt Hill
#
# Bulk Modulus (GPa) = 45.28398 64.71356 54.99877
# Shear Modulus (GPa) = 26.63272 31.64111 29.13691
#
# Velocity S-wave (km/s) = 3.65787 3.98700 3.82598
# Velocity P-wave (km/s) = 6.37105 7.32846 6.86646
#
# Compressibility (1/GPa) = 0.02208287
#
# Stress axis : x y z
#
# Youngs Moduli (GPa) = 73.51604 32.75698 111.96460
#
# Poissons Ratio (x) = 0.18811 0.31810
# Poissons Ratio (y) = 0.42218 0.77319
# Poissons Ratio (z) = 0.20886 0.22621
#
# Static dielectric constant tensor:
#      x y z
#    x 3.864870 0.000000 -0.082620 
#    y 0.000000 3.510570 0.000020 
#    z -0.082620 0.000020 3.833510 
# 
# 
# High freq. dielectric constant tensor:
#      x y z
#    x 1.789180 0.000000 -0.005280 
#    y 0.000000 1.762360 0.000000 
#    z -0.005280 0.000000 1.795590 
# 
# From -- ./inp_files/295356.got.cif
#   From: 2010.06.25/outbox.cif.g09.slc.cpg/sg12_148_cif.got.tgz:295356.got - 2010.06.28 00:19:55.
