data_PCOD8101057
_publ_section_title
;
Structure prediction by ZEFSAII (Michael W. Deem and Ramdas Pophale) SiO2 
 PCOD8101057
Probable space group: C 2/M
;
_chemical_formula_sum "Si O2"
_cell_formula_units_Z 64
_cell_length_a 28.863819
_cell_length_b 8.911027
_cell_length_c 15.298868
_cell_angle_alpha 90.000000
_cell_angle_beta 126.362364
_cell_angle_gamma 90.000000
_cell_volume 3168.761911
_symmetry_space_group_name_H-M "C 2/M"
_symmetry_group_IT_number 12
_symmetry_cell_setting 'monoclinic'
loop_
_space_group_symop_operation_xyz
x,y,z
-x,y,-z
-x,-y,-z
x,-y,z
1/2+x,1/2+y,z
1/2-x,1/2+y,-z
1/2-x,1/2-y,-z
1/2+x,1/2-y,z
loop_
_atom_site_type_symbol
_atom_site_label
_atom_site_fract_x
_atom_site_fract_y
_atom_site_fract_z
Si Si1 0.830510 0.677548 0.817579
Si Si2 0.931118 0.172048 0.183297
Si Si3 0.216782 0.321307 0.746937
Si Si4 0.946637 0.825635 0.002779
Si Si5 0.009269 0.678248 0.412469
Si Si6 0.367679 0.824276 0.496642
Si Si7 0.193734 0.823859 0.896308
Si Si8 0.806376 0.325317 0.597574
O O1 0.822916 0.500000 0.817706
O O2 0.781739 0.758687 0.820150
O O3 0.824696 0.736647 0.711872
O O4 0.893316 0.722688 0.918518
O O5 0.958828 0.207274 0.119029
O O6 0.862519 0.207296 0.106668
O O7 0.960903 0.269206 0.291252
O O8 0.941444 0.000000 0.219677
O O9 0.219178 0.500000 0.757723
O O10 0.183227 0.263129 0.622952
O O11 0.182404 0.252375 0.789947
O O12 0.930865 0.000000 0.971463
O O13 0.000000 0.779981 0.000000
O O14 0.008965 0.500000 0.409227
O O15 0.070797 0.748273 0.454805
O O16 0.000000 0.737900 0.500000
O O17 0.356412 0.786074 0.584987
O O18 0.370844 0.000000 0.482299
O O19 0.204946 0.000000 0.897765
O O20 0.250000 0.750000 0.000000
O O21 0.793870 0.500000 0.588128
O O22 0.750000 0.250000 0.500000
#
# Coordination Sequence:
#
# PCOD8101057 Si02
#       8
#     8   8   8   8   8   8   8   8
#     4  11  23  37  59  90 123 155 201 255 304 360
#     4  10  23  42  61  87 121 158 198 248 303 355
#     4  11  21  37  62  87 118 158 196 240 301 362
#     4  10  23  43  64  86 118 161 209 253 301 365
#     4  10  21  38  62  90 120 157 201 245 293 357
#     4   9  19  35  56  83 116 154 195 239 294 355
#     4  11  23  39  61  88 120 153 197 247 299 360
#     4  10  20  36  56  84 120 157 198 246 298 355
#
# _framework density 20.197164000000001
#
# number of rings (size 3 to 8) (size 9 to 14) (size 15 to 20)
#    0.000    1.750    1.250    2.625    1.750    4.500 
#    0.000    1.875    0.000    0.000    0.000    0.000 
#    0.000    0.000    0.000    0.000    0.000    0.000 
#
# Total GULP energy -396808.822869 kJ/mol
# GULP energy per Si atom -12400.275715 kJ/mol
# Density = 2.015119 g / cm^3
# Si number density = 20.197164 Si / 1000 Ang^3
#
#
#
# Elastic Constant Matrix: (Units=GPa)
#
#
# Indices 1 2 3 4 5 6 
#
# 1 137.6833 37.8829 41.4690 0.0000 -2.6780 0.0000
# 2 37.8829 56.3464 28.2717 0.0000 -1.8816 0.0000
# 3 41.4690 28.2717 98.9047 0.0000 -3.3552 0.0000
# 4 0.0000 0.0000 0.0000 31.7738 0.0000 1.0971
# 5 -2.6780 -1.8816 -3.3552 0.0000 39.2903 0.0000
# 6 0.0000 0.0000 0.0000 1.0971 0.0000 26.1953
#
#
#
# Elastic Compliance Matrix: (Units=1/GPa)
#
#
# Indices 1 2 3 4 5 6 
#
# 1 0.009412 -0.005072 -0.002490 0.000000 0.000186 0.000000
# 2 -0.005072 0.023462 -0.004567 0.000000 0.000388 0.000000
# 3 -0.002490 -0.004567 0.012483 0.000000 0.000678 0.000000
# 4 0.000000 0.000000 0.000000 0.031518 0.000000 -0.001320
# 5 0.000186 0.000388 0.000678 0.000000 0.025541 0.000000
# 6 0.000000 0.000000 0.000000 -0.001320 0.000000 0.038230
#
#
# Mechanical properties :
#
#
# Convention : Reuss Voigt Hill
#
# Bulk Modulus (GPa) = 47.39567 56.46463 51.93015
# Shear Modulus (GPa) = 29.08031 31.80594 30.44313
#
# Velocity S-wave (km/s) = 3.79861 3.97265 3.88660
# Velocity P-wave (km/s) = 6.53886 7.00428 6.77557
#
# Compressibility (1/GPa) = 0.02109898
#
# Stress axis : x y z
#
# Youngs Moduli (GPa) = 106.24345 42.62229 80.10801
#
# Poissons Ratio (x) = 0.21620 0.19948
# Poissons Ratio (y) = 0.53892 0.36582
# Poissons Ratio (z) = 0.26456 0.19464
#
# Static dielectric constant tensor:
#      x y z
#    x 3.784180 0.000000 -0.102520 
#    y 0.000000 3.337200 0.000000 
#    z -0.102520 0.000000 3.673280 
# 
# 
# High freq. dielectric constant tensor:
#      x y z
#    x 1.804940 0.000000 -0.007910 
#    y 0.000000 1.772020 0.000000 
#    z -0.007910 0.000000 1.793850 
# 
# From -- ./inp_files/250122.got.cif
#   From: 2010.06.25/outbox.cif.g09.slc.cpg/sg12_126_cif.got.tgz:250122.got - 2010.06.28 00:19:55.
