data_PCOD8101601
_publ_section_title
;
Structure prediction by ZEFSAII (Michael W. Deem and Ramdas Pophale) SiO2 
 PCOD8101601
Probable space group: C 2/M
;
_chemical_formula_sum "Si O2"
_cell_formula_units_Z 64
_cell_length_a 32.623257
_cell_length_b 14.192292
_cell_length_c 10.185582
_cell_angle_alpha 90.000000
_cell_angle_beta 138.625999
_cell_angle_gamma 90.000000
_cell_volume 3117.083144
_symmetry_space_group_name_H-M "C 2/M"
_symmetry_group_IT_number 12
_symmetry_cell_setting 'monoclinic'
loop_
_space_group_symop_operation_xyz
x,y,z
-x,y,-z
-x,-y,-z
x,-y,z
1/2+x,1/2+y,z
1/2-x,1/2+y,-z
1/2-x,1/2-y,-z
1/2+x,1/2-y,z
loop_
_atom_site_type_symbol
_atom_site_label
_atom_site_fract_x
_atom_site_fract_y
_atom_site_fract_z
Si Si1 0.173706 0.607779 0.940862
Si Si2 0.295595 0.112595 0.474922
Si Si3 0.379178 0.110864 0.913944
Si Si4 0.864743 0.703836 0.411297
Si Si5 0.688184 0.393101 0.659585
Si Si6 0.037356 0.103320 0.956377
Si Si7 0.495949 0.205682 0.833723
Si Si8 0.676086 0.610160 0.334249
O O1 0.151887 0.500000 0.872210
O O2 0.141859 0.668797 0.752040
O O3 0.151590 0.649839 0.026900
O O4 0.247824 0.614623 0.107789
O O5 0.343619 0.152360 0.700698
O O6 0.310671 0.159608 0.371660
O O7 0.226510 0.147102 0.350137
O O8 0.299823 0.000000 0.471573
O O9 0.370024 0.000000 0.886838
O O10 0.451602 0.135419 0.091361
O O11 0.860199 0.817867 0.397621
O O12 0.930262 0.667934 0.625554
O O13 0.660878 0.500000 0.604917
O O14 0.700174 0.364739 0.537221
O O15 0.004711 0.187498 0.796729
O O16 0.038596 0.000000 0.887853
O O17 0.106326 0.147387 0.144812
O O18 0.000000 0.088571 0.000000
O O19 0.500000 0.209424 0.000000
O O20 0.671805 0.500000 0.308492
#
# Coordination Sequence:
#
# PCOD8101601 Si02
#       8
#     8   8   8   8   8   8   8   8
#     4  10  22  42  62  84 115 152 196 242 292 353
#     4  10  20  36  58  88 120 150 189 243 297 342
#     4  10  21  39  61  81 115 161 193 233 295 351
#     4  12  24  36  59  90 118 151 198 246 288 339
#     4  10  20  37  60  84 116 154 190 233 293 355
#     4   9  18  33  54  82 121 155 185 235 291 340
#     4  11  22  36  54  86 120 151 196 239 285 346
#     4   9  17  32  57  86 113 150 193 231 285 353
#
# _framework density 20.532015999999999
#
# number of rings (size 3 to 8) (size 9 to 14) (size 15 to 20)
#    0.000    1.875    2.500    2.250    0.000    4.750 
#    0.000    1.250    0.000    0.750    0.000    1.750 
#    0.000    0.000    0.000    0.000    0.000    0.000 
#
# Total GULP energy -396674.474386 kJ/mol
# GULP energy per Si atom -12396.077325 kJ/mol
# Density = 2.048528 g / cm^3
# Si number density = 20.532016 Si / 1000 Ang^3
#
#
#
# Elastic Constant Matrix: (Units=GPa)
#
#
# Indices 1 2 3 4 5 6 
#
# 1 82.1178 20.9155 30.6947 0.0000 12.7728 0.0000
# 2 20.9155 37.6946 11.1844 0.0000 -8.8842 0.0000
# 3 30.6947 11.1844 68.8776 0.0000 1.8719 0.0000
# 4 0.0000 0.0000 0.0000 28.8288 0.0000 -7.8370
# 5 12.7728 -8.8842 1.8719 0.0000 36.4848 0.0000
# 6 0.0000 0.0000 0.0000 -7.8370 0.0000 74.7543
#
#
#
# Elastic Compliance Matrix: (Units=1/GPa)
#
#
# Indices 1 2 3 4 5 6 
#
# 1 0.018575 -0.010484 -0.006338 0.000000 -0.008730 0.000000
# 2 -0.010484 0.035713 -0.001465 0.000000 0.012442 0.000000
# 3 -0.006338 -0.001465 0.017555 0.000000 0.000961 0.000000
# 4 0.000000 0.000000 0.000000 0.035705 0.000000 0.003743
# 5 -0.008730 0.012442 0.000961 0.000000 0.033445 0.000000
# 6 0.000000 0.000000 0.000000 0.003743 0.000000 0.013770
#
#
# Mechanical properties :
#
#
# Convention : Reuss Voigt Hill
#
# Bulk Modulus (GPa) = 28.35372 34.91990 31.63681
# Shear Modulus (GPa) = 24.61920 36.40661 30.51291
#
# Velocity S-wave (km/s) = 3.46651 4.21546 3.85920
# Velocity P-wave (km/s) = 5.46459 6.38263 5.94137
#
# Compressibility (1/GPa) = 0.03526873
#
# Stress axis : x y z
#
# Youngs Moduli (GPa) = 53.83618 28.00082 56.96431
#
# Poissons Ratio (x) = 0.29355 0.36105
# Poissons Ratio (y) = 0.56440 0.08347
# Poissons Ratio (z) = 0.34122 0.04103
#
# Static dielectric constant tensor:
#      x y z
#    x 3.790510 0.000000 0.329160 
#    y 0.000000 3.911400 0.000000 
#    z 0.329160 0.000000 3.614240 
# 
# 
# High freq. dielectric constant tensor:
#      x y z
#    x 1.787800 0.000000 0.023890 
#    y 0.000000 1.812740 0.000000 
#    z 0.023890 0.000000 1.777600 
# 
# From -- ./inp_files/112033.got.cif
#   From: 2010.06.25/outbox.cif.g09.slc.cpg/sg12_57_cif.got.tgz:112033.got - 2010.06.28 00:19:55.
