data_PCOD8101937
_publ_section_title
;
Structure prediction by ZEFSAII (Michael W. Deem and Ramdas Pophale) SiO2 
 PCOD8101937
Probable space group: C 2/M
;
_chemical_formula_sum "Si O2"
_cell_formula_units_Z 44
_cell_length_a 10.246945
_cell_length_b 13.494479
_cell_length_c 26.546009
_cell_angle_alpha 90.000000
_cell_angle_beta 38.710675
_cell_angle_gamma 90.000000
_cell_volume 2295.616529
_symmetry_space_group_name_H-M "C 2/M"
_symmetry_group_IT_number 12
_symmetry_cell_setting 'monoclinic'
loop_
_space_group_symop_operation_xyz
x,y,z
-x,y,-z
-x,-y,-z
x,-y,z
1/2+x,1/2+y,z
1/2-x,1/2+y,-z
1/2-x,1/2-y,-z
1/2+x,1/2-y,z
loop_
_atom_site_type_symbol
_atom_site_label
_atom_site_fract_x
_atom_site_fract_y
_atom_site_fract_z
Si Si1 0.664973 0.116285 0.992474
Si Si2 0.356935 0.888461 0.373940
Si Si3 0.500000 0.243092 0.500000
Si Si4 0.491384 0.767622 0.760596
Si Si5 0.474607 0.241426 0.134216
Si Si6 0.317963 0.887470 0.640087
O O1 0.890822 0.158364 0.909703
O O2 0.687981 0.000000 0.988357
O O3 0.500000 0.150375 0.000000
O O4 0.591888 0.154609 0.068843
O O5 0.400625 0.855269 0.303626
O O6 0.575109 0.884903 0.337608
O O7 0.197393 0.814460 0.449716
O O8 0.265261 0.000000 0.401107
O O9 0.532296 0.172216 0.442657
O O10 0.543729 0.792598 0.802551
O O11 0.591447 0.662657 0.713549
O O12 0.246966 0.762174 0.824235
O O13 0.287338 0.000000 0.630013
#
# Coordination Sequence:
#
# PCOD8101937 Si02
#       6
#     8   8   4   8   8   8
#     4  10  22  39  63  89 116 157 199 234 288 353
#     4  10  21  37  58  86 118 155 194 237 295 348
#     4  10  20  36  60  84 118 152 196 246 286 338
#     4  11  22  38  61  86 121 151 196 240 297 338
#     4  11  22  40  61  89 119 153 189 250 288 345
#     4  10  21  37  59  86 115 156 199 236 287 350
#
# _framework density 19.166964
#
# number of rings (size 3 to 8) (size 9 to 14) (size 15 to 20)
#    0.000    1.636    3.636    1.091    0.000    2.909 
#    0.000    0.909    0.000    0.000    0.000    0.000 
#    0.000    0.000    0.000    0.000    0.000    0.000 
#
# Total GULP energy -272866.261757 kJ/mol
# GULP energy per Si atom -12403.011898 kJ/mol
# Density = 1.912334 g / cm^3
# Si number density = 19.166964 Si / 1000 Ang^3
#
#
#
# Elastic Constant Matrix: (Units=GPa)
#
#
# Indices 1 2 3 4 5 6 
#
# 1 73.5575 37.0194 25.3331 -0.0001 7.0409 -0.0001
# 2 37.0194 131.9186 47.6781 -0.0002 2.9271 0.0000
# 3 25.3331 47.6781 93.6406 -0.0048 4.5912 -0.0003
# 4 -0.0001 -0.0002 -0.0048 19.6713 0.0002 -3.5061
# 5 7.0409 2.9271 4.5912 0.0002 43.1437 0.0000
# 6 -0.0001 0.0000 -0.0003 -3.5061 0.0000 27.1332
#
#
#
# Elastic Compliance Matrix: (Units=1/GPa)
#
#
# Indices 1 2 3 4 5 6 
#
# 1 0.016515 -0.003689 -0.002483 -0.000001 -0.002181 0.000000
# 2 -0.003689 0.010115 -0.004170 -0.000001 0.000359 0.000000
# 3 -0.002483 -0.004170 0.013511 0.000003 -0.000750 0.000001
# 4 -0.000001 -0.000001 0.000003 0.052034 0.000000 0.006724
# 5 -0.002181 0.000359 -0.000750 0.000000 0.023590 0.000000
# 6 0.000000 0.000000 0.000001 0.006724 0.000000 0.037724
#
#
# Mechanical properties :
#
#
# Convention : Reuss Voigt Hill
#
# Bulk Modulus (GPa) = 51.39324 57.68643 54.53983
# Shear Modulus (GPa) = 27.67686 30.59536 29.13611
#
# Velocity S-wave (km/s) = 3.80411 3.99965 3.90310
# Velocity P-wave (km/s) = 6.79460 7.17577 6.98779
#
# Compressibility (1/GPa) = 0.01945781
#
# Stress axis : x y z
#
# Youngs Moduli (GPa) = 60.55069 98.86683 74.01600
#
# Poissons Ratio (x) = 0.36470 0.18377
# Poissons Ratio (y) = 0.22336 0.30862
# Poissons Ratio (z) = 0.15034 0.41224
#
# Static dielectric constant tensor:
#      x y z
#    x 3.494320 0.000000 0.060510 
#    y 0.000000 3.502610 0.000000 
#    z 0.060510 0.000000 3.593690 
# 
# 
# High freq. dielectric constant tensor:
#      x y z
#    x 1.744300 0.000000 0.002910 
#    y 0.000000 1.744120 0.000000 
#    z 0.002910 0.000000 1.756960 
# 
# From -- ./inp_files/356067.got.cif
#   From: 2010.06.25/outbox.cif.g09.slc.cpg/sg12_179_cif.got.tgz:356067.got - 2010.06.28 00:19:55.
