data_PCOD8101790
_publ_section_title
;
Structure prediction by ZEFSAII (Michael W. Deem and Ramdas Pophale) SiO2 
 PCOD8101790
Probable space group: C 2/M
;
_chemical_formula_sum "Si O2"
_cell_formula_units_Z 64
_cell_length_a 16.278317
_cell_length_b 8.676548
_cell_length_c 27.155957
_cell_angle_alpha 90.000000
_cell_angle_beta 54.401316
_cell_angle_gamma 90.000000
_cell_volume 3118.696382
_symmetry_space_group_name_H-M "C 2/M"
_symmetry_group_IT_number 12
_symmetry_cell_setting 'monoclinic'
loop_
_space_group_symop_operation_xyz
x,y,z
-x,y,-z
-x,-y,-z
x,-y,z
1/2+x,1/2+y,z
1/2-x,1/2+y,-z
1/2-x,1/2-y,-z
1/2+x,1/2-y,z
loop_
_atom_site_type_symbol
_atom_site_label
_atom_site_fract_x
_atom_site_fract_y
_atom_site_fract_z
Si Si1 0.575199 0.317515 0.431393
Si Si2 0.547570 0.680424 0.121276
Si Si3 0.295290 0.681515 0.368083
Si Si4 0.088326 0.328747 0.007511
Si Si5 0.511877 0.682292 0.642130
Si Si6 0.653987 0.681282 0.757082
Si Si7 0.728837 0.821588 0.111523
Si Si8 0.166067 0.682289 0.241089
O O1 0.500000 0.259576 0.500000
O O2 0.578873 0.500000 0.427082
O O3 0.686356 0.261045 0.407910
O O4 0.530140 0.250669 0.395345
O O5 0.565721 0.500000 0.126888
O O6 0.556226 0.706336 0.060030
O O7 0.440970 0.742516 0.178956
O O8 0.625826 0.793128 0.119334
O O9 0.275635 0.500000 0.376349
O O10 0.371588 0.732915 0.385875
O O11 0.351244 0.730788 0.297989
O O12 0.106942 0.500000 0.023324
O O13 0.188044 0.278790 0.944445
O O14 0.000000 0.333686 0.000000
O O15 0.508248 0.500000 0.642461
O O16 0.441925 0.740386 0.711173
O O17 0.656470 0.500000 0.762504
O O18 0.757454 0.746450 0.744103
O O19 0.712689 0.764827 0.172938
O O20 0.760044 0.000000 0.098802
O O21 0.150740 0.500000 0.247913
#
# Coordination Sequence:
#
# PCOD8101790 Si02
#       8
#     8   8   8   8   8   8   8   8
#     4  10  22  40  59  85 124 162 197 242 296 352
#     4  11  22  38  60  83 113 153 194 238 293 352
#     4  10  20  37  61  87 118 154 200 248 293 351
#     4  11  24  41  59  81 111 147 191 243 297 355
#     4  10  21  37  59  88 120 157 199 247 300 353
#     4   9  18  34  57  84 113 147 188 239 293 346
#     4  11  23  38  57  83 115 149 190 239 293 354
#     4  10  20  36  59  86 116 151 193 242 291 349
#
# _framework density 20.521395999999999
#
# number of rings (size 3 to 8) (size 9 to 14) (size 15 to 20)
#    0.000    1.750    1.250    3.000    0.000    5.250 
#    0.000    2.500    0.000    0.000    0.000    0.000 
#    0.000    0.000    0.000    0.000    0.000    0.000 
#
# Total GULP energy -396733.678525 kJ/mol
# GULP energy per Si atom -12397.927454 kJ/mol
# Density = 2.047469 g / cm^3
# Si number density = 20.521396 Si / 1000 Ang^3
#
#
#
# Elastic Constant Matrix: (Units=GPa)
#
#
# Indices 1 2 3 4 5 6 
#
# 1 128.4403 21.4711 59.2664 -0.0002 -16.7217 0.0037
# 2 21.4711 26.2663 18.1416 -0.0003 -1.7012 0.0062
# 3 59.2664 18.1416 125.1058 0.0000 -12.5632 -0.0004
# 4 -0.0002 -0.0003 0.0000 28.8604 -0.0001 2.9354
# 5 -16.7217 -1.7012 -12.5632 -0.0001 33.0533 0.0004
# 6 0.0037 0.0062 -0.0004 2.9354 0.0004 -214.4693
#
#
#
# Elastic Compliance Matrix: (Units=1/GPa)
#
#
# Indices 1 2 3 4 5 6 
#
# 1 0.011154 -0.006096 -0.004018 0.000000 0.003802 0.000000
# 2 -0.006096 0.045642 -0.003955 0.000000 -0.002238 0.000001
# 3 -0.004018 -0.003955 0.010652 0.000000 0.001812 0.000000
# 4 0.000000 0.000000 0.000000 0.034601 0.000000 0.000474
# 5 0.003802 -0.002238 0.001812 0.000000 0.032751 0.000000
# 6 0.000000 0.000001 0.000000 0.000474 0.000000 -0.004656
#
#
# Mechanical properties :
#
#
# Convention : Reuss Voigt Hill
#
# Bulk Modulus (GPa) = 25.43970 53.06337 39.25153
# Shear Modulus (GPa) = 29.17388 -18.44889 5.36249
#
# Velocity S-wave (km/s) = 3.77454 -3.00160 1.61827
# Velocity P-wave (km/s) = 5.60534 3.72839 4.76029
#
# Compressibility (1/GPa) = 0.03930864
#
# Stress axis : x y z
#
# Youngs Moduli (GPa) = 89.65526 21.90982 93.87622
#
# Poissons Ratio (x) = 0.13356 0.37721
# Poissons Ratio (y) = 0.54655 0.37131
# Poissons Ratio (z) = 0.36025 0.08666
#
# Static dielectric constant tensor:
#      x y z
#    x 4.027440 0.000000 0.122280 
#    y 0.000000 3.525450 0.000000 
#    z 0.122280 0.000000 3.748130 
# 
# 
# High freq. dielectric constant tensor:
#      x y z
#    x 1.817110 0.000000 -0.002960 
#    y 0.000000 1.780290 0.000000 
#    z -0.002960 0.000000 1.807320 
# 
# From -- ./inp_files/375405.got.cif
#   From: 2010.06.25/outbox.cif.g09.slc.cpg/sg12_188_cif.got.tgz:375405.got - 2010.06.28 00:19:55.
