data_PCOD8101743
_publ_section_title
;
Structure prediction by ZEFSAII (Michael W. Deem and Ramdas Pophale) SiO2 
 PCOD8101743
Probable space group: C 2/M
;
_chemical_formula_sum "Si O2"
_cell_formula_units_Z 56
_cell_length_a 16.510467
_cell_length_b 15.921213
_cell_length_c 15.256044
_cell_angle_alpha 90.000000
_cell_angle_beta 128.655939
_cell_angle_gamma 90.000000
_cell_volume 3131.691545
_symmetry_space_group_name_H-M "C 2/M"
_symmetry_group_IT_number 12
_symmetry_cell_setting 'monoclinic'
loop_
_space_group_symop_operation_xyz
x,y,z
-x,y,-z
-x,-y,-z
x,-y,z
1/2+x,1/2+y,z
1/2-x,1/2+y,-z
1/2-x,1/2-y,-z
1/2+x,1/2-y,z
loop_
_atom_site_type_symbol
_atom_site_label
_atom_site_fract_x
_atom_site_fract_y
_atom_site_fract_z
Si Si1 0.232264 0.179312 0.106408
Si Si2 0.976607 0.138827 0.273581
Si Si3 0.338534 0.500000 0.889794
Si Si4 0.604760 0.594002 0.517927
Si Si5 0.436369 0.909400 0.871290
Si Si6 0.216494 0.166079 0.746564
Si Si7 0.585816 0.778611 0.888249
Si Si8 0.508119 0.500000 0.153096
O O1 0.272651 0.237751 0.213782
O O2 0.312529 0.173939 0.079523
O O3 0.225623 0.085653 0.140146
O O4 0.123676 0.217481 0.993889
O O5 0.869373 0.117278 0.252402
O O6 0.968199 0.231264 0.228868
O O7 0.077279 0.132008 0.404088
O O8 0.991886 0.080363 0.201136
O O9 0.379560 0.500000 0.817444
O O10 0.427276 0.500000 0.020951
O O11 0.500000 0.586196 0.500000
O O12 0.653485 0.500000 0.540999
O O13 0.682109 0.657790 0.621030
O O14 0.325501 0.878779 0.830184
O O15 0.495612 0.842252 0.852710
O O16 0.425591 0.000000 0.814811
O O17 0.500000 0.925395 0.000000
#
# Coordination Sequence:
#
# PCOD8101743 Si02
#       8
#     8   8   4   8   8   8   8   4
#     4  10  21  38  55  80 110 152 190 229 277 331
#     4  10  20  36  59  85 115 147 183 236 286 335
#     4  11  24  34  56  81 113 154 183 225 283 336
#     4   9  17  32  57  87 113 142 183 234 287 334
#     4  11  23  34  53  81 114 153 187 229 275 330
#     4  10  21  36  57  83 116 147 183 229 289 336
#     4  10  21  37  55  80 112 150 190 233 271 334
#     4  11  22  32  55  89 112 139 186 238 282 334
#
# _framework density 17.881710000000002
#
# number of rings (size 3 to 8) (size 9 to 14) (size 15 to 20)
#    0.000    1.857    3.571    0.429    5.000    0.000 
#    0.000    0.714    0.000    0.000    0.000    2.500 
#    0.000    0.000    0.000    0.000    0.000    0.000 
#
# Total GULP energy -346981.365976 kJ/mol
# GULP energy per Si atom -12392.191642 kJ/mol
# Density = 1.784101 g / cm^3
# Si number density = 17.881710 Si / 1000 Ang^3
#
#
#
# Elastic Constant Matrix: (Units=GPa)
#
#
# Indices 1 2 3 4 5 6 
#
# 1 90.5801 51.3581 30.3817 0.0000 -4.4950 0.0000
# 2 51.3581 117.3362 43.8151 0.0000 -3.2904 0.0000
# 3 30.3817 43.8151 96.3358 0.0000 -4.4501 0.0000
# 4 0.0000 0.0000 0.0000 44.6540 0.0000 -86.8955
# 5 -4.4950 -3.2904 -4.4501 0.0000 18.8945 0.0000
# 6 0.0000 0.0000 0.0000 -86.8955 0.0000 475.1126
#
#
#
# Elastic Compliance Matrix: (Units=1/GPa)
#
#
# Indices 1 2 3 4 5 6 
#
# 1 0.015113 -0.005797 -0.002032 0.000000 0.002107 0.000000
# 2 -0.005797 0.012499 -0.003862 0.000000 -0.000112 0.000000
# 3 -0.002032 -0.003862 0.012864 0.000000 0.001874 0.000000
# 4 0.000000 0.000000 0.000000 0.034769 0.000000 0.006359
# 5 0.002107 -0.000112 0.001874 0.000000 0.053849 0.000000
# 6 0.000000 0.000000 0.000000 0.006359 0.000000 0.003268
#
#
# Mechanical properties :
#
#
# Convention : Reuss Voigt Hill
#
# Bulk Modulus (GPa) = 58.49971 61.70687 60.10329
# Shear Modulus (GPa) = 30.97107 119.64537 75.30822
#
# Velocity S-wave (km/s) = 4.16624 8.18869 6.49662
# Velocity P-wave (km/s) = 7.47859 11.13505 9.48469
#
# Compressibility (1/GPa) = 0.01709410
#
# Stress axis : x y z
#
# Youngs Moduli (GPa) = 66.16811 80.00848 77.73529
#
# Poissons Ratio (x) = 0.46381 0.15799
# Poissons Ratio (y) = 0.38357 0.30018
# Poissons Ratio (z) = 0.13448 0.30896
#
# Static dielectric constant tensor:
#      x y z
#    x 3.401710 0.000000 0.046840 
#    y 0.000000 3.436480 0.000000 
#    z 0.046840 0.000000 3.657600 
# 
# 
# High freq. dielectric constant tensor:
#      x y z
#    x 1.678600 0.000000 -0.004770 
#    y 0.000000 1.689120 0.000000 
#    z -0.004770 0.000000 1.680460 
# 
# From -- ./inp_files/225422.got.cif
#   From: 2010.06.25/outbox.cif.g09.slc.cpg/sg12_113_cif.got.tgz:225422.got - 2010.06.28 00:19:55.
