data_PCOD8101970
_publ_section_title
;
Structure prediction by ZEFSAII (Michael W. Deem and Ramdas Pophale) SiO2 
 PCOD8101970
Probable space group: C 2/M
;
_chemical_formula_sum "Si O2"
_cell_formula_units_Z 64
_cell_length_a 30.863061
_cell_length_b 8.834912
_cell_length_c 14.320901
_cell_angle_alpha 90.000000
_cell_angle_beta 56.654078
_cell_angle_gamma 90.000000
_cell_volume 3262.037222
_symmetry_space_group_name_H-M "C 2/M"
_symmetry_group_IT_number 12
_symmetry_cell_setting 'monoclinic'
loop_
_space_group_symop_operation_xyz
x,y,z
-x,y,-z
-x,-y,-z
x,-y,z
1/2+x,1/2+y,z
1/2-x,1/2+y,-z
1/2-x,1/2-y,-z
1/2+x,1/2-y,z
loop_
_atom_site_type_symbol
_atom_site_label
_atom_site_fract_x
_atom_site_fract_y
_atom_site_fract_z
Si Si1 0.405624 0.820833 0.871259
Si Si2 0.270560 0.675990 0.720464
Si Si3 0.893409 0.321567 0.261077
Si Si4 0.845804 0.320497 0.124194
Si Si5 0.138271 0.824675 0.256823
Si Si6 0.481325 0.320742 0.265490
Si Si7 0.797054 0.321786 0.499984
Si Si8 0.548769 0.679139 0.497730
O O1 0.371290 0.775168 0.822912
O O2 0.461056 0.742967 0.804326
O O3 0.412921 0.000000 0.864622
O O4 0.375398 0.760248 0.998116
O O5 0.269155 0.500000 0.693546
O O6 0.213082 0.741865 0.805636
O O7 0.303051 0.699726 0.777211
O O8 0.298471 0.764619 0.604055
O O9 0.902379 0.500000 0.249602
O O10 0.875463 0.262245 0.180979
O O11 0.948009 0.242111 0.218770
O O12 0.850519 0.272706 0.387542
O O13 0.843501 0.500000 0.126187
O O14 0.100994 0.767809 0.384729
O O15 0.126940 0.000000 0.246141
O O16 0.484628 0.500000 0.255617
O O17 0.453124 0.262906 0.393567
O O18 0.789900 0.500000 0.505209
O O19 0.750000 0.250000 0.500000
O O20 0.500000 0.749111 0.500000
O O21 0.544600 0.500000 0.503153
#
# Coordination Sequence:
#
# PCOD8101970 Si02
#       8
#     8   8   8   8   8   8   8   8
#     4  11  23  39  59  81 112 154 198 239 288 346
#     4  10  20  38  62  86 115 155 198 236 287 348
#     4  10  21  39  60  83 116 154 192 230 283 349
#     4   9  20  40  60  79 111 158 199 234 283 351
#     4  10  20  36  60  86 114 149 189 237 292 347
#     4  11  22  38  61  87 115 145 190 242 289 343
#     4  11  21  35  60  90 122 155 190 236 287 343
#     4   9  16  31  55  80 110 146 176 214 282 353
#
# _framework density 19.619641999999999
#
# number of rings (size 3 to 8) (size 9 to 14) (size 15 to 20)
#    0.000    1.875    2.500    1.875    0.000    3.500 
#    0.000    6.875    0.000    0.000    0.000    0.000 
#    0.000    0.000    0.000    0.000    0.000    0.000 
#
# Total GULP energy -396860.224013 kJ/mol
# GULP energy per Si atom -12401.882000 kJ/mol
# Density = 1.957499 g / cm^3
# Si number density = 19.619642 Si / 1000 Ang^3
#
#
#
# Elastic Constant Matrix: (Units=GPa)
#
#
# Indices 1 2 3 4 5 6 
#
# 1 146.3725 30.6250 55.7995 0.0000 11.0652 0.0000
# 2 30.6250 47.5974 29.7898 0.0000 3.6658 0.0000
# 3 55.7995 29.7898 130.8387 0.0000 23.4295 0.0000
# 4 0.0000 0.0000 0.0000 23.8139 0.0000 3.0372
# 5 11.0652 3.6658 23.4295 0.0000 13.3014 0.0000
# 6 0.0000 0.0000 0.0000 3.0372 0.0000 33.0308
#
#
#
# Elastic Compliance Matrix: (Units=1/GPa)
#
#
# Indices 1 2 3 4 5 6 
#
# 1 0.008745 -0.003911 -0.002526 0.000000 -0.001747 0.000000
# 2 -0.003911 0.026435 -0.005301 0.000000 0.005305 0.000000
# 3 -0.002526 -0.005301 0.013569 0.000000 -0.020339 0.000000
# 4 0.000000 0.000000 0.000000 0.042491 0.000000 -0.003907
# 5 -0.001747 0.005305 -0.020339 0.000000 0.110998 0.000000
# 6 0.000000 0.000000 0.000000 -0.003907 0.000000 0.030634
#
#
# Mechanical properties :
#
#
# Convention : Reuss Voigt Hill
#
# Bulk Modulus (GPa) = 39.56737 61.91526 50.74132
# Shear Modulus (GPa) = 18.88407 27.93550 23.40979
#
# Velocity S-wave (km/s) = 3.10580 3.77749 3.45799
# Velocity P-wave (km/s) = 5.75085 7.11704 6.47011
#
# Compressibility (1/GPa) = 0.02527335
#
# Stress axis : x y z
#
# Youngs Moduli (GPa) = 114.34639 37.82847 73.69482
#
# Poissons Ratio (x) = 0.14796 0.18617
# Poissons Ratio (y) = 0.44723 0.39064
# Poissons Ratio (z) = 0.28887 0.20052
#
# Static dielectric constant tensor:
#      x y z
#    x 3.695660 0.000000 0.038420 
#    y 0.000000 3.313860 0.000000 
#    z 0.038420 0.000000 3.750840 
# 
# 
# High freq. dielectric constant tensor:
#      x y z
#    x 1.780590 0.000000 -0.000560 
#    y 0.000000 1.736880 0.000000 
#    z -0.000560 0.000000 1.763580 
# 
# From -- ./inp_files/249696.got.cif
#   From: 2010.06.25/outbox.cif.g09.slc.cpg/sg12_125_cif.got.tgz:249696.got - 2010.06.28 00:19:55.
