data_PCOD8101150
_publ_section_title
;
Structure prediction by ZEFSAII (Michael W. Deem and Ramdas Pophale) SiO2 
 PCOD8101150
Probable space group: C 2/M
;
_chemical_formula_sum "Si O2"
_cell_formula_units_Z 56
_cell_length_a 17.861595
_cell_length_b 8.882499
_cell_length_c 28.677656
_cell_angle_alpha 90.000000
_cell_angle_beta 140.734406
_cell_angle_gamma 90.000000
_cell_volume 2879.686285
_symmetry_space_group_name_H-M "C 2/M"
_symmetry_group_IT_number 12
_symmetry_cell_setting 'monoclinic'
loop_
_space_group_symop_operation_xyz
x,y,z
-x,y,-z
-x,-y,-z
x,-y,z
1/2+x,1/2+y,z
1/2-x,1/2+y,-z
1/2-x,1/2-y,-z
1/2+x,1/2-y,z
loop_
_atom_site_type_symbol
_atom_site_label
_atom_site_fract_x
_atom_site_fract_y
_atom_site_fract_z
Si Si1 0.176824 0.324623 0.005550
Si Si2 0.205349 0.822830 0.431217
Si Si3 0.636672 0.327996 0.567345
Si Si4 0.712223 0.674295 0.709190
Si Si5 0.651289 0.177014 0.850836
Si Si6 0.454469 0.177071 0.298437
Si Si7 0.525846 0.824590 0.155691
O O1 0.204345 0.500000 0.020614
O O2 0.220332 0.250712 0.075079
O O3 0.250000 0.250000 0.000000
O O4 0.038815 0.295583 0.925562
O O5 0.250000 0.750000 0.500000
O O6 0.296245 0.784755 0.434208
O O7 0.078168 0.760885 0.355913
O O8 0.197660 0.000000 0.434605
O O9 0.500000 0.283398 0.500000
O O10 0.654863 0.500000 0.559148
O O11 0.687628 0.305700 0.643131
O O12 0.700732 0.500000 0.718966
O O13 0.617756 0.772439 0.691351
O O14 0.842444 0.743847 0.782413
O O15 0.618561 0.222829 0.782771
O O16 0.551365 0.241284 0.838374
O O17 0.664874 0.000000 0.863699
O O18 0.478670 0.000000 0.312172
O O19 0.540988 0.000000 0.173320
#
# Coordination Sequence:
#
# PCOD8101150 Si02
#       7
#     8   8   8   8   8   8   8
#     4   9  16  28  49  77 107 140 182 231 281 336
#     4  12  25  41  63  89 117 149 187 229 274 328
#     4  10  21  38  61  88 117 150 186 226 277 332
#     4  10  20  36  57  80 112 152 190 230 280 338
#     4   9  18  34  55  78 106 143 185 230 282 335
#     4  11  23  39  58  82 115 150 187 233 282 333
#     4   8  15  30  52  76 103 141 186 227 275 334
#
# _framework density 19.446563000000001
#
# number of rings (size 3 to 8) (size 9 to 14) (size 15 to 20)
#    0.000    2.143    0.000    4.714    0.000    5.429 
#    0.000    4.286    0.000    4.286    0.000    0.000 
#    0.000    0.000    0.000    0.000    0.000    0.000 
#
# Total GULP energy -347153.739640 kJ/mol
# GULP energy per Si atom -12398.347844 kJ/mol
# Density = 1.940230 g / cm^3
# Si number density = 19.446563 Si / 1000 Ang^3
#
#
#
# Elastic Constant Matrix: (Units=GPa)
#
#
# Indices 1 2 3 4 5 6 
#
# 1 84.8478 37.0357 45.4727 0.0000 4.2468 0.0000
# 2 37.0357 88.1564 60.5990 0.0000 -2.8914 -0.0001
# 3 45.4727 60.5990 148.5939 0.0000 9.7610 0.0000
# 4 0.0000 0.0000 0.0000 31.5516 0.0000 -0.2657
# 5 4.2468 -2.8914 9.7610 0.0000 30.4804 0.0000
# 6 0.0000 -0.0001 0.0000 -0.2657 0.0000 27.9648
#
#
#
# Elastic Compliance Matrix: (Units=1/GPa)
#
#
# Indices 1 2 3 4 5 6 
#
# 1 0.015343 -0.004658 -0.002683 0.000000 -0.001721 0.000000
# 2 -0.004658 0.017580 -0.006023 0.000000 0.004245 0.000000
# 3 -0.002683 -0.006023 0.010235 0.000000 -0.003475 0.000000
# 4 0.000000 0.000000 0.000000 0.031697 0.000000 0.000301
# 5 -0.001721 0.004245 -0.003475 0.000000 0.034563 0.000000
# 6 0.000000 0.000000 0.000000 0.000301 0.000000 0.035762
#
#
# Mechanical properties :
#
#
# Convention : Reuss Voigt Hill
#
# Bulk Modulus (GPa) = 60.86101 67.53476 64.19789
# Shear Modulus (GPa) = 28.18755 29.89875 29.04315
#
# Velocity S-wave (km/s) = 3.81134 3.92533 3.86876
# Velocity P-wave (km/s) = 7.12271 7.43963 7.28289
#
# Compressibility (1/GPa) = 0.01643088
#
# Stress axis : x y z
#
# Youngs Moduli (GPa) = 65.17696 56.88390 97.70337
#
# Poissons Ratio (x) = 0.26498 0.26209
# Poissons Ratio (y) = 0.30361 0.58843
# Poissons Ratio (z) = 0.17484 0.34259
#
# Static dielectric constant tensor:
#      x y z
#    x 3.390300 0.000000 0.278430 
#    y 0.000000 3.478580 0.000000 
#    z 0.278430 0.000000 10.011880 
# 
# 
# High freq. dielectric constant tensor:
#      x y z
#    x 1.737030 0.000000 0.002960 
#    y 0.000000 1.742400 0.000000 
#    z 0.002960 0.000000 1.783790 
# 
# From -- ./inp_files/363214.got.cif
#   From: 2010.06.25/outbox.cif.g09.slc.cpg/sg12_182_cif.got.tgz:363214.got - 2010.06.28 00:19:55.
