data_PCOD8101222
_publ_section_title
;
Structure prediction by ZEFSAII (Michael W. Deem and Ramdas Pophale) SiO2 
 PCOD8101222
Probable space group: C 2/M
;
_chemical_formula_sum "Si O2"
_cell_formula_units_Z 40
_cell_length_a 19.924524
_cell_length_b 8.973950
_cell_length_c 11.380543
_cell_angle_alpha 90.000000
_cell_angle_beta 89.249283
_cell_angle_gamma 90.000000
_cell_volume 2034.685567
_symmetry_space_group_name_H-M "C 2/M"
_symmetry_group_IT_number 12
_symmetry_cell_setting 'monoclinic'
loop_
_space_group_symop_operation_xyz
x,y,z
-x,y,-z
-x,-y,-z
x,-y,z
1/2+x,1/2+y,z
1/2-x,1/2+y,-z
1/2-x,1/2-y,-z
1/2+x,1/2-y,z
loop_
_atom_site_type_symbol
_atom_site_label
_atom_site_fract_x
_atom_site_fract_y
_atom_site_fract_z
Si Si1 0.612741 0.676418 0.235099
Si Si2 0.676793 0.322631 0.992672
Si Si3 0.768236 0.167955 0.616478
Si Si4 0.019265 0.824326 0.631962
Si Si5 0.135262 0.669748 0.763642
O O1 0.619015 0.500000 0.241287
O O2 0.666480 0.743760 0.326084
O O3 0.538832 0.727596 0.276122
O O4 0.631135 0.729397 0.103789
O O5 0.685699 0.500000 0.987070
O O6 0.634639 0.266185 0.882155
O O7 0.750000 0.250000 0.000000
O O8 0.750000 0.250000 0.500000
O O9 0.709950 0.176043 0.713023
O O10 0.784193 0.000000 0.579071
O O11 0.000000 0.777853 0.500000
O O12 0.086114 0.738941 0.667684
O O13 0.032546 0.000000 0.639101
O O14 0.113951 0.500000 0.791308
#
# Coordination Sequence:
#
# PCOD8101222 Si02
#       5
#     8   8   8   8   8
#     4   9  19  37  59  83 115 153 193 242 291 341
#     4  11  21  38  62  87 119 155 198 246 296 349
#     4  10  20  36  57  83 113 149 194 243 291 344
#     4  10  21  39  63  87 116 156 201 241 288 356
#     4  11  23  39  59  86 122 156 193 244 299 349
#
# _framework density 19.659058000000002
#
# number of rings (size 3 to 8) (size 9 to 14) (size 15 to 20)
#    0.000    1.800    2.000    2.400    0.000    4.400 
#    0.000    7.000    0.000    0.000    0.000    0.000 
#    0.000    0.000    0.000    0.000    0.000    0.000 
#
# Total GULP energy -248016.460072 kJ/mol
# GULP energy per Si atom -12400.823004 kJ/mol
# Density = 1.961431 g / cm^3
# Si number density = 19.659058 Si / 1000 Ang^3
#
#
#
# Elastic Constant Matrix: (Units=GPa)
#
#
# Indices 1 2 3 4 5 6 
#
# 1 59.3792 19.4533 2.3939 0.0000 7.7831 0.0000
# 2 19.4533 70.0890 34.7748 0.0000 6.1213 0.0000
# 3 2.3939 34.7748 107.2912 0.0000 6.9808 0.0000
# 4 0.0000 0.0000 0.0000 32.2958 0.0000 5.7473
# 5 7.7831 6.1213 6.9808 0.0000 40.7934 0.0000
# 6 0.0000 0.0000 0.0000 5.7473 0.0000 29.3360
#
#
#
# Elastic Compliance Matrix: (Units=1/GPa)
#
#
# Indices 1 2 3 4 5 6 
#
# 1 0.019094 -0.005863 0.001673 0.000000 -0.003049 0.000000
# 2 -0.005863 0.018909 -0.005952 0.000000 -0.000700 0.000000
# 3 0.001673 -0.005952 0.011301 0.000000 -0.001360 0.000000
# 4 0.000000 0.000000 0.000000 0.032082 0.000000 -0.006285
# 5 -0.003049 -0.000700 -0.001360 0.000000 0.025433 0.000000
# 6 0.000000 0.000000 0.000000 -0.006285 0.000000 0.035319
#
#
# Mechanical properties :
#
#
# Convention : Reuss Voigt Hill
#
# Bulk Modulus (GPa) = 34.46080 38.88927 36.67503
# Shear Modulus (GPa) = 29.05326 32.49420 30.77373
#
# Velocity S-wave (km/s) = 3.84846 4.06998 3.96077
# Velocity P-wave (km/s) = 6.10858 6.47388 6.29388
#
# Compressibility (1/GPa) = 0.02901848
#
# Stress axis : x y z
#
# Youngs Moduli (GPa) = 52.37241 52.88385 88.48885
#
# Poissons Ratio (x) = 0.31007 -0.14802
# Poissons Ratio (y) = 0.30707 0.52673
# Poissons Ratio (z) = -0.08760 0.31479
#
# Static dielectric constant tensor:
#      x y z
#    x 3.772210 0.000000 -0.134850 
#    y 0.000000 3.430540 0.000000 
#    z -0.134850 0.000000 3.779560 
# 
# 
# High freq. dielectric constant tensor:
#      x y z
#    x 1.770940 0.000000 0.002050 
#    y 0.000000 1.744540 0.000000 
#    z 0.002050 0.000000 1.781540 
# 
# From -- ./inp_files/151627.got.cif
#   From: 2010.06.25/outbox.cif.g09.slc.cpg/sg12_76_cif.got.tgz:151627.got - 2010.06.28 00:19:55.
