data_PCOD8101715
_publ_section_title
;
Structure prediction by ZEFSAII (Michael W. Deem and Ramdas Pophale) SiO2 
 PCOD8101715
Probable space group: C 2/M
;
_chemical_formula_sum "Si O2"
_cell_formula_units_Z 48
_cell_length_a 14.100614
_cell_length_b 9.048743
_cell_length_c 28.107642
_cell_angle_alpha 90.000000
_cell_angle_beta 37.856576
_cell_angle_gamma 90.000000
_cell_volume 2200.886279
_symmetry_space_group_name_H-M "C 2/M"
_symmetry_group_IT_number 12
_symmetry_cell_setting 'monoclinic'
loop_
_space_group_symop_operation_xyz
x,y,z
-x,y,-z
-x,-y,-z
x,-y,z
1/2+x,1/2+y,z
1/2-x,1/2+y,-z
1/2-x,1/2-y,-z
1/2+x,1/2-y,z
loop_
_atom_site_type_symbol
_atom_site_label
_atom_site_fract_x
_atom_site_fract_y
_atom_site_fract_z
Si Si1 0.026847 0.671643 0.713101
Si Si2 0.703727 0.327710 0.322222
Si Si3 0.594973 0.826283 0.578090
Si Si4 0.311320 0.332743 0.864646
Si Si5 0.636773 0.673945 0.008010
Si Si6 0.594273 0.664852 0.825604
O O1 0.990357 0.500000 0.733618
O O2 0.177188 0.716319 0.683772
O O3 0.064293 0.716337 0.644749
O O4 0.873728 0.757072 0.791604
O O5 0.666589 0.500000 0.335341
O O6 0.546867 0.239773 0.396062
O O7 0.773912 0.278141 0.243334
O O8 0.750000 0.750000 0.500000
O O9 0.608291 0.000000 0.564443
O O10 0.261114 0.500000 0.873294
O O11 0.163082 0.245092 0.945330
O O12 0.447037 0.325943 0.849573
O O13 0.672831 0.500000 0.991056
O O14 0.750000 0.750000 0.000000
O O15 0.462888 0.701237 0.097708
O O16 0.666461 0.500000 0.794942
#
# Coordination Sequence:
#
# PCOD8101715 Si02
#       6
#     8   8   8   8   8   8
#     4   9  20  38  59  82 112 150 186 223 273 333
#     4  10  20  36  59  85 112 145 185 228 274 326
#     4  11  24  42  62  85 113 144 180 224 277 336
#     4   9  16  26  45  74 107 143 185 230 274 322
#     4   9  15  23  39  67 105 145 187 231 273 320
#     4   8  15  27  44  71 106 145 185 224 268 320
#
# _framework density 21.809394000000001
#
# number of rings (size 3 to 8) (size 9 to 14) (size 15 to 20)
#    0.000    2.667    0.000    3.000    0.000    7.333 
#    0.000    3.333    0.000    1.000    0.000    7.000 
#    0.000    0.000    0.000    0.000    0.000    0.000 
#
# Total GULP energy -297556.679609 kJ/mol
# GULP energy per Si atom -12398.194984 kJ/mol
# Density = 2.175976 g / cm^3
# Si number density = 21.809394 Si / 1000 Ang^3
#
#
#
# Elastic Constant Matrix: (Units=GPa)
#
#
# Indices 1 2 3 4 5 6 
#
# 1 24.8588 5.3698 13.9440 -0.0001 2.7591 -0.0005
# 2 5.3698 99.4502 43.4138 -0.0001 2.1849 -0.0008
# 3 13.9440 43.4138 95.3630 0.0001 -3.1426 0.0000
# 4 -0.0001 -0.0001 0.0001 47.8952 0.0000 0.3126
# 5 2.7591 2.1849 -3.1426 0.0000 30.9633 0.0000
# 6 -0.0005 -0.0008 0.0000 0.3126 0.0000 14.9649
#
#
#
# Elastic Compliance Matrix: (Units=1/GPa)
#
#
# Indices 1 2 3 4 5 6 
#
# 1 0.044522 0.000761 -0.007012 0.000000 -0.004733 0.000001
# 2 0.000761 0.012629 -0.005912 0.000000 -0.001559 0.000001
# 3 -0.007012 -0.005912 0.014285 0.000000 0.002492 -0.000001
# 4 0.000000 0.000000 0.000000 0.020882 0.000000 -0.000436
# 5 -0.004733 -0.001559 0.002492 0.000000 0.033081 0.000000
# 6 0.000001 0.000001 -0.000001 -0.000436 0.000000 0.066832
#
#
# Mechanical properties :
#
#
# Convention : Reuss Voigt Hill
#
# Bulk Modulus (GPa) = 21.22721 38.34746 29.78734
# Shear Modulus (GPa) = 21.52752 29.22763 25.37757
#
# Velocity S-wave (km/s) = 3.14518 3.66476 3.41487
# Velocity P-wave (km/s) = 4.78997 5.96058 5.40704
#
# Compressibility (1/GPa) = 0.04710934
#
# Stress axis : x y z
#
# Youngs Moduli (GPa) = 22.46103 79.18085 70.00238
#
# Poissons Ratio (x) = -0.06028 0.49089
# Poissons Ratio (y) = -0.01710 0.41387
# Poissons Ratio (z) = 0.15751 0.46813
#
# Static dielectric constant tensor:
#      x y z
#    x 3.732020 0.000000 0.015420 
#    y 0.000000 3.923280 0.000000 
#    z 0.015420 0.000000 4.392170 
# 
# 
# High freq. dielectric constant tensor:
#      x y z
#    x 1.841800 0.000000 -0.000830 
#    y 0.000000 1.856800 0.000000 
#    z -0.000830 0.000000 1.863650 
# 
# From -- ./inp_files/374906.got.cif
#   From: 2010.06.25/outbox.cif.g09.slc.cpg/sg12_188_cif.got.tgz:374906.got - 2010.06.28 00:19:55.
