data_PCOD8101483
_publ_section_title
;
Structure prediction by ZEFSAII (Michael W. Deem and Ramdas Pophale) SiO2 
 PCOD8101483
Probable space group: C 2/M
;
_chemical_formula_sum "Si O2"
_cell_formula_units_Z 52
_cell_length_a 20.957515
_cell_length_b 24.198792
_cell_length_c 4.895151
_cell_angle_alpha 90.000000
_cell_angle_beta 87.269427
_cell_angle_gamma 90.000000
_cell_volume 2479.740218
_symmetry_space_group_name_H-M "C 2/M"
_symmetry_group_IT_number 12
_symmetry_cell_setting 'monoclinic'
loop_
_space_group_symop_operation_xyz
x,y,z
-x,y,-z
-x,-y,-z
x,-y,z
1/2+x,1/2+y,z
1/2-x,1/2+y,-z
1/2-x,1/2-y,-z
1/2+x,1/2-y,z
loop_
_atom_site_type_symbol
_atom_site_label
_atom_site_fract_x
_atom_site_fract_y
_atom_site_fract_z
Si Si1 0.666534 0.062905 0.151562
Si Si2 0.385153 0.390430 0.646960
Si Si3 0.924365 0.342282 0.993366
Si Si4 0.748338 0.563131 0.372925
Si Si5 0.574904 0.775198 0.515127
Si Si6 0.953895 0.000000 0.759365
Si Si7 0.429968 0.329744 0.141898
O O1 0.606185 0.100415 0.091275
O O2 0.693905 0.080093 0.439621
O O3 0.641233 0.000000 0.151889
O O4 0.725859 0.070820 0.936599
O O5 0.311861 0.396842 0.568813
O O6 0.408998 0.446536 0.780686
O O7 0.428493 0.378895 0.367437
O O8 0.387832 0.342904 0.881608
O O9 0.902293 0.291449 0.795186
O O10 0.902183 0.326143 0.300949
O O11 0.000000 0.350437 0.000000
O O12 0.727379 0.500000 0.436585
O O13 0.500000 0.767764 0.500000
O O14 0.599343 0.720248 0.667353
O O15 0.000000 0.000000 0.500000
O O16 0.000000 0.000000 0.000000
O O17 0.500000 0.318512 0.000000
#
# Coordination Sequence:
#
# PCOD8101483 Si02
#       7
#     8   8   8   8   8   4   8
#     4  10  21  37  63  89 117 152 193 240 280 350
#     4  12  23  38  58  81 117 156 198 249 288 350
#     4  10  20  36  61  92 120 149 182 232 301 349
#     4  10  21  40  59  81 113 160 210 232 278 347
#     4  10  20  36  58  83 117 154 192 231 282 361
#     4  12  24  36  52  82 118 148 181 244 315 344
#     4  12  23  37  59  86 116 151 200 246 296 344
#
# _framework density 20.969940000000001
#
# number of rings (size 3 to 8) (size 9 to 14) (size 15 to 20)
#    0.000    1.231    0.769    7.846    0.000    0.308 
#    0.000    0.000    0.000   24.000    0.000    0.000 
#    0.000    0.000    0.000    0.000    0.000    0.000 
#
# Total GULP energy -322201.598493 kJ/mol
# GULP energy per Si atom -12392.369173 kJ/mol
# Density = 2.092221 g / cm^3
# Si number density = 20.969940 Si / 1000 Ang^3
#
#
#
# Elastic Constant Matrix: (Units=GPa)
#
#
# Indices 1 2 3 4 5 6 
#
# 1 59.2268 41.4637 26.5240 0.0000 13.3220 0.0000
# 2 41.4637 79.8616 23.1750 0.0000 13.3688 0.0000
# 3 26.5240 23.1750 113.8787 0.0000 7.9814 0.0000
# 4 0.0000 0.0000 0.0000 38.9857 0.0000 10.0435
# 5 13.3220 13.3688 7.9814 0.0000 26.7528 0.0000
# 6 0.0000 0.0000 0.0000 10.0435 0.0000 18.5135
#
#
#
# Elastic Compliance Matrix: (Units=1/GPa)
#
#
# Indices 1 2 3 4 5 6 
#
# 1 0.029116 -0.012886 -0.003671 0.000000 -0.006964 0.000000
# 2 -0.012886 0.020013 -0.000838 0.000000 -0.003334 0.000000
# 3 -0.003671 -0.000838 0.009855 0.000000 -0.000694 0.000000
# 4 0.000000 0.000000 0.000000 0.029818 0.000000 -0.016176
# 5 -0.006964 -0.003334 -0.000694 0.000000 0.042720 0.000000
# 6 0.000000 0.000000 0.000000 -0.016176 0.000000 0.062790
#
#
# Mechanical properties :
#
#
# Convention : Reuss Voigt Hill
#
# Bulk Modulus (GPa) = 41.33051 48.36585 44.84818
# Shear Modulus (GPa) = 21.08221 27.63735 24.35978
#
# Velocity S-wave (km/s) = 3.17417 3.63430 3.41200
# Velocity P-wave (km/s) = 5.76073 6.38164 6.07912
#
# Compressibility (1/GPa) = 0.02419520
#
# Stress axis : x y z
#
# Youngs Moduli (GPa) = 34.34558 49.96721 101.46685
#
# Poissons Ratio (x) = 0.64386 0.37249
# Poissons Ratio (y) = 0.44257 0.08501
# Poissons Ratio (z) = 0.12609 0.04187
#
# Static dielectric constant tensor:
#      x y z
#    x 3.311340 0.000000 0.065030 
#    y 0.000000 3.853880 0.000000 
#    z 0.065030 0.000000 4.335960 
# 
# 
# High freq. dielectric constant tensor:
#      x y z
#    x 1.774570 0.000000 0.008190 
#    y 0.000000 1.816550 0.000000 
#    z 0.008190 0.000000 1.854840 
# 
# From -- ./inp_files/21263.got.cif
#   From: 2010.06.25/outbox.cif.g09.slc.cpg/sg12_11_cif.got.tgz:21263.got - 2010.06.28 00:19:55.
