data_PCOD8101942
_publ_section_title
;
Structure prediction by ZEFSAII (Michael W. Deem and Ramdas Pophale) SiO2 
 PCOD8101942
Probable space group: C 2/M
;
_chemical_formula_sum "Si O2"
_cell_formula_units_Z 48
_cell_length_a 29.379749
_cell_length_b 9.397780
_cell_length_c 9.350060
_cell_angle_alpha 90.000000
_cell_angle_beta 81.778475
_cell_angle_gamma 90.000000
_cell_volume 2555.060751
_symmetry_space_group_name_H-M "C 2/M"
_symmetry_group_IT_number 12
_symmetry_cell_setting 'monoclinic'
loop_
_space_group_symop_operation_xyz
x,y,z
-x,y,-z
-x,-y,-z
x,-y,z
1/2+x,1/2+y,z
1/2-x,1/2+y,-z
1/2-x,1/2-y,-z
1/2+x,1/2-y,z
loop_
_atom_site_type_symbol
_atom_site_label
_atom_site_fract_x
_atom_site_fract_y
_atom_site_fract_z
Si Si1 0.035861 0.839422 0.610386
Si Si2 0.712868 0.164105 0.604394
Si Si3 0.621834 0.836474 0.471344
Si Si4 0.019934 0.659863 0.147569
Si Si5 0.878103 0.665894 0.854601
Si Si6 0.790201 0.669330 0.063484
O O1 0.081748 0.765170 0.538428
O O2 0.000000 0.835785 0.500000
O O3 0.015243 0.757487 0.752904
O O4 0.047381 0.000000 0.651909
O O5 0.750000 0.250000 0.500000
O O6 0.663840 0.194277 0.556732
O O7 0.711271 0.212819 0.769750
O O8 0.726511 0.000000 0.586552
O O9 0.635667 0.798656 0.302426
O O10 0.605421 0.000000 0.489173
O O11 0.021059 0.500000 0.213606
O O12 0.071329 0.728311 0.129871
O O13 0.000000 0.653233 0.000000
O O14 0.880740 0.500000 0.882847
O O15 0.838491 0.726905 0.976369
O O16 0.784648 0.500000 0.043870
O O17 0.750000 0.750000 0.000000
#
# Coordination Sequence:
#
# PCOD8101942 Si02
#       6
#     8   8   8   8   8   8
#     4  11  23  38  56  83 120 157 190 234 286 340
#     4  10  22  38  61  89 117 147 187 239 288 340
#     4  10  20  36  60  85 111 150 197 241 281 334
#     4  10  21  36  60  87 112 149 194 239 280 333
#     4   9  18  34  56  83 112 144 186 235 281 326
#     4  10  21  38  59  85 116 148 185 231 284 340
#
# _framework density 18.786245999999998
#
# number of rings (size 3 to 8) (size 9 to 14) (size 15 to 20)
#    0.000    2.000    1.667    1.500    2.333    3.667 
#    0.000    1.667    0.000    0.000    0.000    0.000 
#    0.000    0.000    0.000    0.000    0.000    0.000 
#
# Total GULP energy -297607.869848 kJ/mol
# GULP energy per Si atom -12400.327910 kJ/mol
# Density = 1.874349 g / cm^3
# Si number density = 18.786246 Si / 1000 Ang^3
#
#
#
# Elastic Constant Matrix: (Units=GPa)
#
#
# Indices 1 2 3 4 5 6 
#
# 1 102.9791 57.3777 68.5818 0.0000 -10.8937 0.0000
# 2 57.3777 83.4735 53.6810 0.0000 -14.6372 0.0000
# 3 68.5818 53.6810 134.6889 0.0000 -8.3915 0.0000
# 4 0.0000 0.0000 0.0000 25.6660 0.0000 -1.1450
# 5 -10.8937 -14.6372 -8.3915 0.0000 44.1553 0.0000
# 6 0.0000 0.0000 0.0000 -1.1450 0.0000 34.3162
#
#
#
# Elastic Compliance Matrix: (Units=1/GPa)
#
#
# Indices 1 2 3 4 5 6 
#
# 1 0.018697 -0.008954 -0.005919 0.000000 0.000520 0.000000
# 2 -0.008954 0.021193 -0.003630 0.000000 0.004126 0.000000
# 3 -0.005919 -0.003630 0.011860 0.000000 -0.000410 0.000000
# 4 0.000000 0.000000 0.000000 0.039020 0.000000 0.001302
# 5 0.000520 0.004126 -0.000410 0.000000 0.024066 0.000000
# 6 0.000000 0.000000 0.000000 0.001302 0.000000 0.029184
#
#
# Mechanical properties :
#
#
# Convention : Reuss Voigt Hill
#
# Bulk Modulus (GPa) = 67.83039 75.60250 71.71644
# Shear Modulus (GPa) = 26.89048 30.26088 28.57568
#
# Velocity S-wave (km/s) = 3.78748 4.01783 3.90435
# Velocity P-wave (km/s) = 7.43717 7.86479 7.65396
#
# Compressibility (1/GPa) = 0.01474265
#
# Stress axis : x y z
#
# Youngs Moduli (GPa) = 53.48563 47.18614 84.31934
#
# Poissons Ratio (x) = 0.42251 0.49909
# Poissons Ratio (y) = 0.47891 0.30609
# Poissons Ratio (z) = 0.31658 0.17129
#
# Static dielectric constant tensor:
#      x y z
#    x 3.572960 0.000000 -0.061080 
#    y 0.000000 3.416210 0.000000 
#    z -0.061080 0.000000 3.784630 
# 
# 
# High freq. dielectric constant tensor:
#      x y z
#    x 1.742650 0.000000 -0.000140 
#    y 0.000000 1.706880 0.000000 
#    z -0.000140 0.000000 1.741300 
# 
# From -- ./inp_files/108620.got.cif
#   From: 2010.06.25/outbox.cif.g09.slc.cpg/sg12_55_cif.got.tgz:108620.got - 2010.06.28 00:19:55.
