data_PCOD8101020
_publ_section_title
;
Structure prediction by ZEFSAII (Michael W. Deem and Ramdas Pophale) SiO2 
 PCOD8101020
Probable space group: C 2/M
;
_chemical_formula_sum "Si O2"
_cell_formula_units_Z 48
_cell_length_a 23.500763
_cell_length_b 8.703716
_cell_length_c 17.254440
_cell_angle_alpha 90.000000
_cell_angle_beta 133.089465
_cell_angle_gamma 90.000000
_cell_volume 2577.398948
_symmetry_space_group_name_H-M "C 2/M"
_symmetry_group_IT_number 12
_symmetry_cell_setting 'monoclinic'
loop_
_space_group_symop_operation_xyz
x,y,z
-x,y,-z
-x,-y,-z
x,-y,z
1/2+x,1/2+y,z
1/2-x,1/2+y,-z
1/2-x,1/2-y,-z
1/2+x,1/2-y,z
loop_
_atom_site_type_symbol
_atom_site_label
_atom_site_fract_x
_atom_site_fract_y
_atom_site_fract_z
Si Si1 0.735472 0.178862 0.102548
Si Si2 0.537746 0.818909 0.306066
Si Si3 0.310728 0.679721 0.616806
Si Si4 0.125636 0.821801 0.878583
Si Si5 0.565197 0.182642 0.503743
Si Si6 0.735452 0.180124 0.708832
O O1 0.820350 0.217139 0.145462
O O2 0.731957 0.224734 0.188796
O O3 0.715979 0.000000 0.073963
O O4 0.670329 0.277718 0.998454
O O5 0.602548 0.743773 0.311830
O O6 0.452251 0.777475 0.197270
O O7 0.549731 0.752782 0.403651
O O8 0.549379 0.000000 0.314340
O O9 0.309397 0.500000 0.600894
O O10 0.250000 0.750000 0.500000
O O11 0.287234 0.719707 0.682604
O O12 0.103250 0.000000 0.860426
O O13 0.500000 0.251868 0.500000
O O14 0.648451 0.238999 0.611024
O O15 0.561241 0.000000 0.498347
O O16 0.736666 0.000000 0.729943
#
# Coordination Sequence:
#
# PCOD8101020 Si02
#       6
#     8   8   8   8   8   8
#     4  10  21  37  59  87 116 149 189 235 285 336
#     4  11  21  36  58  84 114 150 193 237 283 337
#     4  11  22  38  58  81 114 155 196 236 283 338
#     4  10  21  38  59  85 117 152 188 230 286 345
#     4   9  17  30  51  80 112 145 182 224 276 338
#     4  10  20  36  56  81 113 152 192 230 282 341
#
# _framework density 18.623427
#
# number of rings (size 3 to 8) (size 9 to 14) (size 15 to 20)
#    0.000    1.833    1.667    3.000    0.000    4.667 
#    0.000    0.833    0.000    8.500    0.000    0.000 
#    0.000    0.000    0.000    0.000    0.000    0.000 
#
# Total GULP energy -297696.473262 kJ/mol
# GULP energy per Si atom -12404.019719 kJ/mol
# Density = 1.858104 g / cm^3
# Si number density = 18.623427 Si / 1000 Ang^3
#
#
#
# Elastic Constant Matrix: (Units=GPa)
#
#
# Indices 1 2 3 4 5 6 
#
# 1 136.5371 41.9907 58.2684 0.0000 -5.7911 0.0000
# 2 41.9907 50.7909 22.1053 0.0000 -13.1510 0.0000
# 3 58.2684 22.1053 92.0024 0.0000 -12.6086 0.0000
# 4 0.0000 0.0000 0.0000 32.3512 0.0000 0.2904
# 5 -5.7911 -13.1510 -12.6086 0.0000 20.7802 0.0000
# 6 0.0000 0.0000 0.0000 0.2904 0.0000 28.6251
#
#
#
# Elastic Compliance Matrix: (Units=1/GPa)
#
#
# Indices 1 2 3 4 5 6 
#
# 1 0.012791 -0.009299 -0.006745 0.000000 -0.006413 0.000000
# 2 -0.009299 0.031697 0.000728 0.000000 0.017910 0.000000
# 3 -0.006745 0.000728 0.016112 0.000000 0.008357 0.000000
# 4 0.000000 0.000000 0.000000 0.030914 0.000000 -0.000314
# 5 -0.006413 0.017910 0.008357 0.000000 0.062741 0.000000
# 6 0.000000 0.000000 0.000000 -0.000314 0.000000 0.034937
#
#
# Mechanical properties :
#
#
# Convention : Reuss Voigt Hill
#
# Bulk Modulus (GPa) = 33.37048 58.22882 45.79965
# Shear Modulus (GPa) = 21.75684 26.81570 24.28627
#
# Velocity S-wave (km/s) = 3.42168 3.79871 3.61511
# Velocity P-wave (km/s) = 5.79379 7.11158 6.48623
#
# Compressibility (1/GPa) = 0.02996661
#
# Stress axis : x y z
#
# Youngs Moduli (GPa) = 78.18289 31.54866 62.06697
#
# Poissons Ratio (x) = 0.29338 0.41866
# Poissons Ratio (y) = 0.72705 -0.04520
# Poissons Ratio (z) = 0.52737 -0.02298
#
# Static dielectric constant tensor:
#      x y z
#    x 3.585770 0.000000 -0.009270 
#    y 0.000000 3.304340 0.000000 
#    z -0.009270 0.000000 3.342230 
# 
# 
# High freq. dielectric constant tensor:
#      x y z
#    x 1.727100 0.000000 -0.000220 
#    y 0.000000 1.716330 0.000000 
#    z -0.000220 0.000000 1.722950 
# 
# From -- ./inp_files/281814.got.cif
#   From: 2010.06.25/outbox.cif.g09.slc.cpg/sg12_141_cif.got.tgz:281814.got - 2010.06.28 00:19:55.
