data_PCOD8101755
_publ_section_title
;
Structure prediction by ZEFSAII (Michael W. Deem and Ramdas Pophale) SiO2 
 PCOD8101755
Probable space group: C 2/M
;
_chemical_formula_sum "Si O2"
_cell_formula_units_Z 56
_cell_length_a 20.124406
_cell_length_b 9.225113
_cell_length_c 17.251413
_cell_angle_alpha 90.000000
_cell_angle_beta 123.182553
_cell_angle_gamma 90.000000
_cell_volume 2680.458563
_symmetry_space_group_name_H-M "C 2/M"
_symmetry_group_IT_number 12
_symmetry_cell_setting 'monoclinic'
loop_
_space_group_symop_operation_xyz
x,y,z
-x,y,-z
-x,-y,-z
x,-y,z
1/2+x,1/2+y,z
1/2-x,1/2+y,-z
1/2-x,1/2-y,-z
1/2+x,1/2-y,z
loop_
_atom_site_type_symbol
_atom_site_label
_atom_site_fract_x
_atom_site_fract_y
_atom_site_fract_z
Si Si1 0.421444 0.169174 0.401420
Si Si2 0.645239 0.836915 0.374362
Si Si3 0.071748 0.330411 0.166651
Si Si4 0.125330 0.831919 0.772750
Si Si5 0.168894 0.836636 0.535213
Si Si6 0.308583 0.168615 0.892788
Si Si7 0.086450 0.170259 0.923728
O O1 0.500000 0.203792 0.500000
O O2 0.427645 0.236362 0.319539
O O3 0.348835 0.245824 0.399144
O O4 0.404135 0.000000 0.383764
O O5 0.598267 0.781907 0.269290
O O6 0.737682 0.833215 0.415133
O O7 0.624481 0.733141 0.432761
O O8 0.619403 0.000000 0.380651
O O9 0.051544 0.500000 0.150339
O O10 0.142095 0.291613 0.152566
O O11 0.993581 0.241720 0.093769
O O12 0.217392 0.790634 0.820120
O O13 0.096485 0.792151 0.840057
O O14 0.111259 0.000000 0.745042
O O15 0.137276 0.000000 0.524540
O O16 0.317394 0.000000 0.920292
O O17 0.338788 0.263289 0.983864
O O18 0.083618 0.000000 0.937152
#
# Coordination Sequence:
#
# PCOD8101755 Si02
#       7
#     8   8   8   8   8   8   8
#     4  11  25  41  59  86 120 157 200 247 296 356
#     4   9  19  36  58  85 117 155 198 244 294 354
#     4  10  21  37  60  86 118 159 201 243 294 357
#     4  10  23  43  65  89 119 157 204 251 300 362
#     4  10  20  36  59  85 116 154 198 247 298 351
#     4  10  21  41  66  89 117 159 206 246 294 359
#     4  11  24  39  59  92 127 156 195 250 306 356
#
# _framework density 20.891947999999999
#
# number of rings (size 3 to 8) (size 9 to 14) (size 15 to 20)
#    0.000    1.857    0.000    3.000    2.000    8.571 
#    0.000    1.429    0.000    0.000    0.000    0.000 
#    0.000    0.000    0.000    0.000    0.000    0.000 
#
# Total GULP energy -347356.744271 kJ/mol
# GULP energy per Si atom -12405.598010 kJ/mol
# Density = 2.084440 g / cm^3
# Si number density = 20.891948 Si / 1000 Ang^3
#
#
#
# Elastic Constant Matrix: (Units=GPa)
#
#
# Indices 1 2 3 4 5 6 
#
# 1 68.2525 32.8213 11.4005 0.0000 -2.6188 0.0000
# 2 32.8213 98.7637 59.2801 0.0000 -4.6728 0.0000
# 3 11.4005 59.2801 108.7508 0.0000 -4.2265 0.0000
# 4 0.0000 0.0000 0.0000 37.6436 0.0000 -6.6347
# 5 -2.6188 -4.6728 -4.2265 0.0000 25.6688 0.0000
# 6 0.0000 0.0000 0.0000 -6.6347 0.0000 26.1390
#
#
#
# Elastic Compliance Matrix: (Units=1/GPa)
#
#
# Indices 1 2 3 4 5 6 
#
# 1 0.017748 -0.007076 0.002030 0.000000 0.000857 0.000000
# 2 -0.007076 0.017920 -0.008985 0.000000 0.001061 0.000000
# 3 0.002030 -0.008985 0.013914 0.000000 0.000862 0.000000
# 4 0.000000 0.000000 0.000000 0.027809 0.000000 0.007059
# 5 0.000857 0.001061 0.000862 0.000000 0.039380 0.000000
# 6 0.000000 0.000000 0.000000 0.007059 0.000000 0.040049
#
#
# Mechanical properties :
#
#
# Convention : Reuss Voigt Hill
#
# Bulk Modulus (GPa) = 46.46981 53.64122 50.05552
# Shear Modulus (GPa) = 26.03418 29.37460 27.70439
#
# Velocity S-wave (km/s) = 3.53389 3.75377 3.64549
# Velocity P-wave (km/s) = 6.24039 6.67225 6.45993
#
# Compressibility (1/GPa) = 0.02151935
#
# Stress axis : x y z
#
# Youngs Moduli (GPa) = 56.34468 55.80395 71.87073
#
# Poissons Ratio (x) = 0.39486 -0.14588
# Poissons Ratio (y) = 0.39868 0.64577
# Poissons Ratio (z) = -0.11437 0.50141
#
# Static dielectric constant tensor:
#      x y z
#    x 3.730540 0.000000 -0.087380 
#    y 0.000000 3.777330 0.000000 
#    z -0.087380 0.000000 3.871230 
# 
# 
# High freq. dielectric constant tensor:
#      x y z
#    x 1.821750 0.000000 -0.005430 
#    y 0.000000 1.813730 0.000000 
#    z -0.005430 0.000000 1.827040 
# 
# From -- ./inp_files/281739.got.cif
#   From: 2010.06.25/outbox.cif.g09.slc.cpg/sg12_141_cif.got.tgz:281739.got - 2010.06.28 00:19:55.
