data_PCOD8101386
_publ_section_title
;
Structure prediction by ZEFSAII (Michael W. Deem and Ramdas Pophale) SiO2 
 PCOD8101386
Probable space group: C 2/M
;
_chemical_formula_sum "Si O2"
_cell_formula_units_Z 56
_cell_length_a 18.074216
_cell_length_b 8.820162
_cell_length_c 20.110446
_cell_angle_alpha 90.000000
_cell_angle_beta 62.918567
_cell_angle_gamma 90.000000
_cell_volume 2854.457349
_symmetry_space_group_name_H-M "C 2/M"
_symmetry_group_IT_number 12
_symmetry_cell_setting 'monoclinic'
loop_
_space_group_symop_operation_xyz
x,y,z
-x,y,-z
-x,-y,-z
x,-y,z
1/2+x,1/2+y,z
1/2-x,1/2+y,-z
1/2-x,1/2-y,-z
1/2+x,1/2-y,z
loop_
_atom_site_type_symbol
_atom_site_label
_atom_site_fract_x
_atom_site_fract_y
_atom_site_fract_z
Si Si1 0.938562 0.820940 0.789001
Si Si2 0.924034 0.822115 0.483228
Si Si3 0.053513 0.679424 0.076623
Si Si4 0.586442 0.820561 0.652958
Si Si5 0.780891 0.819361 0.770752
Si Si6 0.380029 0.179449 0.089531
Si Si7 0.735056 0.680170 0.371900
O O1 0.913692 0.769368 0.872997
O O2 0.866289 0.764430 0.769038
O O3 0.024510 0.743230 0.733537
O O4 0.949053 0.000000 0.781543
O O5 0.940238 0.736509 0.408204
O O6 0.839497 0.760357 0.551164
O O7 0.000000 0.782743 0.500000
O O8 0.919485 0.000000 0.470009
O O9 0.057668 0.500000 0.087966
O O10 0.959575 0.733319 0.099309
O O11 0.111847 0.728656 0.990864
O O12 0.678616 0.760639 0.632838
O O13 0.583077 0.000000 0.656873
O O14 0.703405 0.751268 0.844227
O O15 0.776846 0.754730 0.697543
O O16 0.775908 0.000000 0.772623
O O17 0.377933 0.000000 0.093188
O O18 0.732516 0.500000 0.370027
#
# Coordination Sequence:
#
# PCOD8101386 Si02
#       7
#     8   8   8   8   8   8   8
#     4  11  22  34  51  76 106 140 174 212 261 312
#     4  10  20  36  58  82 109 139 169 205 254 312
#     4   9  17  32  55  79 102 132 173 218 259 305
#     4  11  22  36  56  79 104 136 175 219 258 297
#     4   9  17  31  51  75 103 136 175 213 252 306
#     4   8  15  30  54  79 101 133 176 215 254 305
#     4   9  18  33  55  80 103 133 174 214 253 300
#
# _framework density 19.618441000000001
#
# number of rings (size 3 to 8) (size 9 to 14) (size 15 to 20)
#    0.000    2.429    0.000    3.857    0.000    5.429 
#    0.000    2.143    0.000   11.143    0.000    0.000 
#    0.000    0.000    0.000    0.000    0.000    0.000 
#
# Total GULP energy -347226.490485 kJ/mol
# GULP energy per Si atom -12400.946089 kJ/mol
# Density = 1.957379 g / cm^3
# Si number density = 19.618441 Si / 1000 Ang^3
#
#
#
# Elastic Constant Matrix: (Units=GPa)
#
#
# Indices 1 2 3 4 5 6 
#
# 1 87.9070 26.8480 27.3509 0.0000 9.4956 0.0000
# 2 26.8480 31.4361 15.8034 -0.0002 6.8310 0.0000
# 3 27.3509 15.8034 102.3918 0.0000 10.2505 0.0000
# 4 0.0000 -0.0002 0.0000 27.1960 0.0000 4.7075
# 5 9.4956 6.8310 10.2505 0.0000 41.1585 0.0000
# 6 0.0000 0.0000 0.0000 4.7075 0.0000 21.7664
#
#
#
# Elastic Compliance Matrix: (Units=1/GPa)
#
#
# Indices 1 2 3 4 5 6 
#
# 1 0.015933 -0.012236 -0.002259 0.000000 -0.001082 0.000000
# 2 -0.012236 0.044720 -0.003254 0.000000 -0.003789 0.000000
# 3 -0.002259 -0.003254 0.011041 0.000000 -0.001688 0.000000
# 4 0.000000 0.000000 0.000000 0.038200 0.000000 -0.008262
# 5 -0.001082 -0.003789 -0.001688 0.000000 0.025595 0.000000
# 6 0.000000 0.000000 0.000000 -0.008262 0.000000 0.047729
#
#
# Mechanical properties :
#
#
# Convention : Reuss Voigt Hill
#
# Bulk Modulus (GPa) = 27.62844 40.19329 33.91086
# Shear Modulus (GPa) = 21.66536 28.13968 24.90252
#
# Velocity S-wave (km/s) = 3.32676 3.79139 3.56665
# Velocity P-wave (km/s) = 5.37307 6.30065 5.85526
#
# Compressibility (1/GPa) = 0.03619459
#
# Stress axis : x y z
#
# Youngs Moduli (GPa) = 62.76439 22.36115 90.57026
#
# Poissons Ratio (x) = 0.27362 0.20460
# Poissons Ratio (y) = 0.76801 0.29475
# Poissons Ratio (z) = 0.14178 0.07277
#
# Static dielectric constant tensor:
#      x y z
#    x 3.730920 0.000000 -0.117360 
#    y 0.000000 3.057070 0.000000 
#    z -0.117360 0.000000 3.855190 
# 
# 
# High freq. dielectric constant tensor:
#      x y z
#    x 1.771890 0.000000 0.001020 
#    y 0.000000 1.714840 0.000000 
#    z 0.001020 0.000000 1.782960 
# 
# From -- ./inp_files/313779.got.cif
#   From: 2010.06.25/outbox.cif.g09.slc.cpg/sg12_157_cif.got.tgz:313779.got - 2010.06.28 00:19:55.
