data_PCOD8101068
_publ_section_title
;
Structure prediction by ZEFSAII (Michael W. Deem and Ramdas Pophale) SiO2 
 PCOD8101068
Probable space group: C 2/M
;
_chemical_formula_sum "Si O2"
_cell_formula_units_Z 40
_cell_length_a 18.178119
_cell_length_b 29.277310
_cell_length_c 4.903634
_cell_angle_alpha 90.000000
_cell_angle_beta 122.522151
_cell_angle_gamma 90.000000
_cell_volume 2200.494777
_symmetry_space_group_name_H-M "C 2/M"
_symmetry_group_IT_number 12
_symmetry_cell_setting 'monoclinic'
loop_
_space_group_symop_operation_xyz
x,y,z
-x,y,-z
-x,-y,-z
x,-y,z
1/2+x,1/2+y,z
1/2-x,1/2+y,-z
1/2-x,1/2-y,-z
1/2+x,1/2-y,z
loop_
_atom_site_type_symbol
_atom_site_label
_atom_site_fract_x
_atom_site_fract_y
_atom_site_fract_z
Si Si1 0.557796 0.785460 0.376143
Si Si2 0.658669 0.696058 0.684196
Si Si3 0.764969 0.674575 0.430401
Si Si4 0.403257 0.551908 0.192739
Si Si5 0.346372 0.604411 0.565477
O O1 0.500000 0.808424 0.500000
O O2 0.593529 0.738202 0.569683
O O3 0.634907 0.820396 0.453703
O O4 0.500000 0.774902 0.000000
O O5 0.738977 0.707652 0.634474
O O6 0.608248 0.650866 0.466319
O O7 0.698466 0.686431 0.057132
O O8 0.746971 0.621788 0.494585
O O9 0.500000 0.556056 0.500000
O O10 0.378072 0.500000 0.071338
O O11 0.335705 0.569824 0.289335
O O12 0.402075 0.581008 0.913909
#
# Coordination Sequence:
#
# PCOD8101068 Si02
#       5
#     8   8   8   8   8
#     4  12  24  34  53  81 108 138 181 227 266 300
#     4  10  20  37  55  71 106 149 179 220 249 314
#     4  10  20  39  54  71 106 145 184 214 260 308
#     4  11  22  36  53  80 111 137 169 220 268 304
#     4  10  20  36  57  71 103 148 181 209 251 321
#
# _framework density 18.177727999999998
#
# number of rings (size 3 to 8) (size 9 to 14) (size 15 to 20)
#    1.200    0.200    2.000    4.800    0.000    4.000 
#    0.000    0.000    0.000    0.000    0.000    0.000 
#    0.000   16.000    0.000    0.000    0.000    0.000 
#
# Total GULP energy -247772.775764 kJ/mol
# GULP energy per Si atom -12388.638788 kJ/mol
# Density = 1.813636 g / cm^3
# Si number density = 18.177728 Si / 1000 Ang^3
#
#
#
# Elastic Constant Matrix: (Units=GPa)
#
#
# Indices 1 2 3 4 5 6 
#
# 1 96.6941 23.3727 25.2002 0.0000 -7.3580 0.0000
# 2 23.3727 76.8354 19.7771 0.0000 6.7149 0.0000
# 3 25.2002 19.7771 64.6607 0.0000 -9.4698 0.0000
# 4 0.0000 0.0000 0.0000 16.1423 0.0000 -8.0079
# 5 -7.3580 6.7149 -9.4698 0.0000 31.2163 0.0000
# 6 0.0000 0.0000 0.0000 -8.0079 0.0000 14.7603
#
#
#
# Elastic Compliance Matrix: (Units=1/GPa)
#
#
# Indices 1 2 3 4 5 6 
#
# 1 0.012161 -0.003027 -0.003452 0.000000 0.002470 0.000000
# 2 -0.003027 0.015527 -0.004357 0.000000 -0.005375 0.000000
# 3 -0.003452 -0.004357 0.019006 0.000000 0.005889 0.000000
# 4 0.000000 0.000000 0.000000 0.084762 0.000000 0.045986
# 5 0.002470 -0.005375 0.005889 0.000000 0.035560 0.000000
# 6 0.000000 0.000000 0.000000 0.045986 0.000000 0.092698
#
#
# Mechanical properties :
#
#
# Convention : Reuss Voigt Hill
#
# Bulk Modulus (GPa) = 39.96339 41.65447 40.80893
# Shear Modulus (GPa) = 17.25776 23.74644 20.50210
#
# Velocity S-wave (km/s) = 3.08456 3.61826 3.36202
# Velocity P-wave (km/s) = 5.89225 6.35772 6.12940
#
# Compressibility (1/GPa) = 0.02502290
#
# Stress axis : x y z
#
# Youngs Moduli (GPa) = 82.22912 64.40552 52.61587
#
# Poissons Ratio (x) = 0.19494 0.18163
# Poissons Ratio (y) = 0.24888 0.22922
# Poissons Ratio (z) = 0.28386 0.28059
#
# Static dielectric constant tensor:
#      x y z
#    x 3.556210 0.000000 -0.289060 
#    y 0.000000 3.338250 0.000000 
#    z -0.289060 0.000000 3.228450 
# 
# 
# High freq. dielectric constant tensor:
#      x y z
#    x 1.706380 0.000000 -0.040940 
#    y 0.000000 1.681390 0.000000 
#    z -0.040940 0.000000 1.694530 
# 
# From -- ./inp_files/18037.got.cif
#   From: 2010.06.25/outbox.cif.g09.slc.cpg/sg12_10_cif.got.tgz:18037.got - 2010.06.28 00:19:55.
