data_PCOD8101727
_publ_section_title
;
Structure prediction by ZEFSAII (Michael W. Deem and Ramdas Pophale) SiO2 
 PCOD8101727
Probable space group: C 2/M
;
_chemical_formula_sum "Si O2"
_cell_formula_units_Z 56
_cell_length_a 9.625807
_cell_length_b 16.575403
_cell_length_c 21.963171
_cell_angle_alpha 90.000000
_cell_angle_beta 124.146198
_cell_angle_gamma 90.000000
_cell_volume 2900.153457
_symmetry_space_group_name_H-M "C 2/M"
_symmetry_group_IT_number 12
_symmetry_cell_setting 'monoclinic'
loop_
_space_group_symop_operation_xyz
x,y,z
-x,y,-z
-x,-y,-z
x,-y,z
1/2+x,1/2+y,z
1/2-x,1/2+y,-z
1/2-x,1/2-y,-z
1/2+x,1/2-y,z
loop_
_atom_site_type_symbol
_atom_site_label
_atom_site_fract_x
_atom_site_fract_y
_atom_site_fract_z
Si Si1 0.923837 0.913071 0.287770
Si Si2 0.814485 0.755916 0.948726
Si Si3 0.264010 0.694024 0.411217
Si Si4 0.507578 0.315541 0.811772
Si Si5 0.917765 0.645319 0.747367
Si Si6 0.288688 0.594152 0.858256
Si Si7 0.901052 0.838151 0.564998
O O1 0.987716 0.848626 0.255205
O O2 0.728938 0.905533 0.257604
O O3 0.041011 0.910744 0.377069
O O4 0.946978 0.000000 0.263034
O O5 0.700332 0.696780 0.879998
O O6 0.819966 0.848165 0.924466
O O7 0.750000 0.750000 0.000000
O O8 0.000000 0.719638 0.000000
O O9 0.117485 0.657579 0.333293
O O10 0.218168 0.780710 0.425835
O O11 0.428966 0.709572 0.411172
O O12 0.305458 0.634387 0.479205
O O13 0.419813 0.228643 0.786000
O O14 0.404393 0.373247 0.831576
O O15 0.093049 0.598294 0.792771
O O16 0.334132 0.500000 0.883382
#
# Coordination Sequence:
#
# PCOD8101727 Si02
#       7
#     8   8   8   8   8   8   8
#     4  11  22  36  55  86 122 151 190 246 300 338
#     4  11  23  44  67  91 114 151 194 233 277 343
#     4   9  17  31  54  80 108 146 205 244 279 331
#     4  11  22  39  64  86 115 156 197 230 280 349
#     4  10  20  36  59  85 113 157 203 240 281 343
#     4  11  24  40  61  91 123 153 187 235 292 344
#     4   9  18  32  51  82 108 150 194 248 285 334
#
# _framework density 19.309322999999999
#
# number of rings (size 3 to 8) (size 9 to 14) (size 15 to 20)
#    0.000    1.714    2.857    2.571    4.000    0.286 
#    0.000    6.429    0.000    2.143    0.000    5.000 
#    0.000    0.000    0.000    0.000    0.000    0.000 
#
# Total GULP energy -346999.869674 kJ/mol
# GULP energy per Si atom -12392.852488 kJ/mol
# Density = 1.926537 g / cm^3
# Si number density = 19.309323 Si / 1000 Ang^3
#
#
#
# Elastic Constant Matrix: (Units=GPa)
#
#
# Indices 1 2 3 4 5 6 
#
# 1 82.0693 24.9146 32.6486 0.0000 -7.4149 0.0000
# 2 24.9146 79.5387 19.3041 0.0000 -4.3482 0.0000
# 3 32.6486 19.3041 107.2949 0.0000 0.2564 0.0000
# 4 0.0000 0.0000 0.0000 15.2935 0.0000 -3.4644
# 5 -7.4149 -4.3482 0.2564 0.0000 32.9805 0.0000
# 6 0.0000 0.0000 0.0000 -3.4644 0.0000 21.7351
#
#
#
# Elastic Compliance Matrix: (Units=1/GPa)
#
#
# Indices 1 2 3 4 5 6 
#
# 1 0.015124 -0.003615 -0.003959 0.000000 0.002954 0.000000
# 2 -0.003615 0.014113 -0.001442 0.000000 0.001059 0.000000
# 3 -0.003959 -0.001442 0.010787 0.000000 -0.001164 0.000000
# 4 0.000000 0.000000 0.000000 0.067837 0.000000 0.010813
# 5 0.002954 0.001059 -0.001164 0.000000 0.031134 0.000000
# 6 0.000000 0.000000 0.000000 0.010813 0.000000 0.047732
#
#
# Mechanical properties :
#
#
# Convention : Reuss Voigt Hill
#
# Bulk Modulus (GPa) = 45.46964 46.95972 46.21468
# Shear Modulus (GPa) = 23.57514 26.80420 25.18967
#
# Velocity S-wave (km/s) = 3.49796 3.72983 3.61575
# Velocity P-wave (km/s) = 6.31771 6.55144 6.43563
#
# Compressibility (1/GPa) = 0.02199269
#
# Stress axis : x y z
#
# Youngs Moduli (GPa) = 66.11966 70.85836 92.70545
#
# Poissons Ratio (x) = 0.25616 0.36700
# Poissons Ratio (y) = 0.23903 0.13364
# Poissons Ratio (z) = 0.26175 0.10215
#
# Static dielectric constant tensor:
#      x y z
#    x 3.542220 0.000000 0.077970 
#    y 0.000000 3.243610 0.000000 
#    z 0.077970 0.000000 3.943310 
# 
# 
# High freq. dielectric constant tensor:
#      x y z
#    x 1.759500 0.000000 0.000410 
#    y 0.000000 1.715700 0.000000 
#    z 0.000410 0.000000 1.769810 
# 
# From -- ./inp_files/300882.got.cif
#   From: 2010.06.25/outbox.cif.g09.slc.cpg/sg12_151_cif.got.tgz:300882.got - 2010.06.28 00:19:55.
