data_PCOD8101602
_publ_section_title
;
Structure prediction by ZEFSAII (Michael W. Deem and Ramdas Pophale) SiO2 
 PCOD8101602
Probable space group: C 2/M
;
_chemical_formula_sum "Si O2"
_cell_formula_units_Z 48
_cell_length_a 11.239224
_cell_length_b 17.097974
_cell_length_c 14.562460
_cell_angle_alpha 90.000000
_cell_angle_beta 53.726750
_cell_angle_gamma 90.000000
_cell_volume 2256.113746
_symmetry_space_group_name_H-M "C 2/M"
_symmetry_group_IT_number 12
_symmetry_cell_setting 'monoclinic'
loop_
_space_group_symop_operation_xyz
x,y,z
-x,y,-z
-x,-y,-z
x,-y,z
1/2+x,1/2+y,z
1/2-x,1/2+y,-z
1/2-x,1/2-y,-z
1/2+x,1/2-y,z
loop_
_atom_site_type_symbol
_atom_site_label
_atom_site_fract_x
_atom_site_fract_y
_atom_site_fract_z
Si Si1 0.799197 0.408884 0.961857
Si Si2 0.814044 0.911778 0.184772
Si Si3 0.547477 0.835865 0.383163
Si Si4 0.586392 0.341850 0.375057
Si Si5 0.065277 0.331231 0.756062
Si Si6 0.559529 0.344500 0.184243
O O1 0.793580 0.500000 0.991815
O O2 0.703552 0.390612 0.913804
O O3 0.970257 0.384566 0.869102
O O4 0.730200 0.354208 0.073967
O O5 0.718978 0.853262 0.290452
O O6 0.978265 0.900403 0.147764
O O7 0.760211 0.000000 0.225159
O O8 0.500000 0.877519 0.500000
O O9 0.519515 0.744327 0.404012
O O10 0.455125 0.866093 0.337630
O O11 0.500000 0.384838 0.500000
O O12 0.762720 0.339308 0.302342
O O13 0.545307 0.378809 0.294672
O O14 0.999461 0.243872 0.794306
#
# Coordination Sequence:
#
# PCOD8101602 Si02
#       6
#     8   8   8   8   8   8
#     4  10  22  41  62  86 118 154 195 244 294 341
#     4  10  20  36  58  88 120 150 193 244 290 341
#     4   9  19  33  58  86 115 154 193 240 293 338
#     4  10  22  37  59  88 118 154 195 243 289 341
#     4  10  21  38  59  89 121 151 195 245 285 344
#     4  11  21  36  61  89 119 154 195 237 290 352
#
# _framework density 21.275524000000001
#
# number of rings (size 3 to 8) (size 9 to 14) (size 15 to 20)
#    0.000    2.000    1.667    1.500    2.333    4.333 
#    3.000    2.500    0.000    2.500    0.000    0.000 
#    0.000    0.000    0.000    0.000    0.000    0.000 
#
# Total GULP energy -297409.437969 kJ/mol
# GULP energy per Si atom -12392.059915 kJ/mol
# Density = 2.122710 g / cm^3
# Si number density = 21.275524 Si / 1000 Ang^3
#
#
#
# Elastic Constant Matrix: (Units=GPa)
#
#
# Indices 1 2 3 4 5 6 
#
# 1 69.2184 12.4733 42.0627 0.0000 -10.4169 -0.0001
# 2 12.4733 45.3586 29.6218 0.0000 5.0932 0.0000
# 3 42.0627 29.6218 148.3285 0.0000 10.2691 0.0000
# 4 0.0000 0.0000 0.0000 10.9749 0.0000 -0.0469
# 5 -10.4169 5.0932 10.2691 0.0000 27.5620 0.0000
# 6 -0.0001 0.0000 0.0000 -0.0469 0.0000 19.5418
#
#
#
# Elastic Compliance Matrix: (Units=1/GPa)
#
#
# Indices 1 2 3 4 5 6 
#
# 1 0.020050 -0.002863 -0.005825 0.000000 0.010277 0.000000
# 2 -0.002863 0.025985 -0.004075 0.000000 -0.004366 0.000000
# 3 -0.005825 -0.004075 0.009554 0.000000 -0.005008 0.000000
# 4 0.000000 0.000000 0.000000 0.091118 0.000000 0.000219
# 5 0.010277 -0.004366 -0.005008 0.000000 0.042839 0.000000
# 6 0.000000 0.000000 0.000000 0.000219 0.000000 0.051173
#
#
# Mechanical properties :
#
#
# Convention : Reuss Voigt Hill
#
# Bulk Modulus (GPa) = 33.26479 47.91347 40.58913
# Shear Modulus (GPa) = 18.09841 23.53224 20.81532
#
# Velocity S-wave (km/s) = 2.91979 3.32937 3.13128
# Velocity P-wave (km/s) = 5.19962 6.11138 5.67384
#
# Compressibility (1/GPa) = 0.03006182
#
# Stress axis : x y z
#
# Youngs Moduli (GPa) = 49.87642 38.48301 104.66492
#
# Poissons Ratio (x) = 0.11019 0.60971
# Poissons Ratio (y) = 0.14281 0.42653
# Poissons Ratio (z) = 0.29055 0.15683
#
# Static dielectric constant tensor:
#      x y z
#    x 3.859170 0.000000 0.234120 
#    y 0.000000 3.478730 0.000000 
#    z 0.234120 0.000000 4.193970 
# 
# 
# High freq. dielectric constant tensor:
#      x y z
#    x 1.829470 0.000000 0.006770 
#    y 0.000000 1.797290 0.000000 
#    z 0.006770 0.000000 1.850660 
# 
# From -- ./inp_files/131085.got.cif
#   From: 2010.06.25/outbox.cif.g09.slc.cpg/sg12_66_cif.got.tgz:131085.got - 2010.06.28 00:19:55.
