data_PCOD8101827
_publ_section_title
;
Structure prediction by ZEFSAII (Michael W. Deem and Ramdas Pophale) SiO2 
 PCOD8101827
Probable space group: C 2/M
;
_chemical_formula_sum "Si O2"
_cell_formula_units_Z 60
_cell_length_a 7.791683
_cell_length_b 30.476211
_cell_length_c 13.206378
_cell_angle_alpha 90.000000
_cell_angle_beta 67.644627
_cell_angle_gamma 90.000000
_cell_volume 2900.305725
_symmetry_space_group_name_H-M "C 2/M"
_symmetry_group_IT_number 12
_symmetry_cell_setting 'monoclinic'
loop_
_space_group_symop_operation_xyz
x,y,z
-x,y,-z
-x,-y,-z
x,-y,z
1/2+x,1/2+y,z
1/2-x,1/2+y,-z
1/2-x,1/2-y,-z
1/2+x,1/2-y,z
loop_
_atom_site_type_symbol
_atom_site_label
_atom_site_fract_x
_atom_site_fract_y
_atom_site_fract_z
Si Si1 0.518896 0.952040 0.614574
Si Si2 0.483106 0.198966 0.241105
Si Si3 0.604585 0.450955 0.769077
Si Si4 0.051839 0.131339 0.650632
Si Si5 0.291106 0.865270 0.415074
Si Si6 0.615907 0.295903 0.198054
Si Si7 0.500000 0.409234 0.000000
Si Si8 0.808473 0.660117 0.982289
O O1 0.500000 0.944306 0.500000
O O2 0.324942 0.949162 0.714708
O O3 0.643853 0.913694 0.632506
O O4 0.610188 0.000000 0.614189
O O5 0.448709 0.171472 0.352777
O O6 0.531536 0.249417 0.247802
O O7 0.294529 0.194549 0.223479
O O8 0.649263 0.178123 0.138910
O O9 0.532475 0.500000 0.757635
O O10 0.522762 0.416534 0.706122
O O11 0.549850 0.440128 0.895484
O O12 0.246612 0.135888 0.545800
O O13 0.892885 0.142734 0.607002
O O14 0.042883 0.167895 0.741490
O O15 0.684698 0.302289 0.066813
O O16 0.679814 0.381997 0.995849
O O17 0.000000 0.648546 0.000000
#
# Coordination Sequence:
#
# PCOD8101827 Si02
#       8
#     8   8   8   8   8   8   4   8
#     4  10  20  36  59  87 117 150 196 249 296 355
#     4  10  22  36  57  87 120 154 201 254 299 357
#     4  11  23  40  61  91 121 152 202 253 300 371
#     4  10  21  39  60  84 119 160 200 248 300 362
#     4  10  21  38  60  85 118 159 199 247 306 355
#     4  10  21  38  56  84 122 156 202 252 299 360
#     4  12  23  40  70  88 122 172 196 244 327 364
#     4  10  22  39  62  92 122 158 210 255 298 367
#
# _framework density 20.687476
#
# number of rings (size 3 to 8) (size 9 to 14) (size 15 to 20)
#    0.000    1.733    2.667    1.400    1.867    2.133 
#    0.000    1.333    0.000    0.800    0.000    0.000 
#    0.000    0.000    0.000    0.000    0.000    0.000 
#
# Total GULP energy -371816.260604 kJ/mol
# GULP energy per Si atom -12393.875353 kJ/mol
# Density = 2.064039 g / cm^3
# Si number density = 20.687476 Si / 1000 Ang^3
#
#
#
# Elastic Constant Matrix: (Units=GPa)
#
#
# Indices 1 2 3 4 5 6 
#
# 1 31.6205 31.1618 25.3540 0.0000 -17.0253 0.0000
# 2 31.1618 154.8516 76.4156 0.0000 -29.6131 0.0000
# 3 25.3540 76.4156 158.4042 0.0000 -30.7217 0.0000
# 4 0.0000 0.0000 0.0000 36.3498 0.0000 -7.7866
# 5 -17.0253 -29.6131 -30.7217 0.0000 25.0307 0.0000
# 6 0.0000 0.0000 0.0000 -7.7866 0.0000 38.9641
#
#
#
# Elastic Compliance Matrix: (Units=1/GPa)
#
#
# Indices 1 2 3 4 5 6 
#
# 1 0.052573 -0.004709 -0.000379 0.000000 0.029724 0.000000
# 2 -0.004709 0.009810 -0.003083 0.000000 0.004620 0.000000
# 3 -0.000379 -0.003083 0.009323 0.000000 0.007538 0.000000
# 4 0.000000 0.000000 0.000000 0.028741 0.000000 0.005744
# 5 0.029724 0.004620 0.007538 0.000000 0.074885 0.000000
# 6 0.000000 0.000000 0.000000 0.005744 0.000000 0.026812
#
#
# Mechanical properties :
#
#
# Convention : Reuss Voigt Hill
#
# Bulk Modulus (GPa) = 18.06177 67.85988 42.96082
# Shear Modulus (GPa) = 21.10250 34.19858 27.65054
#
# Velocity S-wave (km/s) = 3.19731 4.07025 3.65990
# Velocity P-wave (km/s) = 4.73076 7.41369 6.21864
#
# Compressibility (1/GPa) = 0.05536556
#
# Stress axis : x y z
#
# Youngs Moduli (GPa) = 19.02126 101.93588 107.26588
#
# Poissons Ratio (x) = 0.47997 0.04060
# Poissons Ratio (y) = 0.08956 0.33069
# Poissons Ratio (z) = 0.00720 0.31426
#
# Static dielectric constant tensor:
#      x y z
#    x 3.574530 0.000000 -0.404960 
#    y 0.000000 3.470520 0.000000 
#    z -0.404960 0.000000 4.306020 
# 
# 
# High freq. dielectric constant tensor:
#      x y z
#    x 1.789480 0.000000 -0.022660 
#    y 0.000000 1.811090 0.000000 
#    z -0.022660 0.000000 1.823130 
# 
# From -- ./inp_files/125719.got.cif
#   From: 2010.06.25/outbox.cif.g09.slc.cpg/sg12_63_cif.got.tgz:125719.got - 2010.06.28 00:19:55.
