data_PCOD8101007
_publ_section_title
;
Structure prediction by ZEFSAII (Michael W. Deem and Ramdas Pophale) SiO2 
 PCOD8101007
Probable space group: C 2/M
;
_chemical_formula_sum "Si O2"
_cell_formula_units_Z 56
_cell_length_a 23.548817
_cell_length_b 9.092926
_cell_length_c 15.491354
_cell_angle_alpha 90.000000
_cell_angle_beta 57.343229
_cell_angle_gamma 90.000000
_cell_volume 2792.749615
_symmetry_space_group_name_H-M "C 2/M"
_symmetry_group_IT_number 12
_symmetry_cell_setting 'monoclinic'
loop_
_space_group_symop_operation_xyz
x,y,z
-x,y,-z
-x,-y,-z
x,-y,z
1/2+x,1/2+y,z
1/2-x,1/2+y,-z
1/2-x,1/2-y,-z
1/2+x,1/2-y,z
loop_
_atom_site_type_symbol
_atom_site_label
_atom_site_fract_x
_atom_site_fract_y
_atom_site_fract_z
Si Si1 0.700417 0.171923 0.607297
Si Si2 0.567507 0.825734 0.987594
Si Si3 0.207176 0.328934 0.799315
Si Si4 0.573332 0.667714 0.650828
Si Si5 0.832897 0.329453 0.755859
Si Si6 0.575942 0.333388 0.450619
Si Si7 0.439937 0.828599 0.809750
O O1 0.750000 0.250000 0.500000
O O2 0.725511 0.199248 0.684215
O O3 0.625293 0.237112 0.663959
O O4 0.698122 0.000000 0.587064
O O5 0.632881 0.766344 0.882770
O O6 0.564626 0.000000 0.982726
O O7 0.500000 0.757593 0.000000
O O8 0.572008 0.775515 0.083024
O O9 0.210393 0.500000 0.819228
O O10 0.260803 0.249705 0.817032
O O11 0.572928 0.500000 0.684592
O O12 0.597301 0.673592 0.532490
O O13 0.499108 0.734312 0.718968
O O14 0.820001 0.500000 0.752736
O O15 0.875504 0.273668 0.640075
O O16 0.871528 0.296511 0.813403
O O17 0.500000 0.276997 0.500000
O O18 0.583202 0.500000 0.408990
O O19 0.459981 0.000000 0.788482
#
# Coordination Sequence:
#
# PCOD8101007 Si02
#       7
#     8   8   8   8   8   8   8
#     4  11  23  39  59  85 116 151 192 238 287 341
#     4   9  18  37  64  87 108 144 195 241 283 340
#     4  10  22  40  62  84 112 155 198 234 280 345
#     4  11  22  36  58  86 115 151 193 238 287 340
#     4  11  23  36  55  86 122 153 187 238 295 342
#     4  10  20  36  56  80 114 155 196 232 272 337
#     4  10  21  37  58  86 116 147 190 240 288 338
#
# _framework density 20.051922000000001
#
# number of rings (size 3 to 8) (size 9 to 14) (size 15 to 20)
#    0.000    1.714    1.429    3.000    0.000    9.429 
#    0.000    0.714    0.000    1.714    0.000    0.000 
#    0.000    0.000    0.000    0.000    0.000    0.000 
#
# Total GULP energy -347315.631091 kJ/mol
# GULP energy per Si atom -12404.129682 kJ/mol
# Density = 2.000628 g / cm^3
# Si number density = 20.051922 Si / 1000 Ang^3
#
#
#
# Elastic Constant Matrix: (Units=GPa)
#
#
# Indices 1 2 3 4 5 6 
#
# 1 151.1575 63.2039 55.5032 0.0000 -10.1641 0.0000
# 2 63.2039 86.5759 43.4888 0.0000 0.5158 -0.0001
# 3 55.5032 43.4888 114.7972 0.0000 -3.6409 0.0000
# 4 0.0000 0.0000 0.0000 16.3620 0.0000 -2.8634
# 5 -10.1641 0.5158 -3.6409 0.0000 33.7513 0.0000
# 6 0.0000 -0.0001 0.0000 -2.8634 0.0000 36.5623
#
#
#
# Elastic Compliance Matrix: (Units=1/GPa)
#
#
# Indices 1 2 3 4 5 6 
#
# 1 0.010391 -0.006332 -0.002532 0.000000 0.002953 0.000000
# 2 -0.006332 0.018145 -0.003895 0.000000 -0.002604 0.000000
# 3 -0.002532 -0.003895 0.011427 0.000000 0.000530 0.000000
# 4 0.000000 0.000000 0.000000 0.061966 0.000000 0.004853
# 5 0.002953 -0.002604 0.000530 0.000000 0.030615 0.000000
# 6 0.000000 0.000000 0.000000 0.004853 0.000000 0.027731
#
#
# Mechanical properties :
#
#
# Convention : Reuss Voigt Hill
#
# Bulk Modulus (GPa) = 69.22118 75.21361 72.21740
# Shear Modulus (GPa) = 26.23167 30.02410 28.12789
#
# Velocity S-wave (km/s) = 3.62081 3.87372 3.74940
# Velocity P-wave (km/s) = 7.21639 7.58936 7.40523
#
# Compressibility (1/GPa) = 0.01444644
#
# Stress axis : x y z
#
# Youngs Moduli (GPa) = 96.23323 55.11065 87.50834
#
# Poissons Ratio (x) = 0.34896 0.22155
# Poissons Ratio (y) = 0.60935 0.34086
# Poissons Ratio (z) = 0.24364 0.21466
#
# Static dielectric constant tensor:
#      x y z
#    x 3.862880 0.000000 0.010980 
#    y 0.000000 3.508550 0.000000 
#    z 0.010980 0.000000 3.580900 
# 
# 
# High freq. dielectric constant tensor:
#      x y z
#    x 1.798910 0.000000 0.000010 
#    y 0.000000 1.766120 0.000000 
#    z 0.000010 0.000000 1.778230 
# 
# From -- ./inp_files/238421.got.cif
#   From: 2010.06.25/outbox.cif.g09.slc.cpg/sg12_120_cif.got.tgz:238421.got - 2010.06.28 00:19:55.
