data_PCOD8101924
_publ_section_title
;
Structure prediction by ZEFSAII (Michael W. Deem and Ramdas Pophale) SiO2 
 PCOD8101924
Probable space group: C 2/M
;
_chemical_formula_sum "Si O2"
_cell_formula_units_Z 56
_cell_length_a 9.080568
_cell_length_b 13.495394
_cell_length_c 31.147089
_cell_angle_alpha 90.000000
_cell_angle_beta 45.501259
_cell_angle_gamma 90.000000
_cell_volume 2722.497432
_symmetry_space_group_name_H-M "C 2/M"
_symmetry_group_IT_number 12
_symmetry_cell_setting 'monoclinic'
loop_
_space_group_symop_operation_xyz
x,y,z
-x,y,-z
-x,-y,-z
x,-y,z
1/2+x,1/2+y,z
1/2-x,1/2+y,-z
1/2-x,1/2-y,-z
1/2+x,1/2-y,z
loop_
_atom_site_type_symbol
_atom_site_label
_atom_site_fract_x
_atom_site_fract_y
_atom_site_fract_z
Si Si1 0.496820 0.110784 0.629282
Si Si2 0.614685 0.760488 0.174789
Si Si3 0.837676 0.295085 0.741636
Si Si4 0.440644 0.198822 0.905759
Si Si5 0.901225 0.883897 0.345364
Si Si6 0.286347 0.887598 0.020507
Si Si7 0.731640 0.775064 0.454769
O O1 0.429024 0.120473 0.692556
O O2 0.311373 0.145585 0.635710
O O3 0.705597 0.173691 0.581765
O O4 0.559573 0.000000 0.605683
O O5 0.408719 0.695865 0.211754
O O6 0.598381 0.821964 0.222550
O O7 0.627750 0.828835 0.129069
O O8 0.812766 0.687345 0.138043
O O9 0.917062 0.184630 0.711432
O O10 0.316794 0.127592 0.963134
O O11 0.387865 0.314564 0.925803
O O12 0.869940 0.860199 0.402907
O O13 0.956836 0.000000 0.327815
O O14 0.216457 0.000000 0.043654
O O15 0.500000 0.861166 0.000000
O O16 0.500000 0.810625 0.500000
O O17 0.750000 0.750000 0.500000
#
# Coordination Sequence:
#
# PCOD8101924 Si02
#       7
#     8   8   8   8   8   8   8
#     4  10  21  38  60  84 113 151 190 226 281 342
#     4  10  20  36  60  81 119 147 189 228 293 320
#     4  10  20  39  58  85 111 154 182 240 274 338
#     4  10  20  38  58  87 112 154 181 240 276 340
#     4  10  21  38  61  84 111 153 192 223 279 347
#     4  10  20  37  60  83 114 153 190 225 281 347
#     4  11  22  38  59  86 116 146 183 236 282 329
#
# _framework density 20.56935
#
# number of rings (size 3 to 8) (size 9 to 14) (size 15 to 20)
#    0.000    1.857    4.286    0.000    0.000    1.143 
#    0.000   12.143    0.000    0.000    0.000    0.000 
#    0.000    0.000    0.000    0.000    0.000    0.000 
#
# Total GULP energy -346931.684837 kJ/mol
# GULP energy per Si atom -12390.417316 kJ/mol
# Density = 2.052253 g / cm^3
# Si number density = 20.569350 Si / 1000 Ang^3
#
#
#
# Elastic Constant Matrix: (Units=GPa)
#
#
# Indices 1 2 3 4 5 6 
#
# 1 85.3299 7.4334 35.3105 0.0000 20.8610 -0.0002
# 2 7.4334 80.7640 19.1456 0.0001 -8.4302 -0.0001
# 3 35.3105 19.1456 117.3255 -0.0003 22.2696 -0.0001
# 4 0.0000 0.0001 -0.0003 13.9372 0.0001 2.3471
# 5 20.8610 -8.4302 22.2696 0.0001 48.4320 0.0001
# 6 -0.0002 -0.0001 -0.0001 2.3471 0.0001 17.5883
#
#
#
# Elastic Compliance Matrix: (Units=1/GPa)
#
#
# Indices 1 2 3 4 5 6 
#
# 1 0.014336 -0.001067 -0.003213 0.000000 -0.004883 0.000000
# 2 -0.001067 0.013530 -0.002652 0.000000 0.004034 0.000000
# 3 -0.003213 -0.002652 0.010680 0.000000 -0.003988 0.000000
# 4 0.000000 0.000000 0.000000 0.073400 0.000000 -0.009795
# 5 -0.004883 0.004034 -0.003988 0.000000 0.025287 0.000000
# 6 0.000000 0.000000 0.000000 -0.009795 0.000000 0.058163
#
#
# Mechanical properties :
#
#
# Convention : Reuss Voigt Hill
#
# Bulk Modulus (GPa) = 40.51953 45.24428 42.88191
# Shear Modulus (GPa) = 22.98969 30.76017 26.87493
#
# Velocity S-wave (km/s) = 3.34678 3.87128 3.61855
# Velocity P-wave (km/s) = 5.88866 6.48276 6.19284
#
# Compressibility (1/GPa) = 0.02467946
#
# Stress axis : x y z
#
# Youngs Moduli (GPa) = 69.75567 73.91056 93.63021
#
# Poissons Ratio (x) = 0.07889 0.30088
# Poissons Ratio (y) = 0.07445 0.24834
# Poissons Ratio (z) = 0.22416 0.19604
#
# Static dielectric constant tensor:
#      x y z
#    x 3.888020 0.000000 0.318660 
#    y 0.000000 3.196440 0.000000 
#    z 0.318660 0.000000 4.254940 
# 
# 
# High freq. dielectric constant tensor:
#      x y z
#    x 1.806710 0.000000 0.011780 
#    y 0.000000 1.755560 0.000000 
#    z 0.011780 0.000000 1.828270 
# 
# From -- ./inp_files/332681.got.cif
#   From: 2010.06.25/outbox.cif.g09.slc.cpg/sg12_167_cif.got.tgz:332681.got - 2010.06.28 00:19:55.
