data_PCOD8101679
_publ_section_title
;
Structure prediction by ZEFSAII (Michael W. Deem and Ramdas Pophale) SiO2 
 PCOD8101679
Probable space group: C 2/M
;
_chemical_formula_sum "Si O2"
_cell_formula_units_Z 56
_cell_length_a 18.563649
_cell_length_b 9.115682
_cell_length_c 27.200858
_cell_angle_alpha 90.000000
_cell_angle_beta 140.806169
_cell_angle_gamma 90.000000
_cell_volume 2908.807570
_symmetry_space_group_name_H-M "C 2/M"
_symmetry_group_IT_number 12
_symmetry_cell_setting 'monoclinic'
loop_
_space_group_symop_operation_xyz
x,y,z
-x,y,-z
-x,-y,-z
x,-y,z
1/2+x,1/2+y,z
1/2-x,1/2+y,-z
1/2-x,1/2-y,-z
1/2+x,1/2-y,z
loop_
_atom_site_type_symbol
_atom_site_label
_atom_site_fract_x
_atom_site_fract_y
_atom_site_fract_z
Si Si1 0.338120 0.673255 0.510315
Si Si2 0.732007 0.325658 0.634222
Si Si3 0.832657 0.673186 0.207544
Si Si4 0.901631 0.173419 0.340798
Si Si5 0.114168 0.837789 0.030744
Si Si6 0.486887 0.826043 0.776378
Si Si7 0.130992 0.673078 0.944616
O O1 0.319081 0.500000 0.504254
O O2 0.250000 0.750000 0.500000
O O3 0.318494 0.728680 0.444276
O O4 0.466137 0.719146 0.592198
O O5 0.735008 0.500000 0.637065
O O6 0.653032 0.268325 0.637040
O O7 0.859682 0.260349 0.706717
O O8 0.835696 0.500000 0.218278
O O9 0.834144 0.752997 0.260532
O O10 0.717407 0.721362 0.118833
O O11 0.940134 0.727526 0.231927
O O12 0.886825 0.000000 0.328987
O O13 0.148664 0.000000 0.028379
O O14 0.084246 0.723423 0.972299
O O15 0.000000 0.852799 0.000000
O O16 0.544987 0.770509 0.857211
O O17 0.482624 0.000000 0.773903
O O18 0.146068 0.500000 0.950771
O O19 0.250000 0.750000 0.000000
#
# Coordination Sequence:
#
# PCOD8101679 Si02
#       7
#     8   8   8   8   8   8   8
#     4  10  20  36  59  84 110 144 181 220 268 323
#     4   9  18  34  56  80 109 144 177 219 272 322
#     4  10  20  37  56  77 110 149 184 220 277 341
#     4  10  21  35  55  84 113 138 180 231 270 318
#     4  10  22  39  57  79 113 152 191 236 287 340
#     4   9  18  33  54  78 105 141 185 225 267 330
#     4  11  21  36  58  83 112 148 192 238 283 335
#
# _framework density 19.251874999999998
#
# number of rings (size 3 to 8) (size 9 to 14) (size 15 to 20)
#    0.000    2.143    1.429    1.714    2.000    4.286 
#    0.000    0.714    0.000    3.429    0.000    0.000 
#    0.000    0.000    0.000    0.000    0.000    0.000 
#
# Total GULP energy -347203.512206 kJ/mol
# GULP energy per Si atom -12400.125436 kJ/mol
# Density = 1.920806 g / cm^3
# Si number density = 19.251875 Si / 1000 Ang^3
#
#
#
# Elastic Constant Matrix: (Units=GPa)
#
#
# Indices 1 2 3 4 5 6 
#
# 1 135.0133 25.2854 50.2561 0.0000 -9.5345 0.0000
# 2 25.2854 32.5684 22.3095 0.0000 -7.4565 0.0000
# 3 50.2561 22.3095 109.3626 0.0000 -13.2879 0.0000
# 4 0.0000 0.0000 0.0000 23.1334 0.0000 -7.3345
# 5 -9.5345 -7.4565 -13.2879 0.0000 42.3664 0.0000
# 6 0.0000 0.0000 0.0000 -7.3345 0.0000 22.3323
#
#
#
# Elastic Compliance Matrix: (Units=1/GPa)
#
#
# Indices 1 2 3 4 5 6 
#
# 1 0.009631 -0.005132 -0.003353 0.000000 0.000213 0.000000
# 2 -0.005132 0.039145 -0.005126 0.000000 0.004127 0.000000
# 3 -0.003353 -0.005126 0.011986 0.000000 0.002103 0.000000
# 4 0.000000 0.000000 0.000000 0.048252 0.000000 0.015847
# 5 0.000213 0.004127 0.002103 0.000000 0.025037 0.000000
# 6 0.000000 0.000000 0.000000 0.015847 0.000000 0.049983
#
#
# Mechanical properties :
#
#
# Convention : Reuss Voigt Hill
#
# Bulk Modulus (GPa) = 29.81472 52.51626 41.16549
# Shear Modulus (GPa) = 22.47852 29.50596 25.99224
#
# Velocity S-wave (km/s) = 3.42073 3.91913 3.67838
# Velocity P-wave (km/s) = 5.57872 6.91499 6.28249
#
# Compressibility (1/GPa) = 0.03354048
#
# Stress axis : x y z
#
# Youngs Moduli (GPa) = 103.83288 25.54625 83.43171
#
# Poissons Ratio (x) = 0.13109 0.27975
# Poissons Ratio (y) = 0.53283 0.42765
# Poissons Ratio (z) = 0.34816 0.13094
#
# Static dielectric constant tensor:
#      x y z
#    x 3.708300 0.000000 0.027720 
#    y 0.000000 3.808280 0.000000 
#    z 0.027720 0.000000 3.678930 
# 
# 
# High freq. dielectric constant tensor:
#      x y z
#    x 1.761840 0.000000 0.000480 
#    y 0.000000 1.709840 0.000000 
#    z 0.000480 0.000000 1.764470 
# 
# From -- ./inp_files/363165.got.cif
#   From: 2010.06.25/outbox.cif.g09.slc.cpg/sg12_182_cif.got.tgz:363165.got - 2010.06.28 00:19:55.
