data_PCOD8101771
_publ_section_title
;
Structure prediction by ZEFSAII (Michael W. Deem and Ramdas Pophale) SiO2 
 PCOD8101771
Probable space group: C 2/M
;
_chemical_formula_sum "Si O2"
_cell_formula_units_Z 64
_cell_length_a 24.335690
_cell_length_b 9.308318
_cell_length_c 19.728448
_cell_angle_alpha 90.000000
_cell_angle_beta 130.196860
_cell_angle_gamma 90.000000
_cell_volume 3413.542431
_symmetry_space_group_name_H-M "C 2/M"
_symmetry_group_IT_number 12
_symmetry_cell_setting 'monoclinic'
loop_
_space_group_symop_operation_xyz
x,y,z
-x,y,-z
-x,-y,-z
x,-y,z
1/2+x,1/2+y,z
1/2-x,1/2+y,-z
1/2-x,1/2-y,-z
1/2+x,1/2-y,z
loop_
_atom_site_type_symbol
_atom_site_label
_atom_site_fract_x
_atom_site_fract_y
_atom_site_fract_z
Si Si1 0.313356 0.832512 0.588017
Si Si2 0.320570 0.333650 0.731511
Si Si3 0.674430 0.665113 0.872032
Si Si4 0.339874 0.837219 0.361658
Si Si5 0.575593 0.837942 0.437064
Si Si6 0.068799 0.833518 0.671934
Si Si7 0.919638 0.830123 0.933643
Si Si8 0.185068 0.831348 0.034000
O O1 0.250000 0.750000 0.500000
O O2 0.328265 0.768152 0.673360
O O3 0.386909 0.811625 0.605040
O O4 0.292329 0.000000 0.576758
O O5 0.327288 0.500000 0.714038
O O6 0.245066 0.308261 0.709219
O O7 0.383019 0.288640 0.833395
O O8 0.698471 0.500000 0.885526
O O9 0.601909 0.695360 0.772515
O O10 0.738190 0.758923 0.890963
O O11 0.658195 0.706870 0.936896
O O12 0.365304 0.807401 0.458384
O O13 0.379124 0.730206 0.342897
O O14 0.357838 0.000000 0.353981
O O15 0.509681 0.732393 0.394444
O O16 0.546093 0.000000 0.419268
O O17 0.060968 0.000000 0.649749
O O18 0.873296 0.768604 0.959752
O O19 0.923674 0.000000 0.944919
O O20 0.000000 0.763699 0.000000
O O21 0.196135 0.000000 0.053640
#
# Coordination Sequence:
#
# PCOD8101771 Si02
#       8
#     8   8   8   8   8   8   8   8
#     4  11  22  39  61  84 111 144 187 233 279 331
#     4  10  20  36  59  86 113 147 191 234 280 332
#     4   9  19  34  52  78 110 138 173 226 277 321
#     4  10  20  37  57  77 107 148 190 228 270 328
#     4  10  22  39  56  76 107 146 185 226 272 327
#     4  11  23  35  51  82 116 143 178 227 283 332
#     4   9  18  32  54  84 113 143 185 232 273 323
#     4   9  17  33  57  78 101 141 186 221 263 323
#
# _framework density 18.748851999999999
#
# number of rings (size 3 to 8) (size 9 to 14) (size 15 to 20)
#    0.000    2.125    1.250    1.875    0.000    6.500 
#    0.000    3.125    0.000    1.500    0.000    0.000 
#    0.000    0.000    0.000    0.000    0.000    0.000 
#
# Total GULP energy -396883.300102 kJ/mol
# GULP energy per Si atom -12402.603128 kJ/mol
# Density = 1.870618 g / cm^3
# Si number density = 18.748852 Si / 1000 Ang^3
#
#
#
# Elastic Constant Matrix: (Units=GPa)
#
#
# Indices 1 2 3 4 5 6 
#
# 1 96.7467 48.9472 56.7446 0.0000 -3.2621 0.0000
# 2 48.9472 80.9926 48.7720 0.0000 -0.4529 0.0000
# 3 56.7446 48.7720 108.8908 0.0000 9.4082 0.0000
# 4 0.0000 0.0000 0.0000 25.6359 0.0000 -3.5665
# 5 -3.2621 -0.4529 9.4082 0.0000 30.3078 0.0000
# 6 0.0000 0.0000 0.0000 -3.5665 0.0000 30.4858
#
#
#
# Elastic Compliance Matrix: (Units=1/GPa)
#
#
# Indices 1 2 3 4 5 6 
#
# 1 0.017715 -0.006745 -0.006542 0.000000 0.003837 0.000000
# 2 -0.006745 0.019689 -0.005411 0.000000 0.001248 0.000000
# 3 -0.006542 -0.005411 0.015500 0.000000 -0.005597 0.000000
# 4 0.000000 0.000000 0.000000 0.039653 0.000000 0.004639
# 5 0.003837 0.001248 -0.005597 0.000000 0.035164 0.000000
# 6 0.000000 0.000000 0.000000 0.004639 0.000000 0.033345
#
#
# Mechanical properties :
#
#
# Convention : Reuss Voigt Hill
#
# Bulk Modulus (GPa) = 64.48771 66.17310 65.33041
# Shear Modulus (GPa) = 24.55408 26.09698 25.32553
#
# Velocity S-wave (km/s) = 3.62281 3.73490 3.67928
# Velocity P-wave (km/s) = 7.20901 7.34645 7.27806
#
# Compressibility (1/GPa) = 0.01550683
#
# Stress axis : x y z
#
# Youngs Moduli (GPa) = 56.44828 50.79028 64.51623
#
# Poissons Ratio (x) = 0.34259 0.42207
# Poissons Ratio (y) = 0.38075 0.34912
# Poissons Ratio (z) = 0.36929 0.27485
#
# Static dielectric constant tensor:
#      x y z
#    x 3.511440 0.000000 -0.056500 
#    y 0.000000 3.350570 0.000000 
#    z -0.056500 0.000000 3.575900 
# 
# 
# High freq. dielectric constant tensor:
#      x y z
#    x 1.730620 0.000000 -0.005390 
#    y 0.000000 1.713340 0.000000 
#    z -0.005390 0.000000 1.736000 
# 
# From -- ./inp_files/324226.got.cif
#   From: 2010.06.25/outbox.cif.g09.slc.cpg/sg12_163_cif.got.tgz:324226.got - 2010.06.28 00:19:55.
