data_PCOD8101131
_publ_section_title
;
Structure prediction by ZEFSAII (Michael W. Deem and Ramdas Pophale) SiO2 
 PCOD8101131
Probable space group: C 2/M
;
_chemical_formula_sum "Si O2"
_cell_formula_units_Z 56
_cell_length_a 18.816141
_cell_length_b 8.818578
_cell_length_c 24.670130
_cell_angle_alpha 90.000000
_cell_angle_beta 134.567944
_cell_angle_gamma 90.000000
_cell_volume 2916.324961
_symmetry_space_group_name_H-M "C 2/M"
_symmetry_group_IT_number 12
_symmetry_cell_setting 'monoclinic'
loop_
_space_group_symop_operation_xyz
x,y,z
-x,y,-z
-x,-y,-z
x,-y,z
1/2+x,1/2+y,z
1/2-x,1/2+y,-z
1/2-x,1/2-y,-z
1/2+x,1/2-y,z
loop_
_atom_site_type_symbol
_atom_site_label
_atom_site_fract_x
_atom_site_fract_y
_atom_site_fract_z
Si Si1 0.546894 0.666433 0.305134
Si Si2 0.657766 0.822421 0.920436
Si Si3 0.043429 0.168188 0.177338
Si Si4 0.750649 0.680546 0.745417
Si Si5 0.259497 0.823776 0.562386
Si Si6 0.610722 0.319620 0.572345
Si Si7 0.149895 0.677773 0.789567
O O1 0.570711 0.500000 0.343851
O O2 0.529043 0.645925 0.232858
O O3 0.632395 0.789175 0.357189
O O4 0.450223 0.735582 0.282428
O O5 0.557167 0.755361 0.894161
O O6 0.672263 0.787201 0.864352
O O7 0.655284 0.000000 0.929721
O O8 0.750000 0.750000 0.000000
O O9 0.141681 0.264812 0.217360
O O10 0.049837 0.000000 0.153614
O O11 0.752954 0.500000 0.751432
O O12 0.662095 0.733858 0.656480
O O13 0.735238 0.755315 0.796166
O O14 0.250000 0.750000 0.500000
O O15 0.178222 0.754872 0.559840
O O16 0.242875 0.000000 0.547873
O O17 0.500000 0.254593 0.500000
O O18 0.608398 0.500000 0.570973
O O19 0.137522 0.500000 0.772685
#
# Coordination Sequence:
#
# PCOD8101131 Si02
#       7
#     8   8   8   8   8   8   8
#     4  10  20  36  57  80 108 148 195 241 288 343
#     4  10  21  39  64  91 122 154 190 234 288 347
#     4  10  20  36  60  86 116 152 194 238 286 343
#     4  11  21  36  60  86 117 157 200 243 292 349
#     4  11  22  36  55  79 111 147 192 246 297 350
#     4   9  20  37  55  78 112 154 196 242 295 346
#     4  10  22  38  58  87 120 152 189 237 290 343
#
# _framework density 19.202249999999999
#
# number of rings (size 3 to 8) (size 9 to 14) (size 15 to 20)
#    0.000    1.857    1.429    2.571    2.000    2.857 
#    0.000    0.714    0.000    7.714    0.000    0.000 
#    0.000    0.000    0.000    0.000    0.000    0.000 
#
# Total GULP energy -347079.928082 kJ/mol
# GULP energy per Si atom -12395.711717 kJ/mol
# Density = 1.915854 g / cm^3
# Si number density = 19.202250 Si / 1000 Ang^3
#
#
#
# Elastic Constant Matrix: (Units=GPa)
#
#
# Indices 1 2 3 4 5 6 
#
# 1 109.6678 43.6624 49.6253 0.0000 8.0170 0.0000
# 2 43.6624 90.4655 40.5337 0.0000 -1.8620 0.0000
# 3 49.6253 40.5337 100.1226 0.0000 22.0996 0.0000
# 4 0.0000 0.0000 0.0000 30.9867 0.0000 3.2219
# 5 8.0170 -1.8620 22.0996 0.0000 29.5967 0.0000
# 6 0.0000 0.0000 0.0000 3.2219 0.0000 33.9216
#
#
#
# Elastic Compliance Matrix: (Units=1/GPa)
#
#
# Indices 1 2 3 4 5 6 
#
# 1 0.012894 -0.004145 -0.004651 0.000000 -0.000281 0.000000
# 2 -0.004145 0.015756 -0.005736 0.000000 0.006397 0.000000
# 3 -0.004651 -0.005736 0.017262 0.000000 -0.011990 0.000000
# 4 0.000000 0.000000 0.000000 0.032594 0.000000 -0.003096
# 5 -0.000281 0.006397 -0.011990 0.000000 0.043219 0.000000
# 6 0.000000 0.000000 0.000000 -0.003096 0.000000 0.029774
#
#
# Mechanical properties :
#
#
# Convention : Reuss Voigt Hill
#
# Bulk Modulus (GPa) = 59.35565 63.09985 61.22775
# Shear Modulus (GPa) = 26.85594 29.99665 28.42629
#
# Velocity S-wave (km/s) = 3.74382 3.95668 3.85172
# Velocity P-wave (km/s) = 7.04742 7.33524 7.19277
#
# Compressibility (1/GPa) = 0.01684760
#
# Stress axis : x y z
#
# Youngs Moduli (GPa) = 77.55720 63.46612 57.93167
#
# Poissons Ratio (x) = 0.26307 0.26942
# Poissons Ratio (y) = 0.32148 0.33232
# Poissons Ratio (z) = 0.36069 0.36407
#
# Static dielectric constant tensor:
#      x y z
#    x 3.035480 0.000000 0.089510 
#    y 0.000000 3.670080 0.000000 
#    z 0.089510 0.000000 3.366830 
# 
# 
# High freq. dielectric constant tensor:
#      x y z
#    x 1.752540 0.000000 0.009210 
#    y 0.000000 1.749850 0.000000 
#    z 0.009210 0.000000 1.733170 
# 
# From -- ./inp_files/342510.got.cif
#   From: 2010.06.25/outbox.cif.g09.slc.cpg/sg12_172_cif.got.tgz:342510.got - 2010.06.28 00:19:55.
