data_PCOD8101674
_publ_section_title
;
Structure prediction by ZEFSAII (Michael W. Deem and Ramdas Pophale) SiO2 
 PCOD8101674
Probable space group: C 2/M
;
_chemical_formula_sum "Si O2"
_cell_formula_units_Z 56
_cell_length_a 21.601230
_cell_length_b 9.133325
_cell_length_c 16.459625
_cell_angle_alpha 90.000000
_cell_angle_beta 119.293689
_cell_angle_gamma 90.000000
_cell_volume 2832.077638
_symmetry_space_group_name_H-M "C 2/M"
_symmetry_group_IT_number 12
_symmetry_cell_setting 'monoclinic'
loop_
_space_group_symop_operation_xyz
x,y,z
-x,y,-z
-x,-y,-z
x,-y,z
1/2+x,1/2+y,z
1/2-x,1/2+y,-z
1/2-x,1/2-y,-z
1/2+x,1/2-y,z
loop_
_atom_site_type_symbol
_atom_site_label
_atom_site_fract_x
_atom_site_fract_y
_atom_site_fract_z
Si Si1 0.792807 0.330292 0.295781
Si Si2 0.905636 0.166933 0.272891
Si Si3 0.202573 0.824470 0.538739
Si Si4 0.413536 0.329651 0.097816
Si Si5 0.157340 0.167905 0.110989
Si Si6 0.041928 0.167873 0.449807
Si Si7 0.538055 0.162245 0.110409
O O1 0.798084 0.500000 0.324515
O O2 0.868232 0.273702 0.312582
O O3 0.767474 0.234485 0.356185
O O4 0.739034 0.307381 0.185808
O O5 0.882053 0.207602 0.166107
O O6 0.990808 0.185672 0.338454
O O7 0.883405 0.000000 0.278968
O O8 0.250000 0.750000 0.500000
O O9 0.120182 0.767245 0.480150
O O10 0.209500 0.000000 0.536885
O O11 0.431006 0.500000 0.101559
O O12 0.488083 0.246438 0.140827
O O13 0.358104 0.279527 0.991829
O O14 0.112644 0.256714 0.148702
O O15 0.134343 0.000000 0.105078
O O16 0.000000 0.240105 0.500000
O O17 0.056211 0.000000 0.481886
O O18 0.552138 0.000000 0.153224
O O19 0.500000 0.158833 0.000000
#
# Coordination Sequence:
#
# PCOD8101674 Si02
#       7
#     8   8   8   8   8   8   8
#     4  11  23  38  56  81 114 152 193 236 289 342
#     4  10  20  36  59  84 108 144 194 238 284 347
#     4  11  23  41  64  90 122 152 190 241 295 354
#     4   9  18  33  54  80 110 148 192 232 278 346
#     4   9  19  35  53  75 111 155 191 228 280 345
#     4   9  17  35  62  85 109 148 189 229 285 349
#     4   9  17  30  50  76 105 139 183 235 287 335
#
# _framework density 19.773468999999999
#
# number of rings (size 3 to 8) (size 9 to 14) (size 15 to 20)
#    0.000    2.286    1.429    1.286    0.000    5.143 
#    0.000    5.000    0.000    0.000    0.000    0.000 
#    0.000    0.000    0.000    0.000    0.000    0.000 
#
# Total GULP energy -347066.902145 kJ/mol
# GULP energy per Si atom -12395.246505 kJ/mol
# Density = 1.972846 g / cm^3
# Si number density = 19.773469 Si / 1000 Ang^3
#
#
#
# Elastic Constant Matrix: (Units=GPa)
#
#
# Indices 1 2 3 4 5 6 
#
# 1 122.0544 44.7668 48.3964 0.0000 -5.3794 0.0000
# 2 44.7668 73.4137 34.2982 0.0000 -7.0617 0.0000
# 3 48.3964 34.2982 99.9844 0.0000 -7.3755 0.0000
# 4 0.0000 0.0000 0.0000 23.3486 0.0000 -1.9194
# 5 -5.3794 -7.0617 -7.3755 0.0000 28.8481 0.0000
# 6 0.0000 0.0000 0.0000 -1.9194 0.0000 26.0144
#
#
#
# Elastic Compliance Matrix: (Units=1/GPa)
#
#
# Indices 1 2 3 4 5 6 
#
# 1 0.011661 -0.005335 -0.003822 0.000000 -0.000109 0.000000
# 2 -0.005335 0.018855 -0.003688 0.000000 0.002678 0.000000
# 3 -0.003822 -0.003688 0.013247 0.000000 0.001771 0.000000
# 4 0.000000 0.000000 0.000000 0.043090 0.000000 0.003179
# 5 -0.000109 0.002678 0.001771 0.000000 0.035752 0.000000
# 6 0.000000 0.000000 0.000000 0.003179 0.000000 0.038675
#
#
# Mechanical properties :
#
#
# Convention : Reuss Voigt Hill
#
# Bulk Modulus (GPa) = 55.33226 61.15281 58.24254
# Shear Modulus (GPa) = 25.90722 26.84162 26.37442
#
# Velocity S-wave (km/s) = 3.62360 3.68836 3.65612
# Velocity P-wave (km/s) = 6.74916 7.00946 6.88054
#
# Compressibility (1/GPa) = 0.01807264
#
# Stress axis : x y z
#
# Youngs Moduli (GPa) = 85.75848 53.03501 75.48673
#
# Poissons Ratio (x) = 0.28296 0.28851
# Poissons Ratio (y) = 0.45755 0.27840
# Poissons Ratio (z) = 0.32777 0.19559
#
# Static dielectric constant tensor:
#      x y z
#    x 3.511670 0.000000 0.026410 
#    y 0.000000 3.558740 0.000000 
#    z 0.026410 0.000000 3.689360 
# 
# 
# High freq. dielectric constant tensor:
#      x y z
#    x 1.760710 0.000000 0.001510 
#    y 0.000000 1.754780 0.000000 
#    z 0.001510 0.000000 1.769590 
# 
# From -- ./inp_files/281643.got.cif
#   From: 2010.06.25/outbox.cif.g09.slc.cpg/sg12_141_cif.got.tgz:281643.got - 2010.06.28 00:19:55.
