data_PCOD8101047
_publ_section_title
;
Structure prediction by ZEFSAII (Michael W. Deem and Ramdas Pophale) SiO2 
 PCOD8101047
Probable space group: C 2/M
;
_chemical_formula_sum "Si O2"
_cell_formula_units_Z 64
_cell_length_a 17.516837
_cell_length_b 13.959154
_cell_length_c 12.556577
_cell_angle_alpha 90.000000
_cell_angle_beta 90.000119
_cell_angle_gamma 90.000000
_cell_volume 3070.337037
_symmetry_space_group_name_H-M "C 2/M"
_symmetry_group_IT_number 12
_symmetry_cell_setting 'monoclinic'
loop_
_space_group_symop_operation_xyz
x,y,z
-x,y,-z
-x,-y,-z
x,-y,z
1/2+x,1/2+y,z
1/2-x,1/2+y,-z
1/2-x,1/2-y,-z
1/2+x,1/2-y,z
loop_
_atom_site_type_symbol
_atom_site_label
_atom_site_fract_x
_atom_site_fract_y
_atom_site_fract_z
Si Si1 0.675476 0.610933 0.706011
Si Si2 0.343149 0.888580 0.377648
Si Si3 0.409647 0.893107 0.999999
Si Si4 0.415225 0.386390 0.499999
Si Si5 0.656851 0.888580 0.377649
Si Si6 0.412080 0.228417 0.798876
Si Si7 0.824525 0.110933 0.706009
Si Si8 0.412079 0.228417 0.201123
O O1 0.660564 0.500000 0.733677
O O2 0.628912 0.648054 0.603838
O O3 0.763384 0.631204 0.681849
O O4 0.642058 0.677054 0.800451
O O5 0.340341 0.852493 0.499999
O O6 0.263384 0.868799 0.318149
O O7 0.406229 0.830857 0.311509
O O8 0.363930 0.000000 0.375394
O O9 0.381910 0.837564 0.895089
O O10 0.373407 0.000000 0.999999
O O11 0.500000 0.901674 0.000000
O O12 0.381909 0.837564 0.104910
O O13 0.500000 0.342231 0.500000
O O14 0.417575 0.500000 0.500002
O O15 0.371086 0.351944 0.603834
O O16 0.593770 0.830857 0.311510
O O17 0.636072 0.000000 0.375395
O O18 0.357943 0.322946 0.800449
O O19 0.500000 0.259530 0.815155
O O20 0.839440 0.000000 0.733673
#
# Coordination Sequence:
#
# PCOD8101047 Si02
#       8
#     8   8   8   8   8   8   8   8
#     4  10  20  36  56  83 120 158 192 227 280 350
#     4  10  21  38  58  83 119 159 193 232 291 352
#     4   9  20  42  64  81 109 151 199 246 294 350
#     4   9  16  28  49  76 110 154 195 223 254 318
#     4  10  21  38  58  83 119 159 193 232 291 352
#     4  11  23  37  60  88 112 147 198 248 295 344
#     4  10  20  36  56  83 120 158 192 227 280 350
#     4  11  23  37  60  88 112 147 198 248 295 344
#
# _framework density 20.844617
#
# number of rings (size 3 to 8) (size 9 to 14) (size 15 to 20)
#    0.000    2.000    1.250    2.250    1.750    4.500 
#    0.000    4.375    0.000    5.250    0.000    0.000 
#    0.000    0.000    0.000    0.000    0.000    0.000 
#
# Total GULP energy -396802.222160 kJ/mol
# GULP energy per Si atom -12400.069442 kJ/mol
# Density = 2.079717 g / cm^3
# Si number density = 20.844617 Si / 1000 Ang^3
#
#
#
# Elastic Constant Matrix: (Units=GPa)
#
#
# Indices 1 2 3 4 5 6 
#
# 1 42.7895 5.8670 17.9708 0.0000 -0.0006 0.0000
# 2 5.8670 95.9532 70.0436 0.0000 -0.0015 0.0000
# 3 17.9708 70.0436 105.4600 0.0000 -0.0010 0.0000
# 4 0.0000 0.0000 0.0000 34.3138 0.0000 0.0000
# 5 -0.0006 -0.0015 -0.0010 0.0000 18.6450 0.0000
# 6 0.0000 0.0000 0.0000 0.0000 0.0000 30.0595
#
#
#
# Elastic Compliance Matrix: (Units=1/GPa)
#
#
# Indices 1 2 3 4 5 6 
#
# 1 0.025653 0.003149 -0.006463 0.000000 0.000001 0.000000
# 2 0.003149 0.020616 -0.014229 0.000000 0.000001 0.000000
# 3 -0.006463 -0.014229 0.020034 0.000000 0.000000 0.000000
# 4 0.000000 0.000000 0.000000 0.029143 0.000000 0.000000
# 5 0.000001 0.000001 0.000000 0.000000 0.053634 0.000000
# 6 0.000000 0.000000 0.000000 0.000000 0.000000 0.033267
#
#
# Mechanical properties :
#
#
# Convention : Reuss Voigt Hill
#
# Bulk Modulus (GPa) = 32.03363 47.99616 40.01489
# Shear Modulus (GPa) = 21.94528 26.62509 24.28518
#
# Velocity S-wave (km/s) = 3.24821 3.57783 3.41700
# Velocity P-wave (km/s) = 5.42854 6.33589 5.89968
#
# Compressibility (1/GPa) = 0.03121720
#
# Stress axis : x y z
#
# Youngs Moduli (GPa) = 38.98218 48.50516 49.91412
#
# Poissons Ratio (x) = -0.15276 0.32260
# Poissons Ratio (y) = -0.12277 0.71025
# Poissons Ratio (z) = 0.25194 0.69020
#
# Static dielectric constant tensor:
#      x y z
#    x 3.616910 0.000000 0.000000 
#    y 0.000000 3.855580 0.000000 
#    z 0.000000 0.000000 3.673220 
# 
# 
# High freq. dielectric constant tensor:
#      x y z
#    x 1.803300 0.000000 0.000000 
#    y 0.000000 1.829830 0.000000 
#    z 0.000000 0.000000 1.792560 
# 
# From -- ./inp_files/156624.got.cif
#   From: 2010.06.25/outbox.cif.g09.slc.cpg/sg12_79_cif.got.tgz:156624.got - 2010.06.28 00:19:55.
