data_PCOD8101622
_publ_section_title
;
Structure prediction by ZEFSAII (Michael W. Deem and Ramdas Pophale) SiO2 
 PCOD8101622
Probable space group: C 2/M
;
_chemical_formula_sum "Si O2"
_cell_formula_units_Z 64
_cell_length_a 24.257066
_cell_length_b 20.994495
_cell_length_c 17.626091
_cell_angle_alpha 90.000000
_cell_angle_beta 158.565479
_cell_angle_gamma 90.000000
_cell_volume 3280.296044
_symmetry_space_group_name_H-M "C 2/M"
_symmetry_group_IT_number 12
_symmetry_cell_setting 'monoclinic'
loop_
_space_group_symop_operation_xyz
x,y,z
-x,y,-z
-x,-y,-z
x,-y,z
1/2+x,1/2+y,z
1/2-x,1/2+y,-z
1/2-x,1/2-y,-z
1/2+x,1/2-y,z
loop_
_atom_site_type_symbol
_atom_site_label
_atom_site_fract_x
_atom_site_fract_y
_atom_site_fract_z
Si Si1 0.852378 0.070607 0.859622
Si Si2 0.419169 0.140375 0.552022
Si Si3 0.770760 0.574491 0.024318
Si Si4 0.674807 0.574322 0.733160
Si Si5 0.364703 0.656982 0.022437
Si Si6 0.608467 0.830035 0.066750
Si Si7 0.415669 0.767779 0.689267
Si Si8 0.645849 0.764622 0.656280
O O1 0.728026 0.096438 0.641571
O O2 0.883967 0.116856 0.970343
O O3 0.805924 0.000000 0.829717
O O4 0.000000 0.065933 0.000000
O O5 0.558583 0.093202 0.740029
O O6 0.410896 0.191429 0.607571
O O7 0.429453 0.178252 0.486758
O O8 0.748562 0.500000 0.009085
O O9 0.659083 0.610767 0.937506
O O10 0.725755 0.594682 0.882159
O O11 0.500000 0.594398 0.500000
O O12 0.695231 0.500000 0.743714
O O13 0.790514 0.608105 0.822990
O O14 0.228256 0.706762 0.836045
O O15 0.509627 0.699015 0.227940
O O16 0.733897 0.774571 0.240521
O O17 0.500000 0.841312 0.000000
O O18 0.499125 0.810431 0.858753
O O19 0.250000 0.750000 0.500000
O O20 0.500000 0.723831 0.500000
#
# Coordination Sequence:
#
# PCOD8101622 Si02
#       8
#     8   8   8   8   8   8   8   8
#     4  10  21  38  60  88 128 171 206 247 308 379
#     4  11  21  37  60  90 122 163 205 252 307 365
#     4  11  22  39  64  92 121 157 207 262 311 365
#     4  10  23  44  66  88 119 161 212 271 326 374
#     4  10  22  37  60  90 123 163 206 251 303 368
#     4  11  23  39  61  89 120 164 209 257 315 377
#     4  11  23  38  58  88 126 163 201 252 308 370
#     4  10  20  36  58  89 126 162 201 244 306 374
#
# _framework density 19.510435000000001
#
# number of rings (size 3 to 8) (size 9 to 14) (size 15 to 20)
#    0.000    1.500    2.500    2.625    0.000    7.250 
#    0.000    1.875    0.000    0.750    0.000    0.000 
#    0.000    0.000    0.000    0.000    0.000    0.000 
#
# Total GULP energy -396668.558072 kJ/mol
# GULP energy per Si atom -12395.892440 kJ/mol
# Density = 1.946603 g / cm^3
# Si number density = 19.510435 Si / 1000 Ang^3
#
#
#
# Elastic Constant Matrix: (Units=GPa)
#
#
# Indices 1 2 3 4 5 6 
#
# 1 90.3621 42.9773 48.5704 0.0000 18.2704 0.0000
# 2 42.9773 105.9353 47.8147 0.0000 9.6878 0.0000
# 3 48.5704 47.8147 125.7606 0.0000 21.0421 0.0000
# 4 0.0000 0.0000 0.0000 31.0093 0.0000 -2.8461
# 5 18.2704 9.6878 21.0421 0.0000 29.6137 0.0000
# 6 0.0000 0.0000 0.0000 -2.8461 0.0000 35.7200
#
#
#
# Elastic Compliance Matrix: (Units=1/GPa)
#
#
# Indices 1 2 3 4 5 6 
#
# 1 0.016348 -0.004450 -0.003607 0.000000 -0.006068 0.000000
# 2 -0.004450 0.012620 -0.003233 0.000000 0.000914 0.000000
# 3 -0.003607 -0.003233 0.011377 0.000000 -0.004801 0.000000
# 4 0.000000 0.000000 0.000000 0.032486 0.000000 0.002588
# 5 -0.006068 0.000914 -0.004801 0.000000 0.040624 0.000000
# 6 0.000000 0.000000 0.000000 0.002588 0.000000 0.028202
#
#
# Mechanical properties :
#
#
# Convention : Reuss Voigt Hill
#
# Bulk Modulus (GPa) = 56.28264 66.75365 61.51814
# Shear Modulus (GPa) = 29.38426 31.44829 30.41628
#
# Velocity S-wave (km/s) = 3.88503 4.01917 3.95267
# Velocity P-wave (km/s) = 7.00248 7.47174 7.24091
#
# Compressibility (1/GPa) = 0.01776747
#
# Stress axis : x y z
#
# Youngs Moduli (GPa) = 61.16781 79.23649 87.89575
#
# Poissons Ratio (x) = 0.35256 0.31704
# Poissons Ratio (y) = 0.27217 0.28414
# Poissons Ratio (z) = 0.22063 0.25615
#
# Static dielectric constant tensor:
#      x y z
#    x 3.326900 0.000000 0.149170 
#    y 0.000000 3.712550 0.000000 
#    z 0.149170 0.000000 3.425570 
# 
# 
# High freq. dielectric constant tensor:
#      x y z
#    x 1.752780 0.000000 0.002060 
#    y 0.000000 1.766920 0.000000 
#    z 0.002060 0.000000 1.777760 
# 
# From -- ./inp_files/290891.got.cif
#   From: 2010.06.25/outbox.cif.g09.slc.cpg/sg12_146_cif.got.tgz:290891.got - 2010.06.28 00:19:55.
