data_PCOD8101087
_publ_section_title
;
Structure prediction by ZEFSAII (Michael W. Deem and Ramdas Pophale) SiO2 
 PCOD8101087
Probable space group: C 2/M
;
_chemical_formula_sum "Si O2"
_cell_formula_units_Z 56
_cell_length_a 29.358215
_cell_length_b 22.645036
_cell_length_c 13.074968
_cell_angle_alpha 90.000000
_cell_angle_beta 19.063222
_cell_angle_gamma 90.000000
_cell_volume 2839.059309
_symmetry_space_group_name_H-M "C 2/M"
_symmetry_group_IT_number 12
_symmetry_cell_setting 'monoclinic'
loop_
_space_group_symop_operation_xyz
x,y,z
-x,y,-z
-x,-y,-z
x,-y,z
1/2+x,1/2+y,z
1/2-x,1/2+y,-z
1/2-x,1/2-y,-z
1/2+x,1/2-y,z
loop_
_atom_site_type_symbol
_atom_site_label
_atom_site_fract_x
_atom_site_fract_y
_atom_site_fract_z
Si Si1 0.075938 0.067095 0.099109
Si Si2 0.926007 0.569006 0.048496
Si Si3 0.143016 0.070052 0.739095
Si Si4 0.516911 0.268772 0.348699
Si Si5 0.225071 0.126809 0.950591
Si Si6 0.319424 0.632751 0.726327
Si Si7 0.469597 0.146056 0.761865
O O1 0.927667 0.098126 0.426871
O O2 0.036537 0.000000 0.164434
O O3 0.156374 0.091917 0.828127
O O4 0.180601 0.073210 0.971933
O O5 0.937874 0.500000 0.987424
O O6 0.768606 0.591597 0.400976
O O7 0.987813 0.614060 0.832913
O O8 0.000000 0.576822 0.000000
O O9 0.144696 0.000000 0.731796
O O10 0.000000 0.096940 0.000000
O O11 0.500000 0.242460 0.500000
O O12 0.370580 0.298988 0.624140
O O13 0.548847 0.217338 0.198242
O O14 0.643896 0.315580 0.079622
O O15 0.391037 0.134546 0.599080
O O16 0.176082 0.108753 0.167353
O O17 0.166808 0.621208 0.004920
#
# Coordination Sequence:
#
# PCOD8101087 Si02
#       7
#     8   8   8   8   8   8   8
#     4  10  20  36  57  78 107 149 188 224 274 331
#     4  10  22  39  56  78 109 142 179 224 277 335
#     4   9  17  32  54  75  96 130 180 229 264 306
#     4   9  19  37  58  80 110 150 189 221 265 329
#     4  10  21  35  54  82 115 150 184 217 269 336
#     4  10  21  35  55  85 115 145 183 227 270 322
#     4  12  21  33  59  85 108 139 184 234 274 315
#
# _framework density 19.724843
#
# number of rings (size 3 to 8) (size 9 to 14) (size 15 to 20)
#    0.000    2.000    0.000    5.143    0.000    6.857 
#    0.000    0.000    0.000   21.857    0.000    0.000 
#    0.000    0.000    0.000    0.000    0.000    0.000 
#
# Total GULP energy -347012.002845 kJ/mol
# GULP energy per Si atom -12393.285816 kJ/mol
# Density = 1.967995 g / cm^3
# Si number density = 19.724843 Si / 1000 Ang^3
#
#
#
# Elastic Constant Matrix: (Units=GPa)
#
#
# Indices 1 2 3 4 5 6 
#
# 1 78.1993 26.7120 13.8639 -0.0020 3.0767 -0.0004
# 2 26.7120 61.3983 24.1367 -0.0002 17.7318 -0.0018
# 3 13.8639 24.1367 83.0789 -0.0012 -2.2390 0.0061
# 4 -0.0020 -0.0002 -0.0012 27.1644 0.0020 8.5889
# 5 3.0767 17.7318 -2.2390 0.0020 44.1772 0.0000
# 6 -0.0004 -0.0018 0.0061 8.5889 0.0000 21.7100
#
#
#
# Elastic Compliance Matrix: (Units=1/GPa)
#
#
# Indices 1 2 3 4 5 6 
#
# 1 0.015162 -0.006894 -0.000482 0.000001 0.001687 -0.000001
# 2 -0.006894 0.024536 -0.006239 -0.000001 -0.009684 0.000004
# 3 -0.000482 -0.006239 0.014017 0.000002 0.003248 -0.000005
# 4 0.000001 -0.000001 0.000002 0.042076 -0.000001 -0.016646
# 5 0.001687 -0.009684 0.003248 -0.000001 0.026570 -0.000001
# 6 -0.000001 0.000004 -0.000005 -0.016646 -0.000001 0.052647
#
#
# Mechanical properties :
#
#
# Convention : Reuss Voigt Hill
#
# Bulk Modulus (GPa) = 37.75652 39.12241 38.43947
# Shear Modulus (GPa) = 23.68918 29.14123 26.41521
#
# Velocity S-wave (km/s) = 3.46928 3.84785 3.66346
# Velocity P-wave (km/s) = 5.93557 6.29431 6.11757
#
# Compressibility (1/GPa) = 0.02648549
#
# Stress axis : x y z
#
# Youngs Moduli (GPa) = 65.95511 40.75661 71.34066
#
# Poissons Ratio (x) = 0.28098 0.03437
# Poissons Ratio (y) = 0.45470 0.44509
# Poissons Ratio (z) = 0.03177 0.25428
#
# Static dielectric constant tensor:
#      x y z
#    x 3.674120 0.000000 -0.098470 
#    y 0.000000 3.356960 0.000010 
#    z -0.098470 0.000010 3.907390 
# 
# 
# High freq. dielectric constant tensor:
#      x y z
#    x 1.769540 0.000000 -0.009920 
#    y 0.000000 1.733520 0.000000 
#    z -0.009920 0.000000 1.783710 
# 
# From -- ./inp_files/190384.got.cif
#   From: 2010.06.25/outbox.cif.g09.slc.cpg/sg12_96_cif.got.tgz:190384.got - 2010.06.28 00:19:55.
