data_PCOD8101748
_publ_section_title
;
Structure prediction by ZEFSAII (Michael W. Deem and Ramdas Pophale) SiO2 
 PCOD8101748
Probable space group: C 2/M
;
_chemical_formula_sum "Si O2"
_cell_formula_units_Z 64
_cell_length_a 32.428891
_cell_length_b 16.891851
_cell_length_c 12.491095
_cell_angle_alpha 90.000000
_cell_angle_beta 27.663124
_cell_angle_gamma 90.000000
_cell_volume 3176.745617
_symmetry_space_group_name_H-M "C 2/M"
_symmetry_group_IT_number 12
_symmetry_cell_setting 'monoclinic'
loop_
_space_group_symop_operation_xyz
x,y,z
-x,y,-z
-x,-y,-z
x,-y,z
1/2+x,1/2+y,z
1/2-x,1/2+y,-z
1/2-x,1/2-y,-z
1/2+x,1/2-y,z
loop_
_atom_site_type_symbol
_atom_site_label
_atom_site_fract_x
_atom_site_fract_y
_atom_site_fract_z
Si Si1 0.441529 0.799688 0.887474
Si Si2 0.240004 0.909231 0.995261
Si Si3 0.707415 0.705242 0.881207
Si Si4 0.185864 0.089926 0.746167
Si Si5 0.000034 0.847269 0.126686
Si Si6 0.703266 0.088318 0.712360
Si Si7 0.946681 0.590742 0.515461
Si Si8 0.312422 0.639625 0.653999
O O1 0.489397 0.742782 0.860761
O O2 0.516852 0.852647 0.660250
O O3 0.384830 0.751703 0.928356
O O4 0.379068 0.852900 0.106047
O O5 0.195992 0.849314 0.011914
O O6 0.343807 0.889830 0.771201
O O7 0.225464 0.000000 0.991447
O O8 0.191036 0.895387 0.219572
O O9 0.731374 0.648313 0.726741
O O10 0.788185 0.766975 0.709826
O O11 0.223744 0.113814 0.542871
O O12 0.209992 0.000000 0.721368
O O13 0.079775 0.099368 0.989195
O O14 0.909231 0.879218 0.385272
O O15 0.000000 0.853156 0.000000
O O16 0.743434 0.092387 0.738867
O O17 0.668739 0.000000 0.770162
O O18 0.960761 0.500000 0.447289
O O19 0.000000 0.609157 0.500000
#
# Coordination Sequence:
#
# PCOD8101748 Si02
#       8
#     8   8   8   8   8   8   8   8
#     4  10  22  36  59  86 118 153 192 239 288 352
#     4  11  23  40  62  87 119 155 195 240 288 346
#     4  10  22  38  61  86 118 159 191 236 289 353
#     4  10  22  39  59  83 115 157 197 238 291 345
#     4  11  23  38  58  86 116 152 192 244 294 340
#     4  10  20  36  59  85 115 152 196 241 287 340
#     4  10  20  37  61  88 118 152 193 240 291 340
#     4  11  22  37  61  88 116 150 196 243 288 339
#
# _framework density 20.146402999999999
#
# number of rings (size 3 to 8) (size 9 to 14) (size 15 to 20)
#    0.000    1.625    1.250    3.750    1.750    4.750 
#    0.000    1.875    0.000    4.500    0.000    0.000 
#    0.000    0.000    0.000    0.000    0.000    0.000 
#
# Total GULP energy -396901.405605 kJ/mol
# GULP energy per Si atom -12403.168925 kJ/mol
# Density = 2.010055 g / cm^3
# Si number density = 20.146403 Si / 1000 Ang^3
#
#
#
# Elastic Constant Matrix: (Units=GPa)
#
#
# Indices 1 2 3 4 5 6 
#
# 1 56.2147 15.3493 14.5177 0.0000 17.4826 0.0000
# 2 15.3493 88.1670 28.8334 0.0000 9.4258 0.0000
# 3 14.5177 28.8334 107.9535 0.0000 14.4937 0.0000
# 4 0.0000 0.0000 0.0000 21.6006 0.0000 12.0580
# 5 17.4826 9.4258 14.4937 0.0000 30.1263 0.0000
# 6 0.0000 0.0000 0.0000 12.0580 0.0000 28.5417
#
#
#
# Elastic Compliance Matrix: (Units=1/GPa)
#
#
# Indices 1 2 3 4 5 6 
#
# 1 0.022317 -0.002365 -0.000781 0.000000 -0.011835 0.000000
# 2 -0.002365 0.012850 -0.002949 0.000000 -0.001229 0.000000
# 3 -0.000781 -0.002949 0.010660 0.000000 -0.003753 0.000000
# 4 0.000000 0.000000 0.000000 0.060582 0.000000 -0.025594
# 5 -0.011835 -0.001229 -0.003753 0.000000 0.042252 0.000000
# 6 0.000000 0.000000 0.000000 -0.025594 0.000000 0.045849
#
#
# Mechanical properties :
#
#
# Convention : Reuss Voigt Hill
#
# Bulk Modulus (GPa) = 29.72848 41.08177 35.40512
# Shear Modulus (GPa) = 22.94517 28.96270 25.95393
#
# Velocity S-wave (km/s) = 3.37845 3.79570 3.59314
# Velocity P-wave (km/s) = 5.47785 6.29648 5.90138
#
# Compressibility (1/GPa) = 0.03363778
#
# Stress axis : x y z
#
# Youngs Moduli (GPa) = 44.80900 77.82333 93.81121
#
# Poissons Ratio (x) = 0.18402 0.07323
# Poissons Ratio (y) = 0.10596 0.27665
# Poissons Ratio (z) = 0.03498 0.22950
#
# Static dielectric constant tensor:
#      x y z
#    x 3.543380 0.000000 0.039790 
#    y 0.000000 3.820060 0.000000 
#    z 0.039790 0.000000 3.620840 
# 
# 
# High freq. dielectric constant tensor:
#      x y z
#    x 1.776680 0.000000 0.007050 
#    y 0.000000 1.799620 0.000000 
#    z 0.007050 0.000000 1.784640 
# 
# From -- ./inp_files/190010.got.cif
#   From: 2010.06.25/outbox.cif.g09.slc.cpg/sg12_96_cif.got.tgz:190010.got - 2010.06.28 00:19:55.
