data_PCOD8101849
_publ_section_title
;
Structure prediction by ZEFSAII (Michael W. Deem and Ramdas Pophale) SiO2 
 PCOD8101849
Probable space group: C 2/M
;
_chemical_formula_sum "Si O2"
_cell_formula_units_Z 64
_cell_length_a 30.322925
_cell_length_b 8.506155
_cell_length_c 16.149162
_cell_angle_alpha 90.000000
_cell_angle_beta 46.645078
_cell_angle_gamma 90.000000
_cell_volume 3028.708597
_symmetry_space_group_name_H-M "C 2/M"
_symmetry_group_IT_number 12
_symmetry_cell_setting 'monoclinic'
loop_
_space_group_symop_operation_xyz
x,y,z
-x,y,-z
-x,-y,-z
x,-y,z
1/2+x,1/2+y,z
1/2-x,1/2+y,-z
1/2-x,1/2-y,-z
1/2+x,1/2-y,z
loop_
_atom_site_type_symbol
_atom_site_label
_atom_site_fract_x
_atom_site_fract_y
_atom_site_fract_z
Si Si1 0.223308 0.178385 0.952324
Si Si2 0.882706 0.681860 0.007874
Si Si3 0.544882 0.316060 0.372876
Si Si4 0.891222 0.683241 0.328884
Si Si5 0.013750 0.184173 0.230919
Si Si6 0.158548 0.184430 0.768426
Si Si7 0.659102 0.178053 0.304856
Si Si8 0.794499 0.315246 0.585054
O O1 0.165804 0.281617 0.000984
O O2 0.273142 0.185857 0.816955
O O3 0.201680 0.000000 0.995793
O O4 0.250000 0.250000 0.000000
O O5 0.880651 0.500000 0.035286
O O6 0.868595 0.786014 0.106235
O O7 0.948508 0.724810 0.887790
O O8 0.500000 0.240947 0.500000
O O9 0.533539 0.500000 0.383680
O O10 0.530283 0.247103 0.300703
O O11 0.614194 0.282421 0.307906
O O12 0.906697 0.500000 0.318505
O O13 0.884090 0.727608 0.242321
O O14 0.828423 0.727618 0.456381
O O15 0.943534 0.784744 0.303794
O O16 0.028251 0.000000 0.206393
O O17 0.226648 0.256032 0.672741
O O18 0.157465 0.000000 0.750658
O O19 0.664768 0.248007 0.390562
O O20 0.634116 0.000000 0.335907
O O21 0.787768 0.500000 0.607881
#
# Coordination Sequence:
#
# PCOD8101849 Si02
#       8
#     8   8   8   8   8   8   8   8
#     4  11  22  38  60  88 124 162 206 253 307 370
#     4  12  25  42  64  92 125 163 211 265 317 369
#     4  10  22  39  59  88 125 162 206 257 305 361
#     4  11  23  40  64  95 126 159 208 263 314 372
#     4  11  24  43  64  88 124 170 213 256 316 378
#     4  11  22  42  67  92 127 167 207 253 316 380
#     4  10  20  36  59  87 119 160 203 244 299 365
#     4   9  19  38  63  92 128 164 202 254 311 376
#
# _framework density 21.131119000000002
#
# number of rings (size 3 to 8) (size 9 to 14) (size 15 to 20)
#    0.000    1.375    1.250    4.500    0.000    4.750 
#    0.000    5.000    0.000    0.000    0.000    0.000 
#    0.000    0.000    0.000    0.000    0.000    0.000 
#
# Total GULP energy -396966.313240 kJ/mol
# GULP energy per Si atom -12405.197289 kJ/mol
# Density = 2.108302 g / cm^3
# Si number density = 21.131119 Si / 1000 Ang^3
#
#
#
# Elastic Constant Matrix: (Units=GPa)
#
#
# Indices 1 2 3 4 5 6 
#
# 1 117.3600 13.8951 29.6972 -0.0002 10.9901 0.0000
# 2 13.8951 49.9144 17.7312 -0.0026 -1.5356 0.0025
# 3 29.6972 17.7312 102.5584 -0.0005 4.4930 0.0002
# 4 -0.0002 -0.0026 -0.0005 26.5332 0.0001 -2.3323
# 5 10.9901 -1.5356 4.4930 0.0001 37.3353 0.0000
# 6 0.0000 0.0025 0.0002 -2.3323 0.0000 33.6430
#
#
#
# Elastic Compliance Matrix: (Units=1/GPa)
#
#
# Indices 1 2 3 4 5 6 
#
# 1 0.009583 -0.001921 -0.002328 0.000000 -0.002620 0.000000
# 2 -0.001921 0.021796 -0.003293 0.000002 0.001858 -0.000001
# 3 -0.002328 -0.003293 0.011028 0.000000 -0.000777 0.000000
# 4 0.000000 0.000002 0.000000 0.037920 0.000000 0.002629
# 5 -0.002620 0.001858 -0.000777 0.000000 0.027725 0.000000
# 6 0.000000 -0.000001 0.000000 0.002629 0.000000 0.029906
#
#
# Mechanical properties :
#
#
# Convention : Reuss Voigt Hill
#
# Bulk Modulus (GPa) = 36.60075 43.60888 40.10481
# Shear Modulus (GPa) = 30.83556 33.40292 32.11924
#
# Velocity S-wave (km/s) = 3.82416 3.98017 3.90294
# Velocity P-wave (km/s) = 6.07102 6.46564 6.27143
#
# Compressibility (1/GPa) = 0.02732185
#
# Stress axis : x y z
#
# Youngs Moduli (GPa) = 104.35554 45.87952 90.67780
#
# Poissons Ratio (x) = 0.08815 0.21108
# Poissons Ratio (y) = 0.20049 0.29864
# Poissons Ratio (z) = 0.24292 0.15110
#
# Static dielectric constant tensor:
#      x y z
#    x 3.749020 0.000000 0.080020 
#    y 0.000000 3.616350 0.000000 
#    z 0.080020 0.000000 3.952310 
# 
# 
# High freq. dielectric constant tensor:
#      x y z
#    x 1.835760 0.000000 0.005860 
#    y 0.000000 1.811390 0.000000 
#    z 0.005860 0.000000 1.837310 
# 
# From -- ./inp_files/249672.got.cif
#   From: 2010.06.25/outbox.cif.g09.slc.cpg/sg12_125_cif.got.tgz:249672.got - 2010.06.28 00:19:55.
