data_PCOD8101866
_publ_section_title
;
Structure prediction by ZEFSAII (Michael W. Deem and Ramdas Pophale) SiO2 
 PCOD8101866
Probable space group: C 2/M
;
_chemical_formula_sum "Si O2"
_cell_formula_units_Z 64
_cell_length_a 13.158800
_cell_length_b 13.717566
_cell_length_c 31.513112
_cell_angle_alpha 90.000000
_cell_angle_beta 145.547104
_cell_angle_gamma 90.000000
_cell_volume 3218.049403
_symmetry_space_group_name_H-M "C 2/M"
_symmetry_group_IT_number 12
_symmetry_cell_setting 'monoclinic'
loop_
_space_group_symop_operation_xyz
x,y,z
-x,y,-z
-x,-y,-z
x,-y,z
1/2+x,1/2+y,z
1/2-x,1/2+y,-z
1/2-x,1/2-y,-z
1/2+x,1/2-y,z
loop_
_atom_site_type_symbol
_atom_site_label
_atom_site_fract_x
_atom_site_fract_y
_atom_site_fract_z
Si Si1 0.525268 0.193943 0.930387
Si Si2 0.358555 0.738938 0.189859
Si Si3 0.038545 0.286192 0.682012
Si Si4 0.373288 0.389268 0.761297
Si Si5 0.042641 0.389492 0.843104
Si Si6 0.123069 0.888939 0.928616
Si Si7 0.852809 0.109988 0.329089
Si Si8 0.317529 0.614110 0.414081
O O1 0.322703 0.173482 0.876100
O O2 0.565196 0.152546 0.897478
O O3 0.554978 0.311710 0.940586
O O4 0.668532 0.139530 0.010359
O O5 0.370173 0.783260 0.240614
O O6 0.534188 0.672029 0.244301
O O7 0.343380 0.826337 0.150904
O O8 0.172689 0.351264 0.699969
O O9 0.014176 0.180939 0.651016
O O10 0.842848 0.332836 0.616676
O O11 0.359418 0.500000 0.741726
O O12 0.503205 0.375097 0.845960
O O13 0.113909 0.500000 0.865670
O O14 0.835490 0.383490 0.759331
O O15 0.108744 0.000000 0.940673
O O16 0.828156 0.146479 0.368798
O O17 0.931205 0.000000 0.355052
O O18 0.500000 0.644617 0.500000
O O19 0.279066 0.500000 0.404055
#
# Coordination Sequence:
#
# PCOD8101866 Si02
#       8
#     8   8   8   8   8   8   8   8
#     4  11  22  39  59  79 118 154 196 244 302 350
#     4  12  21  37  56  88 111 149 194 243 287 345
#     4  12  20  39  63  87 119 155 194 238 293 337
#     4  11  23  38  56  85 116 149 196 247 293 345
#     4  11  21  37  58  85 114 148 196 244 290 345
#     4  10  21  39  58  79 113 155 197 246 302 352
#     4  10  20  36  59  88 119 153 194 237 283 342
#     4  10  22  39  62  93 123 154 193 233 282 348
#
# _framework density 19.887824999999999
#
# number of rings (size 3 to 8) (size 9 to 14) (size 15 to 20)
#    0.000    1.125    6.250    0.750    0.000    3.500 
#    0.000    1.250    0.000    2.625    0.000    0.000 
#    0.000    0.000    0.000    0.000    0.000    0.000 
#
# Total GULP energy -396810.444364 kJ/mol
# GULP energy per Si atom -12400.326386 kJ/mol
# Density = 1.984256 g / cm^3
# Si number density = 19.887825 Si / 1000 Ang^3
#
#
#
# Elastic Constant Matrix: (Units=GPa)
#
#
# Indices 1 2 3 4 5 6 
#
# 1 102.4097 42.6413 29.3475 0.0000 19.7541 0.0000
# 2 42.6413 105.3078 22.2830 0.0000 3.5832 0.0000
# 3 29.3475 22.2830 75.6461 0.0000 20.9588 0.0000
# 4 0.0000 0.0000 0.0000 15.1785 0.0000 10.9613
# 5 19.7541 3.5832 20.9588 0.0000 23.9029 0.0000
# 6 0.0000 0.0000 0.0000 10.9613 0.0000 23.4185
#
#
#
# Elastic Compliance Matrix: (Units=1/GPa)
#
#
# Indices 1 2 3 4 5 6 
#
# 1 0.014158 -0.005132 -0.001258 0.000000 -0.009828 0.000000
# 2 -0.005132 0.012026 -0.002942 0.000000 0.005018 0.000000
# 3 -0.001258 -0.002942 0.018709 0.000000 -0.014924 0.000000
# 4 0.000000 0.000000 0.000000 0.099523 0.000000 -0.046583
# 5 -0.009828 0.005018 -0.014924 0.000000 0.062292 0.000000
# 6 0.000000 0.000000 0.000000 -0.046583 0.000000 0.064505
#
#
# Mechanical properties :
#
#
# Convention : Reuss Voigt Hill
#
# Bulk Modulus (GPa) = 38.12549 52.43415 45.27982
# Shear Modulus (GPa) = 16.74369 25.10608 20.92488
#
# Velocity S-wave (km/s) = 2.90471 3.55686 3.24720
# Velocity P-wave (km/s) = 5.51921 6.57955 6.07257
#
# Compressibility (1/GPa) = 0.02622917
#
# Stress axis : x y z
#
# Youngs Moduli (GPa) = 70.63179 83.15419 53.45055
#
# Poissons Ratio (x) = 0.42677 0.06723
# Poissons Ratio (y) = 0.36250 0.15723
# Poissons Ratio (z) = 0.08884 0.24461
#
# Static dielectric constant tensor:
#      x y z
#    x 3.535070 0.000000 0.044670 
#    y 0.000000 3.928530 0.000000 
#    z 0.044670 0.000000 3.535590 
# 
# 
# High freq. dielectric constant tensor:
#      x y z
#    x 1.763610 0.000000 0.003280 
#    y 0.000000 1.783030 0.000000 
#    z 0.003280 0.000000 1.759750 
# 
# From -- ./inp_files/374111.got.cif
#   From: 2010.06.25/outbox.cif.g09.slc.cpg/sg12_188_cif.got.tgz:374111.got - 2010.06.28 00:19:55.
