data_PCOD8101158
_publ_section_title
;
Structure prediction by ZEFSAII (Michael W. Deem and Ramdas Pophale) SiO2 
 PCOD8101158
Probable space group: C 2/M
;
_chemical_formula_sum "Si O2"
_cell_formula_units_Z 36
_cell_length_a 10.028066
_cell_length_b 20.036138
_cell_length_c 10.467150
_cell_angle_alpha 90.000000
_cell_angle_beta 103.656712
_cell_angle_gamma 90.000000
_cell_volume 2043.639384
_symmetry_space_group_name_H-M "C 2/M"
_symmetry_group_IT_number 12
_symmetry_cell_setting 'monoclinic'
loop_
_space_group_symop_operation_xyz
x,y,z
-x,y,-z
-x,-y,-z
x,-y,z
1/2+x,1/2+y,z
1/2-x,1/2+y,-z
1/2-x,1/2-y,-z
1/2+x,1/2-y,z
loop_
_atom_site_type_symbol
_atom_site_label
_atom_site_fract_x
_atom_site_fract_y
_atom_site_fract_z
Si Si1 0.661277 0.808850 0.260812
Si Si2 0.574647 0.424533 0.384242
Si Si3 0.000000 0.734984 0.000000
Si Si4 0.369743 0.076522 0.553418
Si Si5 0.957161 0.799586 0.241462
O O1 0.637215 0.880095 0.319957
O O2 0.575993 0.751563 0.317893
O O3 0.821920 0.790206 0.297000
O O4 0.607536 0.811931 0.101249
O O5 0.500000 0.408946 0.500000
O O6 0.543631 0.500000 0.332193
O O7 0.736567 0.412354 0.435670
O O8 0.514614 0.374839 0.264292
O O9 0.923281 0.783145 0.085293
O O10 0.500000 0.098275 0.500000
O O11 0.380453 0.000000 0.601293
#
# Coordination Sequence:
#
# PCOD8101158 Si02
#       5
#     8   8   4   8   8
#     4  10  21  37  58  78 113 147 181 227 274 317
#     4  10  20  36  57  81 110 140 179 226 277 331
#     4   8  22  36  54  82 112 142 190 228 262 314
#     4  10  22  38  57  84 114 142 178 226 279 332
#     4  10  21  36  58  80 111 146 183 227 275 315
#
# _framework density 17.615632000000002
#
# number of rings (size 3 to 8) (size 9 to 14) (size 15 to 20)
#    1.333    0.889    2.222    0.667    3.111    1.778 
#    0.000    1.111    0.000    0.000    0.000    0.000 
#    0.000    0.000    0.000    0.000    0.000    0.000 
#
# Total GULP energy -223065.539424 kJ/mol
# GULP energy per Si atom -12392.529968 kJ/mol
# Density = 1.757554 g / cm^3
# Si number density = 17.615632 Si / 1000 Ang^3
#
#
#
# Elastic Constant Matrix: (Units=GPa)
#
#
# Indices 1 2 3 4 5 6 
#
# 1 153.8496 51.9146 30.4221 0.0000 -7.0725 0.0000
# 2 51.9146 111.2821 55.9269 0.0000 -2.2610 0.0000
# 3 30.4221 55.9269 70.0703 0.0000 -2.9532 0.0000
# 4 0.0000 0.0000 0.0000 26.9855 0.0000 -2.4682
# 5 -7.0725 -2.2610 -2.9532 0.0000 22.4250 0.0000
# 6 0.0000 0.0000 0.0000 -2.4682 0.0000 25.8298
#
#
#
# Elastic Compliance Matrix: (Units=1/GPa)
#
#
# Indices 1 2 3 4 5 6 
#
# 1 0.007833 -0.003251 -0.000720 0.000000 0.002048 0.000000
# 2 -0.003251 0.016354 -0.011680 0.000000 -0.000915 0.000000
# 3 -0.000720 -0.011680 0.023981 0.000000 0.001753 0.000000
# 4 0.000000 0.000000 0.000000 0.037384 0.000000 0.003572
# 5 0.002048 -0.000915 0.001753 0.000000 0.045378 0.000000
# 6 0.000000 0.000000 0.000000 0.003572 0.000000 0.039056
#
#
# Mechanical properties :
#
#
# Convention : Reuss Voigt Hill
#
# Bulk Modulus (GPa) = 59.29156 67.96991 63.63073
# Shear Modulus (GPa) = 24.16501 28.17726 26.17114
#
# Velocity S-wave (km/s) = 3.70779 4.00379 3.85863
# Velocity P-wave (km/s) = 7.21539 7.74871 7.48680
#
# Compressibility (1/GPa) = 0.01686581
#
# Stress axis : x y z
#
# Youngs Moduli (GPa) = 127.65934 61.14550 41.70034
#
# Poissons Ratio (x) = 0.19878 0.03002
# Poissons Ratio (y) = 0.41502 0.48708
# Poissons Ratio (z) = 0.09190 0.71421
#
# Static dielectric constant tensor:
#      x y z
#    x 3.433160 0.000000 0.021990 
#    y 0.000000 3.204560 0.000000 
#    z 0.021990 0.000000 2.911140 
# 
# 
# High freq. dielectric constant tensor:
#      x y z
#    x 1.699420 0.000000 0.001350 
#    y 0.000000 1.676370 0.000000 
#    z 0.001350 0.000000 1.646660 
# 
# From -- ./inp_files/119726.got.cif
#   From: 2010.06.25/outbox.cif.g09.slc.cpg/sg12_60_cif.got.tgz:119726.got - 2010.06.28 00:19:55.
