data_PCOD8101923
_publ_section_title
;
Structure prediction by ZEFSAII (Michael W. Deem and Ramdas Pophale) SiO2 
 PCOD8101923
Probable space group: C 2/M
;
_chemical_formula_sum "Si O2"
_cell_formula_units_Z 48
_cell_length_a 9.799338
_cell_length_b 21.893646
_cell_length_c 12.362462
_cell_angle_alpha 90.000000
_cell_angle_beta 112.546249
_cell_angle_gamma 90.000000
_cell_volume 2449.569534
_symmetry_space_group_name_H-M "C 2/M"
_symmetry_group_IT_number 12
_symmetry_cell_setting 'monoclinic'
loop_
_space_group_symop_operation_xyz
x,y,z
-x,y,-z
-x,-y,-z
x,-y,z
1/2+x,1/2+y,z
1/2-x,1/2+y,-z
1/2-x,1/2-y,-z
1/2+x,1/2-y,z
loop_
_atom_site_type_symbol
_atom_site_label
_atom_site_fract_x
_atom_site_fract_y
_atom_site_fract_z
Si Si1 0.366554 0.125641 0.157633
Si Si2 0.430259 0.000000 0.098245
Si Si3 0.152298 0.824616 0.256357
Si Si4 0.894220 0.000000 0.069029
Si Si5 0.331731 0.816516 0.748748
Si Si6 0.341198 0.690339 0.501630
Si Si7 0.344779 0.369866 0.110363
O O1 0.271037 0.129485 0.238436
O O2 0.491241 0.177763 0.198710
O O3 0.461783 0.062424 0.174085
O O4 0.249160 0.138048 0.027079
O O5 0.500000 0.000000 0.000000
O O6 0.257784 0.000000 0.038121
O O7 0.208283 0.755271 0.256846
O O8 0.139703 0.845172 0.378681
O O9 0.990673 0.828303 0.152055
O O10 0.905196 0.939274 0.145369
O O11 0.000000 0.000000 0.000000
O O12 0.256228 0.845646 0.617602
O O13 0.265875 0.852941 0.828602
O O14 0.500000 0.706752 0.500000
O O15 0.250000 0.750000 0.500000
#
# Coordination Sequence:
#
# PCOD8101923 Si02
#       7
#     8   4   8   4   8   8   8
#     4  11  23  36  60  90 117 157 194 242 297 345
#     4  10  20  40  60  81 116 158 210 235 271 350
#     4  11  23  37  59  87 123 153 192 242 294 353
#     4  10  20  36  60  81 110 158 204 235 271 344
#     4  11  23  37  59  87 121 155 193 238 296 349
#     4  10  22  40  62  83 114 161 207 236 277 351
#     4  11  21  38  58  86 121 153 195 239 292 350
#
# _framework density 19.595281
#
# number of rings (size 3 to 8) (size 9 to 14) (size 15 to 20)
#    0.000    1.333    1.667    6.000    7.000    4.000 
#    0.000    0.000    0.000    6.000    0.000    0.000 
#    0.000    0.000    0.000    0.000    0.000    0.000 
#
# Total GULP energy -297430.108964 kJ/mol
# GULP energy per Si atom -12392.921207 kJ/mol
# Density = 1.955068 g / cm^3
# Si number density = 19.595281 Si / 1000 Ang^3
#
#
#
# Elastic Constant Matrix: (Units=GPa)
#
#
# Indices 1 2 3 4 5 6 
#
# 1 152.9949 28.0266 55.1794 0.0000 -17.1681 0.0000
# 2 28.0266 65.3617 42.4743 0.0000 -8.1710 0.0000
# 3 55.1794 42.4743 112.3538 0.0000 -13.0787 0.0000
# 4 0.0000 0.0000 0.0000 5.6776 0.0000 -7.0243
# 5 -17.1681 -8.1710 -13.0787 0.0000 37.6353 0.0000
# 6 0.0000 0.0000 0.0000 -7.0243 0.0000 29.5610
#
#
#
# Elastic Compliance Matrix: (Units=1/GPa)
#
#
# Indices 1 2 3 4 5 6 
#
# 1 0.008203 -0.001039 -0.003363 0.000000 0.002348 0.000000
# 2 -0.001039 0.020533 -0.007075 0.000000 0.001526 0.000000
# 3 -0.003363 -0.007075 0.013412 0.000000 0.001591 0.000000
# 4 0.000000 0.000000 0.000000 0.249470 0.000000 0.059279
# 5 0.002348 0.001526 0.001591 0.000000 0.028526 0.000000
# 6 0.000000 0.000000 0.000000 0.059279 0.000000 0.047914
#
#
# Mechanical properties :
#
#
# Convention : Reuss Voigt Hill
#
# Bulk Modulus (GPa) = 52.09551 64.67456 58.38504
# Shear Modulus (GPa) = 12.58158 28.24346 20.41252
#
# Velocity S-wave (km/s) = 2.53666 3.80062 3.23105
# Velocity P-wave (km/s) = 5.93490 7.23439 6.61662
#
# Compressibility (1/GPa) = 0.01919551
#
# Stress axis : x y z
#
# Youngs Moduli (GPa) = 121.91220 48.70246 74.56260
#
# Poissons Ratio (x) = 0.05058 0.25072
# Poissons Ratio (y) = 0.12662 0.52750
# Poissons Ratio (z) = 0.40994 0.34455
#
# Static dielectric constant tensor:
#      x y z
#    x 3.673940 0.000000 -0.025410 
#    y 0.000000 2.428130 0.000000 
#    z -0.025410 0.000000 4.237570 
# 
# 
# High freq. dielectric constant tensor:
#      x y z
#    x 1.789730 0.000000 -0.002770 
#    y 0.000000 1.737450 0.000000 
#    z -0.002770 0.000000 1.755670 
# 
# From -- ./inp_files/122619.got.cif
#   From: 2010.06.25/outbox.cif.g09.slc.cpg/sg12_62_cif.got.tgz:122619.got - 2010.06.28 00:19:55.
