data_PCOD8101753
_publ_section_title
;
Structure prediction by ZEFSAII (Michael W. Deem and Ramdas Pophale) SiO2 
 PCOD8101753
Probable space group: C 2/M
;
_chemical_formula_sum "Si O2"
_cell_formula_units_Z 48
_cell_length_a 20.338741
_cell_length_b 9.152776
_cell_length_c 20.943571
_cell_angle_alpha 90.000000
_cell_angle_beta 41.525951
_cell_angle_gamma 90.000000
_cell_volume 2584.725564
_symmetry_space_group_name_H-M "C 2/M"
_symmetry_group_IT_number 12
_symmetry_cell_setting 'monoclinic'
loop_
_space_group_symop_operation_xyz
x,y,z
-x,y,-z
-x,-y,-z
x,-y,z
1/2+x,1/2+y,z
1/2-x,1/2+y,-z
1/2-x,1/2-y,-z
1/2+x,1/2-y,z
loop_
_atom_site_type_symbol
_atom_site_label
_atom_site_fract_x
_atom_site_fract_y
_atom_site_fract_z
Si Si1 0.845284 0.170518 0.957791
Si Si2 0.708934 0.172020 0.742305
Si Si3 0.605667 0.830082 0.451121
Si Si4 0.612615 0.669592 0.926437
Si Si5 0.536133 0.170391 0.770034
Si Si6 0.851511 0.668627 0.436909
O O1 0.941427 0.232830 0.853334
O O2 0.837941 0.000000 0.947879
O O3 0.750000 0.250000 0.000000
O O4 0.851368 0.200201 0.028496
O O5 0.812455 0.235442 0.643721
O O6 0.683902 0.238598 0.829141
O O7 0.624009 0.215462 0.753886
O O8 0.719753 0.000000 0.741373
O O9 0.500000 0.785120 0.500000
O O10 0.602443 0.791692 0.528306
O O11 0.629395 0.000000 0.422063
O O12 0.620459 0.500000 0.901906
O O13 0.500000 0.724925 0.000000
O O14 0.568559 0.211529 0.674811
O O15 0.508959 0.000000 0.796842
O O16 0.824593 0.500000 0.450365
O O17 0.750000 0.750000 0.500000
#
# Coordination Sequence:
#
# PCOD8101753 Si02
#       6
#     8   8   8   8   8   8
#     4  11  24  41  62  88 121 157 194 243 295 349
#     4  11  22  36  60  91 121 152 193 248 298 346
#     4  10  22  39  59  85 119 158 198 241 292 351
#     4  10  21  39  62  87 116 154 201 242 286 350
#     4  10  21  37  58  87 120 155 197 243 295 350
#     4  10  20  36  59  85 116 153 196 242 288 345
#
# _framework density 18.570637000000001
#
# number of rings (size 3 to 8) (size 9 to 14) (size 15 to 20)
#    0.000    1.667    3.333    1.000    0.000    4.667 
#    0.000    3.333    0.000    0.000    0.000    0.000 
#    0.000    0.000    0.000    0.000    0.000    0.000 
#
# Total GULP energy -297724.747388 kJ/mol
# GULP energy per Si atom -12405.197808 kJ/mol
# Density = 1.852837 g / cm^3
# Si number density = 18.570637 Si / 1000 Ang^3
#
#
#
# Elastic Constant Matrix: (Units=GPa)
#
#
# Indices 1 2 3 4 5 6 
#
# 1 146.6547 73.6178 87.7385 0.0000 -6.6658 0.0000
# 2 73.6178 89.1668 87.0326 0.0000 -4.8892 -0.0001
# 3 87.7385 87.0326 174.4154 0.0000 2.0548 0.0000
# 4 0.0000 0.0000 0.0000 36.0750 0.0000 -5.0091
# 5 -6.6658 -4.8892 2.0548 0.0000 31.9955 0.0000
# 6 0.0000 -0.0001 0.0000 -5.0091 0.0000 30.2890
#
#
#
# Elastic Compliance Matrix: (Units=1/GPa)
#
#
# Indices 1 2 3 4 5 6 
#
# 1 0.012109 -0.007707 -0.002263 0.000000 0.001491 0.000000
# 2 -0.007707 0.027304 -0.009786 0.000000 0.003195 0.000000
# 3 -0.002263 -0.009786 0.011787 0.000000 -0.002724 0.000000
# 4 0.000000 0.000000 0.000000 0.028372 0.000000 0.004692
# 5 0.001491 0.003195 -0.002724 0.000000 0.032228 0.000000
# 6 0.000000 0.000000 0.000000 0.004692 0.000000 0.033791
#
#
# Mechanical properties :
#
#
# Convention : Reuss Voigt Hill
#
# Bulk Modulus (GPa) = 85.54857 100.77941 93.16399
# Shear Modulus (GPa) = 26.45517 30.46176 28.45846
#
# Velocity S-wave (km/s) = 3.77844 4.05448 3.91889
# Velocity P-wave (km/s) = 8.07478 8.73524 8.41149
#
# Compressibility (1/GPa) = 0.01168927
#
# Stress axis : x y z
#
# Youngs Moduli (GPa) = 82.58200 36.62446 84.83841
#
# Poissons Ratio (x) = 0.28225 0.19203
# Poissons Ratio (y) = 0.63642 0.83019
# Poissons Ratio (z) = 0.18692 0.35839
#
# Static dielectric constant tensor:
#      x y z
#    x 3.844370 0.000000 0.002040 
#    y 0.000000 3.424720 0.000000 
#    z 0.002040 0.000000 3.550840 
# 
# 
# High freq. dielectric constant tensor:
#      x y z
#    x 1.725210 0.000000 0.006880 
#    y 0.000000 1.721730 0.000000 
#    z 0.006880 0.000000 1.732450 
# 
# From -- ./inp_files/244852.got.cif
#   From: 2010.06.25/outbox.cif.g09.slc.cpg/sg12_123_cif.got.tgz:244852.got - 2010.06.28 00:19:55.
