data_PCOD8101204
_publ_section_title
;
Structure prediction by ZEFSAII (Michael W. Deem and Ramdas Pophale) SiO2 
 PCOD8101204
Probable space group: C 2/M
;
_chemical_formula_sum "Si O2"
_cell_formula_units_Z 64
_cell_length_a 26.412631
_cell_length_b 8.851872
_cell_length_c 13.152904
_cell_angle_alpha 90.000000
_cell_angle_beta 99.972554
_cell_angle_gamma 90.000000
_cell_volume 3028.701899
_symmetry_space_group_name_H-M "C 2/M"
_symmetry_group_IT_number 12
_symmetry_cell_setting 'monoclinic'
loop_
_space_group_symop_operation_xyz
x,y,z
-x,y,-z
-x,-y,-z
x,-y,z
1/2+x,1/2+y,z
1/2-x,1/2+y,-z
1/2-x,1/2-y,-z
1/2+x,1/2-y,z
loop_
_atom_site_type_symbol
_atom_site_label
_atom_site_fract_x
_atom_site_fract_y
_atom_site_fract_z
Si Si1 0.328101 0.324348 0.855061
Si Si2 0.641798 0.675376 0.907782
Si Si3 0.396456 0.832254 0.574803
Si Si4 0.707373 0.827821 0.548689
Si Si5 0.542156 0.173695 0.588938
Si Si6 0.431891 0.322954 0.780371
Si Si7 0.720446 0.679109 0.761841
Si Si8 0.462117 0.179607 0.186509
O O1 0.321767 0.500000 0.826410
O O2 0.381146 0.263599 0.822024
O O3 0.278354 0.239266 0.795450
O O4 0.330717 0.294797 0.975745
O O5 0.629562 0.500000 0.886641
O O6 0.681532 0.736760 0.836476
O O7 0.587385 0.761883 0.891560
O O8 0.335844 0.818067 0.553974
O O9 0.405965 0.805416 0.457004
O O10 0.424620 0.714931 0.658405
O O11 0.415774 0.000000 0.613916
O O12 0.750000 0.750000 0.500000
O O13 0.696574 0.737610 0.648385
O O14 0.720237 0.000000 0.582448
O O15 0.500000 0.249933 0.500000
O O16 0.544824 0.247115 0.701223
O O17 0.527305 0.000000 0.602703
O O18 0.439123 0.500000 0.798474
O O19 0.483920 0.242790 0.839871
O O20 0.723223 0.500000 0.762878
O O21 0.462740 0.000000 0.180055
#
# Coordination Sequence:
#
# PCOD8101204 Si02
#       8
#     8   8   8   8   8   8   8   8
#     4  10  23  43  65  86 116 161 205 249 308 373
#     4  10  23  43  64  89 121 156 199 255 313 365
#     4  10  20  36  57  82 113 153 197 240 286 347
#     4  11  23  38  59  87 124 164 201 242 294 357
#     4   9  16  31  55  80 108 144 185 227 277 338
#     4  11  23  38  58  86 120 159 200 246 301 359
#     4  11  23  40  65  94 123 154 198 258 312 362
#     4  11  22  38  62  89 120 159 202 247 296 360
#
# _framework density 21.131163999999998
#
# number of rings (size 3 to 8) (size 9 to 14) (size 15 to 20)
#    0.000    1.625    1.250    3.375    0.000    7.000 
#    0.000    4.375    0.000    0.000    0.000    0.000 
#    0.000    0.000    0.000    0.000    0.000    0.000 
#
# Total GULP energy -396635.296929 kJ/mol
# GULP energy per Si atom -12394.853029 kJ/mol
# Density = 2.108307 g / cm^3
# Si number density = 21.131164 Si / 1000 Ang^3
#
#
#
# Elastic Constant Matrix: (Units=GPa)
#
#
# Indices 1 2 3 4 5 6 
#
# 1 128.6119 42.0657 13.6336 0.0000 3.5953 0.0000
# 2 42.0657 67.6605 18.9916 0.0000 5.1074 0.0000
# 3 13.6336 18.9916 59.2283 0.0000 0.8770 0.0000
# 4 0.0000 0.0000 0.0000 30.2755 0.0000 2.8600
# 5 3.5953 5.1074 0.8770 0.0000 29.5642 0.0000
# 6 0.0000 0.0000 0.0000 2.8600 0.0000 33.7482
#
#
#
# Elastic Compliance Matrix: (Units=1/GPa)
#
#
# Indices 1 2 3 4 5 6 
#
# 1 0.009767 -0.005968 -0.000332 0.000000 -0.000147 0.000000
# 2 -0.005968 0.020098 -0.005032 0.000000 -0.002597 0.000000
# 3 -0.000332 -0.005032 0.018569 0.000000 0.000359 0.000000
# 4 0.000000 0.000000 0.000000 0.033297 0.000000 -0.002822
# 5 -0.000147 -0.002597 0.000359 0.000000 0.034281 0.000000
# 6 0.000000 0.000000 0.000000 -0.002822 0.000000 0.029870
#
#
# Mechanical properties :
#
#
# Convention : Reuss Voigt Hill
#
# Bulk Modulus (GPa) = 38.80686 44.98694 41.89690
# Shear Modulus (GPa) = 28.22695 30.77158 29.49926
#
# Velocity S-wave (km/s) = 3.65882 3.82018 3.74037
# Velocity P-wave (km/s) = 6.02112 6.38702 6.20677
#
# Compressibility (1/GPa) = 0.02576864
#
# Stress axis : x y z
#
# Youngs Moduli (GPa) = 102.39050 49.75513 53.85410
#
# Poissons Ratio (x) = 0.29692 0.01790
# Poissons Ratio (y) = 0.61103 0.27102
# Poissons Ratio (z) = 0.03404 0.25039
#
# Static dielectric constant tensor:
#      x y z
#    x 4.296800 0.000000 0.261250 
#    y 0.000000 3.607470 0.000000 
#    z 0.261250 0.000000 4.606320 
# 
# 
# High freq. dielectric constant tensor:
#      x y z
#    x 1.849020 0.000000 -0.000960 
#    y 0.000000 1.806950 0.000000 
#    z -0.000960 0.000000 1.826680 
# 
# From -- ./inp_files/244082.got.cif
#   From: 2010.06.25/outbox.cif.g09.slc.cpg/sg12_123_cif.got.tgz:244082.got - 2010.06.28 00:19:55.
