data_PCOD8101398
_publ_section_title
;
Structure prediction by ZEFSAII (Michael W. Deem and Ramdas Pophale) SiO2 
 PCOD8101398
Probable space group: C 2/M
;
_chemical_formula_sum "Si O2"
_cell_formula_units_Z 56
_cell_length_a 14.354853
_cell_length_b 8.496048
_cell_length_c 24.652274
_cell_angle_alpha 90.000000
_cell_angle_beta 73.711492
_cell_angle_gamma 90.000000
_cell_volume 2885.900117
_symmetry_space_group_name_H-M "C 2/M"
_symmetry_group_IT_number 12
_symmetry_cell_setting 'monoclinic'
loop_
_space_group_symop_operation_xyz
x,y,z
-x,y,-z
-x,-y,-z
x,-y,z
1/2+x,1/2+y,z
1/2-x,1/2+y,-z
1/2-x,1/2-y,-z
1/2+x,1/2-y,z
loop_
_atom_site_type_symbol
_atom_site_label
_atom_site_fract_x
_atom_site_fract_y
_atom_site_fract_z
Si Si1 0.625663 0.686444 0.927567
Si Si2 0.283800 0.684549 0.654629
Si Si3 0.188463 0.815575 0.145157
Si Si4 0.591928 0.686130 0.051862
Si Si5 0.105140 0.317245 0.266696
Si Si6 0.918896 0.184047 0.349595
Si Si7 0.971634 0.813762 0.562619
O O1 0.640530 0.500000 0.918930
O O2 0.697389 0.778292 0.875495
O O3 0.519245 0.740982 0.926770
O O4 0.641518 0.743036 0.987538
O O5 0.293684 0.500000 0.663691
O O6 0.307118 0.770151 0.707433
O O7 0.176890 0.722953 0.651506
O O8 0.363329 0.741050 0.597142
O O9 0.146605 0.747266 0.095395
O O10 0.137461 0.719718 0.200833
O O11 0.169432 0.000000 0.156768
O O12 0.594643 0.500000 0.051419
O O13 0.081705 0.500000 0.276946
O O14 0.007126 0.220634 0.294622
O O15 0.950564 0.240150 0.404704
O O16 0.895805 0.000000 0.351297
O O17 0.000000 0.736988 0.500000
O O18 0.974093 0.000000 0.557687
#
# Coordination Sequence:
#
# PCOD8101398 Si02
#       7
#     8   8   8   8   8   8   8
#     4   9  17  34  55  76 101 136 177 211 254 318
#     4  10  20  36  58  82 110 145 183 224 271 323
#     4  11  21  34  52  78 107 135 170 219 276 325
#     4   8  17  33  54  75 102 137 171 210 259 319
#     4  11  23  39  56  76 104 141 186 233 276 321
#     4  10  20  36  58  82 111 147 183 222 270 322
#     4   8  16  32  54  82 116 149 182 221 262 309
#
# _framework density 19.404691
#
# number of rings (size 3 to 8) (size 9 to 14) (size 15 to 20)
#    0.000    2.429    0.000    4.714    0.000    1.714 
#    0.000    7.857    0.000   14.571    0.000    0.000 
#    0.000    0.000    0.000    0.000    0.000    0.000 
#
# Total GULP energy -347168.900840 kJ/mol
# GULP energy per Si atom -12398.889316 kJ/mol
# Density = 1.936053 g / cm^3
# Si number density = 19.404691 Si / 1000 Ang^3
#
#
#
# Elastic Constant Matrix: (Units=GPa)
#
#
# Indices 1 2 3 4 5 6 
#
# 1 93.7630 5.4452 35.0196 0.0000 -2.6009 0.0000
# 2 5.4452 43.7023 13.3830 0.0000 2.4559 0.0000
# 3 35.0196 13.3830 107.3306 0.0000 -6.3263 0.0000
# 4 0.0000 0.0000 0.0000 20.7656 0.0000 -1.6099
# 5 -2.6009 2.4559 -6.3263 0.0000 18.3947 0.0000
# 6 0.0000 0.0000 0.0000 -1.6099 0.0000 28.6028
#
#
#
# Elastic Compliance Matrix: (Units=1/GPa)
#
#
# Indices 1 2 3 4 5 6 
#
# 1 0.012153 -0.000345 -0.003897 0.000000 0.000424 0.000000
# 2 -0.000345 0.024136 -0.003154 0.000000 -0.004356 0.000000
# 3 -0.003897 -0.003154 0.011201 0.000000 0.003722 0.000000
# 4 0.000000 0.000000 0.000000 0.048368 0.000000 0.002722
# 5 0.000424 -0.004356 0.003722 0.000000 0.056285 0.000000
# 6 0.000000 0.000000 0.000000 0.002722 0.000000 0.035115
#
#
# Mechanical properties :
#
#
# Convention : Reuss Voigt Hill
#
# Bulk Modulus (GPa) = 30.58259 39.16572 34.87415
# Shear Modulus (GPa) = 23.47997 26.28249 24.88123
#
# Velocity S-wave (km/s) = 3.48230 3.68426 3.58471
# Velocity P-wave (km/s) = 5.65360 6.19079 5.92828
#
# Compressibility (1/GPa) = 0.03269834
#
# Stress axis : x y z
#
# Youngs Moduli (GPa) = 82.28755 41.43259 89.27610
#
# Poissons Ratio (x) = 0.01428 0.34792
# Poissons Ratio (y) = 0.02835 0.28156
# Poissons Ratio (z) = 0.32069 0.13067
#
# Static dielectric constant tensor:
#      x y z
#    x 3.633530 0.000000 0.122370 
#    y 0.000000 3.255570 0.000000 
#    z 0.122370 0.000000 3.796380 
# 
# 
# High freq. dielectric constant tensor:
#      x y z
#    x 1.758960 0.000000 -0.002930 
#    y 0.000000 1.735420 0.000000 
#    z -0.002930 0.000000 1.757150 
# 
# From -- ./inp_files/337844.got.cif
#   From: 2010.06.25/outbox.cif.g09.slc.cpg/sg12_169_cif.got.tgz:337844.got - 2010.06.28 00:19:55.
