data_PCOD8101536
_publ_section_title
;
Structure prediction by ZEFSAII (Michael W. Deem and Ramdas Pophale) SiO2 
 PCOD8101536
Probable space group: C 2/M
;
_chemical_formula_sum "Si O2"
_cell_formula_units_Z 64
_cell_length_a 18.673526
_cell_length_b 9.156286
_cell_length_c 23.729341
_cell_angle_alpha 90.000000
_cell_angle_beta 57.843699
_cell_angle_gamma 90.000000
_cell_volume 3434.861920
_symmetry_space_group_name_H-M "C 2/M"
_symmetry_group_IT_number 12
_symmetry_cell_setting 'monoclinic'
loop_
_space_group_symop_operation_xyz
x,y,z
-x,y,-z
-x,-y,-z
x,-y,z
1/2+x,1/2+y,z
1/2-x,1/2+y,-z
1/2-x,1/2-y,-z
1/2+x,1/2-y,z
loop_
_atom_site_type_symbol
_atom_site_label
_atom_site_fract_x
_atom_site_fract_y
_atom_site_fract_z
Si Si1 0.829717 0.834118 0.718929
Si Si2 0.102682 0.168811 0.102766
Si Si3 0.513640 0.333963 0.673781
Si Si4 0.289452 0.671828 0.309502
Si Si5 0.959320 0.673274 0.225008
Si Si6 0.696296 0.332920 0.568169
Si Si7 0.093389 0.831473 0.975928
Si Si8 0.746138 0.330196 0.128636
O O1 0.793321 0.722375 0.688818
O O2 0.801030 0.790921 0.793672
O O3 0.930676 0.816686 0.670746
O O4 0.802069 0.000000 0.716569
O O5 0.185671 0.219971 0.102476
O O6 0.023916 0.270355 0.151105
O O7 0.081640 0.000000 0.125976
O O8 0.118195 0.192191 0.030407
O O9 0.520529 0.500000 0.695297
O O10 0.507665 0.222842 0.727917
O O11 0.596258 0.300925 0.601239
O O12 0.303905 0.500000 0.296569
O O13 0.368558 0.756519 0.249409
O O14 0.278391 0.716051 0.379408
O O15 0.952359 0.500000 0.225128
O O16 0.718379 0.500000 0.549536
O O17 0.750000 0.250000 0.500000
O O18 0.164247 0.751195 0.909415
O O19 0.096055 0.000000 0.957341
O O20 0.000000 0.768704 0.000000
O O21 0.766060 0.500000 0.115359
#
# Coordination Sequence:
#
# PCOD8101536 Si02
#       8
#     8   8   8   8   8   8   8   8
#     4  10  20  36  58  85 115 146 188 235 281 336
#     4  10  20  38  58  76 109 151 185 227 289 343
#     4   9  18  37  59  82 117 153 184 223 279 335
#     4  10  22  38  56  81 117 154 186 226 284 334
#     4  11  21  33  55  86 111 141 190 236 275 329
#     4   9  19  36  60  85 112 152 191 226 271 326
#     4  10  23  39  55  79 108 143 190 236 284 344
#     4  10  21  37  58  80 107 147 186 230 287 336
#
# _framework density 18.632480999999999
#
# number of rings (size 3 to 8) (size 9 to 14) (size 15 to 20)
#    0.000    2.125    1.250    2.625    1.750    4.750 
#    0.000    0.625    0.000    3.750    0.000    0.000 
#    0.000    0.000    0.000    0.000    0.000    0.000 
#
# Total GULP energy -396853.997068 kJ/mol
# GULP energy per Si atom -12401.687408 kJ/mol
# Density = 1.859007 g / cm^3
# Si number density = 18.632481 Si / 1000 Ang^3
#
#
#
# Elastic Constant Matrix: (Units=GPa)
#
#
# Indices 1 2 3 4 5 6 
#
# 1 127.6343 43.1136 50.0546 0.0000 -10.7385 0.0001
# 2 43.1136 77.7355 42.1074 0.0001 -6.4483 0.0000
# 3 50.0546 42.1074 93.4356 0.0000 -18.0709 0.0000
# 4 0.0000 0.0001 0.0000 31.7863 0.0000 -3.5192
# 5 -10.7385 -6.4483 -18.0709 0.0000 23.3463 0.0000
# 6 0.0001 0.0000 0.0000 -3.5192 0.0000 31.4294
#
#
#
# Elastic Compliance Matrix: (Units=1/GPa)
#
#
# Indices 1 2 3 4 5 6 
#
# 1 0.010696 -0.003768 -0.003860 0.000000 0.000892 0.000000
# 2 -0.003768 0.018388 -0.006611 0.000000 -0.001771 0.000000
# 3 -0.003860 -0.006611 0.017703 0.000000 0.010102 0.000000
# 4 0.000000 0.000000 0.000000 0.031855 0.000000 0.003567
# 5 0.000892 -0.001771 0.010102 0.000000 0.050573 0.000000
# 6 0.000000 0.000000 0.000000 0.003567 0.000000 0.032217
#
#
# Mechanical properties :
#
#
# Convention : Reuss Voigt Hill
#
# Bulk Modulus (GPa) = 54.61241 63.26184 58.93713
# Shear Modulus (GPa) = 25.50864 28.21438 26.86151
#
# Velocity S-wave (km/s) = 3.70407 3.89557 3.80103
# Velocity P-wave (km/s) = 6.90416 7.36615 7.13889
#
# Compressibility (1/GPa) = 0.01831086
#
# Stress axis : x y z
#
# Youngs Moduli (GPa) = 93.49059 54.38423 56.48723
#
# Poissons Ratio (x) = 0.20490 0.21803
# Poissons Ratio (y) = 0.35224 0.37342
# Poissons Ratio (z) = 0.36085 0.35952
#
# Static dielectric constant tensor:
#      x y z
#    x 3.524310 0.000000 -0.108950 
#    y 0.000000 3.335190 0.000000 
#    z -0.108950 0.000000 3.242750 
# 
# 
# High freq. dielectric constant tensor:
#      x y z
#    x 1.729080 0.000000 -0.010620 
#    y 0.000000 1.717120 0.000000 
#    z -0.010620 0.000000 1.710670 
# 
# From -- ./inp_files/346067.got.cif
#   From: 2010.06.25/outbox.cif.g09.slc.cpg/sg12_174_cif.got.tgz:346067.got - 2010.06.28 00:19:55.
