data_PCOD8101326
_publ_section_title
;
Structure prediction by ZEFSAII (Michael W. Deem and Ramdas Pophale) SiO2 
 PCOD8101326
Probable space group: C 2/M
;
_chemical_formula_sum "Si O2"
_cell_formula_units_Z 48
_cell_length_a 17.727865
_cell_length_b 9.084930
_cell_length_c 30.605424
_cell_angle_alpha 90.000000
_cell_angle_beta 29.822328
_cell_angle_gamma 90.000000
_cell_volume 2451.350647
_symmetry_space_group_name_H-M "C 2/M"
_symmetry_group_IT_number 12
_symmetry_cell_setting 'monoclinic'
loop_
_space_group_symop_operation_xyz
x,y,z
-x,y,-z
-x,-y,-z
x,-y,z
1/2+x,1/2+y,z
1/2-x,1/2+y,-z
1/2-x,1/2-y,-z
1/2+x,1/2-y,z
loop_
_atom_site_type_symbol
_atom_site_label
_atom_site_fract_x
_atom_site_fract_y
_atom_site_fract_z
Si Si1 0.947699 0.826520 0.144739
Si Si2 0.608827 0.174926 0.652825
Si Si3 0.073807 0.326839 0.508836
Si Si4 0.549947 0.670395 0.189534
Si Si5 0.398651 0.828865 0.011053
Si Si6 0.892456 0.674182 0.684565
O O1 0.777448 0.762447 0.224881
O O2 0.010288 0.782560 0.160501
O O3 0.059473 0.755800 0.053723
O O4 0.950881 0.000000 0.136098
O O5 0.772851 0.239000 0.560273
O O6 0.551337 0.230636 0.728233
O O7 0.496006 0.234502 0.671869
O O8 0.617778 0.000000 0.648608
O O9 0.109340 0.500000 0.492845
O O10 0.000000 0.281867 0.500000
O O11 0.958849 0.276306 0.604540
O O12 0.508848 0.500000 0.218404
O O13 0.725492 0.703074 0.110531
O O14 0.427889 0.000000 0.987737
O O15 0.500000 0.769444 0.000000
O O16 0.885704 0.500000 0.689714
#
# Coordination Sequence:
#
# PCOD8101326 Si02
#       6
#     8   8   8   8   8   8
#     4  10  20  36  58  80 104 139 184 226 263 314
#     4  11  22  35  54  81 111 139 174 224 272 314
#     4  10  20  37  60  80 105 144 182 216 261 319
#     4  10  21  37  56  78 107 145 184 219 264 324
#     4  10  21  36  54  80 113 144 177 221 271 321
#     4   9  19  35  54  79 108 139 178 221 266 319
#
# _framework density 19.581042
#
# number of rings (size 3 to 8) (size 9 to 14) (size 15 to 20)
#    0.000    2.000    0.000    3.500    0.000    4.667 
#    0.000    2.500    0.000    0.000    0.000    0.000 
#    0.000    0.000    0.000    0.000    0.000    0.000 
#
# Total GULP energy -297710.029671 kJ/mol
# GULP energy per Si atom -12404.584570 kJ/mol
# Density = 1.953647 g / cm^3
# Si number density = 19.581042 Si / 1000 Ang^3
#
#
#
# Elastic Constant Matrix: (Units=GPa)
#
#
# Indices 1 2 3 4 5 6 
#
# 1 83.5943 15.7401 -0.1487 0.0081 -3.3403 0.0413
# 2 15.7401 32.7921 13.3746 0.0058 2.7660 0.0091
# 3 -0.1487 13.3746 56.0978 -0.0054 6.1413 -0.0104
# 4 0.0081 0.0058 -0.0054 30.2824 -0.0003 -4.3877
# 5 -3.3403 2.7660 6.1413 -0.0003 41.3448 0.0075
# 6 0.0413 0.0091 -0.0104 -4.3877 0.0075 13.5749
#
#
#
# Elastic Compliance Matrix: (Units=1/GPa)
#
#
# Indices 1 2 3 4 5 6 
#
# 1 0.013371 -0.007183 0.001603 -0.000007 0.001323 -0.000038
# 2 -0.007183 0.037687 -0.008808 -0.000009 -0.001793 -0.000012
# 3 0.001603 -0.008808 0.020180 0.000008 -0.002279 0.000020
# 4 -0.000007 -0.000009 0.000008 0.034645 -0.000003 0.011198
# 5 0.001323 -0.001793 -0.002279 -0.000003 0.024752 -0.000019
# 6 -0.000038 -0.000012 0.000020 0.011198 -0.000019 0.077285
#
#
# Mechanical properties :
#
#
# Convention : Reuss Voigt Hill
#
# Bulk Modulus (GPa) = 23.55087 25.60181 24.57634
# Shear Modulus (GPa) = 19.93227 26.60829 23.27028
#
# Velocity S-wave (km/s) = 3.19397 3.69030 3.45107
# Velocity P-wave (km/s) = 5.06512 5.59115 5.33462
#
# Compressibility (1/GPa) = 0.04246128
#
# Stress axis : x y z
#
# Youngs Moduli (GPa) = 74.78966 26.53448 49.55480
#
# Poissons Ratio (x) = 0.19061 -0.07945
# Poissons Ratio (y) = 0.53725 0.43647
# Poissons Ratio (z) = -0.11991 0.23371
#
# Static dielectric constant tensor:
#      x y z
#    x 3.839180 -0.000040 -0.121720 
#    y -0.000040 3.287210 0.000000 
#    z -0.121720 0.000000 3.647000 
# 
# 
# High freq. dielectric constant tensor:
#      x y z
#    x 1.781370 0.000000 -0.002480 
#    y 0.000000 1.735970 0.000000 
#    z -0.002480 0.000000 1.777120 
# 
# From -- ./inp_files/274016.got.cif
#   From: 2010.06.25/outbox.cif.g09.slc.cpg/sg12_138_cif.got.tgz:274016.got - 2010.06.28 00:19:55.
