data_PCOD8101711
_publ_section_title
;
Structure prediction by ZEFSAII (Michael W. Deem and Ramdas Pophale) SiO2 
 PCOD8101711
Probable space group: C 2/M
;
_chemical_formula_sum "Si O2"
_cell_formula_units_Z 48
_cell_length_a 14.483566
_cell_length_b 11.739033
_cell_length_c 29.105374
_cell_angle_alpha 90.000000
_cell_angle_beta 29.812102
_cell_angle_gamma 90.000000
_cell_volume 2460.224721
_symmetry_space_group_name_H-M "C 2/M"
_symmetry_group_IT_number 12
_symmetry_cell_setting 'monoclinic'
loop_
_space_group_symop_operation_xyz
x,y,z
-x,y,-z
-x,-y,-z
x,-y,z
1/2+x,1/2+y,z
1/2-x,1/2+y,-z
1/2-x,1/2-y,-z
1/2+x,1/2-y,z
loop_
_atom_site_type_symbol
_atom_site_label
_atom_site_fract_x
_atom_site_fract_y
_atom_site_fract_z
Si Si1 0.594194 0.878483 0.096397
Si Si2 0.252535 0.692247 0.705580
Si Si3 0.957266 0.241317 0.966213
Si Si4 0.771169 0.630896 0.775702
Si Si5 0.661606 0.629488 0.520953
Si Si6 0.658768 0.870147 0.650375
O O1 0.413131 0.888348 0.206126
O O2 0.525222 0.849073 0.074762
O O3 0.693281 0.000000 0.051344
O O4 0.743079 0.795141 0.054895
O O5 0.238685 0.808305 0.740833
O O6 0.448021 0.629595 0.628143
O O7 0.219844 0.713641 0.665340
O O8 0.102884 0.147771 0.884464
O O9 0.000000 0.274937 0.000000
O O10 0.788784 0.500000 0.755326
O O11 0.962290 0.675035 0.715584
O O12 0.739014 0.500000 0.503216
O O13 0.750000 0.750000 0.500000
O O14 0.683807 0.635447 0.456597
O O15 0.639338 0.000000 0.677013
#
# Coordination Sequence:
#
# PCOD8101711 Si02
#       6
#     8   8   8   8   8   8
#     4  10  21  36  55  82 112 145 185 231 281 334
#     4  11  21  36  60  84 114 147 193 240 283 338
#     4  10  21  36  56  82 113 147 187 231 279 338
#     4  10  21  37  58  83 116 152 188 236 289 337
#     4  11  22  38  60  87 117 153 193 241 292 345
#     4  10  20  36  59  85 111 149 194 233 278 338
#
# _framework density 19.510413
#
# number of rings (size 3 to 8) (size 9 to 14) (size 15 to 20)
#    0.000    1.667    1.667    3.500    0.000    4.333 
#    0.000    0.833    0.000    6.000    0.000    0.000 
#    0.000    0.000    0.000    0.000    0.000    0.000 
#
# Total GULP energy -297319.167221 kJ/mol
# GULP energy per Si atom -12388.298634 kJ/mol
# Density = 1.946601 g / cm^3
# Si number density = 19.510413 Si / 1000 Ang^3
#
#
#
# Elastic Constant Matrix: (Units=GPa)
#
#
# Indices 1 2 3 4 5 6 
#
# 1 96.4039 23.5822 30.3178 0.0002 17.3422 0.0001
# 2 23.5822 74.3418 15.9238 0.0001 7.4844 0.0001
# 3 30.3178 15.9238 123.6608 0.0010 -1.9342 -0.0003
# 4 0.0002 0.0001 0.0010 15.6125 0.0000 -4.9053
# 5 17.3422 7.4844 -1.9342 0.0000 35.7130 -0.0001
# 6 0.0001 0.0001 -0.0003 -4.9053 -0.0001 20.0070
#
#
#
# Elastic Compliance Matrix: (Units=1/GPa)
#
#
# Indices 1 2 3 4 5 6 
#
# 1 0.013066 -0.002927 -0.002919 0.000000 -0.005890 0.000000
# 2 -0.002927 0.014817 -0.001218 0.000000 -0.001750 0.000000
# 3 -0.002919 -0.001218 0.008993 -0.000001 0.002160 0.000000
# 4 0.000000 0.000000 -0.000001 0.069397 0.000000 0.017015
# 5 -0.005890 -0.001750 0.002160 0.000000 0.031345 0.000000
# 6 0.000000 0.000000 0.000000 0.017015 0.000000 0.054154
#
#
# Mechanical properties :
#
#
# Convention : Reuss Voigt Hill
#
# Bulk Modulus (GPa) = 43.95691 48.22824 46.09257
# Shear Modulus (GPa) = 23.42124 29.23868 26.32996
#
# Velocity S-wave (km/s) = 3.46851 3.87540 3.67759
# Velocity P-wave (km/s) = 6.21447 6.69312 6.45823
#
# Compressibility (1/GPa) = 0.02274955
#
# Stress axis : x y z
#
# Youngs Moduli (GPa) = 76.53242 67.49100 111.19995
#
# Poissons Ratio (x) = 0.19753 0.32456
# Poissons Ratio (y) = 0.22399 0.13542
# Poissons Ratio (z) = 0.22338 0.08219
#
# Static dielectric constant tensor:
#      x y z
#    x 3.515870 0.000000 -0.054160 
#    y 0.000000 3.489810 0.000000 
#    z -0.054160 0.000000 3.811300 
# 
# 
# High freq. dielectric constant tensor:
#      x y z
#    x 1.748070 0.000000 -0.004300 
#    y 0.000000 1.739860 0.000000 
#    z -0.004300 0.000000 1.783950 
# 
# From -- ./inp_files/212501.got.cif
#   From: 2010.06.25/outbox.cif.g09.slc.cpg/sg12_107_cif.got.tgz:212501.got - 2010.06.28 00:19:55.
