data_PCOD8101504
_publ_section_title
;
Structure prediction by ZEFSAII (Michael W. Deem and Ramdas Pophale) SiO2 
 PCOD8101504
Probable space group: C 2/M
;
_chemical_formula_sum "Si O2"
_cell_formula_units_Z 56
_cell_length_a 20.745723
_cell_length_b 9.149689
_cell_length_c 30.930689
_cell_angle_alpha 90.000000
_cell_angle_beta 29.308988
_cell_angle_gamma 90.000000
_cell_volume 2874.049701
_symmetry_space_group_name_H-M "C 2/M"
_symmetry_group_IT_number 12
_symmetry_cell_setting 'monoclinic'
loop_
_space_group_symop_operation_xyz
x,y,z
-x,y,-z
-x,-y,-z
x,-y,z
1/2+x,1/2+y,z
1/2-x,1/2+y,-z
1/2-x,1/2-y,-z
1/2+x,1/2-y,z
loop_
_atom_site_type_symbol
_atom_site_label
_atom_site_fract_x
_atom_site_fract_y
_atom_site_fract_z
Si Si1 0.125658 0.170132 0.456204
Si Si2 0.161999 0.331085 0.273364
Si Si3 0.647918 0.169974 0.902768
Si Si4 0.131017 0.326645 0.544316
Si Si5 0.765645 0.831407 0.304044
Si Si6 0.941133 0.830946 0.890103
Si Si7 0.772157 0.668739 0.051421
O O1 0.122538 0.263055 0.501372
O O2 0.245251 0.227982 0.357145
O O3 0.000000 0.201290 0.500000
O O4 0.143204 0.000000 0.457392
O O5 0.194366 0.500000 0.246546
O O6 0.274612 0.245165 0.181690
O O7 0.170316 0.294036 0.319604
O O8 0.009875 0.294588 0.349408
O O9 0.739522 0.200283 0.890907
O O10 0.636917 0.000000 0.897458
O O11 0.500000 0.230030 0.000000
O O12 0.156883 0.500000 0.526908
O O13 0.250000 0.250000 0.500000
O O14 0.909662 0.792336 0.204081
O O15 0.750515 0.000000 0.327209
O O16 0.858959 0.775850 0.896267
O O17 0.916157 0.000000 0.912520
O O18 0.898863 0.750205 0.958382
O O19 0.797983 0.500000 0.027772
#
# Coordination Sequence:
#
# PCOD8101504 Si02
#       7
#     8   8   8   8   8   8   8
#     4  11  23  39  62  91 120 153 198 246 295 357
#     4  10  22  38  58  84 114 151 195 246 298 358
#     4  10  21  35  53  79 114 154 193 236 289 351
#     4  11  24  43  65  90 124 162 203 252 311 369
#     4  10  20  36  58  84 114 148 192 241 297 353
#     4   9  18  32  53  79 105 140 185 232 283 344
#     4   9  18  33  50  73 108 144 183 230 283 338
#
# _framework density 19.484701000000001
#
# number of rings (size 3 to 8) (size 9 to 14) (size 15 to 20)
#    0.000    2.000    1.429    1.714    0.000    4.857 
#    0.000    1.429    0.000    0.000    0.000    0.000 
#    0.000    0.000    0.000    0.000    0.000    0.000 
#
# Total GULP energy -347105.478826 kJ/mol
# GULP energy per Si atom -12396.624244 kJ/mol
# Density = 1.944035 g / cm^3
# Si number density = 19.484701 Si / 1000 Ang^3
#
#
#
# Elastic Constant Matrix: (Units=GPa)
#
#
# Indices 1 2 3 4 5 6 
#
# 1 71.3148 42.3339 56.9301 0.0161 -10.0697 -0.0930
# 2 42.3339 72.1520 55.5149 0.0268 -0.8632 -0.0038
# 3 56.9301 55.5149 86.1565 -0.0193 9.4201 -0.0022
# 4 0.0161 0.0268 -0.0193 37.2180 -0.0067 3.1200
# 5 -10.0697 -0.8632 9.4201 -0.0067 24.2080 0.0074
# 6 -0.0930 -0.0038 -0.0022 3.1200 0.0074 29.7556
#
#
#
# Elastic Compliance Matrix: (Units=1/GPa)
#
#
# Indices 1 2 3 4 5 6 
#
# 1 0.044996 -0.001019 -0.032501 -0.000041 0.031328 0.000135
# 2 -0.001019 0.029172 -0.018999 -0.000029 0.008009 0.000000
# 3 -0.032501 -0.018999 0.048960 0.000055 -0.033249 -0.000098
# 4 -0.000041 -0.000029 0.000055 0.027107 -0.000031 -0.002842
# 5 0.031328 0.008009 -0.033249 -0.000031 0.067564 0.000083
# 6 0.000135 0.000000 -0.000098 -0.002842 0.000083 0.033906
#
#
# Mechanical properties :
#
#
# Convention : Reuss Voigt Hill
#
# Bulk Modulus (GPa) = 55.28071 59.90902 57.59487
# Shear Modulus (GPa) = 13.78275 23.22597 18.50436
#
# Velocity S-wave (km/s) = 2.66251 3.45630 3.08504
# Velocity P-wave (km/s) = 6.15507 6.83677 6.50486
#
# Compressibility (1/GPa) = 0.01808949
#
# Stress axis : x y z
#
# Youngs Moduli (GPa) = 22.22398 34.28002 20.42486
#
# Poissons Ratio (x) = 0.03494 0.66383
# Poissons Ratio (y) = 0.02265 0.38805
# Poissons Ratio (z) = 0.72230 0.65128
#
# Static dielectric constant tensor:
#      x y z
#    x 3.773460 0.000000 -0.130080 
#    y 0.000000 3.481240 0.000000 
#    z -0.130080 0.000000 3.555840 
# 
# 
# High freq. dielectric constant tensor:
#      x y z
#    x 1.763950 0.000000 -0.005020 
#    y 0.000000 1.752780 0.000000 
#    z -0.005020 0.000000 1.760740 
# 
# From -- ./inp_files/380646.got.cif
#   From: 2010.06.25/outbox.cif.g09.slc.cpg/sg12_191_cif.got.tgz:380646.got - 2010.06.28 00:19:55.
