data_PCOD8101434
_publ_section_title
;
Structure prediction by ZEFSAII (Michael W. Deem and Ramdas Pophale) SiO2 
 PCOD8101434
Probable space group: C 2/M
;
_chemical_formula_sum "Si O2"
_cell_formula_units_Z 64
_cell_length_a 30.867675
_cell_length_b 9.406758
_cell_length_c 11.906437
_cell_angle_alpha 90.000000
_cell_angle_beta 89.182332
_cell_angle_gamma 90.000000
_cell_volume 3456.857544
_symmetry_space_group_name_H-M "C 2/M"
_symmetry_group_IT_number 12
_symmetry_cell_setting 'monoclinic'
loop_
_space_group_symop_operation_xyz
x,y,z
-x,y,-z
-x,-y,-z
x,-y,z
1/2+x,1/2+y,z
1/2-x,1/2+y,-z
1/2-x,1/2-y,-z
1/2+x,1/2-y,z
loop_
_atom_site_type_symbol
_atom_site_label
_atom_site_fract_x
_atom_site_fract_y
_atom_site_fract_z
Si Si1 0.826185 0.339805 0.283648
Si Si2 0.952081 0.836575 0.009022
Si Si3 0.503506 0.167265 0.370088
Si Si4 0.422168 0.334432 0.761290
Si Si5 0.672651 0.336753 0.273049
Si Si6 0.293085 0.336315 0.484479
Si Si7 0.074831 0.659774 0.786033
Si Si8 0.751104 0.332459 0.116705
O O1 0.813070 0.500000 0.322665
O O2 0.820087 0.227079 0.381788
O O3 0.876613 0.331375 0.258309
O O4 0.796515 0.298907 0.177657
O O5 0.929596 0.813393 0.891969
O O6 0.954165 0.000000 0.045650
O O7 0.925631 0.756171 0.104575
O O8 0.000000 0.771278 0.000000
O O9 0.500000 0.213877 0.500000
O O10 0.543580 0.248824 0.313622
O O11 0.459024 0.211601 0.308286
O O12 0.512490 0.000000 0.360079
O O13 0.425241 0.500000 0.725881
O O14 0.374323 0.267475 0.746415
O O15 0.669871 0.500000 0.238399
O O16 0.680081 0.316354 0.403837
O O17 0.711709 0.272537 0.196227
O O18 0.282369 0.500000 0.460380
O O19 0.250000 0.250000 0.500000
O O20 0.062638 0.500000 0.821535
O O21 0.746588 0.500000 0.093232
O O22 0.750000 0.250000 0.000000
#
# Coordination Sequence:
#
# PCOD8101434 Si02
#       8
#     8   8   8   8   8   8   8   8
#     4  10  22  40  59  83 116 152 190 236 285 333
#     4  10  20  36  58  83 110 143 189 239 279 328
#     4  10  22  39  56  81 116 149 185 230 281 334
#     4  10  21  38  59  83 112 148 188 230 281 332
#     4   9  20  38  58  82 114 149 182 229 284 329
#     4  11  21  38  62  86 113 148 191 235 284 339
#     4  10  22  38  58  82 113 152 188 230 285 337
#     4  10  21  39  58  80 115 150 184 231 281 333
#
# _framework density 18.513925
#
# number of rings (size 3 to 8) (size 9 to 14) (size 15 to 20)
#    0.000    2.000    2.500    0.375    3.500    2.000 
#    0.000    1.250    0.000    0.000    0.000    0.000 
#    0.000    0.000    0.000    0.000    0.000    0.000 
#
# Total GULP energy -396768.375782 kJ/mol
# GULP energy per Si atom -12399.011743 kJ/mol
# Density = 1.847179 g / cm^3
# Si number density = 18.513925 Si / 1000 Ang^3
#
#
#
# Elastic Constant Matrix: (Units=GPa)
#
#
# Indices 1 2 3 4 5 6 
#
# 1 137.9617 42.0854 51.5133 0.0000 10.0055 0.0000
# 2 42.0854 70.4162 60.2865 0.0000 -4.8299 0.0000
# 3 51.5133 60.2865 118.7579 0.0000 -6.4685 0.0000
# 4 0.0000 0.0000 0.0000 28.1726 0.0000 -9.5010
# 5 10.0055 -4.8299 -6.4685 0.0000 23.7784 0.0000
# 6 0.0000 0.0000 0.0000 -9.5010 0.0000 25.0707
#
#
#
# Elastic Compliance Matrix: (Units=1/GPa)
#
#
# Indices 1 2 3 4 5 6 
#
# 1 0.009850 -0.004163 -0.002468 0.000000 -0.005662 0.000000
# 2 -0.004163 0.026941 -0.011650 0.000000 0.004055 0.000000
# 3 -0.002468 -0.011650 0.015563 0.000000 0.002906 0.000000
# 4 0.000000 0.000000 0.000000 0.040697 0.000000 0.015423
# 5 -0.005662 0.004055 0.002906 0.000000 0.046051 0.000000
# 6 0.000000 0.000000 0.000000 0.015423 0.000000 0.045732
#
#
# Mechanical properties :
#
#
# Convention : Reuss Voigt Hill
#
# Bulk Modulus (GPa) = 63.31651 70.54514 66.93082
# Shear Modulus (GPa) = 22.05934 26.95438 24.50686
#
# Velocity S-wave (km/s) = 3.45556 3.81976 3.64221
# Velocity P-wave (km/s) = 7.08483 7.59214 7.34287
#
# Compressibility (1/GPa) = 0.01579367
#
# Stress axis : x y z
#
# Youngs Moduli (GPa) = 101.51949 37.11752 64.25302
#
# Poissons Ratio (x) = 0.15450 0.15858
# Poissons Ratio (y) = 0.42258 0.74856
# Poissons Ratio (z) = 0.25056 0.43243
#
# Static dielectric constant tensor:
#      x y z
#    x 3.851180 0.000000 -0.054390 
#    y 0.000000 3.346400 0.000000 
#    z -0.054390 0.000000 3.409210 
# 
# 
# High freq. dielectric constant tensor:
#      x y z
#    x 1.733740 0.000000 0.005260 
#    y 0.000000 1.702910 0.000000 
#    z 0.005260 0.000000 1.724700 
# 
# From -- ./inp_files/187548.got.cif
#   From: 2010.06.25/outbox.cif.g09.slc.cpg/sg12_94_cif.got.tgz:187548.got - 2010.06.28 00:19:55.
