data_PCOD8101996
_publ_section_title
;
Structure prediction by ZEFSAII (Michael W. Deem and Ramdas Pophale) SiO2 
 PCOD8101996
Probable space group: C 2/M
;
_chemical_formula_sum "Si O2"
_cell_formula_units_Z 48
_cell_length_a 14.854326
_cell_length_b 9.075839
_cell_length_c 26.256825
_cell_angle_alpha 90.000000
_cell_angle_beta 45.665795
_cell_angle_gamma 90.000000
_cell_volume 2531.951544
_symmetry_space_group_name_H-M "C 2/M"
_symmetry_group_IT_number 12
_symmetry_cell_setting 'monoclinic'
loop_
_space_group_symop_operation_xyz
x,y,z
-x,y,-z
-x,-y,-z
x,-y,z
1/2+x,1/2+y,z
1/2-x,1/2+y,-z
1/2-x,1/2-y,-z
1/2+x,1/2-y,z
loop_
_atom_site_type_symbol
_atom_site_label
_atom_site_fract_x
_atom_site_fract_y
_atom_site_fract_z
Si Si1 0.368565 0.670524 0.076093
Si Si2 0.553435 0.172200 0.581036
Si Si3 0.281186 0.329132 0.563065
Si Si4 0.201663 0.172974 0.326668
Si Si5 0.597986 0.331074 0.819090
Si Si6 0.692963 0.327646 0.071452
O O1 0.345463 0.500000 0.071570
O O2 0.368193 0.699401 0.135979
O O3 0.256804 0.767281 0.097253
O O4 0.500000 0.723259 0.000000
O O5 0.608125 0.236812 0.506967
O O6 0.647145 0.207851 0.590575
O O7 0.421480 0.247256 0.646583
O O8 0.532121 0.000000 0.582201
O O9 0.315697 0.500000 0.542420
O O10 0.274524 0.282554 0.624282
O O11 0.321733 0.223573 0.247580
O O12 0.183261 0.000000 0.327510
O O13 0.626833 0.500000 0.793237
O O14 0.453636 0.291575 0.866432
O O15 0.717695 0.500000 0.055963
O O16 0.750000 0.250000 0.000000
#
# Coordination Sequence:
#
# PCOD8101996 Si02
#       6
#     8   8   8   8   8   8
#     4  10  20  39  62  84 113 149 187 234 294 347
#     4  10  20  36  60  87 114 149 194 237 284 338
#     4   9  20  38  58  83 116 153 191 233 283 338
#     4  11  23  38  57  82 117 154 192 235 284 342
#     4  10  23  41  58  81 117 154 190 235 291 348
#     4  11  22  38  61  88 115 147 190 239 289 345
#
# _framework density 18.957708
#
# number of rings (size 3 to 8) (size 9 to 14) (size 15 to 20)
#    0.000    1.833    1.667    2.000    0.000    7.667 
#    0.000    5.000    0.000    0.000    0.000    0.000 
#    0.000    0.000    0.000    0.000    0.000    0.000 
#
# Total GULP energy -297744.600630 kJ/mol
# GULP energy per Si atom -12406.025026 kJ/mol
# Density = 1.891456 g / cm^3
# Si number density = 18.957708 Si / 1000 Ang^3
#
#
#
# Elastic Constant Matrix: (Units=GPa)
#
#
# Indices 1 2 3 4 5 6 
#
# 1 111.5479 50.8493 50.3654 0.0000 -16.4194 -0.0002
# 2 50.8493 82.9012 54.6230 -0.0001 -14.4116 -0.0005
# 3 50.3654 54.6230 106.8444 0.0000 -10.6600 0.0000
# 4 0.0000 -0.0001 0.0000 37.9424 0.0000 -2.3147
# 5 -16.4194 -14.4116 -10.6600 0.0000 24.1021 0.0000
# 6 -0.0002 -0.0005 0.0000 -2.3147 0.0000 34.0949
#
#
#
# Elastic Compliance Matrix: (Units=1/GPa)
#
#
# Indices 1 2 3 4 5 6 
#
# 1 0.013536 -0.005434 -0.003146 0.000000 0.004581 0.000000
# 2 -0.005434 0.021602 -0.007912 0.000000 0.005716 0.000000
# 3 -0.003146 -0.007912 0.014857 0.000000 -0.000303 0.000000
# 4 0.000000 0.000000 0.000000 0.026465 0.000000 0.001797
# 5 0.004581 0.005716 -0.000303 0.000000 0.047895 0.000000
# 6 0.000000 0.000000 0.000000 0.001797 0.000000 0.029452
#
#
# Mechanical properties :
#
#
# Convention : Reuss Voigt Hill
#
# Bulk Modulus (GPa) = 58.78146 68.10767 63.44456
# Shear Modulus (GPa) = 25.97904 28.92493 27.45198
#
# Velocity S-wave (km/s) = 3.70586 3.91034 3.80947
# Velocity P-wave (km/s) = 7.02746 7.50944 7.27245
#
# Compressibility (1/GPa) = 0.01701217
#
# Stress axis : x y z
#
# Youngs Moduli (GPa) = 73.87438 46.29105 67.30704
#
# Poissons Ratio (x) = 0.25153 0.21175
# Poissons Ratio (y) = 0.40141 0.53256
# Poissons Ratio (z) = 0.23241 0.36627
#
# Static dielectric constant tensor:
#      x y z
#    x 3.640730 0.000000 -0.042670 
#    y 0.000000 3.511020 0.000000 
#    z -0.042670 0.000000 3.368430 
# 
# 
# High freq. dielectric constant tensor:
#      x y z
#    x 1.750610 0.000000 -0.003730 
#    y 0.000000 1.740930 0.000000 
#    z -0.003730 0.000000 1.733160 
# 
# From -- ./inp_files/267729.got.cif
#   From: 2010.06.25/outbox.cif.g09.slc.cpg/sg12_134_cif.got.tgz:267729.got - 2010.06.28 00:19:55.
