data_PCOD8101702
_publ_section_title
;
Structure prediction by ZEFSAII (Michael W. Deem and Ramdas Pophale) SiO2 
 PCOD8101702
Probable space group: C 2/M
;
_chemical_formula_sum "Si O2"
_cell_formula_units_Z 56
_cell_length_a 29.204392
_cell_length_b 8.637574
_cell_length_c 11.167290
_cell_angle_alpha 90.000000
_cell_angle_beta 76.811801
_cell_angle_gamma 90.000000
_cell_volume 2742.709871
_symmetry_space_group_name_H-M "C 2/M"
_symmetry_group_IT_number 12
_symmetry_cell_setting 'monoclinic'
loop_
_space_group_symop_operation_xyz
x,y,z
-x,y,-z
-x,-y,-z
x,-y,z
1/2+x,1/2+y,z
1/2-x,1/2+y,-z
1/2-x,1/2-y,-z
1/2+x,1/2-y,z
loop_
_atom_site_type_symbol
_atom_site_label
_atom_site_fract_x
_atom_site_fract_y
_atom_site_fract_z
Si Si1 0.759607 0.679943 0.865307
Si Si2 0.060304 0.678588 0.197252
Si Si3 0.586100 0.680615 0.935630
Si Si4 0.634680 0.679693 0.572512
Si Si5 0.176794 0.681989 0.777355
Si Si6 0.454018 0.821305 0.269925
Si Si7 0.644016 0.821908 0.317024
O O1 0.746978 0.500000 0.874997
O O2 0.728522 0.763132 0.782936
O O3 0.813836 0.709126 0.800380
O O4 0.750000 0.750000 0.000000
O O5 0.067900 0.500000 0.154461
O O6 0.095622 0.726105 0.281654
O O7 0.007695 0.706510 0.277505
O O8 0.069288 0.787145 0.079095
O O9 0.582584 0.500000 0.909875
O O10 0.639605 0.736091 0.887454
O O11 0.552185 0.770038 0.863955
O O12 0.641659 0.500000 0.594822
O O13 0.667234 0.773751 0.645495
O O14 0.579962 0.724451 0.622745
O O15 0.651090 0.716968 0.429109
O O16 0.172284 0.500000 0.797239
O O17 0.439675 0.000000 0.289907
O O18 0.642634 0.000000 0.358952
#
# Coordination Sequence:
#
# PCOD8101702 Si02
#       7
#     8   8   8   8   8   8   8
#     4  11  23  40  64  93 123 154 191 236 288 346
#     4  10  21  37  58  84 115 156 200 238 285 347
#     4  11  21  34  56  87 121 152 191 243 295 348
#     4  11  23  40  61  86 116 149 194 245 291 343
#     4  11  22  39  63  86 116 156 195 239 291 347
#     4  10  20  36  59  84 115 155 197 239 286 346
#     4  10  23  42  61  83 115 154 194 236 284 343
#
# _framework density 20.417763000000001
#
# number of rings (size 3 to 8) (size 9 to 14) (size 15 to 20)
#    0.000    1.429    0.000    7.714    0.000    6.857 
#    0.000    2.857    0.000    0.000    0.000    0.000 
#    0.000    0.000    0.000    0.000    0.000    0.000 
#
# Total GULP energy -347373.297317 kJ/mol
# GULP energy per Si atom -12406.189190 kJ/mol
# Density = 2.037129 g / cm^3
# Si number density = 20.417763 Si / 1000 Ang^3
#
#
#
# Elastic Constant Matrix: (Units=GPa)
#
#
# Indices 1 2 3 4 5 6 
#
# 1 126.9509 23.1528 27.2534 0.0000 7.3045 0.0000
# 2 23.1528 73.4630 24.5603 0.0000 -2.7490 0.0000
# 3 27.2534 24.5603 100.5712 0.0000 6.2945 0.0000
# 4 0.0000 0.0000 0.0000 34.0410 0.0000 -0.5232
# 5 7.3045 -2.7490 6.2945 0.0000 15.4677 0.0000
# 6 0.0000 0.0000 0.0000 -0.5232 0.0000 27.4527
#
#
#
# Elastic Compliance Matrix: (Units=1/GPa)
#
#
# Indices 1 2 3 4 5 6 
#
# 1 0.008885 -0.002426 -0.001566 0.000000 -0.003990 0.000000
# 2 -0.002426 0.015758 -0.003528 0.000000 0.005382 0.000000
# 3 -0.001566 -0.003528 0.011515 0.000000 -0.004574 0.000000
# 4 0.000000 0.000000 0.000000 0.029385 0.000000 0.000560
# 5 -0.003990 0.005382 -0.004574 0.000000 0.069353 0.000000
# 6 0.000000 0.000000 0.000000 0.000560 0.000000 0.036437
#
#
# Mechanical properties :
#
#
# Convention : Reuss Voigt Hill
#
# Bulk Modulus (GPa) = 47.34964 50.10204 48.72584
# Shear Modulus (GPa) = 25.85169 30.46020 28.15595
#
# Velocity S-wave (km/s) = 3.56214 3.86664 3.71751
# Velocity P-wave (km/s) = 6.33713 6.67280 6.50713
#
# Compressibility (1/GPa) = 0.02111949
#
# Stress axis : x y z
#
# Youngs Moduli (GPa) = 112.54662 63.46126 86.84217
#
# Poissons Ratio (x) = 0.15397 0.13596
# Poissons Ratio (y) = 0.27306 0.30634
# Poissons Ratio (z) = 0.17620 0.22386
#
# Static dielectric constant tensor:
#      x y z
#    x 3.844340 0.000000 -0.018370 
#    y 0.000000 3.767080 0.000000 
#    z -0.018370 0.000000 3.473640 
# 
# 
# High freq. dielectric constant tensor:
#      x y z
#    x 1.805480 0.000000 -0.000660 
#    y 0.000000 1.804560 0.000000 
#    z -0.000660 0.000000 1.790050 
# 
# From -- ./inp_files/180853.got.cif
#   From: 2010.06.25/outbox.cif.g09.slc.cpg/sg12_91_cif.got.tgz:180853.got - 2010.06.28 00:19:55.
