data_PCOD8101612
_publ_section_title
;
Structure prediction by ZEFSAII (Michael W. Deem and Ramdas Pophale) SiO2 
 PCOD8101612
Probable space group: C 2/M
;
_chemical_formula_sum "Si O2"
_cell_formula_units_Z 48
_cell_length_a 21.924213
_cell_length_b 8.818043
_cell_length_c 12.457123
_cell_angle_alpha 90.000000
_cell_angle_beta 77.947375
_cell_angle_gamma 90.000000
_cell_volume 2355.230373
_symmetry_space_group_name_H-M "C 2/M"
_symmetry_group_IT_number 12
_symmetry_cell_setting 'monoclinic'
loop_
_space_group_symop_operation_xyz
x,y,z
-x,y,-z
-x,-y,-z
x,-y,z
1/2+x,1/2+y,z
1/2-x,1/2+y,-z
1/2-x,1/2-y,-z
1/2+x,1/2-y,z
loop_
_atom_site_type_symbol
_atom_site_label
_atom_site_fract_x
_atom_site_fract_y
_atom_site_fract_z
Si Si1 0.686157 0.180833 0.569235
Si Si2 0.571576 0.180327 0.461490
Si Si3 0.315898 0.820003 0.993441
Si Si4 0.149822 0.829718 0.799384
Si Si5 0.507685 0.668577 0.877054
Si Si6 0.908981 0.321969 0.781074
O O1 0.750000 0.250000 0.500000
O O2 0.623184 0.236981 0.529409
O O3 0.682445 0.237911 0.692398
O O4 0.691052 0.000000 0.563619
O O5 0.500000 0.243309 0.500000
O O6 0.597287 0.241126 0.337462
O O7 0.568385 0.000000 0.466966
O O8 0.356281 0.755949 0.879071
O O9 0.313863 0.000000 0.996089
O O10 0.250000 0.750000 0.000000
O O11 0.342922 0.761000 0.094003
O O12 0.076851 0.840285 0.806919
O O13 0.178719 0.000000 0.795937
O O14 0.477316 0.500000 0.887849
O O15 0.475558 0.778580 0.804424
O O16 0.500000 0.736598 0.000000
O O17 0.903911 0.500000 0.778701
#
# Coordination Sequence:
#
# PCOD8101612 Si02
#       6
#     8   8   8   8   8   8
#     4  11  24  42  66  94 126 164 212 261 318 382
#     4   9  19  38  63  90 122 161 204 255 310 367
#     4  11  24  39  59  89 123 161 207 255 312 374
#     4  11  23  41  64  88 124 163 205 257 312 373
#     4  10  20  36  58  88 123 160 197 246 311 365
#     4  10  21  37  61  91 120 156 202 252 306 371
#
# _framework density 20.380172000000002
#
# number of rings (size 3 to 8) (size 9 to 14) (size 15 to 20)
#    0.000    1.667    1.667    2.500    2.333    3.667 
#    0.000    1.667    0.000    4.500    0.000    0.000 
#    0.000    0.000    0.000    0.000    0.000    0.000 
#
# Total GULP energy -297510.837587 kJ/mol
# GULP energy per Si atom -12396.284899 kJ/mol
# Density = 2.033379 g / cm^3
# Si number density = 20.380172 Si / 1000 Ang^3
#
#
#
# Elastic Constant Matrix: (Units=GPa)
#
#
# Indices 1 2 3 4 5 6 
#
# 1 111.5259 28.5156 45.9817 0.0000 -13.4672 0.0000
# 2 28.5156 49.8965 43.2451 0.0000 -8.3486 0.0000
# 3 45.9817 43.2451 156.7781 0.0000 -9.2162 0.0000
# 4 0.0000 0.0000 0.0000 23.8758 0.0000 0.7830
# 5 -13.4672 -8.3486 -9.2162 0.0000 30.6580 0.0000
# 6 0.0000 0.0000 0.0000 0.7830 0.0000 32.7360
#
#
#
# Elastic Compliance Matrix: (Units=1/GPa)
#
#
# Indices 1 2 3 4 5 6 
#
# 1 0.011229 -0.004192 -0.001949 0.000000 0.003205 0.000000
# 2 -0.004192 0.028703 -0.006451 0.000000 0.004036 0.000000
# 3 -0.001949 -0.006451 0.008730 0.000000 0.000012 0.000000
# 4 0.000000 0.000000 0.000000 0.041916 0.000000 -0.001003
# 5 0.003205 0.004036 0.000012 0.000000 0.035128 0.000000
# 6 0.000000 0.000000 0.000000 -0.001003 0.000000 0.030571
#
#
# Mechanical properties :
#
#
# Convention : Reuss Voigt Hill
#
# Bulk Modulus (GPa) = 42.59062 61.52059 52.05560
# Shear Modulus (GPa) = 26.41490 30.81784 28.61637
#
# Velocity S-wave (km/s) = 3.60406 3.89285 3.75123
# Velocity P-wave (km/s) = 6.18566 7.10336 6.66034
#
# Compressibility (1/GPa) = 0.02347935
#
# Stress axis : x y z
#
# Youngs Moduli (GPa) = 89.05658 34.83925 114.54803
#
# Poissons Ratio (x) = 0.14605 0.22320
# Poissons Ratio (y) = 0.37334 0.73891
# Poissons Ratio (z) = 0.17353 0.22474
#
# Static dielectric constant tensor:
#      x y z
#    x 3.548800 0.000000 -0.113760 
#    y 0.000000 3.703200 0.000000 
#    z -0.113760 0.000000 4.053980 
# 
# 
# High freq. dielectric constant tensor:
#      x y z
#    x 1.799860 0.000000 -0.004490 
#    y 0.000000 1.777760 0.000000 
#    z -0.004490 0.000000 1.814140 
# 
# From -- ./inp_files/172894.got.cif
#   From: 2010.06.25/outbox.cif.g09.slc.cpg/sg12_87_cif.got.tgz:172894.got - 2010.06.28 00:19:55.
