data_PCOD8101243
_publ_section_title
;
Structure prediction by ZEFSAII (Michael W. Deem and Ramdas Pophale) SiO2 
 PCOD8101243
Probable space group: C 2/M
;
_chemical_formula_sum "Si O2"
_cell_formula_units_Z 56
_cell_length_a 10.178795
_cell_length_b 15.806383
_cell_length_c 23.802678
_cell_angle_alpha 90.000000
_cell_angle_beta 132.195661
_cell_angle_gamma 90.000000
_cell_volume 2837.188418
_symmetry_space_group_name_H-M "C 2/M"
_symmetry_group_IT_number 12
_symmetry_cell_setting 'monoclinic'
loop_
_space_group_symop_operation_xyz
x,y,z
-x,y,-z
-x,-y,-z
x,-y,z
1/2+x,1/2+y,z
1/2-x,1/2+y,-z
1/2-x,1/2-y,-z
1/2+x,1/2-y,z
loop_
_atom_site_type_symbol
_atom_site_label
_atom_site_fract_x
_atom_site_fract_y
_atom_site_fract_z
Si Si1 0.838822 0.407352 0.910782
Si Si2 0.518223 0.098535 0.842704
Si Si3 0.365960 0.821027 0.411831
Si Si4 0.208271 0.238014 0.052569
Si Si5 0.609124 0.594874 0.417163
Si Si6 0.862358 0.403781 0.584000
Si Si7 0.764646 0.656260 0.673037
O O1 0.739320 0.500000 0.886164
O O2 0.908383 0.394299 0.868142
O O3 0.724597 0.323981 0.895193
O O4 0.000000 0.410118 0.000000
O O5 0.697324 0.153586 0.897383
O O6 0.405203 0.143113 0.762053
O O7 0.563149 0.000000 0.841895
O O8 0.500000 0.792177 0.500000
O O9 0.179881 0.852993 0.383968
O O10 0.458629 0.892976 0.400661
O O11 0.324485 0.748344 0.354677
O O12 0.250000 0.250000 0.000000
O O13 0.000000 0.223767 0.000000
O O14 0.679891 0.500000 0.429146
O O15 0.695847 0.630634 0.499561
O O16 0.397463 0.592587 0.361630
O O17 0.837080 0.500000 0.593744
O O18 0.865011 0.353795 0.642850
#
# Coordination Sequence:
#
# PCOD8101243 Si02
#       7
#     8   8   8   8   8   8   8
#     4   9  18  37  65  89 118 157 192 232 291 362
#     4  11  24  41  62  91 127 162 199 249 310 362
#     4  10  21  37  57  84 119 162 207 253 304 356
#     4  11  21  40  68  99 122 151 197 246 294 368
#     4  10  20  36  59  85 113 159 214 251 293 361
#     4  10  20  36  57  83 120 160 201 255 309 351
#     4  12  23  36  57  86 121 158 201 252 300 356
#
# _framework density 19.737850000000002
#
# number of rings (size 3 to 8) (size 9 to 14) (size 15 to 20)
#    0.000    1.571    2.857    3.857    0.000    7.714 
#    0.000    0.000    0.000    0.857    0.000    0.000 
#    0.000    0.000    0.000    0.000    0.000    0.000 
#
# Total GULP energy -347037.269485 kJ/mol
# GULP energy per Si atom -12394.188196 kJ/mol
# Density = 1.969293 g / cm^3
# Si number density = 19.737850 Si / 1000 Ang^3
#
#
#
# Elastic Constant Matrix: (Units=GPa)
#
#
# Indices 1 2 3 4 5 6 
#
# 1 107.8507 32.2314 48.0882 0.0000 -5.0298 0.0000
# 2 32.2314 111.1282 35.1904 0.0000 4.6874 0.0000
# 3 48.0882 35.1904 106.6664 0.0000 -6.4093 0.0000
# 4 0.0000 0.0000 0.0000 21.3653 0.0000 2.2250
# 5 -5.0298 4.6874 -6.4093 0.0000 15.1562 0.0000
# 6 0.0000 0.0000 0.0000 2.2250 0.0000 34.5024
#
#
#
# Elastic Compliance Matrix: (Units=1/GPa)
#
#
# Indices 1 2 3 4 5 6 
#
# 1 0.012086 -0.002176 -0.004566 0.000000 0.002753 0.000000
# 2 -0.002176 0.010767 -0.002888 0.000000 -0.005273 0.000000
# 3 -0.004566 -0.002888 0.012671 0.000000 0.004736 0.000000
# 4 0.000000 0.000000 0.000000 0.047121 0.000000 -0.003039
# 5 0.002753 -0.005273 0.004736 0.000000 0.070527 0.000000
# 6 0.000000 0.000000 0.000000 -0.003039 0.000000 0.029179
#
#
# Mechanical properties :
#
#
# Convention : Reuss Voigt Hill
#
# Bulk Modulus (GPa) = 61.48214 61.85169 61.66692
# Shear Modulus (GPa) = 24.15083 28.21380 26.18231
#
# Velocity S-wave (km/s) = 3.50176 3.78488 3.64607
# Velocity P-wave (km/s) = 6.89687 7.10669 7.00256
#
# Compressibility (1/GPa) = 0.01626489
#
# Stress axis : x y z
#
# Youngs Moduli (GPa) = 82.73720 92.87959 78.92246
#
# Poissons Ratio (x) = 0.20210 0.36033
# Poissons Ratio (y) = 0.18003 0.22792
# Poissons Ratio (z) = 0.37775 0.26823
#
# Static dielectric constant tensor:
#      x y z
#    x 3.316030 0.000000 -0.151540 
#    y 0.000000 4.055260 0.000000 
#    z -0.151540 0.000000 3.347910 
# 
# 
# High freq. dielectric constant tensor:
#      x y z
#    x 1.766790 0.000000 -0.019250 
#    y 0.000000 1.786140 0.000000 
#    z -0.019250 0.000000 1.740680 
# 
# From -- ./inp_files/333403.got.cif
#   From: 2010.06.25/outbox.cif.g09.slc.cpg/sg12_167_cif.got.tgz:333403.got - 2010.06.28 00:19:55.
