data_PCOD8101721
_publ_section_title
;
Structure prediction by ZEFSAII (Michael W. Deem and Ramdas Pophale) SiO2 
 PCOD8101721
Probable space group: C 2/M
;
_chemical_formula_sum "Si O2"
_cell_formula_units_Z 56
_cell_length_a 27.371079
_cell_length_b 8.662000
_cell_length_c 13.673052
_cell_angle_alpha 90.000000
_cell_angle_beta 120.408505
_cell_angle_gamma 90.000000
_cell_volume 2795.784679
_symmetry_space_group_name_H-M "C 2/M"
_symmetry_group_IT_number 12
_symmetry_cell_setting 'monoclinic'
loop_
_space_group_symop_operation_xyz
x,y,z
-x,y,-z
-x,-y,-z
x,-y,z
1/2+x,1/2+y,z
1/2-x,1/2+y,-z
1/2-x,1/2-y,-z
1/2+x,1/2-y,z
loop_
_atom_site_type_symbol
_atom_site_label
_atom_site_fract_x
_atom_site_fract_y
_atom_site_fract_z
Si Si1 0.514122 0.682774 0.407062
Si Si2 0.420047 0.819294 0.174597
Si Si3 0.936220 0.321923 0.965922
Si Si4 0.702886 0.818501 0.882568
Si Si5 0.866498 0.183018 0.547518
Si Si6 0.157538 0.180848 0.258825
Si Si7 0.772142 0.181569 0.300647
O O1 0.500000 0.751047 0.500000
O O2 0.518023 0.500000 0.416501
O O3 0.466029 0.727864 0.282657
O O4 0.574275 0.752108 0.432232
O O5 0.358417 0.759954 0.144605
O O6 0.428117 0.000000 0.202269
O O7 0.428336 0.776862 0.070315
O O8 0.919625 0.500000 0.930354
O O9 0.897099 0.210976 0.862466
O O10 0.000000 0.287816 0.000000
O O11 0.712642 0.768480 0.782328
O O12 0.706857 0.000000 0.895356
O O13 0.750000 0.750000 0.000000
O O14 0.855107 0.243443 0.645203
O O15 0.815618 0.240678 0.427187
O O16 0.869699 0.000000 0.551502
O O17 0.209125 0.278236 0.268809
O O18 0.172490 0.000000 0.273231
O O19 0.777331 0.000000 0.287694
#
# Coordination Sequence:
#
# PCOD8101721 Si02
#       7
#     8   8   8   8   8   8   8
#     4  10  20  36  59  85 113 148 190 231 276 334
#     4  10  22  38  56  82 115 148 184 230 280 333
#     4  10  21  38  59  84 115 151 191 233 282 340
#     4  11  23  39  59  85 117 152 193 237 284 340
#     4   9  20  37  57  84 116 150 190 237 285 339
#     4  11  22  37  58  85 116 149 191 239 289 346
#     4  11  22  39  61  83 113 151 191 237 290 342
#
# _framework density 20.030154
#
# number of rings (size 3 to 8) (size 9 to 14) (size 15 to 20)
#    0.000    1.714    0.000    4.286    0.000    4.571 
#    0.000    4.286    0.000    0.000    0.000    0.000 
#    0.000    0.000    0.000    0.000    0.000    0.000 
#
# Total GULP energy -347347.140333 kJ/mol
# GULP energy per Si atom -12405.255012 kJ/mol
# Density = 1.998456 g / cm^3
# Si number density = 20.030154 Si / 1000 Ang^3
#
#
#
# Elastic Constant Matrix: (Units=GPa)
#
#
# Indices 1 2 3 4 5 6 
#
# 1 164.4390 10.3681 64.3577 0.0000 -5.2133 0.0000
# 2 10.3681 17.4004 10.7517 0.0000 7.6913 0.0000
# 3 64.3577 10.7517 137.1991 0.0000 0.4902 0.0000
# 4 0.0000 0.0000 0.0000 299.6666 0.0000 -204.3736
# 5 -5.2133 7.6913 0.4902 0.0000 40.1866 0.0000
# 6 0.0000 0.0000 0.0000 -204.3736 0.0000 172.9153
#
#
#
# Elastic Compliance Matrix: (Units=1/GPa)
#
#
# Indices 1 2 3 4 5 6 
#
# 1 0.007643 -0.003220 -0.003339 0.000000 0.001649 0.000000
# 2 -0.003220 0.067580 -0.003738 0.000000 -0.013306 0.000000
# 3 -0.003339 -0.003738 0.009147 0.000000 0.000171 0.000000
# 4 0.000000 0.000000 0.000000 0.017208 0.000000 0.020339
# 5 0.001649 -0.013306 0.000171 0.000000 0.027642 0.000000
# 6 0.000000 0.000000 0.000000 0.020339 0.000000 0.029822
#
#
# Mechanical properties :
#
#
# Convention : Reuss Voigt Hill
#
# Bulk Modulus (GPa) = 15.67972 54.44372 35.06172
# Shear Modulus (GPa) = 24.88851 118.12442 71.50647
#
# Velocity S-wave (km/s) = 3.52881 7.68774 5.98138
# Velocity P-wave (km/s) = 4.94453 10.29765 8.07744
#
# Compressibility (1/GPa) = 0.06377666
#
# Stress axis : x y z
#
# Youngs Moduli (GPa) = 130.83279 14.79735 109.32274
#
# Poissons Ratio (x) = 0.04765 0.36502
# Poissons Ratio (y) = 0.42126 0.40865
# Poissons Ratio (z) = 0.43684 0.05531
#
# Static dielectric constant tensor:
#      x y z
#    x 3.914550 0.000000 -0.005310 
#    y 0.000000 3.429110 0.000000 
#    z -0.005310 0.000000 3.696050 
# 
# 
# High freq. dielectric constant tensor:
#      x y z
#    x 1.804310 0.000000 -0.001760 
#    y 0.000000 1.763680 0.000000 
#    z -0.001760 0.000000 1.798270 
# 
# From -- ./inp_files/238922.got.cif
#   From: 2010.06.25/outbox.cif.g09.slc.cpg/sg12_120_cif.got.tgz:238922.got - 2010.06.28 00:19:55.
