data_PCOD8101479
_publ_section_title
;
Structure prediction by ZEFSAII (Michael W. Deem and Ramdas Pophale) SiO2 
 PCOD8101479
Probable space group: C 2/M
;
_chemical_formula_sum "Si O2"
_cell_formula_units_Z 64
_cell_length_a 25.044901
_cell_length_b 8.920875
_cell_length_c 14.991669
_cell_angle_alpha 90.000000
_cell_angle_beta 71.088007
_cell_angle_gamma 90.000000
_cell_volume 3168.662217
_symmetry_space_group_name_H-M "C 2/M"
_symmetry_group_IT_number 12
_symmetry_cell_setting 'monoclinic'
loop_
_space_group_symop_operation_xyz
x,y,z
-x,y,-z
-x,-y,-z
x,-y,z
1/2+x,1/2+y,z
1/2-x,1/2+y,-z
1/2-x,1/2-y,-z
1/2+x,1/2-y,z
loop_
_atom_site_type_symbol
_atom_site_label
_atom_site_fract_x
_atom_site_fract_y
_atom_site_fract_z
Si Si1 0.810394 0.825098 0.958896
Si Si2 0.322319 0.172642 0.607083
Si Si3 0.968757 0.822856 0.101794
Si Si4 0.004688 0.822918 0.275825
Si Si5 0.891905 0.674164 0.397539
Si Si6 0.654742 0.326365 0.861815
Si Si7 0.878138 0.677587 0.761614
Si Si8 0.708304 0.823706 0.676889
O O1 0.847728 0.750005 0.862621
O O2 0.803298 0.000000 0.941044
O O3 0.750000 0.750000 0.000000
O O4 0.842088 0.798744 0.034729
O O5 0.371687 0.201466 0.509288
O O6 0.343858 0.224185 0.692175
O O7 0.267348 0.264355 0.606807
O O8 0.304514 0.000000 0.617496
O O9 0.905099 0.762042 0.139550
O O10 0.001259 0.777884 0.173600
O O11 0.965730 0.000000 0.090860
O O12 0.000000 0.749636 0.000000
O O13 0.058885 0.739811 0.285713
O O14 0.948498 0.769887 0.356193
O O15 0.011421 0.000000 0.284914
O O16 0.905318 0.500000 0.372132
O O17 0.843414 0.733350 0.356477
O O18 0.663620 0.500000 0.834022
O O19 0.701930 0.235608 0.781757
O O20 0.880403 0.500000 0.772975
O O21 0.710844 0.000000 0.675078
#
# Coordination Sequence:
#
# PCOD8101479 Si02
#       8
#     8   8   8   8   8   8   8   8
#     4  11  23  39  61  88 121 161 203 247 297 353
#     4  10  23  42  63  84 114 163 208 241 296 369
#     4   9  17  32  55  82 110 145 191 233 277 342
#     4  11  22  38  63  90 120 158 199 249 300 354
#     4  10  22  41  62  88 122 157 197 247 304 362
#     4  10  20  36  58  83 116 158 196 232 286 365
#     4  11  24  42  62  86 120 162 207 252 297 353
#     4  11  22  36  60  93 125 151 190 256 310 347
#
# _framework density 20.197797999999999
#
# number of rings (size 3 to 8) (size 9 to 14) (size 15 to 20)
#    0.000    1.625    1.250    3.375    0.000    8.500 
#    0.000    2.500    0.000    1.875    0.000    0.000 
#    0.000    0.000    0.000    0.000    0.000    0.000 
#
# Total GULP energy -396913.170777 kJ/mol
# GULP energy per Si atom -12403.536587 kJ/mol
# Density = 2.015183 g / cm^3
# Si number density = 20.197798 Si / 1000 Ang^3
#
#
#
# Elastic Constant Matrix: (Units=GPa)
#
#
# Indices 1 2 3 4 5 6 
#
# 1 117.7256 49.6334 32.5314 0.0000 -11.3536 0.0000
# 2 49.6334 71.7693 36.9527 0.0000 0.9563 0.0000
# 3 32.5314 36.9527 99.4636 0.0000 -5.3723 0.0000
# 4 0.0000 0.0000 0.0000 32.6556 0.0000 -6.3700
# 5 -11.3536 0.9563 -5.3723 0.0000 29.6289 0.0000
# 6 0.0000 0.0000 0.0000 -6.3700 0.0000 34.5842
#
#
#
# Elastic Compliance Matrix: (Units=1/GPa)
#
#
# Indices 1 2 3 4 5 6 
#
# 1 0.012778 -0.008522 -0.000741 0.000000 0.005037 0.000000
# 2 -0.008522 0.023002 -0.006034 0.000000 -0.005102 0.000000
# 3 -0.000741 -0.006034 0.012657 0.000000 0.002206 0.000000
# 4 0.000000 0.000000 0.000000 0.031764 0.000000 0.005851
# 5 0.005037 -0.005102 0.002206 0.000000 0.036246 0.000000
# 6 0.000000 0.000000 0.000000 0.005851 0.000000 0.029993
#
#
# Mechanical properties :
#
#
# Convention : Reuss Voigt Hill
#
# Bulk Modulus (GPa) = 56.04561 58.57708 57.31134
# Shear Modulus (GPa) = 27.32519 30.69648 29.01083
#
# Velocity S-wave (km/s) = 3.68214 3.90268 3.79401
# Velocity P-wave (km/s) = 6.77393 7.02656 6.90140
#
# Compressibility (1/GPa) = 0.01784261
#
# Stress axis : x y z
#
# Youngs Moduli (GPa) = 78.25982 43.47426 79.00694
#
# Poissons Ratio (x) = 0.37051 0.05854
# Poissons Ratio (y) = 0.66697 0.47672
# Poissons Ratio (z) = 0.05799 0.26232
#
# Static dielectric constant tensor:
#      x y z
#    x 3.794830 0.000000 0.098750 
#    y 0.000000 3.536040 0.000000 
#    z 0.098750 0.000000 3.775610 
# 
# 
# High freq. dielectric constant tensor:
#      x y z
#    x 1.797310 0.000000 -0.004250 
#    y 0.000000 1.775950 0.000000 
#    z -0.004250 0.000000 1.800380 
# 
# From -- ./inp_files/243898.got.cif
#   From: 2010.06.25/outbox.cif.g09.slc.cpg/sg12_122_cif.got.tgz:243898.got - 2010.06.28 00:19:55.
