data_PCOD8101012
_publ_section_title
;
Structure prediction by ZEFSAII (Michael W. Deem and Ramdas Pophale) SiO2 
 PCOD8101012
Probable space group: C 2/M
;
_chemical_formula_sum "Si O2"
_cell_formula_units_Z 64
_cell_length_a 20.118964
_cell_length_b 25.285215
_cell_length_c 11.597753
_cell_angle_alpha 90.000000
_cell_angle_beta 143.344082
_cell_angle_gamma 90.000000
_cell_volume 3522.300021
_symmetry_space_group_name_H-M "C 2/M"
_symmetry_group_IT_number 12
_symmetry_cell_setting 'monoclinic'
loop_
_space_group_symop_operation_xyz
x,y,z
-x,y,-z
-x,-y,-z
x,-y,z
1/2+x,1/2+y,z
1/2-x,1/2+y,-z
1/2-x,1/2-y,-z
1/2+x,1/2-y,z
loop_
_atom_site_type_symbol
_atom_site_label
_atom_site_fract_x
_atom_site_fract_y
_atom_site_fract_z
Si Si1 0.212701 0.562349 0.456175
Si Si2 0.387301 0.100577 0.903899
Si Si3 0.244803 0.706999 0.748875
Si Si4 0.913187 0.707612 0.054513
Si Si5 0.634818 0.261127 0.401095
Si Si6 0.019098 0.560612 0.744978
Si Si7 0.593825 0.843916 0.711052
Si Si8 0.113299 0.857835 0.228144
O O1 0.223905 0.500000 0.475762
O O2 0.208281 0.582131 0.316888
O O3 0.327866 0.586303 0.664062
O O4 0.102861 0.579851 0.377694
O O5 0.500000 0.083534 0.000000
O O6 0.378931 0.163442 0.913596
O O7 0.387543 0.068981 0.025408
O O8 0.150892 0.745993 0.559390
O O9 0.204037 0.664723 0.788003
O O10 0.297958 0.673474 0.722477
O O11 0.338282 0.741384 0.939375
O O12 0.892793 0.687620 0.153877
O O13 0.042220 0.722597 0.215837
O O14 0.750000 0.250000 0.500000
O O15 0.595850 0.322005 0.320431
O O16 0.016269 0.500000 0.701283
O O17 0.058903 0.595331 0.690867
O O18 0.500000 0.818107 0.500000
O O19 0.000000 0.868002 0.000000
#
# Coordination Sequence:
#
# PCOD8101012 Si02
#       8
#     8   8   8   8   8   8   8   8
#     4  10  20  36  56  81 110 142 178 229 281 320
#     4   9  19  29  55  82 111 134 173 218 276 326
#     4  11  22  36  54  75 112 146 183 221 269 319
#     4  11  21  35  52  81 109 149 178 221 267 330
#     4  10  22  33  54  80 109 144 182 218 264 323
#     4   9  19  35  55  81 109 138 179 227 277 327
#     4  11  21  35  52  75 109 143 181 221 271 322
#     4  11  22  36  54  80 108 143 183 223 265 327
#
# _framework density 18.169944999999998
#
# number of rings (size 3 to 8) (size 9 to 14) (size 15 to 20)
#    0.000    1.750    2.500    2.250   12.250    2.000 
#    0.000    0.625    0.000    0.000    0.000    0.000 
#    0.000    3.250    0.000    0.000    0.000    0.000 
#
# Total GULP energy -396506.547342 kJ/mol
# GULP energy per Si atom -12390.829604 kJ/mol
# Density = 1.812859 g / cm^3
# Si number density = 18.169945 Si / 1000 Ang^3
#
#
#
# Elastic Constant Matrix: (Units=GPa)
#
#
# Indices 1 2 3 4 5 6 
#
# 1 68.4812 50.3079 34.2022 0.0000 -6.3372 0.0000
# 2 50.3079 79.4400 46.4451 0.0000 -1.4570 0.0000
# 3 34.2022 46.4451 114.7104 0.0000 -2.3868 0.0000
# 4 0.0000 0.0000 0.0000 37.2289 0.0000 4.4665
# 5 -6.3372 -1.4570 -2.3868 0.0000 21.4144 0.0000
# 6 0.0000 0.0000 0.0000 4.4665 0.0000 29.1147
#
#
#
# Elastic Compliance Matrix: (Units=1/GPa)
#
#
# Indices 1 2 3 4 5 6 
#
# 1 0.028547 -0.017108 -0.001437 0.000000 0.007124 0.000000
# 2 -0.017108 0.026748 -0.005810 0.000000 -0.003890 0.000000
# 3 -0.001437 -0.005810 0.011508 0.000000 0.000462 0.000000
# 4 0.000000 0.000000 0.000000 0.027365 0.000000 -0.004198
# 5 0.007124 -0.003890 0.000462 0.000000 0.048592 0.000000
# 6 0.000000 0.000000 0.000000 -0.004198 0.000000 0.034991
#
#
# Mechanical properties :
#
#
# Convention : Reuss Voigt Hill
#
# Bulk Modulus (GPa) = 55.26692 58.28243 56.77467
# Shear Modulus (GPa) = 21.50629 26.33004 23.91816
#
# Velocity S-wave (km/s) = 3.44411 3.81083 3.63210
# Velocity P-wave (km/s) = 6.80430 7.17699 6.99313
#
# Compressibility (1/GPa) = 0.01809401
#
# Stress axis : x y z
#
# Youngs Moduli (GPa) = 35.02998 37.38663 86.89645
#
# Poissons Ratio (x) = 0.63960 0.12484
# Poissons Ratio (y) = 0.59928 0.50486
# Poissons Ratio (z) = 0.05033 0.21721
#
# Static dielectric constant tensor:
#      x y z
#    x 3.362390 0.000000 -0.254500 
#    y 0.000000 3.565580 0.000000 
#    z -0.254500 0.000000 3.524480 
# 
# 
# High freq. dielectric constant tensor:
#      x y z
#    x 1.678740 0.000000 -0.021710 
#    y 0.000000 1.697160 0.000000 
#    z -0.021710 0.000000 1.706080 
# 
# From -- ./inp_files/170622.got.cif
#   From: 2010.06.25/outbox.cif.g09.slc.cpg/sg12_86_cif.got.tgz:170622.got - 2010.06.28 00:19:55.
