data_PCOD8101342
_publ_section_title
;
Structure prediction by ZEFSAII (Michael W. Deem and Ramdas Pophale) SiO2 
 PCOD8101342
Probable space group: C 2/M
;
_chemical_formula_sum "Si O2"
_cell_formula_units_Z 64
_cell_length_a 19.457793
_cell_length_b 8.946234
_cell_length_c 19.465074
_cell_angle_alpha 90.000000
_cell_angle_beta 85.938600
_cell_angle_gamma 90.000000
_cell_volume 3379.853581
_symmetry_space_group_name_H-M "C 2/M"
_symmetry_group_IT_number 12
_symmetry_cell_setting 'monoclinic'
loop_
_space_group_symop_operation_xyz
x,y,z
-x,y,-z
-x,-y,-z
x,-y,z
1/2+x,1/2+y,z
1/2-x,1/2+y,-z
1/2-x,1/2-y,-z
1/2+x,1/2-y,z
loop_
_atom_site_type_symbol
_atom_site_label
_atom_site_fract_x
_atom_site_fract_y
_atom_site_fract_z
Si Si1 0.368167 0.826507 0.692725
Si Si2 0.384304 0.322350 0.175538
Si Si3 0.559791 0.332558 0.589112
Si Si4 0.759152 0.177343 0.797285
Si Si5 0.401722 0.332481 0.559255
Si Si6 0.926465 0.824197 0.023247
Si Si7 0.024242 0.673701 0.722320
Si Si8 0.699258 0.674578 0.055917
O O1 0.311961 0.730244 0.736142
O O2 0.362707 0.781108 0.612789
O O3 0.443695 0.789243 0.717462
O O4 0.350588 0.000000 0.701238
O O5 0.377785 0.500000 0.179565
O O6 0.315195 0.249534 0.210759
O O7 0.395640 0.262325 0.096981
O O8 0.449856 0.269095 0.214899
O O9 0.581681 0.500000 0.610386
O O10 0.481341 0.333448 0.572002
O O11 0.605952 0.280844 0.520115
O O12 0.569085 0.220275 0.652186
O O13 0.788729 0.234401 0.868272
O O14 0.752216 0.000000 0.794807
O O15 0.371690 0.500000 0.570527
O O16 0.935434 0.000000 0.032222
O O17 0.877770 0.784458 0.962486
O O18 0.000000 0.750008 0.000000
O O19 0.036723 0.500000 0.735318
O O20 0.713230 0.500000 0.050887
O O21 0.750000 0.750000 0.000000
#
# Coordination Sequence:
#
# PCOD8101342 Si02
#       8
#     8   8   8   8   8   8   8   8
#     4  10  21  35  53  80 113 147 184 226 271 323
#     4  11  22  37  59  79 107 147 184 224 272 331
#     4   8  14  27  49  77 107 142 181 220 267 321
#     4  11  23  37  57  80 109 145 184 229 274 324
#     4   8  14  27  49  77 109 140 178 226 268 314
#     4   9  19  35  56  82 108 135 174 222 269 320
#     4  10  21  35  52  79 115 146 181 228 272 321
#     4  10  20  36  58  81 106 137 177 223 269 323
#
# _framework density 18.935731000000001
#
# number of rings (size 3 to 8) (size 9 to 14) (size 15 to 20)
#    0.000    2.375    1.250    2.250    1.750    2.500 
#    0.000    2.500    0.000    2.625    0.000    0.000 
#    0.000    0.000    0.000    0.000    0.000    0.000 
#
# Total GULP energy -396720.077811 kJ/mol
# GULP energy per Si atom -12397.502432 kJ/mol
# Density = 1.889263 g / cm^3
# Si number density = 18.935731 Si / 1000 Ang^3
#
#
#
# Elastic Constant Matrix: (Units=GPa)
#
#
# Indices 1 2 3 4 5 6 
#
# 1 76.6039 28.8090 24.8334 0.0000 -15.7219 0.0000
# 2 28.8090 63.6496 24.2364 0.0000 -7.9803 0.0000
# 3 24.8334 24.2364 73.4503 0.0000 -20.6662 0.0000
# 4 0.0000 0.0000 0.0000 27.8643 0.0000 -0.9166
# 5 -15.7219 -7.9803 -20.6662 0.0000 24.9723 0.0000
# 6 0.0000 0.0000 0.0000 -0.9166 0.0000 25.2347
#
#
#
# Elastic Compliance Matrix: (Units=1/GPa)
#
#
# Indices 1 2 3 4 5 6 
#
# 1 0.017554 -0.006343 -0.001698 0.000000 0.007619 0.000000
# 2 -0.006343 0.020284 -0.005016 0.000000 -0.001663 0.000000
# 3 -0.001698 -0.005016 0.019673 0.000000 0.013609 0.000000
# 4 0.000000 0.000000 0.000000 0.035931 0.000000 0.001305
# 5 0.007619 -0.001663 0.013609 0.000000 0.055572 0.000000
# 6 0.000000 0.000000 0.000000 0.001305 0.000000 0.039675
#
#
# Mechanical properties :
#
#
# Convention : Reuss Voigt Hill
#
# Bulk Modulus (GPa) = 31.85195 41.05125 36.45160
# Shear Modulus (GPa) = 22.19565 24.66925 23.43245
#
# Velocity S-wave (km/s) = 3.42739 3.61333 3.52159
# Velocity P-wave (km/s) = 5.70266 6.25576 5.98560
#
# Compressibility (1/GPa) = 0.03139525
#
# Stress axis : x y z
#
# Youngs Moduli (GPa) = 56.96720 49.30065 50.83127
#
# Poissons Ratio (x) = 0.31273 0.08632
# Poissons Ratio (y) = 0.36136 0.25498
# Poissons Ratio (z) = 0.09674 0.24730
#
# Static dielectric constant tensor:
#      x y z
#    x 3.307650 0.000000 0.059490 
#    y 0.000000 3.364290 0.000000 
#    z 0.059490 0.000000 3.982440 
# 
# 
# High freq. dielectric constant tensor:
#      x y z
#    x 1.710560 0.000000 -0.006790 
#    y 0.000000 1.724470 0.000000 
#    z -0.006790 0.000000 1.746300 
# 
# From -- ./inp_files/281257.got.cif
#   From: 2010.06.25/outbox.cif.g09.slc.cpg/sg12_141_cif.got.tgz:281257.got - 2010.06.28 00:19:55.
