data_PCOD8101289
_publ_section_title
;
Structure prediction by ZEFSAII (Michael W. Deem and Ramdas Pophale) SiO2 
 PCOD8101289
Probable space group: C 2/M
;
_chemical_formula_sum "Si O2"
_cell_formula_units_Z 64
_cell_length_a 9.172349
_cell_length_b 25.447870
_cell_length_c 13.451561
_cell_angle_alpha 90.000000
_cell_angle_beta 74.487144
_cell_angle_gamma 90.000000
_cell_volume 3025.437419
_symmetry_space_group_name_H-M "C 2/M"
_symmetry_group_IT_number 12
_symmetry_cell_setting 'monoclinic'
loop_
_space_group_symop_operation_xyz
x,y,z
-x,y,-z
-x,-y,-z
x,-y,z
1/2+x,1/2+y,z
1/2-x,1/2+y,-z
1/2-x,1/2-y,-z
1/2+x,1/2-y,z
loop_
_atom_site_type_symbol
_atom_site_label
_atom_site_fract_x
_atom_site_fract_y
_atom_site_fract_z
Si Si1 0.143055 0.061358 0.532325
Si Si2 0.333937 0.864863 0.765574
Si Si3 0.671926 0.734163 0.708689
Si Si4 0.911020 0.439841 0.348666
Si Si5 0.053637 0.684324 0.881433
Si Si6 0.418637 0.310065 0.617332
Si Si7 0.910957 0.939464 0.229378
Si Si8 0.214233 0.103632 0.223618
O O1 0.302435 0.080955 0.457337
O O2 0.136385 0.075263 0.649329
O O3 0.000000 0.086536 0.500000
O O4 0.137391 0.000000 0.514329
O O5 0.269837 0.817311 0.712334
O O6 0.449166 0.899701 0.678704
O O7 0.414087 0.841641 0.847971
O O8 0.194027 0.903159 0.822091
O O9 0.615306 0.762621 0.819642
O O10 0.525094 0.720970 0.673163
O O11 0.771248 0.774359 0.625414
O O12 0.967454 0.500000 0.355421
O O13 0.821261 0.438421 0.259795
O O14 0.188860 0.641834 0.864801
O O15 0.000000 0.700452 0.000000
O O16 0.500000 0.322473 0.500000
O O17 0.369574 0.364503 0.674457
O O18 0.088297 0.926308 0.180647
O O19 0.881819 0.000000 0.208556
#
# Coordination Sequence:
#
# PCOD8101289 Si02
#       8
#     8   8   8   8   8   8   8   8
#     4   9  17  30  52  85 120 167 225 252 280 344
#     4  11  23  40  61  92 128 156 206 263 320 378
#     4  11  22  44  62  93 128 159 210 260 312 382
#     4  10  20  36  57  86 129 175 215 256 295 356
#     4  10  24  47  72  91 117 156 207 274 333 382
#     4  11  23  39  61  92 133 174 205 246 305 375
#     4  11  21  36  60  92 133 172 206 263 310 349
#     4  10  21  36  63  93 125 165 218 248 301 387
#
# _framework density 21.153964999999999
#
# number of rings (size 3 to 8) (size 9 to 14) (size 15 to 20)
#    0.000    1.625    3.750    1.125    1.750    1.000 
#    2.250    2.500    0.000   14.250    0.000    0.000 
#    0.000    0.000    0.000    0.000    0.000    0.000 
#
# Total GULP energy -396763.006833 kJ/mol
# GULP energy per Si atom -12398.843964 kJ/mol
# Density = 2.110582 g / cm^3
# Si number density = 21.153965 Si / 1000 Ang^3
#
#
#
# Elastic Constant Matrix: (Units=GPa)
#
#
# Indices 1 2 3 4 5 6 
#
# 1 91.9967 30.8926 7.8899 0.0000 -8.0623 0.0000
# 2 30.8926 104.1756 16.0042 0.0000 -5.7238 0.0000
# 3 7.8899 16.0042 72.4811 0.0000 -15.7731 0.0000
# 4 0.0000 0.0000 0.0000 23.1658 0.0000 -2.5892
# 5 -8.0623 -5.7238 -15.7731 0.0000 16.4896 0.0000
# 6 0.0000 0.0000 0.0000 -2.5892 0.0000 41.7906
#
#
#
# Elastic Compliance Matrix: (Units=1/GPa)
#
#
# Indices 1 2 3 4 5 6 
#
# 1 0.012469 -0.003490 0.000602 0.000000 0.005460 0.000000
# 2 -0.003490 0.010951 -0.001998 0.000000 0.000184 0.000000
# 3 0.000602 -0.001998 0.017788 0.000000 0.016616 0.000000
# 4 0.000000 0.000000 0.000000 0.043468 0.000000 0.002693
# 5 0.005460 0.000184 0.016616 0.000000 0.079272 0.000000
# 6 0.000000 0.000000 0.000000 0.002693 0.000000 0.024096
#
#
# Mechanical properties :
#
#
# Convention : Reuss Voigt Hill
#
# Bulk Modulus (GPa) = 31.81149 42.02519 36.91834
# Shear Modulus (GPa) = 24.00440 30.54699 27.27570
#
# Velocity S-wave (km/s) = 3.37226 3.80416 3.59470
# Velocity P-wave (km/s) = 5.49850 6.26139 5.89231
#
# Compressibility (1/GPa) = 0.03143518
#
# Stress axis : x y z
#
# Youngs Moduli (GPa) = 80.19998 91.31446 56.21659
#
# Poissons Ratio (x) = 0.31868 -0.03382
# Poissons Ratio (y) = 0.27989 0.11233
# Poissons Ratio (z) = -0.04825 0.18247
#
# Static dielectric constant tensor:
#      x y z
#    x 4.160580 0.000000 -0.203910 
#    y 0.000000 3.898850 0.000000 
#    z -0.203910 0.000000 3.327310 
# 
# 
# High freq. dielectric constant tensor:
#      x y z
#    x 1.845870 0.000000 -0.015560 
#    y 0.000000 1.844120 0.000000 
#    z -0.015560 0.000000 1.775810 
# 
# From -- ./inp_files/199754.got.cif
#   From: 2010.06.25/outbox.cif.g09.slc.cpg/sg12_100_cif.got.tgz:199754.got - 2010.06.28 00:19:55.
