data_PCOD8101522
_publ_section_title
;
Structure prediction by ZEFSAII (Michael W. Deem and Ramdas Pophale) SiO2 
 PCOD8101522
Probable space group: C 2/M
;
_chemical_formula_sum "Si O2"
_cell_formula_units_Z 56
_cell_length_a 21.084289
_cell_length_b 8.929406
_cell_length_c 15.112800
_cell_angle_alpha 90.000000
_cell_angle_beta 92.245254
_cell_angle_gamma 90.000000
_cell_volume 2843.105155
_symmetry_space_group_name_H-M "C 2/M"
_symmetry_group_IT_number 12
_symmetry_cell_setting 'monoclinic'
loop_
_space_group_symop_operation_xyz
x,y,z
-x,y,-z
-x,-y,-z
x,-y,z
1/2+x,1/2+y,z
1/2-x,1/2+y,-z
1/2-x,1/2-y,-z
1/2+x,1/2-y,z
loop_
_atom_site_type_symbol
_atom_site_label
_atom_site_fract_x
_atom_site_fract_y
_atom_site_fract_z
Si Si1 0.813270 0.175331 0.968102
Si Si2 0.467200 0.677059 0.407455
Si Si3 0.444480 0.677311 0.063738
Si Si4 0.337029 0.826294 0.432731
Si Si5 0.713772 0.827878 0.379951
Si Si6 0.501358 0.826702 0.230356
Si Si7 0.855575 0.670118 0.801947
O O1 0.820948 0.217993 0.866300
O O2 0.805059 0.000000 0.976909
O O3 0.750000 0.250000 0.000000
O O4 0.875938 0.230064 0.024032
O O5 0.500000 0.733594 0.500000
O O6 0.471441 0.500000 0.399206
O O7 0.394684 0.728093 0.400994
O O8 0.502432 0.748933 0.325851
O O9 0.447999 0.500000 0.075783
O O10 0.451441 0.752225 0.160404
O O11 0.500000 0.732017 0.000000
O O12 0.326460 0.789689 0.535085
O O13 0.274978 0.777659 0.374762
O O14 0.351356 0.000000 0.416233
O O15 0.667794 0.791091 0.297068
O O16 0.736528 0.000000 0.383070
O O17 0.569610 0.804110 0.189815
O O18 0.484056 0.000000 0.242492
O O19 0.838032 0.500000 0.826806
#
# Coordination Sequence:
#
# PCOD8101522 Si02
#       7
#     8   8   8   8   8   8   8
#     4  11  24  41  63  89 121 158 197 249 305 362
#     4  11  24  40  59  85 120 160 201 247 300 359
#     4  10  21  41  65  89 122 162 203 249 305 366
#     4  10  20  36  58  84 116 154 198 246 296 350
#     4   9  19  36  58  83 116 156 194 237 295 361
#     4  11  23  38  63  94 121 156 202 253 304 360
#     4  10  21  38  60  87 118 152 194 243 299 360
#
# _framework density 19.696773
#
# number of rings (size 3 to 8) (size 9 to 14) (size 15 to 20)
#    0.000    1.714    1.429    2.571    0.000    6.571 
#    0.000    1.429    0.000    0.000    0.000    0.000 
#    0.000    0.000    0.000    0.000    0.000    0.000 
#
# Total GULP energy -347333.119526 kJ/mol
# GULP energy per Si atom -12404.754269 kJ/mol
# Density = 1.965194 g / cm^3
# Si number density = 19.696773 Si / 1000 Ang^3
#
#
#
# Elastic Constant Matrix: (Units=GPa)
#
#
# Indices 1 2 3 4 5 6 
#
# 1 102.4846 37.3006 34.5669 0.0000 2.5325 0.0000
# 2 37.3006 65.6150 38.3039 0.0000 0.4006 0.0000
# 3 34.5669 38.3039 95.5091 0.0000 5.8417 0.0000
# 4 0.0000 0.0000 0.0000 36.4425 0.0000 -2.3578
# 5 2.5325 0.4006 5.8417 0.0000 30.7168 0.0000
# 6 0.0000 0.0000 0.0000 -2.3578 0.0000 31.2180
#
#
#
# Elastic Compliance Matrix: (Units=1/GPa)
#
#
# Indices 1 2 3 4 5 6 
#
# 1 0.012661 -0.005926 -0.002172 0.000000 -0.000554 0.000000
# 2 -0.005926 0.022722 -0.007062 0.000000 0.001535 0.000000
# 3 -0.002172 -0.007062 0.014237 0.000000 -0.002437 0.000000
# 4 0.000000 0.000000 0.000000 0.027575 0.000000 0.002083
# 5 -0.000554 0.001535 -0.002437 0.000000 0.033045 0.000000
# 6 0.000000 0.000000 0.000000 0.002083 0.000000 0.032190
#
#
# Mechanical properties :
#
#
# Convention : Reuss Voigt Hill
#
# Bulk Modulus (GPa) = 51.81071 53.77238 52.79154
# Shear Modulus (GPa) = 27.90439 29.90462 28.90450
#
# Velocity S-wave (km/s) = 3.76799 3.90070 3.83492
# Velocity P-wave (km/s) = 6.72990 6.90265 6.81683
#
# Compressibility (1/GPa) = 0.01930103
#
# Stress axis : x y z
#
# Youngs Moduli (GPa) = 78.98524 44.00937 70.23770
#
# Poissons Ratio (x) = 0.26081 0.15253
# Poissons Ratio (y) = 0.46808 0.49601
# Poissons Ratio (z) = 0.17153 0.31079
#
# Static dielectric constant tensor:
#      x y z
#    x 3.598620 0.000000 0.074770 
#    y 0.000000 3.570040 0.000000 
#    z 0.074770 0.000000 3.583680 
# 
# 
# High freq. dielectric constant tensor:
#      x y z
#    x 1.771040 0.000000 0.004960 
#    y 0.000000 1.769260 0.000000 
#    z 0.004960 0.000000 1.771480 
# 
# From -- ./inp_files/231051.got.cif
#   From: 2010.06.25/outbox.cif.g09.slc.cpg/sg12_116_cif.got.tgz:231051.got - 2010.06.28 00:19:55.
