data_PCOD8101056
_publ_section_title
;
Structure prediction by ZEFSAII (Michael W. Deem and Ramdas Pophale) SiO2 
 PCOD8101056
Probable space group: C 2/M
;
_chemical_formula_sum "Si O2"
_cell_formula_units_Z 64
_cell_length_a 30.234984
_cell_length_b 9.100263
_cell_length_c 24.039500
_cell_angle_alpha 90.000000
_cell_angle_beta 150.831548
_cell_angle_gamma 90.000000
_cell_volume 3223.709331
_symmetry_space_group_name_H-M "C 2/M"
_symmetry_group_IT_number 12
_symmetry_cell_setting 'monoclinic'
loop_
_space_group_symop_operation_xyz
x,y,z
-x,y,-z
-x,-y,-z
x,-y,z
1/2+x,1/2+y,z
1/2-x,1/2+y,-z
1/2-x,1/2-y,-z
1/2+x,1/2-y,z
loop_
_atom_site_type_symbol
_atom_site_label
_atom_site_fract_x
_atom_site_fract_y
_atom_site_fract_z
Si Si1 0.137397 0.673846 0.527436
Si Si2 0.039903 0.838893 0.179784
Si Si3 0.097833 0.669388 0.895513
Si Si4 0.438187 0.827162 0.272155
Si Si5 0.750598 0.325329 0.246182
Si Si6 0.092757 0.338105 0.132796
Si Si7 0.220731 0.171472 0.839736
Si Si8 0.738627 0.340812 0.433437
O O1 0.140521 0.500000 0.529876
O O2 0.165910 0.723377 0.621340
O O3 0.213585 0.735083 0.567842
O O4 0.038406 0.729675 0.399764
O O5 0.061451 0.721844 0.157038
O O6 0.132432 0.862501 0.313278
O O7 0.965156 0.775798 0.138775
O O8 0.006790 0.000000 0.121258
O O9 0.070060 0.500000 0.874991
O O10 0.085363 0.711720 0.817319
O O11 0.200537 0.698200 0.028330
O O12 0.370782 0.740771 0.237829
O O13 0.427676 0.000000 0.271734
O O14 0.748516 0.500000 0.235055
O O15 0.657301 0.276687 0.172585
O O16 0.756686 0.246742 0.193882
O O17 0.139207 0.500000 0.189625
O O18 0.000000 0.358001 0.000000
O O19 0.206264 0.000000 0.812726
O O20 0.785673 0.500000 0.493393
O O21 0.750000 0.250000 0.500000
#
# Coordination Sequence:
#
# PCOD8101056 Si02
#       8
#     8   8   8   8   8   8   8   8
#     4   9  19  38  61  85 119 154 197 249 295 351
#     4  11  22  36  58  88 120 155 197 239 287 349
#     4  10  22  40  62  88 122 159 197 247 310 367
#     4  10  21  40  66  89 112 156 205 248 305 365
#     4  11  22  40  63  87 119 159 203 250 297 357
#     4  11  23  38  57  84 120 159 198 242 295 353
#     4  11  24  41  60  88 123 156 197 254 309 363
#     4  10  20  36  56  84 119 155 194 238 288 347
#
# _framework density 19.852906999999998
#
# number of rings (size 3 to 8) (size 9 to 14) (size 15 to 20)
#    0.000    1.625    1.250    3.375    0.000    8.000 
#    0.000    4.375    0.000    0.000    0.000    0.000 
#    0.000    0.000    0.000    0.000    0.000    0.000 
#
# Total GULP energy -396668.023384 kJ/mol
# GULP energy per Si atom -12395.875731 kJ/mol
# Density = 1.980772 g / cm^3
# Si number density = 19.852907 Si / 1000 Ang^3
#
#
#
# Elastic Constant Matrix: (Units=GPa)
#
#
# Indices 1 2 3 4 5 6 
#
# 1 86.0246 31.1740 26.9962 0.0000 -1.0773 0.0000
# 2 31.1740 78.7910 28.5473 0.0000 -3.6697 0.0000
# 3 26.9962 28.5473 96.0790 0.0000 -4.1947 0.0000
# 4 0.0000 0.0000 0.0000 26.6504 0.0000 0.5309
# 5 -1.0773 -3.6697 -4.1947 0.0000 41.2812 0.0000
# 6 0.0000 0.0000 0.0000 0.5309 0.0000 39.0287
#
#
#
# Elastic Compliance Matrix: (Units=1/GPa)
#
#
# Indices 1 2 3 4 5 6 
#
# 1 0.014125 -0.004662 -0.002597 0.000000 -0.000310 0.000000
# 2 -0.004662 0.015791 -0.003341 0.000000 0.000943 0.000000
# 3 -0.002597 -0.003341 0.012168 0.000000 0.000872 0.000000
# 4 0.000000 0.000000 0.000000 0.037533 0.000000 -0.000511
# 5 -0.000310 0.000943 0.000872 0.000000 0.024388 0.000000
# 6 0.000000 0.000000 0.000000 -0.000511 0.000000 0.025629
#
#
# Mechanical properties :
#
#
# Convention : Reuss Voigt Hill
#
# Bulk Modulus (GPa) = 47.88252 48.25884 48.07068
# Shear Modulus (GPa) = 31.68641 33.00389 32.34515
#
# Velocity S-wave (km/s) = 3.99940 4.08170 4.04076
# Velocity P-wave (km/s) = 6.74522 6.82457 6.78501
#
# Compressibility (1/GPa) = 0.02088445
#
# Stress axis : x y z
#
# Youngs Moduli (GPa) = 70.79530 63.32852 82.17944
#
# Poissons Ratio (x) = 0.29525 0.21344
# Poissons Ratio (y) = 0.33006 0.27453
# Poissons Ratio (z) = 0.18387 0.21156
#
# Static dielectric constant tensor:
#      x y z
#    x 3.632110 0.000000 -0.105390 
#    y 0.000000 3.752090 0.000000 
#    z -0.105390 0.000000 3.786920 
# 
# 
# High freq. dielectric constant tensor:
#      x y z
#    x 1.778310 0.000000 -0.004080 
#    y 0.000000 1.770620 0.000000 
#    z -0.004080 0.000000 1.783020 
# 
# From -- ./inp_files/353508.got.cif
#   From: 2010.06.25/outbox.cif.g09.slc.cpg/sg12_177_cif.got.tgz:353508.got - 2010.06.28 00:19:55.
