data_PCOD8101551
_publ_section_title
;
Structure prediction by ZEFSAII (Michael W. Deem and Ramdas Pophale) SiO2 
 PCOD8101551
Probable space group: C 2/M
;
_chemical_formula_sum "Si O2"
_cell_formula_units_Z 64
_cell_length_a 20.226519
_cell_length_b 8.675421
_cell_length_c 24.278693
_cell_angle_alpha 90.000000
_cell_angle_beta 128.364914
_cell_angle_gamma 90.000000
_cell_volume 3340.364699
_symmetry_space_group_name_H-M "C 2/M"
_symmetry_group_IT_number 12
_symmetry_cell_setting 'monoclinic'
loop_
_space_group_symop_operation_xyz
x,y,z
-x,y,-z
-x,-y,-z
x,-y,z
1/2+x,1/2+y,z
1/2-x,1/2+y,-z
1/2-x,1/2-y,-z
1/2+x,1/2-y,z
loop_
_atom_site_type_symbol
_atom_site_label
_atom_site_fract_x
_atom_site_fract_y
_atom_site_fract_z
Si Si1 0.645154 0.681412 0.793688
Si Si2 0.681935 0.819357 0.423821
Si Si3 0.244092 0.816664 0.057369
Si Si4 0.247565 0.820827 0.349486
Si Si5 0.217266 0.821034 0.210401
Si Si6 0.492097 0.182319 0.345195
Si Si7 0.407430 0.319762 0.946334
Si Si8 0.576087 0.320254 0.579474
O O1 0.634586 0.500000 0.795179
O O2 0.677193 0.753539 0.867288
O O3 0.708768 0.717905 0.776554
O O4 0.554605 0.758406 0.734033
O O5 0.750000 0.750000 0.500000
O O6 0.695207 0.769604 0.367954
O O7 0.589131 0.765134 0.393899
O O8 0.690733 0.000000 0.432240
O O9 0.157485 0.756321 0.041134
O O10 0.247910 0.000000 0.058355
O O11 0.250000 0.750000 0.000000
O O12 0.206655 0.780688 0.269061
O O13 0.344630 0.772782 0.402318
O O14 0.241294 0.000000 0.359746
O O15 0.129517 0.784830 0.133693
O O16 0.242887 0.000000 0.215156
O O17 0.446453 0.266171 0.371585
O O18 0.482510 0.000000 0.346280
O O19 0.417061 0.500000 0.961267
O O20 0.500000 0.241076 0.000000
O O21 0.500000 0.279879 0.500000
O O22 0.598098 0.500000 0.591374
#
# Coordination Sequence:
#
# PCOD8101551 Si02
#       8
#     8   8   8   8   8   8   8   8
#     4  11  21  35  60  88 115 152 196 243 292 345
#     4  11  25  43  62  83 116 155 194 240 298 357
#     4  10  20  36  58  85 120 154 192 238 288 347
#     4  11  22  37  59  85 117 154 193 235 289 350
#     4   9  18  34  57  85 116 152 189 235 287 339
#     4  11  23  40  60  84 116 154 193 240 296 349
#     4   8  15  31  56  83 113 148 188 230 272 324
#     4  11  23  37  58  88 116 145 190 244 286 338
#
# _framework density 19.159586000000001
#
# number of rings (size 3 to 8) (size 9 to 14) (size 15 to 20)
#    0.000    1.750    1.250    4.500    0.000    5.500 
#    2.250    0.000    0.000    9.375    0.000    0.000 
#    0.000    0.000    0.000    0.000    0.000    0.000 
#
# Total GULP energy -396865.200255 kJ/mol
# GULP energy per Si atom -12402.037508 kJ/mol
# Density = 1.911598 g / cm^3
# Si number density = 19.159586 Si / 1000 Ang^3
#
#
#
# Elastic Constant Matrix: (Units=GPa)
#
#
# Indices 1 2 3 4 5 6 
#
# 1 47.6104 17.2564 30.2733 0.0000 -0.4220 0.0000
# 2 17.2564 -1.7006 35.0488 0.0000 6.5060 0.0000
# 3 30.2733 35.0488 130.0840 0.0000 4.7042 0.0000
# 4 0.0000 0.0000 0.0000 31.3283 0.0000 -5.2765
# 5 -0.4220 6.5060 4.7042 0.0000 37.4468 0.0000
# 6 0.0000 0.0000 0.0000 -5.2765 0.0000 27.7283
#
#
#
# Elastic Compliance Matrix: (Units=1/GPa)
#
#
# Indices 1 2 3 4 5 6 
#
# 1 0.020919 0.016398 -0.009234 0.000000 -0.001453 0.000000
# 2 0.016398 -0.071320 0.015013 0.000000 0.010690 0.000000
# 3 -0.009234 0.015013 0.005916 0.000000 -0.003456 0.000000
# 4 0.000000 0.000000 0.000000 0.032977 0.000000 0.006275
# 5 -0.001453 0.010690 -0.003456 0.000000 0.025265 0.000000
# 6 0.000000 0.000000 0.000000 0.006275 0.000000 0.037258
#
#
# Mechanical properties :
#
#
# Convention : Reuss Voigt Hill
#
# Bulk Modulus (GPa) = -7705.62922 37.90564 -3833.86179
# Shear Modulus (GPa) = 755.58262 25.52838 390.55550
#
# Velocity S-wave (km/s) = 19.88011 3.65418 14.29286
# Velocity P-wave (km/s) = 59.19110 6.13442 41.62905
#
# Compressibility (1/GPa) = -0.00012978
#
# Stress axis : x y z
#
# Youngs Moduli (GPa) = 47.80394 -14.02136 169.02541
#
# Poissons Ratio (x) = 0.22993 1.56077
# Poissons Ratio (y) = -0.78391 -2.53757
# Poissons Ratio (z) = 0.44142 0.21050
#
# Static dielectric constant tensor:
#      x y z
#    x 3.334210 0.000000 -0.055130 
#    y 0.000000 3.446050 0.000000 
#    z -0.055130 0.000000 3.698180 
# 
# 
# High freq. dielectric constant tensor:
#      x y z
#    x 1.732080 0.000000 0.001440 
#    y 0.000000 1.742230 0.000000 
#    z 0.001440 0.000000 1.762630 
# 
# From -- ./inp_files/346140.got.cif
#   From: 2010.06.25/outbox.cif.g09.slc.cpg/sg12_174_cif.got.tgz:346140.got - 2010.06.28 00:19:55.
