data_PCOD8101905
_publ_section_title
;
Structure prediction by ZEFSAII (Michael W. Deem and Ramdas Pophale) SiO2 
 PCOD8101905
Probable space group: C 2/M
;
_chemical_formula_sum "Si O2"
_cell_formula_units_Z 48
_cell_length_a 26.109642
_cell_length_b 9.266282
_cell_length_c 10.609847
_cell_angle_alpha 90.000000
_cell_angle_beta 112.966639
_cell_angle_gamma 90.000000
_cell_volume 2363.463419
_symmetry_space_group_name_H-M "C 2/M"
_symmetry_group_IT_number 12
_symmetry_cell_setting 'monoclinic'
loop_
_space_group_symop_operation_xyz
x,y,z
-x,y,-z
-x,-y,-z
x,-y,z
1/2+x,1/2+y,z
1/2-x,1/2+y,-z
1/2-x,1/2-y,-z
1/2+x,1/2-y,z
loop_
_atom_site_type_symbol
_atom_site_label
_atom_site_fract_x
_atom_site_fract_y
_atom_site_fract_z
Si Si1 0.344229 0.162028 0.834611
Si Si2 0.136105 0.340599 0.630780
Si Si3 0.254172 0.656144 0.624081
Si Si4 0.963387 0.329479 0.843923
Si Si5 0.692330 0.164587 0.930396
Si Si6 0.960785 0.829289 0.581275
O O1 0.293779 0.268221 0.761449
O O2 0.400307 0.212294 0.819493
O O3 0.329415 0.000000 0.775133
O O4 0.348873 0.168239 0.989741
O O5 0.107272 0.500000 0.614862
O O6 0.193010 0.362184 0.614601
O O7 0.152252 0.272874 0.782199
O O8 0.099303 0.230725 0.514941
O O9 0.279785 0.500000 0.616630
O O10 0.250000 0.750000 0.500000
O O11 0.970263 0.500000 0.825756
O O12 0.980669 0.245801 0.731720
O O13 0.000000 0.281629 0.000000
O O14 0.709369 0.000000 0.913070
O O15 0.750000 0.250000 0.000000
O O16 0.000000 0.790664 0.500000
O O17 0.957958 0.000000 0.601911
#
# Coordination Sequence:
#
# PCOD8101905 Si02
#       6
#     8   8   8   8   8   8
#     4  10  21  37  59  89 123 156 199 252 303 362
#     4  10  22  39  61  88 120 159 206 251 298 363
#     4  11  22  36  56  85 118 155 198 244 300 365
#     4  10  23  43  68  95 122 160 211 260 309 368
#     4  10  20  36  59  90 125 159 201 248 300 363
#     4  11  26  45  64  92 126 162 206 256 313 373
#
# _framework density 20.309179
#
# number of rings (size 3 to 8) (size 9 to 14) (size 15 to 20)
#    0.000    1.667    1.667    2.000    2.333    8.333 
#    0.000    0.000    0.000    0.000    0.000    0.000 
#    0.000    0.000    0.000    0.000    0.000    0.000 
#
# Total GULP energy -297467.570243 kJ/mol
# GULP energy per Si atom -12394.482093 kJ/mol
# Density = 2.026295 g / cm^3
# Si number density = 20.309179 Si / 1000 Ang^3
#
#
#
# Elastic Constant Matrix: (Units=GPa)
#
#
# Indices 1 2 3 4 5 6 
#
# 1 80.4458 41.2776 37.6199 0.0000 -10.9080 0.0000
# 2 41.2776 101.5616 62.6178 0.0000 -3.0056 0.0000
# 3 37.6199 62.6178 154.0967 0.0000 -10.5642 0.0000
# 4 0.0000 0.0000 0.0000 27.1208 0.0000 -7.6814
# 5 -10.9080 -3.0056 -10.5642 0.0000 37.1908 0.0000
# 6 0.0000 0.0000 0.0000 -7.6814 0.0000 22.6727
#
#
#
# Elastic Compliance Matrix: (Units=1/GPa)
#
#
# Indices 1 2 3 4 5 6 
#
# 1 0.016590 -0.005732 -0.001447 0.000000 0.003992 0.000000
# 2 -0.005732 0.015126 -0.004874 0.000000 -0.001843 0.000000
# 3 -0.001447 -0.004874 0.008941 0.000000 0.001721 0.000000
# 4 0.000000 0.000000 0.000000 0.040786 0.000000 0.013818
# 5 0.003992 -0.001843 0.001721 0.000000 0.028399 0.000000
# 6 0.000000 0.000000 0.000000 0.013818 0.000000 0.048787
#
#
# Mechanical properties :
#
#
# Convention : Reuss Voigt Hill
#
# Bulk Modulus (GPa) = 60.41788 68.79276 64.60532
# Shear Modulus (GPa) = 26.56002 30.36944 28.46473
#
# Velocity S-wave (km/s) = 3.62025 3.87118 3.74782
# Velocity P-wave (km/s) = 6.87667 7.34354 7.11394
#
# Compressibility (1/GPa) = 0.01655139
#
# Stress axis : x y z
#
# Youngs Moduli (GPa) = 60.27714 66.11025 111.84272
#
# Poissons Ratio (x) = 0.37896 0.16186
# Poissons Ratio (y) = 0.34553 0.54507
# Poissons Ratio (z) = 0.08723 0.32219
#
# Static dielectric constant tensor:
#      x y z
#    x 3.561690 0.000000 -0.147410 
#    y 0.000000 3.606580 0.000000 
#    z -0.147410 0.000000 3.770690 
# 
# 
# High freq. dielectric constant tensor:
#      x y z
#    x 1.789770 0.000000 -0.014390 
#    y 0.000000 1.788870 0.000000 
#    z -0.014390 0.000000 1.807800 
# 
# From -- ./inp_files/180243.got.cif
#   From: 2010.06.25/outbox.cif.g09.slc.cpg/sg12_91_cif.got.tgz:180243.got - 2010.06.28 00:19:55.
