data_PCOD8101837
_publ_section_title
;
Structure prediction by ZEFSAII (Michael W. Deem and Ramdas Pophale) SiO2 
 PCOD8101837
Probable space group: C 2/M
;
_chemical_formula_sum "Si O2"
_cell_formula_units_Z 64
_cell_length_a 30.678255
_cell_length_b 8.697770
_cell_length_c 19.528587
_cell_angle_alpha 90.000000
_cell_angle_beta 142.398696
_cell_angle_gamma 90.000000
_cell_volume 3179.474901
_symmetry_space_group_name_H-M "C 2/M"
_symmetry_group_IT_number 12
_symmetry_cell_setting 'monoclinic'
loop_
_space_group_symop_operation_xyz
x,y,z
-x,y,-z
-x,-y,-z
x,-y,z
1/2+x,1/2+y,z
1/2-x,1/2+y,-z
1/2-x,1/2-y,-z
1/2+x,1/2-y,z
loop_
_atom_site_type_symbol
_atom_site_label
_atom_site_fract_x
_atom_site_fract_y
_atom_site_fract_z
Si Si1 0.948166 0.682356 0.646984
Si Si2 0.324260 0.680881 0.242319
Si Si3 0.071654 0.319043 0.225121
Si Si4 0.071211 0.177951 0.994428
Si Si5 0.820417 0.178678 0.989355
Si Si6 0.330324 0.318657 0.759273
Si Si7 0.602335 0.182117 0.791195
Si Si8 0.826220 0.317668 0.391673
O O1 0.949676 0.500000 0.651874
O O2 0.933239 0.749513 0.704151
O O3 0.886106 0.738619 0.519279
O O4 0.024044 0.743867 0.714067
O O5 0.333592 0.500000 0.245679
O O6 0.244360 0.728072 0.123419
O O7 0.381678 0.766708 0.266027
O O8 0.341798 0.731037 0.340854
O O9 0.076939 0.500000 0.233926
O O10 0.142743 0.254650 0.277907
O O11 0.002368 0.270583 0.095454
O O12 0.052900 0.000000 0.982659
O O13 0.110418 0.206446 0.971372
O O14 0.121105 0.240116 0.117427
O O15 0.798727 0.000000 0.965397
O O16 0.837796 0.240359 0.086332
O O17 0.334440 0.500000 0.757757
O O18 0.249644 0.264882 0.672211
O O19 0.608043 0.000000 0.805855
O O20 0.827788 0.500000 0.380374
#
# Coordination Sequence:
#
# PCOD8101837 Si02
#       8
#     8   8   8   8   8   8   8   8
#     4   9  21  40  63  87 116 156 203 249 294 349
#     4  12  25  40  60  91 124 155 194 247 302 355
#     4  11  22  37  58  90 123 155 195 243 297 351
#     4  10  20  36  59  87 118 155 196 239 293 357
#     4  11  21  38  63  91 120 158 197 241 298 356
#     4  10  21  38  60  87 117 155 199 243 294 355
#     4  11  22  40  63  90 122 159 199 242 295 356
#     4  10  21  43  66  84 113 159 207 247 292 354
#
# _framework density 20.129110000000001
#
# number of rings (size 3 to 8) (size 9 to 14) (size 15 to 20)
#    0.000    1.500    2.500    3.000    0.000    4.000 
#    0.000    5.000    0.000    0.000    0.000    0.000 
#    0.000    0.000    0.000    0.000    0.000    0.000 
#
# Total GULP energy -396974.866437 kJ/mol
# GULP energy per Si atom -12405.464576 kJ/mol
# Density = 2.008330 g / cm^3
# Si number density = 20.129110 Si / 1000 Ang^3
#
#
#
# Elastic Constant Matrix: (Units=GPa)
#
#
# Indices 1 2 3 4 5 6 
#
# 1 123.3820 26.9913 42.5260 0.0000 -10.8834 0.0000
# 2 26.9913 35.7293 18.6281 0.0000 -4.1977 0.0000
# 3 42.5260 18.6281 125.1016 0.0000 -6.1621 0.0000
# 4 0.0000 0.0000 0.0000 24.6232 0.0000 -4.0052
# 5 -10.8834 -4.1977 -6.1621 0.0000 17.6686 0.0000
# 6 0.0000 0.0000 0.0000 -4.0052 0.0000 32.9395
#
#
#
# Elastic Compliance Matrix: (Units=1/GPa)
#
#
# Indices 1 2 3 4 5 6 
#
# 1 0.010716 -0.006296 -0.002497 0.000000 0.004234 0.000000
# 2 -0.006296 0.034625 -0.002850 0.000000 0.003354 0.000000
# 3 -0.002497 -0.002850 0.009318 0.000000 0.001035 0.000000
# 4 0.000000 0.000000 0.000000 0.041432 0.000000 0.005038
# 5 0.004234 0.003354 0.001035 0.000000 0.060363 0.000000
# 6 0.000000 0.000000 0.000000 0.005038 0.000000 0.030971
#
#
# Mechanical properties :
#
#
# Convention : Reuss Voigt Hill
#
# Bulk Modulus (GPa) = 31.87550 51.16709 41.52130
# Shear Modulus (GPa) = 22.60714 28.11741 25.36228
#
# Velocity S-wave (km/s) = 3.35491 3.74150 3.55347
# Velocity P-wave (km/s) = 5.55672 6.64378 6.12442
#
# Compressibility (1/GPa) = 0.03137206
#
# Stress axis : x y z
#
# Youngs Moduli (GPa) = 93.31514 28.88107 107.32397
#
# Poissons Ratio (x) = 0.18185 0.26796
# Poissons Ratio (y) = 0.58755 0.30590
# Poissons Ratio (z) = 0.23298 0.08232
#
# Static dielectric constant tensor:
#      x y z
#    x 3.897300 0.000000 -0.051090 
#    y 0.000000 3.425910 0.000000 
#    z -0.051090 0.000000 3.670140 
# 
# 
# High freq. dielectric constant tensor:
#      x y z
#    x 1.803750 0.000000 -0.002550 
#    y 0.000000 1.769400 0.000000 
#    z -0.002550 0.000000 1.782570 
# 
# From -- ./inp_files/295793.got.cif
#   From: 2010.06.25/outbox.cif.g09.slc.cpg/sg12_148_cif.got.tgz:295793.got - 2010.06.28 00:19:55.
