data_PCOD8101364
_publ_section_title
;
Structure prediction by ZEFSAII (Michael W. Deem and Ramdas Pophale) SiO2 
 PCOD8101364
Probable space group: C 2/M
;
_chemical_formula_sum "Si O2"
_cell_formula_units_Z 48
_cell_length_a 5.113570
_cell_length_b 16.657300
_cell_length_c 29.828012
_cell_angle_alpha 90.000000
_cell_angle_beta 70.457820
_cell_angle_gamma 90.000000
_cell_volume 2394.342767
_symmetry_space_group_name_H-M "C 2/M"
_symmetry_group_IT_number 12
_symmetry_cell_setting 'monoclinic'
loop_
_space_group_symop_operation_xyz
x,y,z
-x,y,-z
-x,-y,-z
x,-y,z
1/2+x,1/2+y,z
1/2-x,1/2+y,-z
1/2-x,1/2-y,-z
1/2+x,1/2-y,z
loop_
_atom_site_type_symbol
_atom_site_label
_atom_site_fract_x
_atom_site_fract_y
_atom_site_fract_z
Si Si1 0.312964 0.594681 0.611010
Si Si2 0.443308 0.905483 0.798374
Si Si3 0.123899 0.303347 0.704612
Si Si4 0.928785 0.698688 0.053002
Si Si5 0.821825 0.093629 0.857351
Si Si6 0.918005 0.594423 0.552762
O O1 0.302734 0.500000 0.622068
O O2 0.166141 0.640328 0.659581
O O3 0.624527 0.628188 0.587172
O O4 0.154795 0.616217 0.574408
O O5 0.489885 0.858489 0.750122
O O6 0.663420 0.874437 0.822378
O O7 0.141986 0.883186 0.834549
O O8 0.472513 0.000000 0.786786
O O9 0.416092 0.268450 0.704390
O O10 0.709352 0.770863 0.060398
O O11 0.799132 0.629632 0.090448
O O12 0.000000 0.662247 0.000000
O O13 0.772468 0.000000 0.864302
O O14 0.881151 0.500000 0.548702
O O15 0.000000 0.632695 0.500000
#
# Coordination Sequence:
#
# PCOD8101364 Si02
#       6
#     8   8   8   8   8   8
#     4  10  20  36  58  81 110 146 179 221 274 320
#     4  10  22  40  59  82 111 143 183 228 278 330
#     4  12  25  39  57  82 112 145 184 226 270 325
#     4  10  21  36  55  81 114 151 187 224 269 324
#     4  10  21  37  59  84 110 142 182 231 278 324
#     4   9  17  31  56  87 110 135 181 230 266 312
#
# _framework density 20.047253000000001
#
# number of rings (size 3 to 8) (size 9 to 14) (size 15 to 20)
#    0.000    1.833    0.000    4.000    0.000    6.333 
#    0.000    6.667    0.000   16.000    0.000    0.000 
#    0.000    0.000    0.000    0.000    0.000    0.000 
#
# Total GULP energy -297695.770329 kJ/mol
# GULP energy per Si atom -12403.990430 kJ/mol
# Density = 2.000162 g / cm^3
# Si number density = 20.047253 Si / 1000 Ang^3
#
#
#
# Elastic Constant Matrix: (Units=GPa)
#
#
# Indices 1 2 3 4 5 6 
#
# 1 73.0283 20.1439 -0.7216 0.0000 -4.5953 0.0000
# 2 20.1439 38.8639 51.6179 0.0000 -1.2517 0.0000
# 3 -0.7216 51.6179 126.7916 0.0000 -0.7822 0.0000
# 4 0.0000 0.0000 0.0000 -122.9765 0.0000 -9.2581
# 5 -4.5953 -1.2517 -0.7822 0.0000 25.7138 0.0000
# 6 0.0000 0.0000 0.0000 -9.2581 0.0000 18.3144
#
#
#
# Elastic Compliance Matrix: (Units=1/GPa)
#
#
# Indices 1 2 3 4 5 6 
#
# 1 0.020351 -0.023155 0.009560 0.000000 0.002801 0.000000
# 2 -0.023155 0.082475 -0.033715 0.000000 -0.001149 0.000000
# 3 0.009560 -0.033715 0.021672 0.000000 0.000726 0.000000
# 4 0.000000 0.000000 0.000000 -0.007834 0.000000 -0.003960
# 5 0.002801 -0.001149 0.000726 0.000000 0.039356 0.000000
# 6 0.000000 0.000000 0.000000 -0.003960 0.000000 0.052600
#
#
# Mechanical properties :
#
#
# Convention : Reuss Voigt Hill
#
# Bulk Modulus (GPa) = 33.47099 42.30713 37.88906
# Shear Modulus (GPa) = 15.96425 -4.61342 5.67542
#
# Velocity S-wave (km/s) = 2.82500 -1.51864 1.68439
# Velocity P-wave (km/s) = 5.23193 4.25141 4.76695
#
# Compressibility (1/GPa) = 0.02987662
#
# Stress axis : x y z
#
# Youngs Moduli (GPa) = 49.13762 12.12492 46.14346
#
# Poissons Ratio (x) = 0.28075 -0.44112
# Poissons Ratio (y) = 1.13778 1.55573
# Poissons Ratio (z) = -0.46974 0.40879
#
# Static dielectric constant tensor:
#      x y z
#    x 3.950590 0.000000 -0.023440 
#    y 0.000000 3.342250 0.000000 
#    z -0.023440 0.000000 3.784400 
# 
# 
# High freq. dielectric constant tensor:
#      x y z
#    x 1.802090 0.000000 -0.002120 
#    y 0.000000 1.756380 0.000000 
#    z -0.002120 0.000000 1.798500 
# 
# From -- ./inp_files/371465.got.cif
#   From: 2010.06.25/outbox.cif.g09.slc.cpg/sg12_186_cif.got.tgz:371465.got - 2010.06.28 00:19:55.
