data_PCOD8101250
_publ_section_title
;
Structure prediction by ZEFSAII (Michael W. Deem and Ramdas Pophale) SiO2 
 PCOD8101250
Probable space group: C 2/M
;
_chemical_formula_sum "Si O2"
_cell_formula_units_Z 48
_cell_length_a 18.868853
_cell_length_b 27.877271
_cell_length_c 8.935127
_cell_angle_alpha 90.000000
_cell_angle_beta 148.669914
_cell_angle_gamma 90.000000
_cell_volume 2443.840557
_symmetry_space_group_name_H-M "C 2/M"
_symmetry_group_IT_number 12
_symmetry_cell_setting 'monoclinic'
loop_
_space_group_symop_operation_xyz
x,y,z
-x,y,-z
-x,-y,-z
x,-y,z
1/2+x,1/2+y,z
1/2-x,1/2+y,-z
1/2-x,1/2-y,-z
1/2+x,1/2-y,z
loop_
_atom_site_type_symbol
_atom_site_label
_atom_site_fract_x
_atom_site_fract_y
_atom_site_fract_z
Si Si1 0.805101 0.000000 0.803046
Si Si2 0.270243 0.103406 0.330971
Si Si3 0.036313 0.153891 0.736007
Si Si4 0.604814 0.759383 0.812943
Si Si5 0.796125 0.898739 0.448134
Si Si6 0.107758 0.000000 0.382934
Si Si7 0.961031 0.344576 0.095610
O O1 0.713958 0.046700 0.679713
O O2 0.857664 0.000000 0.728953
O O3 0.949801 0.000000 0.150402
O O4 0.200331 0.104808 0.366554
O O5 0.412455 0.132150 0.586941
O O6 0.174495 0.127231 0.033405
O O7 0.053273 0.210398 0.794098
O O8 0.000000 0.141636 0.500000
O O9 0.910237 0.138955 0.609115
O O10 0.500000 0.777877 0.500000
O O11 0.608622 0.800020 0.946143
O O12 0.750000 0.750000 0.000000
O O13 0.826866 0.951253 0.435149
O O14 0.649600 0.886394 0.116765
O O15 0.000000 0.326412 0.000000
#
# Coordination Sequence:
#
# PCOD8101250 Si02
#       7
#     4   8   8   8   8   4   8
#     4   9  16  31  57  85 110 150 189 224 282 343
#     4  10  20  36  58  84 117 149 185 235 287 335
#     4  11  22  36  57  83 107 147 197 238 278 336
#     4  11  23  41  60  80 112 157 195 232 285 351
#     4  10  20  36  57  84 115 149 187 231 285 339
#     4   9  16  31  57  83 112 148 189 228 273 345
#     4  10  22  37  57  88 119 147 188 243 290 332
#
# _framework density 19.641214999999999
#
# number of rings (size 3 to 8) (size 9 to 14) (size 15 to 20)
#    0.000    1.833    1.667    3.500    0.000    2.000 
#    0.000    9.167    0.000    0.000    0.000    4.667 
#    0.000    0.000    0.000    0.000    0.000    0.000 
#
# Total GULP energy -297542.964169 kJ/mol
# GULP energy per Si atom -12397.623507 kJ/mol
# Density = 1.959651 g / cm^3
# Si number density = 19.641215 Si / 1000 Ang^3
#
#
#
# Elastic Constant Matrix: (Units=GPa)
#
#
# Indices 1 2 3 4 5 6 
#
# 1 64.0366 63.9884 47.7154 0.0000 13.3599 0.0000
# 2 63.9884 143.0500 44.9490 0.0000 -1.8054 0.0000
# 3 47.7154 44.9490 128.4412 0.0000 -0.4971 0.0000
# 4 0.0000 0.0000 0.0000 25.7680 0.0000 -1.9281
# 5 13.3599 -1.8054 -0.4971 0.0000 29.9842 0.0000
# 6 0.0000 0.0000 0.0000 -1.9281 0.0000 11.7318
#
#
#
# Elastic Compliance Matrix: (Units=1/GPa)
#
#
# Indices 1 2 3 4 5 6 
#
# 1 0.045326 -0.017110 -0.010934 0.000000 -0.021407 0.000000
# 2 -0.017110 0.014318 0.001378 0.000000 0.008508 0.000000
# 3 -0.010934 0.001378 0.011385 0.000000 0.005143 0.000000
# 4 0.000000 0.000000 0.000000 0.039291 0.000000 0.006457
# 5 -0.021407 0.008508 0.005143 0.000000 0.043487 0.000000
# 6 0.000000 0.000000 0.000000 0.006457 0.000000 0.086300
#
#
# Mechanical properties :
#
#
# Convention : Reuss Voigt Hill
#
# Bulk Modulus (GPa) = 56.49934 72.09260 64.29597
# Shear Modulus (GPa) = 16.70365 25.42179 21.06272
#
# Velocity S-wave (km/s) = 2.91939 3.60155 3.27826
# Velocity P-wave (km/s) = 6.33971 7.35387 6.86554
#
# Compressibility (1/GPa) = 0.01769932
#
# Stress axis : x y z
#
# Youngs Moduli (GPa) = 22.06249 69.84110 87.83463
#
# Poissons Ratio (x) = 1.19495 0.96035
# Poissons Ratio (y) = 0.37748 -0.12106
# Poissons Ratio (z) = 0.24122 -0.09626
#
# Static dielectric constant tensor:
#      x y z
#    x 3.366550 0.000000 0.045640 
#    y 0.000000 3.823800 0.000000 
#    z 0.045640 0.000000 3.690070 
# 
# 
# High freq. dielectric constant tensor:
#      x y z
#    x 1.741630 0.000000 0.007210 
#    y 0.000000 1.777960 0.000000 
#    z 0.007210 0.000000 1.771390 
# 
# From -- ./inp_files/42302.got.cif
#   From: 2010.06.25/outbox.cif.g09.slc.cpg/sg12_22_cif.got.tgz:42302.got - 2010.06.28 00:19:55.
