data_PCOD8101389
_publ_section_title
;
Structure prediction by ZEFSAII (Michael W. Deem and Ramdas Pophale) SiO2 
 PCOD8101389
Probable space group: C 2/M
;
_chemical_formula_sum "Si O2"
_cell_formula_units_Z 56
_cell_length_a 19.226196
_cell_length_b 8.902939
_cell_length_c 25.839437
_cell_angle_alpha 90.000000
_cell_angle_beta 41.861976
_cell_angle_gamma 90.000000
_cell_volume 2951.589513
_symmetry_space_group_name_H-M "C 2/M"
_symmetry_group_IT_number 12
_symmetry_cell_setting 'monoclinic'
loop_
_space_group_symop_operation_xyz
x,y,z
-x,y,-z
-x,-y,-z
x,-y,z
1/2+x,1/2+y,z
1/2-x,1/2+y,-z
1/2-x,1/2-y,-z
1/2+x,1/2-y,z
loop_
_atom_site_type_symbol
_atom_site_label
_atom_site_fract_x
_atom_site_fract_y
_atom_site_fract_z
Si Si1 0.258543 0.673399 0.914407
Si Si2 0.126022 0.325452 0.807359
Si Si3 0.220679 0.324574 0.203147
Si Si4 0.796353 0.174067 0.626740
Si Si5 0.592911 0.326418 0.071549
Si Si6 0.185023 0.677002 0.490365
Si Si7 0.553709 0.174081 0.380994
O O1 0.243765 0.500000 0.908178
O O2 0.301065 0.764043 0.841858
O O3 0.343721 0.698519 0.911191
O O4 0.147513 0.738596 0.994200
O O5 0.102871 0.500000 0.828530
O O6 0.179888 0.261341 0.828885
O O7 0.198738 0.295444 0.717848
O O8 0.020413 0.238203 0.855463
O O9 0.246167 0.500000 0.187716
O O10 0.117816 0.289630 0.293572
O O11 0.772414 0.262669 0.587606
O O12 0.901722 0.233251 0.595268
O O13 0.811012 0.000000 0.605877
O O14 0.586492 0.500000 0.059533
O O15 0.200496 0.500000 0.484010
O O16 0.250000 0.750000 0.500000
O O17 0.064433 0.723435 0.563895
O O18 0.561933 0.000000 0.391737
#
# Coordination Sequence:
#
# PCOD8101389 Si02
#       7
#     8   8   8   8   8   8   8
#     4  10  21  37  56  80 111 144 180 223 272 324
#     4  10  21  37  57  82 112 143 179 225 273 321
#     4  10  20  36  58  82 109 141 181 226 271 322
#     4  10  21  37  58  83 110 143 182 223 271 326
#     4  10  21  37  57  81 109 144 185 224 268 324
#     4  11  23  38  56  81 113 146 183 226 272 321
#     4   9  20  38  58  80 108 144 182 223 272 323
#
# _framework density 18.972826999999999
#
# number of rings (size 3 to 8) (size 9 to 14) (size 15 to 20)
#    0.000    2.000    0.000    3.000    0.000    8.571 
#    0.000    7.143    0.000    0.000    0.000    0.000 
#    0.000    0.000    0.000    0.000    0.000    0.000 
#
# Total GULP energy -347363.019616 kJ/mol
# GULP energy per Si atom -12405.822129 kJ/mol
# Density = 1.892964 g / cm^3
# Si number density = 18.972827 Si / 1000 Ang^3
#
#
#
# Elastic Constant Matrix: (Units=GPa)
#
#
# Indices 1 2 3 4 5 6 
#
# 1 85.8513 24.3432 36.5862 0.0002 5.1730 -0.0006
# 2 24.3432 -23.7030 -0.3768 0.0003 2.3868 -0.0009
# 3 36.5862 -0.3768 58.9144 0.0000 -0.2240 0.0002
# 4 0.0002 0.0003 0.0000 34.5938 0.0000 2.5561
# 5 5.1730 2.3868 -0.2240 0.0000 37.6335 0.0001
# 6 -0.0006 -0.0009 0.0002 2.5561 0.0001 39.6723
#
#
#
# Elastic Compliance Matrix: (Units=1/GPa)
#
#
# Indices 1 2 3 4 5 6 
#
# 1 0.011493 0.011678 -0.007071 0.000000 -0.002362 0.000000
# 2 0.011678 -0.030052 -0.007443 0.000000 0.000256 0.000000
# 3 -0.007071 -0.007443 0.021323 0.000000 0.001571 0.000000
# 4 0.000000 0.000000 0.000000 0.029045 0.000000 -0.001871
# 5 -0.002362 0.000256 0.001571 0.000000 0.026890 0.000000
# 6 0.000000 0.000000 0.000000 -0.001871 0.000000 0.025327
#
#
# Mechanical properties :
#
#
# Convention : Reuss Voigt Hill
#
# Bulk Modulus (GPa) = -343.75120 26.90753 -158.42183
# Shear Modulus (GPa) = 56.35027 26.41393 41.38210
#
# Velocity S-wave (km/s) = 5.45573 3.73526 4.67532
# Velocity P-wave (km/s) = 11.91165 5.72851 7.38484
#
# Compressibility (1/GPa) = -0.00290908
#
# Stress axis : x y z
#
# Youngs Moduli (GPa) = 87.01167 -33.27607 46.89663
#
# Poissons Ratio (x) = 0.38859 0.33162
# Poissons Ratio (y) = -1.01609 0.34906
# Poissons Ratio (z) = 0.61529 -0.24768
#
# Static dielectric constant tensor:
#      x y z
#    x 3.410010 0.000000 0.025480 
#    y 0.000000 3.722060 0.000000 
#    z 0.025480 0.000000 3.544630 
# 
# 
# High freq. dielectric constant tensor:
#      x y z
#    x 1.734680 0.000000 0.002820 
#    y 0.000000 1.752580 0.000000 
#    z 0.002820 0.000000 1.743510 
# 
# From -- ./inp_files/362899.got.cif
#   From: 2010.06.25/outbox.cif.g09.slc.cpg/sg12_182_cif.got.tgz:362899.got - 2010.06.28 00:19:55.
