data_PCOD8101244
_publ_section_title
;
Structure prediction by ZEFSAII (Michael W. Deem and Ramdas Pophale) SiO2 
 PCOD8101244
Probable space group: C 2/M
;
_chemical_formula_sum "Si O2"
_cell_formula_units_Z 64
_cell_length_a 29.804038
_cell_length_b 8.930797
_cell_length_c 11.851039
_cell_angle_alpha 90.000000
_cell_angle_beta 87.184900
_cell_angle_gamma 90.000000
_cell_volume 3150.629557
_symmetry_space_group_name_H-M "C 2/M"
_symmetry_group_IT_number 12
_symmetry_cell_setting 'monoclinic'
loop_
_space_group_symop_operation_xyz
x,y,z
-x,y,-z
-x,-y,-z
x,-y,z
1/2+x,1/2+y,z
1/2-x,1/2+y,-z
1/2-x,1/2-y,-z
1/2+x,1/2-y,z
loop_
_atom_site_type_symbol
_atom_site_label
_atom_site_fract_x
_atom_site_fract_y
_atom_site_fract_z
Si Si1 0.917207 0.175160 0.293515
Si Si2 0.886714 0.322981 0.511414
Si Si3 0.999314 0.822940 0.128676
Si Si4 0.707342 0.677799 0.444146
Si Si5 0.264702 0.826531 0.778727
Si Si6 0.080560 0.674311 0.246990
Si Si7 0.841733 0.668666 0.930677
Si Si8 0.166864 0.826232 0.842278
O O1 0.920701 0.269635 0.408496
O O2 0.868553 0.213089 0.249186
O O3 0.954062 0.228728 0.198033
O O4 0.922975 0.000000 0.319869
O O5 0.878321 0.500000 0.507404
O O6 0.839221 0.239604 0.499530
O O7 0.910788 0.276776 0.625143
O O8 0.040171 0.765367 0.198101
O O9 0.002536 0.000000 0.122107
O O10 0.000000 0.757876 0.000000
O O11 0.708326 0.500000 0.460311
O O12 0.750000 0.750000 0.500000
O O13 0.709378 0.724020 0.313614
O O14 0.290783 0.812103 0.893687
O O15 0.214962 0.758144 0.801244
O O16 0.264446 0.000000 0.737196
O O17 0.068729 0.500000 0.241020
O O18 0.125365 0.715770 0.173835
O O19 0.851087 0.500000 0.967736
O O20 0.851343 0.769030 0.036883
O O21 0.173845 0.000000 0.857407
#
# Coordination Sequence:
#
# PCOD8101244 Si02
#       8
#     8   8   8   8   8   8   8   8
#     4  10  22  40  60  89 124 156 201 255 306 360
#     4  11  23  42  64  88 123 161 203 253 307 367
#     4  10  22  41  65  92 124 160 201 252 306 365
#     4  12  24  38  60  88 120 162 210 256 302 360
#     4  10  20  37  57  83 121 159 199 250 303 359
#     4  10  22  40  62  88 121 160 202 254 309 365
#     4  10  20  36  57  83 121 158 195 250 306 361
#     4  10  21  36  58  85 117 158 201 249 303 362
#
# _framework density 20.313402
#
# number of rings (size 3 to 8) (size 9 to 14) (size 15 to 20)
#    0.000    1.625    1.250    3.375    0.000    6.250 
#    0.000    2.500    0.000    0.000    0.000    0.000 
#    0.000    0.000    0.000    0.000    0.000    0.000 
#
# Total GULP energy -396875.225479 kJ/mol
# GULP energy per Si atom -12402.350796 kJ/mol
# Density = 2.026717 g / cm^3
# Si number density = 20.313402 Si / 1000 Ang^3
#
#
#
# Elastic Constant Matrix: (Units=GPa)
#
#
# Indices 1 2 3 4 5 6 
#
# 1 116.0336 21.3303 46.4017 0.0000 3.2489 0.0000
# 2 21.3303 90.0137 41.6402 0.0000 -17.2280 0.0000
# 3 46.4017 41.6402 138.9428 0.0000 -11.7061 0.0000
# 4 0.0000 0.0000 0.0000 35.3321 0.0000 -0.7714
# 5 3.2489 -17.2280 -11.7061 0.0000 40.2985 0.0000
# 6 0.0000 0.0000 0.0000 -0.7714 0.0000 31.6102
#
#
#
# Elastic Compliance Matrix: (Units=1/GPa)
#
#
# Indices 1 2 3 4 5 6 
#
# 1 0.010217 -0.001393 -0.003192 0.000000 -0.002347 0.000000
# 2 -0.001393 0.013936 -0.003280 0.000000 0.005117 0.000000
# 3 -0.003192 -0.003280 0.009379 0.000000 0.001580 0.000000
# 4 0.000000 0.000000 0.000000 0.028318 0.000000 0.000691
# 5 -0.002347 0.005117 0.001580 0.000000 0.027651 0.000000
# 6 0.000000 0.000000 0.000000 0.000691 0.000000 0.031652
#
#
# Mechanical properties :
#
#
# Convention : Reuss Voigt Hill
#
# Bulk Modulus (GPa) = 56.17645 62.63718 59.40682
# Shear Modulus (GPa) = 35.00953 37.15600 36.08276
#
# Velocity S-wave (km/s) = 4.15597 4.28148 4.21919
# Velocity P-wave (km/s) = 7.12351 7.43934 7.28314
#
# Compressibility (1/GPa) = 0.01780105
#
# Stress axis : x y z
#
# Youngs Moduli (GPa) = 97.88041 71.75414 106.61725
#
# Poissons Ratio (x) = 0.09999 0.34033
# Poissons Ratio (y) = 0.13639 0.34972
# Poissons Ratio (z) = 0.31244 0.23536
#
# Static dielectric constant tensor:
#      x y z
#    x 3.916840 0.000000 -0.043630 
#    y 0.000000 3.557660 0.000000 
#    z -0.043630 0.000000 3.802460 
# 
# 
# High freq. dielectric constant tensor:
#      x y z
#    x 1.798190 0.000000 -0.001350 
#    y 0.000000 1.779390 0.000000 
#    z -0.001350 0.000000 1.805310 
# 
# From -- ./inp_files/187544.got.cif
#   From: 2010.06.25/outbox.cif.g09.slc.cpg/sg12_94_cif.got.tgz:187544.got - 2010.06.28 00:19:55.
