data_PCOD8101610
_publ_section_title
;
Structure prediction by ZEFSAII (Michael W. Deem and Ramdas Pophale) SiO2 
 PCOD8101610
Probable space group: C 2/M
;
_chemical_formula_sum "Si O2"
_cell_formula_units_Z 48
_cell_length_a 21.646919
_cell_length_b 9.323145
_cell_length_c 12.130996
_cell_angle_alpha 90.000000
_cell_angle_beta 79.723332
_cell_angle_gamma 90.000000
_cell_volume 2408.970319
_symmetry_space_group_name_H-M "C 2/M"
_symmetry_group_IT_number 12
_symmetry_cell_setting 'monoclinic'
loop_
_space_group_symop_operation_xyz
x,y,z
-x,y,-z
-x,-y,-z
x,-y,z
1/2+x,1/2+y,z
1/2-x,1/2+y,-z
1/2-x,1/2-y,-z
1/2+x,1/2-y,z
loop_
_atom_site_type_symbol
_atom_site_label
_atom_site_fract_x
_atom_site_fract_y
_atom_site_fract_z
Si Si1 0.927513 0.666879 0.550808
Si Si2 0.814269 0.669282 0.974648
Si Si3 0.482038 0.659067 0.123024
Si Si4 0.867733 0.335468 0.195428
Si Si5 0.605192 0.662115 0.223835
Si Si6 0.309604 0.835233 0.436128
O O1 0.924815 0.500000 0.586790
O O2 0.902998 0.768134 0.655081
O O3 0.877845 0.699137 0.468367
O O4 0.000000 0.707880 0.500000
O O5 0.805408 0.500000 0.959878
O O6 0.851033 0.734626 0.860754
O O7 0.750000 0.750000 0.000000
O O8 0.846933 0.705243 0.079684
O O9 0.455660 0.500000 0.106396
O O10 0.429973 0.748374 0.203433
O O11 0.539078 0.652966 0.186905
O O12 0.500000 0.732144 0.000000
O O13 0.886589 0.500000 0.199675
O O14 0.815157 0.298511 0.303865
O O15 0.633395 0.500000 0.225899
O O16 0.250000 0.750000 0.500000
O O17 0.292739 0.000000 0.461312
#
# Coordination Sequence:
#
# PCOD8101610 Si02
#       6
#     8   8   8   8   8   8
#     4  10  22  42  66  91 124 164 210 261 312 368
#     4  11  24  40  60  89 123 160 202 249 306 365
#     4  10  20  36  58  88 123 156 193 240 299 357
#     4  10  22  40  63  89 119 156 201 248 298 363
#     4  11  23  39  62  91 125 160 201 252 304 365
#     4  10  23  42  63  91 122 160 205 254 311 365
#
# _framework density 19.925526000000001
#
# number of rings (size 3 to 8) (size 9 to 14) (size 15 to 20)
#    0.000    1.667    1.667    2.000    2.333    5.333 
#    0.000    0.000    0.000    0.000    0.000    0.000 
#    0.000    0.000    0.000    0.000    0.000    0.000 
#
# Total GULP energy -297545.701465 kJ/mol
# GULP energy per Si atom -12397.737561 kJ/mol
# Density = 1.988017 g / cm^3
# Si number density = 19.925526 Si / 1000 Ang^3
#
#
#
# Elastic Constant Matrix: (Units=GPa)
#
#
# Indices 1 2 3 4 5 6 
#
# 1 96.5486 51.9356 33.1166 0.0000 -25.1787 0.0000
# 2 51.9356 95.6364 60.5039 0.0000 -13.4221 0.0000
# 3 33.1166 60.5039 123.4089 0.0000 -16.1754 0.0000
# 4 0.0000 0.0000 0.0000 41.3059 0.0000 5.3988
# 5 -25.1787 -13.4221 -16.1754 0.0000 30.1487 0.0000
# 6 0.0000 0.0000 0.0000 5.3988 0.0000 68.9057
#
#
#
# Elastic Compliance Matrix: (Units=1/GPa)
#
#
# Indices 1 2 3 4 5 6 
#
# 1 0.017616 -0.008582 0.000977 0.000000 0.011415 0.000000
# 2 -0.008582 0.019590 -0.007635 0.000000 -0.002542 0.000000
# 3 0.000977 -0.007635 0.012096 0.000000 0.003907 0.000000
# 4 0.000000 0.000000 0.000000 0.024460 0.000000 -0.001916
# 5 0.011415 -0.002542 0.003907 0.000000 0.043666 0.000000
# 6 0.000000 0.000000 0.000000 -0.001916 0.000000 0.014663
#
#
# Mechanical properties :
#
#
# Convention : Reuss Voigt Hill
#
# Bulk Modulus (GPa) = 53.13004 67.41178 60.27091
# Shear Modulus (GPa) = 29.61280 39.40792 34.51036
#
# Velocity S-wave (km/s) = 3.85927 4.45203 4.16621
# Velocity P-wave (km/s) = 6.82502 7.76741 7.31141
#
# Compressibility (1/GPa) = 0.01882174
#
# Stress axis : x y z
#
# Youngs Moduli (GPa) = 56.76665 51.04622 82.67083
#
# Poissons Ratio (x) = 0.43809 -0.08073
# Poissons Ratio (y) = 0.48718 0.63116
# Poissons Ratio (z) = -0.05544 0.38972
#
# Static dielectric constant tensor:
#      x y z
#    x 3.493660 0.000000 0.083820 
#    y 0.000000 3.865460 0.000000 
#    z 0.083820 0.000000 3.674090 
# 
# 
# High freq. dielectric constant tensor:
#      x y z
#    x 1.778020 0.000000 -0.000740 
#    y 0.000000 1.779590 0.000000 
#    z -0.000740 0.000000 1.789060 
# 
# From -- ./inp_files/172940.got.cif
#   From: 2010.06.25/outbox.cif.g09.slc.cpg/sg12_87_cif.got.tgz:172940.got - 2010.06.28 00:19:55.
