data_PCOD8101455
_publ_section_title
;
Structure prediction by ZEFSAII (Michael W. Deem and Ramdas Pophale) SiO2 
 PCOD8101455
Probable space group: C 2/M
;
_chemical_formula_sum "Si O2"
_cell_formula_units_Z 40
_cell_length_a 8.958989
_cell_length_b 9.941902
_cell_length_c 21.135518
_cell_angle_alpha 90.000000
_cell_angle_beta 104.148506
_cell_angle_gamma 90.000000
_cell_volume 1825.422033
_symmetry_space_group_name_H-M "C 2/M"
_symmetry_group_IT_number 12
_symmetry_cell_setting 'monoclinic'
loop_
_space_group_symop_operation_xyz
x,y,z
-x,y,-z
-x,-y,-z
x,-y,z
1/2+x,1/2+y,z
1/2-x,1/2+y,-z
1/2-x,1/2-y,-z
1/2+x,1/2-y,z
loop_
_atom_site_type_symbol
_atom_site_label
_atom_site_fract_x
_atom_site_fract_y
_atom_site_fract_z
Si Si1 0.234154 0.346189 0.352848
Si Si2 0.713052 0.272944 0.846580
Si Si3 0.602963 0.352811 0.240292
Si Si4 0.515993 0.848560 0.573651
Si Si5 0.519526 0.147980 0.933754
O O1 0.270897 0.500000 0.334764
O O2 0.129206 0.272450 0.289939
O O3 0.387519 0.259314 0.376675
O O4 0.151159 0.349531 0.411988
O O5 0.576613 0.352753 0.797684
O O6 0.781078 0.157936 0.807264
O O7 0.649758 0.217856 0.905940
O O8 0.858832 0.365132 0.878952
O O9 0.634656 0.500000 0.274591
O O10 0.500000 0.800242 0.500000
O O11 0.587979 0.000000 0.584114
O O12 0.583265 0.000000 0.954044
O O13 0.500000 0.222629 0.000000
#
# Coordination Sequence:
#
# PCOD8101455 Si02
#       5
#     8   8   8   8   8
#     4  11  24  39  60  90 119 152 196 242 289 344
#     4  10  22  37  57  84 114 148 194 239 285 344
#     4  11  23  39  59  83 116 156 195 239 290 344
#     4  10  22  41  63  88 120 156 194 238 289 345
#     4  10  20  36  58  83 113 148 187 235 289 344
#
# _framework density 21.912741
#
# number of rings (size 3 to 8) (size 9 to 14) (size 15 to 20)
#    0.000    1.600    0.000    4.200    0.000   10.000 
#    0.000    0.000    0.000    9.600    0.000    0.000 
#    0.000    0.000    0.000    0.000    0.000    0.000 
#
# Total GULP energy -247903.735092 kJ/mol
# GULP energy per Si atom -12395.186755 kJ/mol
# Density = 2.186287 g / cm^3
# Si number density = 21.912741 Si / 1000 Ang^3
#
#
#
# Elastic Constant Matrix: (Units=GPa)
#
#
# Indices 1 2 3 4 5 6 
#
# 1 86.3425 16.5652 9.4765 0.0000 -6.0945 0.0000
# 2 16.5652 128.2945 24.0039 0.0000 5.4328 0.0000
# 3 9.4765 24.0039 79.2237 0.0000 -3.9917 0.0000
# 4 0.0000 0.0000 0.0000 28.5784 0.0000 4.5844
# 5 -6.0945 5.4328 -3.9917 0.0000 35.6992 0.0000
# 6 0.0000 0.0000 0.0000 4.5844 0.0000 10.8830
#
#
#
# Elastic Compliance Matrix: (Units=1/GPa)
#
#
# Indices 1 2 3 4 5 6 
#
# 1 0.012120 -0.001492 -0.000887 0.000000 0.002197 0.000000
# 2 -0.001492 0.008532 -0.002499 0.000000 -0.001833 0.000000
# 3 -0.000887 -0.002499 0.013574 0.000000 0.001747 0.000000
# 4 0.000000 0.000000 0.000000 0.037527 0.000000 -0.015808
# 5 0.002197 -0.001833 0.001747 0.000000 0.028861 0.000000
# 6 0.000000 0.000000 0.000000 -0.015808 0.000000 0.098545
#
#
# Mechanical properties :
#
#
# Convention : Reuss Voigt Hill
#
# Bulk Modulus (GPa) = 40.86583 43.77243 42.31913
# Shear Modulus (GPa) = 23.03369 31.28646 27.16007
#
# Velocity S-wave (km/s) = 3.24567 3.78269 3.52442
# Velocity P-wave (km/s) = 5.72151 6.25280 5.99304
#
# Compressibility (1/GPa) = 0.02447032
#
# Stress axis : x y z
#
# Youngs Moduli (GPa) = 82.50499 117.20024 73.67133
#
# Poissons Ratio (x) = 0.17487 0.06535
# Poissons Ratio (y) = 0.12310 0.18411
# Poissons Ratio (z) = 0.07318 0.29289
#
# Static dielectric constant tensor:
#      x y z
#    x 3.924150 0.000000 -0.185550 
#    y 0.000000 3.779510 0.000000 
#    z -0.185550 0.000000 3.979200 
# 
# 
# High freq. dielectric constant tensor:
#      x y z
#    x 1.865280 0.000000 -0.013720 
#    y 0.000000 1.851320 0.000000 
#    z -0.013720 0.000000 1.865750 
# 
# From -- ./inp_files/299045.got.cif
#   From: 2010.06.25/outbox.cif.g09.slc.cpg/sg12_150_cif.got.tgz:299045.got - 2010.06.28 00:19:55.
