data_PCOD8101388
_publ_section_title
;
Structure prediction by ZEFSAII (Michael W. Deem and Ramdas Pophale) SiO2 
 PCOD8101388
Probable space group: C 2/M
;
_chemical_formula_sum "Si O2"
_cell_formula_units_Z 48
_cell_length_a 28.861308
_cell_length_b 9.238608
_cell_length_c 19.936842
_cell_angle_alpha 90.000000
_cell_angle_beta 151.413979
_cell_angle_gamma 90.000000
_cell_volume 2543.551635
_symmetry_space_group_name_H-M "C 2/M"
_symmetry_group_IT_number 12
_symmetry_cell_setting 'monoclinic'
loop_
_space_group_symop_operation_xyz
x,y,z
-x,y,-z
-x,-y,-z
x,-y,z
1/2+x,1/2+y,z
1/2-x,1/2+y,-z
1/2-x,1/2-y,-z
1/2+x,1/2-y,z
loop_
_atom_site_type_symbol
_atom_site_label
_atom_site_fract_x
_atom_site_fract_y
_atom_site_fract_z
Si Si1 0.205554 0.666293 0.291304
Si Si2 0.436074 0.834654 0.770114
Si Si3 0.106606 0.667808 0.436572
Si Si4 0.884610 0.168713 0.943352
Si Si5 0.395152 0.832112 0.195161
Si Si6 0.220525 0.166426 0.059719
O O1 0.215269 0.500000 0.281988
O O2 0.159230 0.682648 0.305705
O O3 0.310998 0.737054 0.424648
O O4 0.135622 0.745534 0.150090
O O5 0.405869 0.790559 0.656959
O O6 0.475015 0.000000 0.822124
O O7 0.517434 0.725954 0.899123
O O8 0.135005 0.500000 0.480716
O O9 0.007501 0.705625 0.350662
O O10 0.795212 0.194473 0.881353
O O11 0.897648 0.000000 0.943111
O O12 0.329790 0.787841 0.176643
O O13 0.385306 0.000000 0.165944
O O14 0.359078 0.753842 0.082606
O O15 0.202231 0.000000 0.018683
#
# Coordination Sequence:
#
# PCOD8101388 Si02
#       6
#     8   8   8   8   8   8
#     4  11  24  38  54  77 111 148 183 225 271 319
#     4  10  21  38  58  81 107 141 184 227 270 319
#     4  10  20  36  58  82 109 141 178 221 273 326
#     4  11  22  36  56  82 112 144 181 223 267 320
#     4   9  17  32  56  82 108 138 173 218 269 319
#     4   9  18  32  53  83 110 136 175 220 265 316
#
# _framework density 18.871251000000001
#
# number of rings (size 3 to 8) (size 9 to 14) (size 15 to 20)
#    0.000    2.000    1.667    2.000    0.000    5.333 
#    0.000    0.833    0.000    5.000    0.000    0.000 
#    0.000    0.000    0.000    0.000    0.000    0.000 
#
# Total GULP energy -297624.367595 kJ/mol
# GULP energy per Si atom -12401.015316 kJ/mol
# Density = 1.882830 g / cm^3
# Si number density = 18.871251 Si / 1000 Ang^3
#
#
#
# Elastic Constant Matrix: (Units=GPa)
#
#
# Indices 1 2 3 4 5 6 
#
# 1 54.5248 18.2924 7.3013 0.0000 13.4159 0.0000
# 2 18.2924 77.7531 34.4181 0.0000 8.0204 0.0000
# 3 7.3013 34.4181 62.8762 0.0000 12.8176 0.0000
# 4 0.0000 0.0000 0.0000 37.5166 0.0000 2.2432
# 5 13.4159 8.0204 12.8176 0.0000 24.7894 0.0000
# 6 0.0000 0.0000 0.0000 2.2432 0.0000 24.9148
#
#
#
# Elastic Compliance Matrix: (Units=1/GPa)
#
#
# Indices 1 2 3 4 5 6 
#
# 1 0.022703 -0.005305 0.002708 0.000000 -0.011970 0.000000
# 2 -0.005305 0.018227 -0.009775 0.000000 0.002028 0.000000
# 3 0.002708 -0.009775 0.023021 0.000000 -0.010206 0.000000
# 4 0.000000 0.000000 0.000000 0.026799 0.000000 -0.002413
# 5 -0.011970 0.002028 -0.010206 0.000000 0.051439 0.000000
# 6 0.000000 0.000000 0.000000 -0.002413 0.000000 0.040354
#
#
# Mechanical properties :
#
#
# Convention : Reuss Voigt Hill
#
# Bulk Modulus (GPa) = 25.50563 35.01976 30.26269
# Shear Modulus (GPa) = 22.69056 26.45365 24.57210
#
# Velocity S-wave (km/s) = 3.47131 3.74812 3.61237
# Velocity P-wave (km/s) = 5.44165 6.10972 5.78534
#
# Compressibility (1/GPa) = 0.03920703
#
# Stress axis : x y z
#
# Youngs Moduli (GPa) = 44.04743 54.86373 43.43851
#
# Poissons Ratio (x) = 0.29105 -0.11763
# Poissons Ratio (y) = 0.23367 0.42460
# Poissons Ratio (z) = -0.11927 0.53628
#
# Static dielectric constant tensor:
#      x y z
#    x 3.842480 0.000000 0.140310 
#    y 0.000000 3.491400 0.000000 
#    z 0.140310 0.000000 3.173710 
# 
# 
# High freq. dielectric constant tensor:
#      x y z
#    x 1.746860 0.000000 0.012150 
#    y 0.000000 1.735640 0.000000 
#    z 0.012150 0.000000 1.710370 
# 
# From -- ./inp_files/229913.got.cif
#   From: 2010.06.25/outbox.cif.g09.slc.cpg/sg12_115_cif.got.tgz:229913.got - 2010.06.28 00:19:55.
