data_PCOD8101690
_publ_section_title
;
Structure prediction by ZEFSAII (Michael W. Deem and Ramdas Pophale) SiO2 
 PCOD8101690
Probable space group: C 2/M
;
_chemical_formula_sum "Si O2"
_cell_formula_units_Z 48
_cell_length_a 11.724651
_cell_length_b 16.615449
_cell_length_c 12.060408
_cell_angle_alpha 90.000000
_cell_angle_beta 103.401362
_cell_angle_gamma 90.000000
_cell_volume 2285.516386
_symmetry_space_group_name_H-M "C 2/M"
_symmetry_group_IT_number 12
_symmetry_cell_setting 'monoclinic'
loop_
_space_group_symop_operation_xyz
x,y,z
-x,y,-z
-x,-y,-z
x,-y,z
1/2+x,1/2+y,z
1/2-x,1/2+y,-z
1/2-x,1/2-y,-z
1/2+x,1/2-y,z
loop_
_atom_site_type_symbol
_atom_site_label
_atom_site_fract_x
_atom_site_fract_y
_atom_site_fract_z
Si Si1 0.678136 0.096453 0.251931
Si Si2 0.526825 0.095874 0.629646
Si Si3 0.755102 0.406958 0.187589
Si Si4 0.499646 0.408957 0.166535
Si Si5 0.756486 0.840877 0.040581
Si Si6 0.919905 0.090401 0.391227
O O1 0.568598 0.124076 0.301052
O O2 0.678856 0.139927 0.132081
O O3 0.792127 0.129049 0.344137
O O4 0.685075 0.000000 0.233818
O O5 0.500000 0.130198 0.500000
O O6 0.651531 0.129769 0.702924
O O7 0.526447 0.000000 0.625326
O O8 0.744493 0.500000 0.213905
O O9 0.625389 0.367616 0.168180
O O10 0.798593 0.393961 0.071432
O O11 0.491812 0.500000 0.117921
O O12 0.393848 0.360127 0.088241
O O13 0.493282 0.408978 0.296313
O O14 0.750000 0.750000 0.000000
O O15 0.000000 0.137285 0.500000
O O16 0.897576 0.000000 0.430037
#
# Coordination Sequence:
#
# PCOD8101690 Si02
#       6
#     8   8   8   8   8   8
#     4   9  18  34  55  82 118 150 186 238 286 338
#     4   9  19  34  56  87 117 147 187 235 287 346
#     4  10  20  36  59  84 112 149 190 236 289 341
#     4   9  18  34  57  85 113 142 186 241 289 336
#     4  11  22  37  55  82 113 149 192 239 289 346
#     4   8  14  24  47  82 112 140 174 224 286 336
#
# _framework density 21.001816999999999
#
# number of rings (size 3 to 8) (size 9 to 14) (size 15 to 20)
#    0.000    2.667    0.000    3.000    2.333    2.000 
#    6.000    2.500    0.000    5.000    0.000    0.000 
#    0.000    0.000    0.000    0.000    0.000    0.333 
#
# Total GULP energy -297391.356693 kJ/mol
# GULP energy per Si atom -12391.306529 kJ/mol
# Density = 2.095402 g / cm^3
# Si number density = 21.001817 Si / 1000 Ang^3
#
#
#
# Elastic Constant Matrix: (Units=GPa)
#
#
# Indices 1 2 3 4 5 6 
#
# 1 137.9769 30.2011 80.1662 0.0000 -3.7508 0.0000
# 2 30.2011 41.1954 27.9649 0.0000 1.7913 0.0000
# 3 80.1662 27.9649 166.7819 0.0000 15.2814 0.0000
# 4 0.0000 0.0000 0.0000 2.0421 0.0000 -6.8631
# 5 -3.7508 1.7913 15.2814 0.0000 30.0773 0.0000
# 6 0.0000 0.0000 0.0000 -6.8631 0.0000 7.7879
#
#
#
# Elastic Compliance Matrix: (Units=1/GPa)
#
#
# Indices 1 2 3 4 5 6 
#
# 1 0.011399 -0.005143 -0.005008 0.000000 0.004272 0.000000
# 2 -0.005143 0.029728 -0.002403 0.000000 -0.001191 0.000000
# 3 -0.005008 -0.002403 0.009282 0.000000 -0.005198 0.000000
# 4 0.000000 0.000000 0.000000 -0.249617 0.000000 -0.219977
# 5 0.004272 -0.001191 -0.005198 0.000000 0.036492 0.000000
# 6 0.000000 0.000000 0.000000 -0.219977 0.000000 -0.065452
#
#
# Mechanical properties :
#
#
# Convention : Reuss Voigt Hill
#
# Bulk Modulus (GPa) = 39.52510 69.17984 54.35247
# Shear Modulus (GPa) = -25.69061 21.82292 -1.93384
#
# Velocity S-wave (km/s) = -3.50130 3.22700 -0.96062
# Velocity P-wave (km/s) = 1.58594 6.84808 4.97048
#
# Compressibility (1/GPa) = 0.02530038
#
# Stress axis : x y z
#
# Youngs Moduli (GPa) = 87.72387 33.63793 107.73028
#
# Poissons Ratio (x) = 0.17300 0.53956
# Poissons Ratio (y) = 0.45117 0.25893
# Poissons Ratio (z) = 0.43936 0.08085
#
# Static dielectric constant tensor:
#      x y z
#    x 4.003540 0.000000 0.145320 
#    y 0.000000 3.182860 0.000000 
#    z 0.145320 0.000000 4.101410 
# 
# 
# High freq. dielectric constant tensor:
#      x y z
#    x 1.826290 0.000000 0.006700 
#    y 0.000000 1.758220 0.000000 
#    z 0.006700 0.000000 1.841040 
# 
# From -- ./inp_files/131222.got.cif
#   From: 2010.06.25/outbox.cif.g09.slc.cpg/sg12_66_cif.got.tgz:131222.got - 2010.06.28 00:19:55.
