data_PCOD8101039
_publ_section_title
;
Structure prediction by ZEFSAII (Michael W. Deem and Ramdas Pophale) SiO2 
 PCOD8101039
Probable space group: C 2/M
;
_chemical_formula_sum "Si O2"
_cell_formula_units_Z 48
_cell_length_a 24.095420
_cell_length_b 12.537714
_cell_length_c 27.983105
_cell_angle_alpha 90.000000
_cell_angle_beta 163.011108
_cell_angle_gamma 90.000000
_cell_volume 2470.066295
_symmetry_space_group_name_H-M "C 2/M"
_symmetry_group_IT_number 12
_symmetry_cell_setting 'monoclinic'
loop_
_space_group_symop_operation_xyz
x,y,z
-x,y,-z
-x,-y,-z
x,-y,z
1/2+x,1/2+y,z
1/2-x,1/2+y,-z
1/2-x,1/2-y,-z
1/2+x,1/2-y,z
loop_
_atom_site_type_symbol
_atom_site_label
_atom_site_fract_x
_atom_site_fract_y
_atom_site_fract_z
Si Si1 0.447107 0.500000 0.012357
Si Si2 0.660810 0.683448 0.312756
Si Si3 0.420615 0.382319 0.550933
Si Si4 0.057082 0.194199 0.329662
Si Si5 0.165808 0.623092 0.103048
Si Si6 0.681074 0.702925 0.040818
Si Si7 0.685249 0.000000 0.620066
O O1 0.640972 0.500000 0.200881
O O2 0.500000 0.500000 0.000000
O O3 0.324386 0.603792 0.926437
O O4 0.766491 0.796742 0.406727
O O5 0.584067 0.637908 0.300290
O O6 0.808885 0.603110 0.409687
O O7 0.472647 0.692468 0.126870
O O8 0.348999 0.500000 0.476232
O O9 0.468186 0.387358 0.647199
O O10 0.630711 0.356893 0.702585
O O11 0.250000 0.250000 0.500000
O O12 0.891105 0.284610 0.190888
O O13 0.136793 0.500000 0.066312
O O14 0.139102 0.687135 0.032526
O O15 0.000000 0.666526 0.000000
O O16 0.500000 0.000000 0.500000
#
# Coordination Sequence:
#
# PCOD8101039 Si02
#       7
#     4   8   8   8   8   8   4
#     4  10  22  38  58  86 118 154 195 236 283 342
#     4  10  21  37  57  82 115 150 187 235 289 341
#     4   9  19  35  55  83 112 144 192 232 277 340
#     4   9  19  36  55  80 109 147 187 230 280 336
#     4   9  18  34  55  78 107 145 186 232 283 336
#     4  10  20  36  56  83 115 146 191 234 286 342
#     4  10  24  40  58  86 118 154 191 234 291 344
#
# _framework density 19.432677999999999
#
# number of rings (size 3 to 8) (size 9 to 14) (size 15 to 20)
#    0.000    2.500    0.000    1.000    1.167    7.333 
#    6.000    0.000    0.000    3.500    0.000    0.000 
#    0.000    0.000    0.000    0.000    0.000    0.000 
#
# Total GULP energy -297372.505732 kJ/mol
# GULP energy per Si atom -12390.521072 kJ/mol
# Density = 1.938845 g / cm^3
# Si number density = 19.432678 Si / 1000 Ang^3
#
#
#
# Elastic Constant Matrix: (Units=GPa)
#
#
# Indices 1 2 3 4 5 6 
#
# 1 124.2129 45.6835 49.8860 0.0436 12.7849 0.0092
# 2 45.6835 91.4691 39.3234 -0.0679 1.8263 0.0551
# 3 49.8860 39.3234 93.7279 -0.0809 13.0636 0.0346
# 4 0.0436 -0.0679 -0.0809 27.4224 -0.0084 0.3990
# 5 12.7849 1.8263 13.0636 -0.0084 37.5971 0.0047
# 6 0.0092 0.0551 0.0346 0.3990 0.0047 25.9210
#
#
#
# Elastic Compliance Matrix: (Units=1/GPa)
#
#
# Indices 1 2 3 4 5 6 
#
# 1 0.011351 -0.003857 -0.004110 -0.000041 -0.002244 0.000011
# 2 -0.003857 0.014716 -0.004418 0.000031 0.002132 -0.000025
# 3 -0.004110 -0.004418 0.015223 0.000040 -0.003677 -0.000009
# 4 -0.000041 0.000031 0.000040 0.036475 0.000007 -0.000562
# 5 -0.002244 0.002132 -0.003677 0.000007 0.028535 -0.000004
# 6 0.000011 -0.000025 -0.000009 -0.000562 -0.000004 0.038587
#
#
# Mechanical properties :
#
#
# Convention : Reuss Voigt Hill
#
# Bulk Modulus (GPa) = 60.53855 64.35507 62.44681
# Shear Modulus (GPa) = 28.54434 29.82257 29.18345
#
# Velocity S-wave (km/s) = 3.83676 3.92172 3.87947
# Velocity P-wave (km/s) = 7.13079 7.32771 7.22992
#
# Compressibility (1/GPa) = 0.01651840
#
# Stress axis : x y z
#
# Youngs Moduli (GPa) = 88.09616 67.95292 65.68957
#
# Poissons Ratio (x) = 0.26212 0.27001
# Poissons Ratio (y) = 0.33982 0.29023
# Poissons Ratio (z) = 0.36212 0.30023
#
# Static dielectric constant tensor:
#      x y z
#    x 5.413130 -0.000120 0.150830 
#    y -0.000120 3.866650 -0.000160 
#    z 0.150830 -0.000160 3.548500 
# 
# 
# High freq. dielectric constant tensor:
#      x y z
#    x 1.761360 0.000000 0.015070 
#    y 0.000000 1.749690 -0.000010 
#    z 0.015070 -0.000010 1.758260 
# 
# From -- ./inp_files/367962.got.cif
#   From: 2010.06.25/outbox.cif.g09.slc.cpg/sg12_184_cif.got.tgz:367962.got - 2010.06.28 00:19:55.
