data_PCOD8101452
_publ_section_title
;
Structure prediction by ZEFSAII (Michael W. Deem and Ramdas Pophale) SiO2 
 PCOD8101452
Probable space group: C 2/M
;
_chemical_formula_sum "Si O2"
_cell_formula_units_Z 48
_cell_length_a 20.489324
_cell_length_b 8.677873
_cell_length_c 31.764745
_cell_angle_alpha 90.000000
_cell_angle_beta 152.724130
_cell_angle_gamma 90.000000
_cell_volume 2588.288719
_symmetry_space_group_name_H-M "C 2/M"
_symmetry_group_IT_number 12
_symmetry_cell_setting 'monoclinic'
loop_
_space_group_symop_operation_xyz
x,y,z
-x,y,-z
-x,-y,-z
x,-y,z
1/2+x,1/2+y,z
1/2-x,1/2+y,-z
1/2-x,1/2-y,-z
1/2+x,1/2-y,z
loop_
_atom_site_type_symbol
_atom_site_label
_atom_site_fract_x
_atom_site_fract_y
_atom_site_fract_z
Si Si1 0.935966 0.323726 0.271450
Si Si2 0.146801 0.181149 0.067610
Si Si3 0.374589 0.178108 0.544302
Si Si4 0.933010 0.820096 0.732212
Si Si5 0.637339 0.319515 0.552417
Si Si6 0.299987 0.182237 0.072459
O O1 0.957895 0.500000 0.268699
O O2 0.770463 0.276894 0.172024
O O3 0.980525 0.304140 0.345466
O O4 0.033937 0.219330 0.297537
O O5 0.193746 0.243043 0.048457
O O6 0.123927 0.000000 0.051082
O O7 0.000000 0.259029 0.000000
O O8 0.250000 0.250000 0.500000
O O9 0.394181 0.272994 0.513367
O O10 0.341340 0.000000 0.514915
O O11 0.772197 0.768067 0.649621
O O12 0.039894 0.734869 0.825283
O O13 0.948240 0.000000 0.748790
O O14 0.500000 0.270044 0.500000
O O15 0.667818 0.500000 0.572157
O O16 0.297489 0.000000 0.068311
O O17 0.250000 0.250000 0.000000
#
# Coordination Sequence:
#
# PCOD8101452 Si02
#       6
#     8   8   8   8   8   8
#     4   9  18  33  55  82 111 145 182 228 280 331
#     4   8  15  31  55  80 108 140 177 223 273 322
#     4  11  21  34  57  85 113 146 189 234 276 335
#     4  11  21  35  59  84 109 146 191 235 281 339
#     4  11  24  41  58  79 115 154 187 234 294 342
#     4  10  20  36  58  83 113 146 187 232 279 337
#
# _framework density 18.545071
#
# number of rings (size 3 to 8) (size 9 to 14) (size 15 to 20)
#    0.000    2.000    1.667    4.000    0.000    2.000 
#    3.000    0.000    0.000   12.500    0.000    0.000 
#    0.000    0.000    0.000    0.000    0.000    0.000 
#
# Total GULP energy -297600.020747 kJ/mol
# GULP energy per Si atom -12400.000864 kJ/mol
# Density = 1.850286 g / cm^3
# Si number density = 18.545071 Si / 1000 Ang^3
#
#
#
# Elastic Constant Matrix: (Units=GPa)
#
#
# Indices 1 2 3 4 5 6 
#
# 1 113.5181 27.1748 75.8036 -0.0004 4.7690 0.0004
# 2 27.1748 63.2518 31.5026 -0.0001 5.7037 0.0013
# 3 75.8036 31.5026 138.1342 -0.0004 5.7010 0.0001
# 4 -0.0004 -0.0001 -0.0004 26.8066 0.0001 -7.4194
# 5 4.7690 5.7037 5.7010 0.0001 35.7738 -0.0001
# 6 0.0004 0.0013 0.0001 -7.4194 -0.0001 23.5994
#
#
#
# Elastic Compliance Matrix: (Units=1/GPa)
#
#
# Indices 1 2 3 4 5 6 
#
# 1 0.014254 -0.002486 -0.007241 0.000000 -0.000350 0.000000
# 2 -0.002486 0.018445 -0.002753 0.000000 -0.002171 -0.000001
# 3 -0.007241 -0.002753 0.011861 0.000000 -0.000486 0.000000
# 4 0.000000 0.000000 0.000000 0.040860 0.000000 0.012846
# 5 -0.000350 -0.002171 -0.000486 0.000000 0.028424 0.000000
# 6 0.000000 -0.000001 0.000000 0.012846 0.000000 0.046413
#
#
# Mechanical properties :
#
#
# Convention : Reuss Voigt Hill
#
# Bulk Modulus (GPa) = 51.01924 64.87399 57.94662
# Shear Modulus (GPa) = 26.07593 29.26418 27.67006
#
# Velocity S-wave (km/s) = 3.75385 3.97672 3.86689
# Velocity P-wave (km/s) = 6.80876 7.49289 7.15900
#
# Compressibility (1/GPa) = 0.01960045
#
# Stress axis : x y z
#
# Youngs Moduli (GPa) = 70.15479 54.21647 84.31239
#
# Poissons Ratio (x) = 0.13479 0.61049
# Poissons Ratio (y) = 0.17442 0.23207
# Poissons Ratio (z) = 0.50798 0.14923
#
# Static dielectric constant tensor:
#      x y z
#    x 3.423450 0.000000 0.005150 
#    y 0.000000 3.348420 0.000000 
#    z 0.005150 0.000000 3.782980 
# 
# 
# High freq. dielectric constant tensor:
#      x y z
#    x 1.700750 0.000000 -0.004010 
#    y 0.000000 1.713170 0.000000 
#    z -0.004010 0.000000 1.734290 
# 
# From -- ./inp_files/314493.got.cif
#   From: 2010.06.25/outbox.cif.g09.slc.cpg/sg12_158_cif.got.tgz:314493.got - 2010.06.28 00:19:55.
