data_PCOD8101134
_publ_section_title
;
Structure prediction by ZEFSAII (Michael W. Deem and Ramdas Pophale) SiO2 
 PCOD8101134
Probable space group: C 2/M
;
_chemical_formula_sum "Si O2"
_cell_formula_units_Z 64
_cell_length_a 15.314398
_cell_length_b 9.249943
_cell_length_c 24.851281
_cell_angle_alpha 90.000000
_cell_angle_beta 73.317062
_cell_angle_gamma 90.000000
_cell_volume 3372.186441
_symmetry_space_group_name_H-M "C 2/M"
_symmetry_group_IT_number 12
_symmetry_cell_setting 'monoclinic'
loop_
_space_group_symop_operation_xyz
x,y,z
-x,y,-z
-x,-y,-z
x,-y,z
1/2+x,1/2+y,z
1/2-x,1/2+y,-z
1/2-x,1/2-y,-z
1/2+x,1/2-y,z
loop_
_atom_site_type_symbol
_atom_site_label
_atom_site_fract_x
_atom_site_fract_y
_atom_site_fract_z
Si Si1 0.458246 0.667249 0.266397
Si Si2 0.894063 0.330085 0.005609
Si Si3 0.764949 0.166968 0.276506
Si Si4 0.721149 0.168668 0.078260
Si Si5 0.637609 0.170851 0.206388
Si Si6 0.658322 0.833416 0.508595
Si Si7 0.630219 0.163262 0.389212
Si Si8 0.966296 0.834963 0.388573
O O1 0.479222 0.500000 0.249954
O O2 0.367158 0.728153 0.253651
O O3 0.538334 0.762573 0.229130
O O4 0.434925 0.686007 0.333346
O O5 0.888810 0.500000 0.018529
O O6 0.817999 0.251070 0.055609
O O7 0.858799 0.294214 0.951112
O O8 0.000000 0.278506 0.000000
O O9 0.699461 0.238260 0.243306
O O10 0.728667 0.186653 0.344222
O O11 0.770884 0.000000 0.260761
O O12 0.680878 0.216948 0.142338
O O13 0.744792 0.000000 0.071582
O O14 0.626326 0.000000 0.213271
O O15 0.750000 0.750000 0.500000
O O16 0.628413 0.811600 0.452809
O O17 0.584311 0.770270 0.561635
O O18 0.673525 0.000000 0.519855
O O19 0.570522 0.285913 0.371766
O O20 0.595270 0.000000 0.382531
O O21 0.954306 0.000000 0.409881
#
# Coordination Sequence:
#
# PCOD8101134 Si02
#       8
#     8   8   8   8   8   8   8   8
#     4  10  21  37  56  79 108 144 184 225 271 331
#     4   9  18  34  55  79 112 152 184 218 272 326
#     4   9  18  35  57  76 103 143 180 217 274 333
#     4   9  19  34  53  81 112 143 186 231 268 316
#     4  10  20  36  57  80 109 144 184 231 274 318
#     4  11  23  37  55  79 106 138 178 225 276 336
#     4  10  20  37  58  77 102 140 182 219 272 343
#     4  11  22  36  55  79 108 138 177 228 278 329
#
# _framework density 18.978783
#
# number of rings (size 3 to 8) (size 9 to 14) (size 15 to 20)
#    0.000    2.125    1.250    1.875    0.000    6.750 
#    0.000    1.250    0.000    0.000    0.000    0.000 
#    0.000    0.000    0.000    0.000    0.000    0.000 
#
# Total GULP energy -396586.064728 kJ/mol
# GULP energy per Si atom -12393.314523 kJ/mol
# Density = 1.893559 g / cm^3
# Si number density = 18.978783 Si / 1000 Ang^3
#
#
#
# Elastic Constant Matrix: (Units=GPa)
#
#
# Indices 1 2 3 4 5 6 
#
# 1 149.3844 45.1740 53.2953 0.0000 -19.6280 0.0000
# 2 45.1740 58.1433 41.9485 0.0000 -4.1504 0.0000
# 3 53.2953 41.9485 114.8960 0.0000 -19.0682 0.0000
# 4 0.0000 0.0000 0.0000 25.8319 0.0000 -7.3072
# 5 -19.6280 -4.1504 -19.0682 0.0000 16.6504 0.0000
# 6 0.0000 0.0000 0.0000 -7.3072 0.0000 35.0673
#
#
#
# Elastic Compliance Matrix: (Units=1/GPa)
#
#
# Indices 1 2 3 4 5 6 
#
# 1 0.010253 -0.006788 -0.000682 0.000000 0.009613 0.000000
# 2 -0.006788 0.028167 -0.009010 0.000000 -0.011299 0.000000
# 3 -0.000682 -0.009010 0.014573 0.000000 0.013639 0.000000
# 4 0.000000 0.000000 0.000000 0.041136 0.000000 0.008572
# 5 0.009613 -0.011299 0.013639 0.000000 0.084194 0.000000
# 6 0.000000 0.000000 0.000000 0.008572 0.000000 0.030303
#
#
# Mechanical properties :
#
#
# Convention : Reuss Voigt Hill
#
# Bulk Modulus (GPa) = 49.91932 67.02880 58.47406
# Shear Modulus (GPa) = 20.13978 27.64367 23.89173
#
# Velocity S-wave (km/s) = 3.26110 3.82063 3.55190
# Velocity P-wave (km/s) = 6.36706 7.40657 6.90640
#
# Compressibility (1/GPa) = 0.02003232
#
# Stress axis : x y z
#
# Youngs Moduli (GPa) = 97.52895 35.50303 68.61876
#
# Poissons Ratio (x) = 0.24098 0.04683
# Poissons Ratio (y) = 0.66200 0.61828
# Poissons Ratio (z) = 0.06656 0.31989
#
# Static dielectric constant tensor:
#      x y z
#    x 3.483310 0.000000 0.167920 
#    y 0.000000 3.416660 0.000000 
#    z 0.167920 0.000000 3.439300 
# 
# 
# High freq. dielectric constant tensor:
#      x y z
#    x 1.747350 0.000000 -0.002190 
#    y 0.000000 1.721850 0.000000 
#    z -0.002190 0.000000 1.737840 
# 
# From -- ./inp_files/359820.got.cif
#   From: 2010.06.25/outbox.cif.g09.slc.cpg/sg12_180_cif.got.tgz:359820.got - 2010.06.28 00:19:55.
