data_PCOD8101286
_publ_section_title
;
Structure prediction by ZEFSAII (Michael W. Deem and Ramdas Pophale) SiO2 
 PCOD8101286
Probable space group: C 2/M
;
_chemical_formula_sum "Si O2"
_cell_formula_units_Z 48
_cell_length_a 11.292481
_cell_length_b 16.857128
_cell_length_c 24.330908
_cell_angle_alpha 90.000000
_cell_angle_beta 31.711937
_cell_angle_gamma 90.000000
_cell_volume 2434.596692
_symmetry_space_group_name_H-M "C 2/M"
_symmetry_group_IT_number 12
_symmetry_cell_setting 'monoclinic'
loop_
_space_group_symop_operation_xyz
x,y,z
-x,y,-z
-x,-y,-z
x,-y,z
1/2+x,1/2+y,z
1/2-x,1/2+y,-z
1/2-x,1/2-y,-z
1/2+x,1/2-y,z
loop_
_atom_site_type_symbol
_atom_site_label
_atom_site_fract_x
_atom_site_fract_y
_atom_site_fract_z
Si Si1 0.521880 0.251043 0.123263
Si Si2 0.949524 0.412308 0.203110
Si Si3 0.915588 0.339340 0.743683
Si Si4 0.006809 0.593215 0.591157
Si Si5 0.525918 0.411813 0.642829
Si Si6 0.409357 0.688803 0.283990
O O1 0.491713 0.157183 0.143220
O O2 0.320494 0.291645 0.168228
O O3 0.538213 0.299522 0.174713
O O4 0.750000 0.250000 0.000000
O O5 0.015385 0.500000 0.153619
O O6 0.678621 0.409723 0.320152
O O7 0.092701 0.400256 0.202218
O O8 0.981111 0.390461 0.665490
O O9 0.113045 0.275854 0.679689
O O10 0.962974 0.500000 0.597203
O O11 0.832692 0.647800 0.626887
O O12 0.252254 0.622111 0.474671
O O13 0.578680 0.500000 0.642256
O O14 0.453637 0.364014 0.726293
#
# Coordination Sequence:
#
# PCOD8101286 Si02
#       6
#     8   8   8   8   8   8
#     4  10  22  42  63  83 113 151 195 249 305 352
#     4  10  21  39  60  85 119 155 193 240 291 348
#     4  10  21  39  57  88 115 152 195 245 289 345
#     4  10  21  37  58  84 119 163 197 232 284 348
#     4  10  20  37  58  85 123 159 193 234 289 347
#     4  10  20  36  57  86 114 149 195 242 292 336
#
# _framework density 19.715790999999999
#
# number of rings (size 3 to 8) (size 9 to 14) (size 15 to 20)
#    0.000    2.000    1.667    1.500    0.000    5.333 
#    6.000    8.333    0.000    2.000    0.000    0.000 
#    0.000    0.000    0.000    0.000    0.000    0.000 
#
# Total GULP energy -297328.006399 kJ/mol
# GULP energy per Si atom -12388.666933 kJ/mol
# Density = 1.967092 g / cm^3
# Si number density = 19.715791 Si / 1000 Ang^3
#
#
#
# Elastic Constant Matrix: (Units=GPa)
#
#
# Indices 1 2 3 4 5 6 
#
# 1 98.9708 37.7250 39.5601 -0.0025 -9.9335 -0.0006
# 2 37.7250 111.8165 57.7450 -0.0048 -7.3655 -0.0045
# 3 39.5601 57.7450 109.2934 -0.0032 -1.2292 0.0010
# 4 -0.0025 -0.0048 -0.0032 20.0846 -0.0027 -1.3337
# 5 -9.9335 -7.3655 -1.2292 -0.0027 11.6851 -0.0025
# 6 -0.0006 -0.0045 0.0010 -1.3337 -0.0025 37.0818
#
#
#
# Elastic Compliance Matrix: (Units=1/GPa)
#
#
# Indices 1 2 3 4 5 6 
#
# 1 0.013285 -0.001949 -0.003670 0.000002 0.009679 0.000001
# 2 -0.001949 0.013199 -0.006200 0.000003 0.006010 0.000002
# 3 -0.003670 -0.006200 0.013691 -0.000001 -0.005588 -0.000002
# 4 0.000002 0.000003 -0.000001 0.049909 0.000016 0.001795
# 5 0.009679 0.006010 -0.005588 0.000016 0.097008 0.000008
# 6 0.000001 0.000002 -0.000002 0.001795 0.000008 0.027032
#
#
# Mechanical properties :
#
#
# Convention : Reuss Voigt Hill
#
# Bulk Modulus (GPa) = 60.47442 65.57122 63.02282
# Shear Modulus (GPa) = 20.55279 26.10702 23.32991
#
# Velocity S-wave (km/s) = 3.23221 3.64286 3.44366
# Velocity P-wave (km/s) = 6.68350 7.14313 6.91714
#
# Compressibility (1/GPa) = 0.01653592
#
# Stress axis : x y z
#
# Youngs Moduli (GPa) = 75.27004 75.76405 73.03962
#
# Poissons Ratio (x) = 0.14770 0.26806
# Poissons Ratio (y) = 0.14673 0.45287
# Poissons Ratio (z) = 0.27624 0.46977
#
# Static dielectric constant tensor:
#      x y z
#    x 3.864390 -0.000010 -0.110970 
#    y -0.000010 3.967140 -0.000010 
#    z -0.110970 -0.000010 3.284400 
# 
# 
# High freq. dielectric constant tensor:
#      x y z
#    x 1.783220 0.000000 -0.008470 
#    y 0.000000 1.783390 0.000000 
#    z -0.008470 0.000000 1.730630 
# 
# From -- ./inp_files/131019.got.cif
#   From: 2010.06.25/outbox.cif.g09.slc.cpg/sg12_66_cif.got.tgz:131019.got - 2010.06.28 00:19:55.
