data_PCOD8101189
_publ_section_title
;
Structure prediction by ZEFSAII (Michael W. Deem and Ramdas Pophale) SiO2 
 PCOD8101189
Probable space group: C 2/M
;
_chemical_formula_sum "Si O2"
_cell_formula_units_Z 64
_cell_length_a 19.746660
_cell_length_b 8.939711
_cell_length_c 31.320331
_cell_angle_alpha 90.000000
_cell_angle_beta 37.145422
_cell_angle_gamma 90.000000
_cell_volume 3338.607900
_symmetry_space_group_name_H-M "C 2/M"
_symmetry_group_IT_number 12
_symmetry_cell_setting 'monoclinic'
loop_
_space_group_symop_operation_xyz
x,y,z
-x,y,-z
-x,-y,-z
x,-y,z
1/2+x,1/2+y,z
1/2-x,1/2+y,-z
1/2-x,1/2-y,-z
1/2+x,1/2-y,z
loop_
_atom_site_type_symbol
_atom_site_label
_atom_site_fract_x
_atom_site_fract_y
_atom_site_fract_z
Si Si1 0.081034 0.322632 0.299566
Si Si2 0.712951 0.172154 0.845012
Si Si3 0.678785 0.822847 0.422324
Si Si4 0.028346 0.824745 0.170198
Si Si5 0.584148 0.177219 0.692136
Si Si6 0.010780 0.327667 0.093179
Si Si7 0.221114 0.675611 0.936055
Si Si8 0.031922 0.323059 0.418131
O O1 0.086433 0.500000 0.298251
O O2 0.203500 0.262661 0.226990
O O3 0.048214 0.256370 0.362549
O O4 0.990196 0.267654 0.310558
O O5 0.587484 0.189534 0.891466
O O6 0.715941 0.242808 0.890950
O O7 0.752282 0.000000 0.825688
O O8 0.791102 0.736107 0.377360
O O9 0.633965 0.773859 0.397946
O O10 0.587172 0.769985 0.503180
O O11 0.700493 0.000000 0.413258
O O12 0.977658 0.767614 0.151283
O O13 0.159697 0.783592 0.103522
O O14 0.966873 0.742913 0.239311
O O15 0.006934 0.000000 0.186195
O O16 0.585315 0.000000 0.695051
O O17 0.028052 0.500000 0.098100
O O18 0.123024 0.258280 0.015258
O O19 0.200092 0.500000 0.942875
O O20 0.030599 0.500000 0.417302
#
# Coordination Sequence:
#
# PCOD8101189 Si02
#       8
#     8   8   8   8   8   8   8   8
#     4  10  21  37  56  79 112 151 186 228 276 322
#     4  10  20  36  57  82 111 145 187 228 272 330
#     4   9  18  36  62  86 110 144 185 225 266 328
#     4  11  22  37  57  80 109 147 190 230 270 333
#     4  11  23  37  54  80 115 149 183 230 284 324
#     4  10  21  36  57  84 112 142 180 233 288 329
#     4   9  18  36  59  80 107 146 187 226 274 333
#     4   8  17  36  60  85 111 144 184 223 270 325
#
# _framework density 19.169667
#
# number of rings (size 3 to 8) (size 9 to 14) (size 15 to 20)
#    0.000    2.250    1.250    2.250    1.750    3.000 
#    0.000    3.125    0.000    1.500    0.000    0.000 
#    0.000    0.000    0.000    0.000    0.000    0.000 
#
# Total GULP energy -396839.301026 kJ/mol
# GULP energy per Si atom -12401.228157 kJ/mol
# Density = 1.912604 g / cm^3
# Si number density = 19.169667 Si / 1000 Ang^3
#
#
#
# Elastic Constant Matrix: (Units=GPa)
#
#
# Indices 1 2 3 4 5 6 
#
# 1 67.8349 13.9105 29.1780 0.0003 12.0182 0.0164
# 2 13.9105 29.2479 16.8248 -0.0001 -1.6958 0.0126
# 3 29.1780 16.8248 105.3827 0.0011 8.5830 0.0017
# 4 0.0003 -0.0001 0.0011 28.3096 -0.0002 -5.0848
# 5 12.0182 -1.6958 8.5830 -0.0002 41.8631 0.0007
# 6 0.0164 0.0126 0.0017 -5.0848 0.0007 19.6568
#
#
#
# Elastic Compliance Matrix: (Units=1/GPa)
#
#
# Indices 1 2 3 4 5 6 
#
# 1 0.018614 -0.007048 -0.003631 -0.000002 -0.004885 -0.000011
# 2 -0.007048 0.040643 -0.004919 -0.000003 0.004678 -0.000021
# 3 -0.003631 -0.004919 0.011401 0.000001 -0.001494 0.000005
# 4 -0.000002 -0.000003 0.000001 0.037045 0.000000 0.009583
# 5 -0.004885 0.004678 -0.001494 0.000000 0.025786 0.000000
# 6 -0.000011 -0.000021 0.000005 0.009583 0.000000 0.053352
#
#
# Mechanical properties :
#
#
# Convention : Reuss Voigt Hill
#
# Bulk Modulus (GPa) = 25.33909 35.81024 30.57466
# Shear Modulus (GPa) = 21.62728 27.46939 24.54833
#
# Velocity S-wave (km/s) = 3.36252 3.78955 3.58240
# Velocity P-wave (km/s) = 5.32188 6.15377 5.75288
#
# Compressibility (1/GPa) = 0.03946472
#
# Stress axis : x y z
#
# Youngs Moduli (GPa) = 53.72288 24.60451 87.70798
#
# Poissons Ratio (x) = 0.17340 0.31845
# Poissons Ratio (y) = 0.37862 0.43139
# Poissons Ratio (z) = 0.19505 0.12102
#
# Static dielectric constant tensor:
#      x y z
#    x 3.687080 -0.000010 0.153150 
#    y -0.000010 3.204410 0.000000 
#    z 0.153150 0.000000 3.706180 
# 
# 
# High freq. dielectric constant tensor:
#      x y z
#    x 1.756410 0.000000 0.002610 
#    y 0.000000 1.714490 0.000000 
#    z 0.002610 0.000000 1.756470 
# 
# From -- ./inp_files/378260.got.cif
#   From: 2010.06.25/outbox.cif.g09.slc.cpg/sg12_190_cif.got.tgz:378260.got - 2010.06.28 00:19:55.
