data_PCOD8101561
_publ_section_title
;
Structure prediction by ZEFSAII (Michael W. Deem and Ramdas Pophale) SiO2 
 PCOD8101561
Probable space group: C 2/M
;
_chemical_formula_sum "Si O2"
_cell_formula_units_Z 64
_cell_length_a 32.430702
_cell_length_b 9.396612
_cell_length_c 23.188490
_cell_angle_alpha 90.000000
_cell_angle_beta 151.668231
_cell_angle_gamma 90.000000
_cell_volume 3353.560870
_symmetry_space_group_name_H-M "C 2/M"
_symmetry_group_IT_number 12
_symmetry_cell_setting 'monoclinic'
loop_
_space_group_symop_operation_xyz
x,y,z
-x,y,-z
-x,-y,-z
x,-y,z
1/2+x,1/2+y,z
1/2-x,1/2+y,-z
1/2-x,1/2-y,-z
1/2+x,1/2-y,z
loop_
_atom_site_type_symbol
_atom_site_label
_atom_site_fract_x
_atom_site_fract_y
_atom_site_fract_z
Si Si1 0.866977 0.161726 0.081823
Si Si2 0.255343 0.663938 0.747764
Si Si3 0.932734 0.164720 0.286471
Si Si4 0.105594 0.665569 0.471703
Si Si5 0.426156 0.831754 0.953340
Si Si6 0.328789 0.162529 0.572028
Si Si7 0.511425 0.162935 0.845694
Si Si8 0.801398 0.333210 0.194291
O O1 0.869052 0.179712 0.153096
O O2 0.944837 0.253018 0.152153
O O3 0.883776 0.000000 0.083489
O O4 0.774711 0.212259 0.943426
O O5 0.284158 0.500000 0.783155
O O6 0.176740 0.692211 0.608005
O O7 0.336419 0.756666 0.826261
O O8 0.226358 0.711435 0.775785
O O9 0.886880 0.243803 0.283409
O O10 0.024092 0.237958 0.386727
O O11 0.948492 0.000000 0.321683
O O12 0.077117 0.500000 0.433536
O O13 0.144176 0.716770 0.458101
O O14 0.411877 0.000000 0.933158
O O15 0.500000 0.782526 0.000000
O O16 0.456527 0.778841 0.053536
O O17 0.250000 0.250000 0.500000
O O18 0.408101 0.181521 0.714114
O O19 0.298473 0.000000 0.530562
O O20 0.538710 0.000000 0.871399
O O21 0.823855 0.500000 0.217729
#
# Coordination Sequence:
#
# PCOD8101561 Si02
#       8
#     8   8   8   8   8   8   8   8
#     4  10  20  36  58  86 116 146 186 233 282 332
#     4  10  22  40  61  84 111 149 195 235 277 333
#     4  11  23  37  58  88 115 146 189 234 283 337
#     4  10  22  41  60  81 113 152 192 233 281 335
#     4  10  22  38  58  86 118 151 186 230 286 340
#     4  10  22  38  58  85 115 149 190 234 280 333
#     4  10  20  36  59  85 114 151 189 228 282 338
#     4  10  21  38  59  83 114 149 185 232 285 337
#
# _framework density 19.084192000000002
#
# number of rings (size 3 to 8) (size 9 to 14) (size 15 to 20)
#    0.000    1.875    2.500    0.750    1.750    3.750 
#    0.000    2.500    0.000    0.000    0.000    0.000 
#    0.000    0.000    0.000    0.000    0.000    0.000 
#
# Total GULP energy -396934.817672 kJ/mol
# GULP energy per Si atom -12404.213052 kJ/mol
# Density = 1.904076 g / cm^3
# Si number density = 19.084192 Si / 1000 Ang^3
#
#
#
# Elastic Constant Matrix: (Units=GPa)
#
#
# Indices 1 2 3 4 5 6 
#
# 1 103.0558 50.9962 46.9397 0.0000 21.5462 0.0000
# 2 50.9962 71.1101 44.9789 0.0000 20.3892 0.0000
# 3 46.9397 44.9789 92.8417 0.0000 8.2669 0.0000
# 4 0.0000 0.0000 0.0000 32.1749 0.0000 8.9395
# 5 21.5462 20.3892 8.2669 0.0000 37.4968 0.0000
# 6 0.0000 0.0000 0.0000 8.9395 0.0000 31.9427
#
#
#
# Elastic Compliance Matrix: (Units=1/GPa)
#
#
# Indices 1 2 3 4 5 6 
#
# 1 0.016366 -0.007991 -0.004032 0.000000 -0.004170 0.000000
# 2 -0.007991 0.027702 -0.008617 0.000000 -0.008571 0.000000
# 3 -0.004032 -0.008617 0.016688 0.000000 0.003323 0.000000
# 4 0.000000 0.000000 0.000000 0.033701 0.000000 -0.009431
# 5 -0.004170 -0.008571 0.003323 0.000000 0.032993 0.000000
# 6 0.000000 0.000000 0.000000 -0.009431 0.000000 0.033946
#
#
# Mechanical properties :
#
#
# Convention : Reuss Voigt Hill
#
# Bulk Modulus (GPa) = 51.34499 61.42635 56.38567
# Shear Modulus (GPa) = 23.90433 28.59572 26.25002
#
# Velocity S-wave (km/s) = 3.54301 3.87511 3.71278
# Velocity P-wave (km/s) = 6.61060 7.23042 6.92745
#
# Compressibility (1/GPa) = 0.01947610
#
# Stress axis : x y z
#
# Youngs Moduli (GPa) = 61.10257 36.09904 59.92209
#
# Poissons Ratio (x) = 0.28846 0.24159
# Poissons Ratio (y) = 0.48826 0.51636
# Poissons Ratio (z) = 0.24635 0.31107
#
# Static dielectric constant tensor:
#      x y z
#    x 3.526650 0.000000 -0.174470 
#    y 0.000000 3.419310 0.000000 
#    z -0.174470 0.000000 3.495470 
# 
# 
# High freq. dielectric constant tensor:
#      x y z
#    x 1.746560 0.000000 -0.003260 
#    y 0.000000 1.736210 0.000000 
#    z -0.003260 0.000000 1.746840 
# 
# From -- ./inp_files/353279.got.cif
#   From: 2010.06.25/outbox.cif.g09.slc.cpg/sg12_177_cif.got.tgz:353279.got - 2010.06.28 00:19:55.
