data_PCOD8101694
_publ_section_title
;
Structure prediction by ZEFSAII (Michael W. Deem and Ramdas Pophale) SiO2 
 PCOD8101694
Probable space group: C 2/M
;
_chemical_formula_sum "Si O2"
_cell_formula_units_Z 56
_cell_length_a 19.213734
_cell_length_b 8.700501
_cell_length_c 19.415261
_cell_angle_alpha 90.000000
_cell_angle_beta 65.268012
_cell_angle_gamma 90.000000
_cell_volume 2947.925513
_symmetry_space_group_name_H-M "C 2/M"
_symmetry_group_IT_number 12
_symmetry_cell_setting 'monoclinic'
loop_
_space_group_symop_operation_xyz
x,y,z
-x,y,-z
-x,-y,-z
x,-y,z
1/2+x,1/2+y,z
1/2-x,1/2+y,-z
1/2-x,1/2-y,-z
1/2+x,1/2-y,z
loop_
_atom_site_type_symbol
_atom_site_label
_atom_site_fract_x
_atom_site_fract_y
_atom_site_fract_z
Si Si1 0.961792 0.322611 0.813833
Si Si2 0.592219 0.323952 0.298168
Si Si3 0.671724 0.684087 0.563300
Si Si4 0.756445 0.318951 0.782738
Si Si5 0.376175 0.680152 0.263163
Si Si6 0.475286 0.169750 0.433658
Si Si7 0.702536 0.180905 0.081311
O O1 0.977528 0.500000 0.821459
O O2 0.938073 0.295229 0.745597
O O3 0.886826 0.264912 0.888205
O O4 0.040299 0.234746 0.796195
O O5 0.588960 0.500000 0.274197
O O6 0.677518 0.274616 0.284452
O O7 0.535470 0.297394 0.384046
O O8 0.672940 0.500000 0.559101
O O9 0.750000 0.750000 0.500000
O O10 0.653450 0.741133 0.649868
O O11 0.607843 0.754837 0.539985
O O12 0.771289 0.500000 0.768705
O O13 0.678907 0.268362 0.776595
O O14 0.758407 0.268154 0.862348
O O15 0.380446 0.500000 0.267843
O O16 0.500000 0.140311 0.500000
O O17 0.477128 0.000000 0.396404
O O18 0.705850 0.000000 0.074326
O O19 0.750000 0.250000 0.000000
#
# Coordination Sequence:
#
# PCOD8101694 Si02
#       7
#     8   8   8   8   8   8   8
#     4  10  20  36  59  84 113 150 189 227 280 340
#     4  11  21  35  56  83 110 142 189 238 283 333
#     4  11  24  40  58  84 116 151 194 242 293 343
#     4   9  20  38  58  83 116 150 189 231 280 339
#     4  10  21  38  60  84 113 151 194 238 284 339
#     4  11  24  40  58  79 109 149 191 237 291 342
#     4   9  19  36  59  86 115 150 187 231 279 335
#
# _framework density 18.996409
#
# number of rings (size 3 to 8) (size 9 to 14) (size 15 to 20)
#    0.000    1.857    1.429    3.429    2.000    5.143 
#    0.000    0.714    0.000    4.286    0.000    0.000 
#    0.000    0.000    0.000    0.000    0.000    0.000 
#
# Total GULP energy -346962.348735 kJ/mol
# GULP energy per Si atom -12391.512455 kJ/mol
# Density = 1.895317 g / cm^3
# Si number density = 18.996409 Si / 1000 Ang^3
#
#
#
# Elastic Constant Matrix: (Units=GPa)
#
#
# Indices 1 2 3 4 5 6 
#
# 1 171.1970 38.6338 72.9194 -0.0001 -18.0548 -0.0002
# 2 38.6338 35.3104 23.6924 -0.0001 -7.3037 -0.0004
# 3 72.9194 23.6924 101.0396 0.0000 -23.5999 -0.0001
# 4 -0.0001 -0.0001 0.0000 30.1907 0.0000 -6.0122
# 5 -18.0548 -7.3037 -23.5999 0.0000 28.3145 -0.0001
# 6 -0.0002 -0.0004 -0.0001 -6.0122 -0.0001 10.2149
#
#
#
# Elastic Compliance Matrix: (Units=1/GPa)
#
#
# Indices 1 2 3 4 5 6 
#
# 1 0.009710 -0.007034 -0.005384 0.000000 -0.000110 0.000000
# 2 -0.007034 0.038860 -0.003405 0.000000 0.002701 0.000002
# 3 -0.005384 -0.003405 0.016856 0.000000 0.009738 0.000000
# 4 0.000000 0.000000 0.000000 0.037521 0.000000 0.022084
# 5 -0.000110 0.002701 0.009738 0.000000 0.044060 0.000001
# 6 0.000000 0.000002 0.000000 0.022084 0.000001 0.110894
#
#
# Mechanical properties :
#
#
# Convention : Reuss Voigt Hill
#
# Bulk Modulus (GPa) = 29.60401 64.22648 46.91525
# Shear Modulus (GPa) = 16.62197 25.23077 20.92637
#
# Velocity S-wave (km/s) = 2.96126 3.64838 3.32263
# Velocity P-wave (km/s) = 5.22589 7.18546 6.28254
#
# Compressibility (1/GPa) = 0.03377920
#
# Stress axis : x y z
#
# Youngs Moduli (GPa) = 102.98260 25.73355 59.32756
#
# Poissons Ratio (x) = 0.18102 0.31943
# Poissons Ratio (y) = 0.72443 0.20199
# Poissons Ratio (z) = 0.55448 0.08761
#
# Static dielectric constant tensor:
#      x y z
#    x 3.924420 0.000000 -0.682080 
#    y 0.000000 3.445990 0.000000 
#    z -0.682080 0.000000 5.553740 
# 
# 
# High freq. dielectric constant tensor:
#      x y z
#    x 1.747140 0.000000 -0.013510 
#    y 0.000000 1.740670 0.000000 
#    z -0.013510 0.000000 1.720580 
# 
# From -- ./inp_files/275313.got.cif
#   From: 2010.06.25/outbox.cif.g09.slc.cpg/sg12_138_cif.got.tgz:275313.got - 2010.06.28 00:19:55.
