data_PCOD8101916
_publ_section_title
;
Structure prediction by ZEFSAII (Michael W. Deem and Ramdas Pophale) SiO2 
 PCOD8101916
Probable space group: C 2/M
;
_chemical_formula_sum "Si O2"
_cell_formula_units_Z 36
_cell_length_a 17.000677
_cell_length_b 21.809133
_cell_length_c 8.017942
_cell_angle_alpha 90.000000
_cell_angle_beta 148.214077
_cell_angle_gamma 90.000000
_cell_volume 1565.920008
_symmetry_space_group_name_H-M "C 2/M"
_symmetry_group_IT_number 12
_symmetry_cell_setting 'monoclinic'
loop_
_space_group_symop_operation_xyz
x,y,z
-x,y,-z
-x,-y,-z
x,-y,z
1/2+x,1/2+y,z
1/2-x,1/2+y,-z
1/2-x,1/2-y,-z
1/2+x,1/2-y,z
loop_
_atom_site_type_symbol
_atom_site_label
_atom_site_fract_x
_atom_site_fract_y
_atom_site_fract_z
Si Si1 0.837674 0.145058 0.822739
Si Si2 0.000000 0.748437 0.000000
Si Si3 0.902028 0.718467 0.475335
Si Si4 0.397154 0.360578 0.467292
Si Si5 0.667641 0.071808 0.258284
O O1 0.735590 0.170912 0.789620
O O2 0.764202 0.088442 0.595300
O O3 0.853579 0.206872 0.737595
O O4 0.000913 0.127300 0.184550
O O5 0.985351 0.708031 0.805144
O O6 0.856631 0.789369 0.366659
O O7 0.000000 0.695673 0.500000
O O8 0.500000 0.386014 0.500000
O O9 0.242179 0.396678 0.227093
O O10 0.670671 0.000000 0.231056
O O11 0.500000 0.094474 0.000000
#
# Coordination Sequence:
#
# PCOD8101916 Si02
#       5
#     8   4   8   8   8
#     4  11  21  40  63  92 125 167 211 252 315 380
#     4  10  20  36  59  96 123 174 204 252 308 396
#     4  10  22  36  60  99 136 164 208 254 320 381
#     4  10  23  42  65  95 129 165 210 260 317 383
#     4  11  25  43  65  91 121 165 217 267 321 377
#
# _framework density 22.989681000000001
#
# number of rings (size 3 to 8) (size 9 to 14) (size 15 to 20)
#    0.000    1.556    4.444    0.667    1.556   13.778 
#    0.000    0.000    0.000    3.333    0.000    0.000 
#    0.000    0.000    0.000    0.000    0.000    0.000 
#
# Total GULP energy -223007.115500 kJ/mol
# GULP energy per Si atom -12389.284194 kJ/mol
# Density = 2.293736 g / cm^3
# Si number density = 22.989681 Si / 1000 Ang^3
#
#
#
# Elastic Constant Matrix: (Units=GPa)
#
#
# Indices 1 2 3 4 5 6 
#
# 1 174.6873 40.0021 29.0842 0.0000 37.8742 0.0000
# 2 40.0021 58.8752 15.1113 0.0000 22.6395 0.0000
# 3 29.0842 15.1113 58.7465 0.0000 20.4314 0.0000
# 4 0.0000 0.0000 0.0000 21.7349 0.0000 8.7877
# 5 37.8742 22.6395 20.4314 0.0000 46.5329 0.0000
# 6 0.0000 0.0000 0.0000 8.7877 0.0000 30.7888
#
#
#
# Elastic Compliance Matrix: (Units=1/GPa)
#
#
# Indices 1 2 3 4 5 6 
#
# 1 0.007573 -0.003245 -0.001558 0.000000 -0.003901 0.000000
# 2 -0.003245 0.022522 -0.001528 0.000000 -0.007645 0.000000
# 3 -0.001558 -0.001528 0.020639 0.000000 -0.007051 0.000000
# 4 0.000000 0.000000 0.000000 0.052011 0.000000 -0.014845
# 5 -0.003901 -0.007645 -0.007051 0.000000 0.031481 0.000000
# 6 0.000000 0.000000 0.000000 -0.014845 0.000000 0.036716
#
#
# Mechanical properties :
#
#
# Convention : Reuss Voigt Hill
#
# Bulk Modulus (GPa) = 26.26606 51.18937 38.72772
# Shear Modulus (GPa) = 25.47206 33.68542 29.57874
#
# Velocity S-wave (km/s) = 3.33224 3.83200 3.59083
# Velocity P-wave (km/s) = 5.12397 6.47252 5.83732
#
# Compressibility (1/GPa) = 0.03807194
#
# Stress axis : x y z
#
# Youngs Moduli (GPa) = 132.05217 44.40077 48.45286
#
# Poissons Ratio (x) = 0.14410 0.07547
# Poissons Ratio (y) = 0.42857 0.07402
# Poissons Ratio (z) = 0.20569 0.06783
#
# Static dielectric constant tensor:
#      x y z
#    x 4.764250 0.000000 0.347080 
#    y 0.000000 3.556300 0.000000 
#    z 0.347080 0.000000 4.022110 
# 
# 
# High freq. dielectric constant tensor:
#      x y z
#    x 1.939890 0.000000 0.023740 
#    y 0.000000 1.854990 0.000000 
#    z 0.023740 0.000000 1.897490 
# 
# From -- ./inp_files/78149.got.cif
#   From: 2010.06.25/outbox.cif.g09.slc.cpg/sg12_40_cif.got.tgz:78149.got - 2010.06.28 00:19:55.
