data_PCOD8101202
_publ_section_title
;
Structure prediction by ZEFSAII (Michael W. Deem and Ramdas Pophale) SiO2 
 PCOD8101202
Probable space group: C 2/M
;
_chemical_formula_sum "Si O2"
_cell_formula_units_Z 56
_cell_length_a 32.072242
_cell_length_b 18.598407
_cell_length_c 8.983977
_cell_angle_alpha 90.000000
_cell_angle_beta 32.166693
_cell_angle_gamma 90.000000
_cell_volume 2852.981281
_symmetry_space_group_name_H-M "C 2/M"
_symmetry_group_IT_number 12
_symmetry_cell_setting 'monoclinic'
loop_
_space_group_symop_operation_xyz
x,y,z
-x,y,-z
-x,-y,-z
x,-y,z
1/2+x,1/2+y,z
1/2-x,1/2+y,-z
1/2-x,1/2-y,-z
1/2+x,1/2-y,z
loop_
_atom_site_type_symbol
_atom_site_label
_atom_site_fract_x
_atom_site_fract_y
_atom_site_fract_z
Si Si1 0.413259 0.919117 0.584877
Si Si2 0.646955 0.579778 0.227938
Si Si3 0.768999 0.325704 0.017453
Si Si4 0.088366 0.419883 0.055852
Si Si5 0.483810 0.419607 0.885524
Si Si6 0.417830 0.333177 0.831107
Si Si7 0.690049 0.206166 0.781008
O O1 0.352236 0.858917 0.709412
O O2 0.500852 0.900048 0.262203
O O3 0.411707 0.917788 0.766662
O O4 0.390569 0.000000 0.599105
O O5 0.679015 0.500000 0.100162
O O6 0.561826 0.576246 0.555022
O O7 0.643348 0.620934 0.081727
O O8 0.702379 0.618244 0.177518
O O9 0.750000 0.250000 0.000000
O O10 0.764920 0.318478 0.207249
O O11 0.111153 0.500000 0.930689
O O12 0.153630 0.362566 0.802238
O O13 0.447984 0.500000 0.011259
O O14 0.423641 0.369686 0.976443
O O15 0.500000 0.386316 0.000000
O O16 0.500000 0.326214 0.500000
O O17 0.384520 0.253756 0.948796
O O18 0.750000 0.250000 0.500000
#
# Coordination Sequence:
#
# PCOD8101202 Si02
#       7
#     8   8   8   8   8   8   8
#     4   8  15  29  55  84 105 138 190 244 278 328
#     4  10  20  36  57  82 113 153 194 239 287 346
#     4  11  21  34  54  82 118 149 193 234 290 344
#     4   8  16  33  57  80 107 143 191 238 283 340
#     4   9  19  35  57  83 111 145 193 241 286 347
#     4  10  21  37  60  83 113 155 193 237 293 354
#     4  11  24  37  56  86 123 150 186 238 303 350
#
# _framework density 19.628591
#
# number of rings (size 3 to 8) (size 9 to 14) (size 15 to 20)
#    0.000    2.429    1.429    1.714    6.000    2.286 
#    0.000    1.429    0.000    0.000    0.000    2.000 
#    0.000    0.000    0.000    0.000    0.000    0.000 
#
# Total GULP energy -347091.939280 kJ/mol
# GULP energy per Si atom -12396.140689 kJ/mol
# Density = 1.958392 g / cm^3
# Si number density = 19.628591 Si / 1000 Ang^3
#
#
#
# Elastic Constant Matrix: (Units=GPa)
#
#
# Indices 1 2 3 4 5 6 
#
# 1 110.0984 50.3029 23.0005 0.0000 -9.5266 0.0000
# 2 50.3029 143.4211 49.8662 0.0000 -21.8066 0.0000
# 3 23.0005 49.8662 58.0178 0.0000 -10.8373 0.0000
# 4 0.0000 0.0000 0.0000 35.3632 0.0000 -10.8087
# 5 -9.5266 -21.8066 -10.8373 0.0000 26.5998 0.0000
# 6 0.0000 0.0000 0.0000 -10.8087 0.0000 34.9568
#
#
#
# Elastic Compliance Matrix: (Units=1/GPa)
#
#
# Indices 1 2 3 4 5 6 
#
# 1 0.010915 -0.003229 -0.001424 0.000000 0.000681 0.000000
# 2 -0.003229 0.011570 -0.007694 0.000000 0.005194 0.000000
# 3 -0.001424 -0.007694 0.025046 0.000000 0.003387 0.000000
# 4 0.000000 0.000000 0.000000 0.031229 0.000000 0.009656
# 5 0.000681 0.005194 0.003387 0.000000 0.043476 0.000000
# 6 0.000000 0.000000 0.000000 0.009656 0.000000 0.031592
#
#
# Mechanical properties :
#
#
# Convention : Reuss Voigt Hill
#
# Bulk Modulus (GPa) = 43.79037 61.98625 52.88831
# Shear Modulus (GPa) = 26.86213 31.94180 29.40196
#
# Velocity S-wave (km/s) = 3.70337 4.03837 3.87449
# Velocity P-wave (km/s) = 6.37530 7.30703 6.85701
#
# Compressibility (1/GPa) = 0.02283607
#
# Stress axis : x y z
#
# Youngs Moduli (GPa) = 91.61917 86.43068 39.92623
#
# Poissons Ratio (x) = 0.27913 0.05686
# Poissons Ratio (y) = 0.29588 0.30719
# Poissons Ratio (z) = 0.13047 0.66499
#
# Static dielectric constant tensor:
#      x y z
#    x 3.669280 0.000000 -0.320360 
#    y 0.000000 4.011040 0.000000 
#    z -0.320360 0.000000 3.330370 
# 
# 
# High freq. dielectric constant tensor:
#      x y z
#    x 1.753580 0.000000 -0.024380 
#    y 0.000000 1.778710 0.000000 
#    z -0.024380 0.000000 1.733150 
# 
# From -- ./inp_files/113353.got.cif
#   From: 2010.06.25/outbox.cif.g09.slc.cpg/sg12_57_cif.got.tgz:113353.got - 2010.06.28 00:19:55.
