data_PCOD8101069
_publ_section_title
;
Structure prediction by ZEFSAII (Michael W. Deem and Ramdas Pophale) SiO2 
 PCOD8101069
Probable space group: C 2/M
;
_chemical_formula_sum "Si O2"
_cell_formula_units_Z 40
_cell_length_a 7.266948
_cell_length_b 18.235143
_cell_length_c 16.434956
_cell_angle_alpha 90.000000
_cell_angle_beta 87.859127
_cell_angle_gamma 90.000000
_cell_volume 2176.338916
_symmetry_space_group_name_H-M "C 2/M"
_symmetry_group_IT_number 12
_symmetry_cell_setting 'monoclinic'
loop_
_space_group_symop_operation_xyz
x,y,z
-x,y,-z
-x,-y,-z
x,-y,z
1/2+x,1/2+y,z
1/2-x,1/2+y,-z
1/2-x,1/2-y,-z
1/2+x,1/2-y,z
loop_
_atom_site_type_symbol
_atom_site_label
_atom_site_fract_x
_atom_site_fract_y
_atom_site_fract_z
Si Si1 0.035315 0.914291 0.308072
Si Si2 0.009946 0.087004 0.873168
Si Si3 0.205613 0.412690 0.001201
Si Si4 0.743292 0.837790 0.414905
Si Si5 0.177397 0.326767 0.599869
O O1 0.986160 0.884011 0.219124
O O2 0.217499 0.872326 0.333675
O O3 0.863943 0.900226 0.370505
O O4 0.080492 0.000000 0.306551
O O5 0.191533 0.115125 0.918381
O O6 0.011720 0.000000 0.874238
O O7 0.824085 0.114404 0.921465
O O8 0.193818 0.500000 0.001785
O O9 0.000000 0.378605 0.000000
O O10 0.813478 0.759503 0.381012
O O11 0.772892 0.842193 0.511350
O O12 0.532668 0.852527 0.395518
#
# Coordination Sequence:
#
# PCOD8101069 Si02
#       5
#     8   8   8   8   8
#     4  11  22  34  52  83 118 139 167 229 285 311
#     4   8  16  28  42  70 107 136 166 209 262 314
#     4   8  13  25  46  67  95 139 177 202 245 315
#     4  10  20  36  57  76 100 142 188 221 260 321
#     4  10  20  36  57  76 100 142 188 221 260 321
#
# _framework density 18.379491000000002
#
# number of rings (size 3 to 8) (size 9 to 14) (size 15 to 20)
#    0.000    2.600    2.000    1.800    0.000    4.000 
#    0.000    6.000    0.000    0.000    0.000    5.600 
#    0.000    0.000    0.000    0.000    0.000    0.000 
#
# Total GULP energy -247969.536874 kJ/mol
# GULP energy per Si atom -12398.476844 kJ/mol
# Density = 1.833766 g / cm^3
# Si number density = 18.379491 Si / 1000 Ang^3
#
#
#
# Elastic Constant Matrix: (Units=GPa)
#
#
# Indices 1 2 3 4 5 6 
#
# 1 108.5287 7.1287 33.6420 0.0000 13.4491 0.0000
# 2 7.1287 30.1163 18.2460 0.0000 10.7484 0.0000
# 3 33.6420 18.2460 93.4414 0.0000 19.7725 0.0000
# 4 0.0000 0.0000 0.0000 3.4865 0.0000 8.1680
# 5 13.4491 10.7484 19.7725 0.0000 25.0462 0.0000
# 6 0.0000 0.0000 0.0000 8.1680 0.0000 23.9083
#
#
#
# Elastic Compliance Matrix: (Units=1/GPa)
#
#
# Indices 1 2 3 4 5 6 
#
# 1 0.010593 0.000668 -0.003217 0.000000 -0.003435 0.000000
# 2 0.000668 0.041229 -0.005368 0.000000 -0.013814 0.000000
# 3 -0.003217 -0.005368 0.014473 0.000000 -0.007394 0.000000
# 4 0.000000 0.000000 0.000000 1.436860 0.000000 -0.490886
# 5 -0.003435 -0.013814 -0.007394 0.000000 0.053536 0.000000
# 6 0.000000 0.000000 0.000000 -0.490886 0.000000 0.209532
#
#
# Mechanical properties :
#
#
# Convention : Reuss Voigt Hill
#
# Bulk Modulus (GPa) = 19.81771 38.90219 29.35995
# Shear Modulus (GPa) = 2.77951 22.02618 12.40284
#
# Velocity S-wave (km/s) = 1.23109 3.46556 2.60055
# Velocity P-wave (km/s) = 3.58144 6.10127 5.00261
#
# Compressibility (1/GPa) = 0.05045991
#
# Stress axis : x y z
#
# Youngs Moduli (GPa) = 94.39917 24.25482 69.09342
#
# Poissons Ratio (x) = -0.01620 0.22231
# Poissons Ratio (y) = -0.06303 0.37089
# Poissons Ratio (z) = 0.30373 0.13020
#
# Static dielectric constant tensor:
#      x y z
#    x 3.583080 0.000000 0.122440 
#    y 0.000000 2.885340 0.000000 
#    z 0.122440 0.000000 3.567970 
# 
# 
# High freq. dielectric constant tensor:
#      x y z
#    x 1.727400 0.000000 0.006050 
#    y 0.000000 1.662920 0.000000 
#    z 0.006050 0.000000 1.709850 
# 
# From -- ./inp_files/195009.got.cif
#   From: 2010.06.25/outbox.cif.g09.slc.cpg/sg12_98_cif.got.tgz:195009.got - 2010.06.28 00:19:55.
