data_PCOD8101669
_publ_section_title
;
Structure prediction by ZEFSAII (Michael W. Deem and Ramdas Pophale) SiO2 
 PCOD8101669
Probable space group: C 2/M
;
_chemical_formula_sum "Si O2"
_cell_formula_units_Z 44
_cell_length_a 14.797590
_cell_length_b 19.454860
_cell_length_c 18.040223
_cell_angle_alpha 90.000000
_cell_angle_beta 152.560187
_cell_angle_gamma 90.000000
_cell_volume 2393.255721
_symmetry_space_group_name_H-M "C 2/M"
_symmetry_group_IT_number 12
_symmetry_cell_setting 'monoclinic'
loop_
_space_group_symop_operation_xyz
x,y,z
-x,y,-z
-x,-y,-z
x,-y,z
1/2+x,1/2+y,z
1/2-x,1/2+y,-z
1/2-x,1/2-y,-z
1/2+x,1/2-y,z
loop_
_atom_site_type_symbol
_atom_site_label
_atom_site_fract_x
_atom_site_fract_y
_atom_site_fract_z
Si Si1 0.304695 0.687152 0.092376
Si Si2 0.987982 0.578254 0.864488
Si Si3 0.754783 0.185132 0.558627
Si Si4 0.293468 0.661283 0.249004
Si Si5 0.688601 0.422450 0.512852
Si Si6 0.000000 0.737916 0.500000
O O1 0.535096 0.674814 0.249648
O O2 0.258184 0.701403 0.145669
O O3 0.250000 0.750000 0.000000
O O4 0.182540 0.619132 0.980027
O O5 0.048218 0.500000 0.927166
O O6 0.894260 0.614638 0.868453
O O7 0.823455 0.580511 0.682422
O O8 0.750000 0.250000 0.500000
O O9 0.701301 0.117336 0.473079
O O10 0.593194 0.190994 0.504473
O O11 0.482813 0.613037 0.380192
O O12 0.327083 0.716105 0.338863
O O13 0.648589 0.500000 0.458400
#
# Coordination Sequence:
#
# PCOD8101669 Si02
#       6
#     8   8   8   8   8   4
#     4  11  23  35  54  82 124 157 187 235 294 359
#     4  11  22  36  57  90 125 155 189 239 307 364
#     4  11  21  39  59  84 114 154 203 244 287 351
#     4  11  20  35  60  86 120 151 199 242 289 358
#     4  10  20  36  59  83 118 159 196 241 289 346
#     4  12  20  36  66  88 110 150 204 256 284 328
#
# _framework density 18.384996999999998
#
# number of rings (size 3 to 8) (size 9 to 14) (size 15 to 20)
#    0.000    1.091    5.455    3.273    0.000    5.818 
#    0.000    0.455    0.000    0.000    0.000    2.545 
#    0.000    0.000    0.000    0.000    0.000    0.000 
#
# Total GULP energy -272780.476104 kJ/mol
# GULP energy per Si atom -12399.112550 kJ/mol
# Density = 1.834315 g / cm^3
# Si number density = 18.384997 Si / 1000 Ang^3
#
#
#
# Elastic Constant Matrix: (Units=GPa)
#
#
# Indices 1 2 3 4 5 6 
#
# 1 113.6087 54.1716 23.7092 0.0188 4.0111 -0.0145
# 2 54.1716 97.3479 39.1365 -0.0223 3.7375 -0.0398
# 3 23.7092 39.1365 74.4586 0.1648 -2.1047 0.0380
# 4 0.0188 -0.0223 0.1648 30.4700 0.0243 -1.6121
# 5 4.0111 3.7375 -2.1047 0.0243 32.8737 -0.0051
# 6 -0.0145 -0.0398 0.0380 -1.6121 -0.0051 31.6619
#
#
#
# Elastic Compliance Matrix: (Units=1/GPa)
#
#
# Indices 1 2 3 4 5 6 
#
# 1 0.012009 -0.006476 -0.000441 -0.000009 -0.000757 -0.000003
# 2 -0.006476 0.016640 -0.006727 0.000055 -0.001532 0.000029
# 3 -0.000441 -0.006727 0.017161 -0.000101 0.001918 -0.000034
# 4 -0.000009 0.000055 -0.000101 0.032908 -0.000036 0.001676
# 5 -0.000757 -0.001532 0.001918 -0.000036 0.030809 -0.000001
# 6 -0.000003 0.000029 -0.000034 0.001676 -0.000001 0.031669
#
#
# Mechanical properties :
#
#
# Convention : Reuss Voigt Hill
#
# Bulk Modulus (GPa) = 53.99512 57.71663 55.85588
# Shear Modulus (GPa) = 28.62713 30.22766 29.42739
#
# Velocity S-wave (km/s) = 3.95028 4.05921 4.00512
# Velocity P-wave (km/s) = 7.08796 7.30965 7.19966
#
# Compressibility (1/GPa) = 0.01852019
#
# Stress axis : x y z
#
# Youngs Moduli (GPa) = 83.27084 60.09715 58.27084
#
# Poissons Ratio (x) = 0.38920 0.02572
# Poissons Ratio (y) = 0.53928 0.39201
# Poissons Ratio (z) = 0.03675 0.40430
#
# Static dielectric constant tensor:
#      x y z
#    x 3.438600 0.000010 -0.075640 
#    y 0.000010 3.531380 -0.000110 
#    z -0.075640 -0.000110 3.639540 
# 
# 
# High freq. dielectric constant tensor:
#      x y z
#    x 1.698960 0.000000 -0.010250 
#    y 0.000000 1.699240 -0.000010 
#    z -0.010250 -0.000010 1.733130 
# 
# From -- ./inp_files/61143.got.cif
#   From: 2010.06.25/outbox.cif.g09.slc.cpg/sg12_31_cif.got.tgz:61143.got - 2010.06.28 00:19:55.
