data_PCOD8101265
_publ_section_title
;
Structure prediction by ZEFSAII (Michael W. Deem and Ramdas Pophale) SiO2 
 PCOD8101265
Probable space group: C 2/M
;
_chemical_formula_sum "Si O2"
_cell_formula_units_Z 52
_cell_length_a 8.634659
_cell_length_b 26.440443
_cell_length_c 12.082445
_cell_angle_alpha 90.000000
_cell_angle_beta 96.276476
_cell_angle_gamma 90.000000
_cell_volume 2741.938557
_symmetry_space_group_name_H-M "C 2/M"
_symmetry_group_IT_number 12
_symmetry_cell_setting 'monoclinic'
loop_
_space_group_symop_operation_xyz
x,y,z
-x,y,-z
-x,-y,-z
x,-y,z
1/2+x,1/2+y,z
1/2-x,1/2+y,-z
1/2-x,1/2-y,-z
1/2+x,1/2-y,z
loop_
_atom_site_type_symbol
_atom_site_label
_atom_site_fract_x
_atom_site_fract_y
_atom_site_fract_z
Si Si1 0.204933 0.782505 0.603642
Si Si2 0.335661 0.395511 0.438114
Si Si3 0.471919 0.196242 0.302176
Si Si4 0.172652 0.056756 0.012076
Si Si5 0.197938 0.556940 0.222191
Si Si6 0.432773 0.875815 0.116318
Si Si7 0.500000 0.121302 0.500000
O O1 0.250000 0.750000 0.500000
O O2 0.133318 0.835488 0.559031
O O3 0.344923 0.796131 0.696452
O O4 0.089355 0.751453 0.671610
O O5 0.500000 0.418500 0.500000
O O6 0.323750 0.418960 0.314928
O O7 0.162781 0.408939 0.481368
O O8 0.402603 0.176560 0.179707
O O9 0.438206 0.156200 0.396078
O O10 0.273371 0.093490 0.096029
O O11 0.179861 0.000000 0.062800
O O12 0.229117 0.055798 0.892139
O O13 0.000000 0.078846 0.000000
O O14 0.153193 0.500000 0.256057
O O15 0.044278 0.591248 0.204424
O O16 0.500000 0.864447 0.000000
#
# Coordination Sequence:
#
# PCOD8101265 Si02
#       7
#     8   8   8   8   8   8   4
#     4  11  19  35  56  84 109 152 201 242 288 344
#     4  11  22  36  59  87 122 157 203 251 301 356
#     4  11  20  35  57  84 116 147 201 250 291 354
#     4   9  19  37  62  88 111 147 204 252 293 358
#     4  10  20  38  60  84 118 157 195 241 303 365
#     4  10  20  38  61  84 117 154 191 244 303 359
#     4  10  20  36  57  84 118 152 203 250 292 346
#
# _framework density 18.964684999999999
#
# number of rings (size 3 to 8) (size 9 to 14) (size 15 to 20)
#    0.000    1.692    6.154    1.385    0.000    3.385 
#    0.000    1.154    0.000    0.000    0.000    0.000 
#    0.000    0.000    0.000    0.000    0.000    0.000 
#
# Total GULP energy -322111.473724 kJ/mol
# GULP energy per Si atom -12388.902836 kJ/mol
# Density = 1.892152 g / cm^3
# Si number density = 18.964685 Si / 1000 Ang^3
#
#
#
# Elastic Constant Matrix: (Units=GPa)
#
#
# Indices 1 2 3 4 5 6 
#
# 1 116.1662 14.4959 23.4384 0.0000 19.4686 0.0000
# 2 14.4959 49.0318 30.3360 0.0000 5.9694 0.0000
# 3 23.4384 30.3360 68.7199 0.0000 27.0899 0.0000
# 4 0.0000 0.0000 0.0000 60.9897 0.0000 11.8746
# 5 19.4686 5.9694 27.0899 0.0000 27.4171 0.0000
# 6 0.0000 0.0000 0.0000 11.8746 0.0000 25.6851
#
#
#
# Elastic Compliance Matrix: (Units=1/GPa)
#
#
# Indices 1 2 3 4 5 6 
#
# 1 0.009990 -0.002329 0.000356 0.000000 -0.006939 0.000000
# 2 -0.002329 0.030396 -0.017473 0.000000 0.012300 0.000000
# 3 0.000356 -0.017473 0.033978 0.000000 -0.030021 0.000000
# 4 0.000000 0.000000 0.000000 0.018018 0.000000 -0.008330
# 5 -0.006939 0.012300 -0.030021 0.000000 0.068386 0.000000
# 6 0.000000 0.000000 0.000000 -0.008330 0.000000 0.042784
#
#
# Mechanical properties :
#
#
# Convention : Reuss Voigt Hill
#
# Bulk Modulus (GPa) = 28.19021 41.16205 34.67613
# Shear Modulus (GPa) = 19.66428 33.86155 26.76291
#
# Velocity S-wave (km/s) = 3.22357 4.23011 3.76067
# Velocity P-wave (km/s) = 5.36209 6.75353 6.09763
#
# Compressibility (1/GPa) = 0.03547331
#
# Stress axis : x y z
#
# Youngs Moduli (GPa) = 100.10018 32.89862 29.43061
#
# Poissons Ratio (x) = 0.07662 -0.01048
# Poissons Ratio (y) = 0.23314 0.51423
# Poissons Ratio (z) = -0.03564 0.57483
#
# Static dielectric constant tensor:
#      x y z
#    x 3.325820 0.000000 0.394920 
#    y 0.000000 3.585900 0.000000 
#    z 0.394920 0.000000 3.009780 
# 
# 
# High freq. dielectric constant tensor:
#      x y z
#    x 1.740560 0.000000 0.008740 
#    y 0.000000 1.721600 0.000000 
#    z 0.008740 0.000000 1.724620 
# 
# From -- ./inp_files/123710.got.cif
#   From: 2010.06.25/outbox.cif.g09.slc.cpg/sg12_62_cif.got.tgz:123710.got - 2010.06.28 00:19:55.
