data_PCOD8101861
_publ_section_title
;
Structure prediction by ZEFSAII (Michael W. Deem and Ramdas Pophale) SiO2 
 PCOD8101861
Probable space group: C 2/M
;
_chemical_formula_sum "Si O2"
_cell_formula_units_Z 64
_cell_length_a 20.385105
_cell_length_b 13.819648
_cell_length_c 12.810733
_cell_angle_alpha 90.000000
_cell_angle_beta 69.067607
_cell_angle_gamma 90.000000
_cell_volume 3370.792482
_symmetry_space_group_name_H-M "C 2/M"
_symmetry_group_IT_number 12
_symmetry_cell_setting 'monoclinic'
loop_
_space_group_symop_operation_xyz
x,y,z
-x,y,-z
-x,-y,-z
x,-y,z
1/2+x,1/2+y,z
1/2-x,1/2+y,-z
1/2-x,1/2-y,-z
1/2+x,1/2-y,z
loop_
_atom_site_type_symbol
_atom_site_label
_atom_site_fract_x
_atom_site_fract_y
_atom_site_fract_z
Si Si1 0.436590 0.612196 0.112344
Si Si2 0.296834 0.105918 0.278634
Si Si3 0.487539 0.887241 0.627625
Si Si4 0.844329 0.290869 0.723492
Si Si5 0.300607 0.609597 0.850025
Si Si6 0.689952 0.295528 0.466281
Si Si7 0.091039 0.749695 0.692105
Si Si8 0.212300 0.888158 0.903218
O O1 0.438872 0.500000 0.143872
O O2 0.447910 0.677099 0.208540
O O3 0.363774 0.639442 0.098249
O O4 0.500000 0.638213 0.000000
O O5 0.273049 0.117185 0.171625
O O6 0.224335 0.112382 0.388373
O O7 0.351160 0.189010 0.276616
O O8 0.330096 0.000000 0.279279
O O9 0.500000 0.859534 0.500000
O O10 0.408464 0.862679 0.708838
O O11 0.538021 0.826108 0.672409
O O12 0.502071 0.000000 0.638867
O O13 0.857188 0.185049 0.769160
O O14 0.837052 0.281989 0.603127
O O15 0.771278 0.329677 0.809123
O O16 0.331519 0.500000 0.826611
O O17 0.284328 0.639316 0.977404
O O18 0.750000 0.250000 0.500000
O O19 0.625738 0.316885 0.581724
O O20 0.228387 0.000000 0.876023
#
# Coordination Sequence:
#
# PCOD8101861 Si02
#       8
#     8   8   8   8   8   8   8   8
#     4  10  23  41  62  89 119 153 198 246 299 356
#     4   9  18  34  57  86 119 154 193 243 300 353
#     4  11  24  41  60  87 120 158 199 240 294 358
#     4  11  20  36  58  85 118 154 198 246 294 348
#     4   9  19  34  57  86 117 150 194 245 297 352
#     4   9  18  32  53  82 110 144 191 238 287 347
#     4  11  21  39  59  82 119 158 198 241 296 357
#     4  10  20  36  59  88 115 150 200 248 294 347
#
# _framework density 18.986633000000001
#
# number of rings (size 3 to 8) (size 9 to 14) (size 15 to 20)
#    0.000    2.000    1.250    3.375    1.750    0.500 
#    0.000    1.875    0.000    1.500    0.000    0.000 
#    0.000    0.000    0.000    0.000    0.000    0.000 
#
# Total GULP energy -396657.638989 kJ/mol
# GULP energy per Si atom -12395.551218 kJ/mol
# Density = 1.894342 g / cm^3
# Si number density = 18.986633 Si / 1000 Ang^3
#
#
#
# Elastic Constant Matrix: (Units=GPa)
#
#
# Indices 1 2 3 4 5 6 
#
# 1 88.1716 39.9073 52.1968 0.0000 -4.9303 0.0000
# 2 39.9073 88.0110 59.4493 0.0000 -1.3879 0.0000
# 3 52.1968 59.4493 133.1883 0.0000 0.9660 0.0000
# 4 0.0000 0.0000 0.0000 29.0120 0.0000 0.3246
# 5 -4.9303 -1.3879 0.9660 0.0000 33.1578 0.0000
# 6 0.0000 0.0000 0.0000 0.3246 0.0000 27.3586
#
#
#
# Elastic Compliance Matrix: (Units=1/GPa)
#
#
# Indices 1 2 3 4 5 6 
#
# 1 0.015993 -0.004252 -0.004387 0.000000 0.002328 0.000000
# 2 -0.004252 0.017424 -0.006113 0.000000 0.000275 0.000000
# 3 -0.004387 -0.006113 0.011965 0.000000 -0.001257 0.000000
# 4 0.000000 0.000000 0.000000 0.034473 0.000000 -0.000409
# 5 0.002328 0.000275 -0.001257 0.000000 0.030553 0.000000
# 6 0.000000 0.000000 0.000000 -0.000409 0.000000 0.036556
#
#
# Mechanical properties :
#
#
# Convention : Reuss Voigt Hill
#
# Bulk Modulus (GPa) = 62.97758 68.05305 65.51532
# Shear Modulus (GPa) = 27.50885 28.42688 27.96786
#
# Velocity S-wave (km/s) = 3.81051 3.87357 3.84217
# Velocity P-wave (km/s) = 7.25268 7.47840 7.36641
#
# Compressibility (1/GPa) = 0.01587867
#
# Stress axis : x y z
#
# Youngs Moduli (GPa) = 62.52712 57.39357 83.57789
#
# Poissons Ratio (x) = 0.24404 0.36663
# Poissons Ratio (y) = 0.26586 0.51089
# Poissons Ratio (z) = 0.27429 0.35083
#
# Static dielectric constant tensor:
#      x y z
#    x 3.454830 0.000000 -0.011970 
#    y 0.000000 3.437670 0.000000 
#    z -0.011970 0.000000 3.949320 
# 
# 
# High freq. dielectric constant tensor:
#      x y z
#    x 1.729730 0.000000 0.013010 
#    y 0.000000 1.736450 0.000000 
#    z 0.013010 0.000000 1.743380 
# 
# From -- ./inp_files/167264.got.cif
#   From: 2010.06.25/outbox.cif.g09.slc.cpg/sg12_84_cif.got.tgz:167264.got - 2010.06.28 00:19:55.
