data_PCOD8101252
_publ_section_title
;
Structure prediction by ZEFSAII (Michael W. Deem and Ramdas Pophale) SiO2 
 PCOD8101252
Probable space group: C 2/M
;
_chemical_formula_sum "Si O2"
_cell_formula_units_Z 48
_cell_length_a 17.869719
_cell_length_b 14.132295
_cell_length_c 17.735381
_cell_angle_alpha 90.000000
_cell_angle_beta 33.155445
_cell_angle_gamma 90.000000
_cell_volume 2449.563385
_symmetry_space_group_name_H-M "C 2/M"
_symmetry_group_IT_number 12
_symmetry_cell_setting 'monoclinic'
loop_
_space_group_symop_operation_xyz
x,y,z
-x,y,-z
-x,-y,-z
x,-y,z
1/2+x,1/2+y,z
1/2-x,1/2+y,-z
1/2-x,1/2-y,-z
1/2+x,1/2-y,z
loop_
_atom_site_type_symbol
_atom_site_label
_atom_site_fract_x
_atom_site_fract_y
_atom_site_fract_z
Si Si1 0.774280 0.611031 0.299023
Si Si2 0.417600 0.391635 0.402352
Si Si3 0.388154 0.607323 0.256831
Si Si4 0.030460 0.267240 0.060039
Si Si5 0.180917 0.210372 0.230360
Si Si6 0.650964 0.892606 0.342152
O O1 0.784709 0.500000 0.278145
O O2 0.697004 0.638899 0.441012
O O3 0.688555 0.654283 0.302559
O O4 0.927874 0.650824 0.173683
O O5 0.463120 0.500000 0.378140
O O6 0.352510 0.378551 0.374716
O O7 0.549719 0.324912 0.295922
O O8 0.433965 0.500000 0.201870
O O9 0.512775 0.674743 0.126887
O O10 0.253545 0.635313 0.323236
O O11 0.185209 0.306729 0.934664
O O12 0.000000 0.236673 0.000000
O O13 0.172832 0.322803 0.253400
O O14 0.500000 0.878665 0.500000
O O15 0.675865 0.000000 0.293310
#
# Coordination Sequence:
#
# PCOD8101252 Si02
#       6
#     8   8   8   8   8   8
#     4  10  20  36  57  84 115 152 197 237 282 340
#     4  10  22  38  61  87 115 153 192 239 289 338
#     4  10  21  39  61  85 116 151 193 238 288 343
#     4  10  21  36  55  87 115 151 194 232 290 337
#     4  11  21  36  58  87 118 151 194 234 285 342
#     4  10  20  36  59  87 116 147 194 243 283 333
#
# _framework density 19.595329
#
# number of rings (size 3 to 8) (size 9 to 14) (size 15 to 20)
#    0.000    1.833    3.333    2.000    0.000    7.333 
#    0.000    0.000    0.000    0.000    0.000    0.000 
#    0.000    0.000    0.000    0.000    0.000    0.000 
#
# Total GULP energy -297669.040889 kJ/mol
# GULP energy per Si atom -12402.876704 kJ/mol
# Density = 1.955073 g / cm^3
# Si number density = 19.595329 Si / 1000 Ang^3
#
#
#
# Elastic Constant Matrix: (Units=GPa)
#
#
# Indices 1 2 3 4 5 6 
#
# 1 60.8448 30.9294 33.6965 -0.0001 -3.5330 0.0001
# 2 30.9294 89.3025 38.9318 0.0000 -1.1309 0.0000
# 3 33.6965 38.9318 116.5096 0.0000 -1.6485 0.0000
# 4 -0.0001 0.0000 0.0000 27.1286 0.0001 5.9271
# 5 -3.5330 -1.1309 -1.6485 0.0001 26.0290 -0.0001
# 6 0.0001 0.0000 0.0000 5.9271 -0.0001 24.4599
#
#
#
# Elastic Compliance Matrix: (Units=1/GPa)
#
#
# Indices 1 2 3 4 5 6 
#
# 1 0.021880 -0.005623 -0.004415 0.000000 0.002446 0.000000
# 2 -0.005623 0.014554 -0.003242 0.000000 -0.000336 0.000000
# 3 -0.004415 -0.003242 0.010942 0.000000 -0.000047 0.000000
# 4 0.000000 0.000000 0.000000 0.038922 0.000000 -0.009432
# 5 0.002446 -0.000336 -0.000047 0.000000 0.038733 0.000000
# 6 0.000000 0.000000 0.000000 -0.009432 0.000000 0.043169
#
#
# Mechanical properties :
#
#
# Convention : Reuss Voigt Hill
#
# Bulk Modulus (GPa) = 48.03401 52.64137 50.33769
# Shear Modulus (GPa) = 24.78940 26.39678 25.59309
#
# Velocity S-wave (km/s) = 3.56064 3.67426 3.61790
# Velocity P-wave (km/s) = 6.43975 6.70245 6.57241
#
# Compressibility (1/GPa) = 0.02081858
#
# Stress axis : x y z
#
# Youngs Moduli (GPa) = 45.70307 68.70811 91.38715
#
# Poissons Ratio (x) = 0.38631 0.40345
# Poissons Ratio (y) = 0.25697 0.29627
# Poissons Ratio (z) = 0.20177 0.22275
#
# Static dielectric constant tensor:
#      x y z
#    x 3.374690 0.000000 -0.030610 
#    y 0.000000 3.715630 0.000000 
#    z -0.030610 0.000000 3.713190 
# 
# 
# High freq. dielectric constant tensor:
#      x y z
#    x 1.739450 0.000000 -0.002680 
#    y 0.000000 1.775040 0.000000 
#    z -0.002680 0.000000 1.766330 
# 
# From -- ./inp_files/225103.got.cif
#   From: 2010.06.25/outbox.cif.g09.slc.cpg/sg12_113_cif.got.tgz:225103.got - 2010.06.28 00:19:55.
