data_PCOD8101824
_publ_section_title
;
Structure prediction by ZEFSAII (Michael W. Deem and Ramdas Pophale) SiO2 
 PCOD8101824
Probable space group: C 2/M
;
_chemical_formula_sum "Si O2"
_cell_formula_units_Z 48
_cell_length_a 13.335620
_cell_length_b 13.232666
_cell_length_c 27.767956
_cell_angle_alpha 90.000000
_cell_angle_beta 29.751412
_cell_angle_gamma 90.000000
_cell_volume 2431.612710
_symmetry_space_group_name_H-M "C 2/M"
_symmetry_group_IT_number 12
_symmetry_cell_setting 'monoclinic'
loop_
_space_group_symop_operation_xyz
x,y,z
-x,y,-z
-x,-y,-z
x,-y,z
1/2+x,1/2+y,z
1/2-x,1/2+y,-z
1/2-x,1/2-y,-z
1/2+x,1/2-y,z
loop_
_atom_site_type_symbol
_atom_site_label
_atom_site_fract_x
_atom_site_fract_y
_atom_site_fract_z
Si Si1 0.160069 0.117841 0.083731
Si Si2 0.540083 0.718387 0.227991
Si Si3 0.321950 0.116931 0.260245
Si Si4 0.550886 0.780461 0.888981
Si Si5 0.361039 0.385199 0.471977
Si Si6 0.795711 0.303548 0.557860
O O1 0.058551 0.135983 0.177962
O O2 0.032242 0.173660 0.095591
O O3 0.162339 0.000000 0.070759
O O4 0.385745 0.163144 0.990644
O O5 0.448881 0.822666 0.246717
O O6 0.757032 0.744698 0.158951
O O7 0.393957 0.671102 0.329206
O O8 0.393397 0.144137 0.177222
O O9 0.087611 0.145701 0.363130
O O10 0.361745 0.000000 0.253252
O O11 0.343648 0.500000 0.497173
O O12 0.218497 0.369391 0.484892
O O13 0.291322 0.315197 0.545367
O O14 0.000000 0.333747 0.500000
#
# Coordination Sequence:
#
# PCOD8101824 Si02
#       6
#     8   8   8   8   8   8
#     4  10  23  40  62  90 119 154 196 240 293 357
#     4  11  22  37  59  89 118 154 196 242 294 343
#     4  10  20  36  59  87 116 153 200 240 287 350
#     4  10  21  40  61  87 123 155 190 243 298 344
#     4  10  22  38  59  84 114 158 201 239 292 350
#     4  11  22  39  60  83 122 157 192 250 290 338
#
# _framework density 19.739985999999998
#
# number of rings (size 3 to 8) (size 9 to 14) (size 15 to 20)
#    0.000    1.667    3.333    1.000    0.000    4.667 
#    0.000    1.667    0.000    6.000    0.000    0.000 
#    0.000    0.000    0.000    0.000    0.000    0.000 
#
# Total GULP energy -297723.060228 kJ/mol
# GULP energy per Si atom -12405.127510 kJ/mol
# Density = 1.969506 g / cm^3
# Si number density = 19.739986 Si / 1000 Ang^3
#
#
#
# Elastic Constant Matrix: (Units=GPa)
#
#
# Indices 1 2 3 4 5 6 
#
# 1 79.2176 27.3700 22.1614 -0.0004 -23.1449 0.0010
# 2 27.3700 91.1853 34.7581 0.0042 -11.7536 -0.0002
# 3 22.1614 34.7581 94.0386 0.0024 -1.7141 -0.0024
# 4 -0.0004 0.0042 0.0024 23.1586 0.0024 -3.0576
# 5 -23.1449 -11.7536 -1.7141 0.0024 43.5744 0.0007
# 6 0.0010 -0.0002 -0.0024 -3.0576 0.0007 14.4253
#
#
#
# Elastic Compliance Matrix: (Units=1/GPa)
#
#
# Indices 1 2 3 4 5 6 
#
# 1 0.016736 -0.002964 -0.002703 0.000000 0.007984 -0.000002
# 2 -0.002964 0.013770 -0.004355 -0.000002 0.001969 -0.000001
# 3 -0.002703 -0.004355 0.012842 0.000000 -0.002105 0.000002
# 4 0.000000 -0.000002 0.000000 0.044424 -0.000003 0.009416
# 5 0.007984 0.001969 -0.002105 -0.000003 0.027638 -0.000003
# 6 -0.000002 -0.000001 0.000002 0.009416 -0.000003 0.071319
#
#
# Mechanical properties :
#
#
# Convention : Reuss Voigt Hill
#
# Bulk Modulus (GPa) = 42.91086 48.11339 45.51213
# Shear Modulus (GPa) = 23.30544 28.24180 25.77362
#
# Velocity S-wave (km/s) = 3.43974 3.78655 3.61731
# Velocity P-wave (km/s) = 6.12870 6.59877 6.36808
#
# Compressibility (1/GPa) = 0.02330412
#
# Stress axis : x y z
#
# Youngs Moduli (GPa) = 59.75011 72.62005 77.86740
#
# Poissons Ratio (x) = 0.21525 0.21048
# Poissons Ratio (y) = 0.17711 0.33914
# Poissons Ratio (z) = 0.16151 0.31628
#
# Static dielectric constant tensor:
#      x y z
#    x 3.605750 0.000000 0.002440 
#    y 0.000000 3.369560 0.000000 
#    z 0.002440 0.000000 3.763640 
# 
# 
# High freq. dielectric constant tensor:
#      x y z
#    x 1.777550 0.000000 0.000600 
#    y 0.000000 1.756500 0.000000 
#    z 0.000600 0.000000 1.779670 
# 
# From -- ./inp_files/204394.got.cif
#   From: 2010.06.25/outbox.cif.g09.slc.cpg/sg12_103_cif.got.tgz:204394.got - 2010.06.28 00:19:55.
