data_PCOD8101450
_publ_section_title
;
Structure prediction by ZEFSAII (Michael W. Deem and Ramdas Pophale) SiO2 
 PCOD8101450
Probable space group: C 2/M
;
_chemical_formula_sum "Si O2"
_cell_formula_units_Z 64
_cell_length_a 18.796784
_cell_length_b 9.107430
_cell_length_c 30.465451
_cell_angle_alpha 90.000000
_cell_angle_beta 141.540158
_cell_angle_gamma 90.000000
_cell_volume 3243.796661
_symmetry_space_group_name_H-M "C 2/M"
_symmetry_group_IT_number 12
_symmetry_cell_setting 'monoclinic'
loop_
_space_group_symop_operation_xyz
x,y,z
-x,y,-z
-x,-y,-z
x,-y,z
1/2+x,1/2+y,z
1/2-x,1/2+y,-z
1/2-x,1/2-y,-z
1/2+x,1/2-y,z
loop_
_atom_site_type_symbol
_atom_site_label
_atom_site_fract_x
_atom_site_fract_y
_atom_site_fract_z
Si Si1 0.946676 0.667207 0.337839
Si Si2 0.627325 0.175787 0.935200
Si Si3 0.537663 0.825768 0.065320
Si Si4 0.806178 0.834505 0.653141
Si Si5 0.565356 0.833068 0.572616
Si Si6 0.800263 0.334235 0.565093
Si Si7 0.795387 0.172945 0.196757
Si Si8 0.452473 0.326327 0.191252
O O1 0.902555 0.500000 0.321191
O O2 0.967425 0.738050 0.396310
O O3 0.853099 0.759092 0.267145
O O4 0.063333 0.674559 0.367563
O O5 0.547425 0.227013 0.937253
O O6 0.570464 0.233202 0.863240
O O7 0.640319 0.000000 0.940081
O O8 0.750000 0.250000 0.000000
O O9 0.666008 0.767634 0.134848
O O10 0.537230 0.000000 0.063361
O O11 0.500000 0.761227 0.000000
O O12 0.702800 0.825756 0.637465
O O13 0.760364 0.738810 0.590702
O O14 0.922325 0.776785 0.731485
O O15 0.827181 0.000000 0.646335
O O16 0.500000 0.754076 0.500000
O O17 0.519968 0.000000 0.551294
O O18 0.755375 0.500000 0.541319
O O19 0.750000 0.250000 0.500000
O O20 0.858466 0.218935 0.182164
O O21 0.801358 0.000000 0.204971
O O22 0.447253 0.500000 0.178240
#
# Coordination Sequence:
#
# PCOD8101450 Si02
#       8
#     8   8   8   8   8   8   8   8
#     4  10  21  36  56  83 112 149 191 238 289 340
#     4  11  23  39  62  90 119 153 192 234 280 333
#     4   9  19  37  61  86 114 151 191 228 273 333
#     4  10  20  36  58  83 112 152 196 237 287 344
#     4   9  18  34  55  78 109 149 191 235 288 346
#     4  11  22  36  57  83 113 149 193 243 293 344
#     4  10  20  37  60  84 113 152 191 232 282 338
#     4  10  21  37  59  86 117 154 193 236 287 341
#
# _framework density 19.729966000000001
#
# number of rings (size 3 to 8) (size 9 to 14) (size 15 to 20)
#    0.000    2.000    1.250    2.250    1.750    5.500 
#    0.000    1.250    0.000    4.125    0.000    0.000 
#    0.000    0.000    0.000    0.000    0.000    0.000 
#
# Total GULP energy -396772.985087 kJ/mol
# GULP energy per Si atom -12399.155784 kJ/mol
# Density = 1.968506 g / cm^3
# Si number density = 19.729966 Si / 1000 Ang^3
#
#
#
# Elastic Constant Matrix: (Units=GPa)
#
#
# Indices 1 2 3 4 5 6 
#
# 1 109.0907 20.2821 43.5582 0.0000 -9.8391 0.0000
# 2 20.2821 53.2897 32.5804 0.0000 -8.6630 -0.0001
# 3 43.5582 32.5804 123.3740 0.0000 -10.8383 0.0000
# 4 0.0000 0.0000 0.0000 36.2068 0.0000 -6.5179
# 5 -9.8391 -8.6630 -10.8383 0.0000 42.7358 0.0000
# 6 0.0000 -0.0001 0.0000 -6.5179 0.0000 21.0248
#
#
#
# Elastic Compliance Matrix: (Units=1/GPa)
#
#
# Indices 1 2 3 4 5 6 
#
# 1 0.010940 -0.001981 -0.003225 0.000000 0.001299 0.000000
# 2 -0.001981 0.023148 -0.005156 0.000000 0.002929 0.000000
# 3 -0.003225 -0.005156 0.010687 0.000000 0.000923 0.000000
# 4 0.000000 0.000000 0.000000 0.029252 0.000000 0.009068
# 5 0.001299 0.002929 0.000923 0.000000 0.024526 0.000000
# 6 0.000000 0.000000 0.000000 0.009068 0.000000 0.050374
#
#
# Mechanical properties :
#
#
# Convention : Reuss Voigt Hill
#
# Bulk Modulus (GPa) = 41.57978 53.17730 47.37854
# Shear Modulus (GPa) = 28.14244 32.61570 30.37907
#
# Velocity S-wave (km/s) = 3.78084 4.07025 3.92821
# Velocity P-wave (km/s) = 6.33876 7.00716 6.68132
#
# Compressibility (1/GPa) = 0.02405015
#
# Stress axis : x y z
#
# Youngs Moduli (GPa) = 91.40855 43.20078 93.57317
#
# Poissons Ratio (x) = 0.08557 0.30179
# Poissons Ratio (y) = 0.18105 0.48249
# Poissons Ratio (z) = 0.29481 0.22275
#
# Static dielectric constant tensor:
#      x y z
#    x 3.846360 0.000000 0.015820 
#    y 0.000000 3.297900 0.000000 
#    z 0.015820 0.000000 3.716760 
# 
# 
# High freq. dielectric constant tensor:
#      x y z
#    x 1.780970 0.000000 0.000190 
#    y 0.000000 1.734850 0.000000 
#    z 0.000190 0.000000 1.782460 
# 
# From -- ./inp_files/378528.got.cif
#   From: 2010.06.25/outbox.cif.g09.slc.cpg/sg12_190_cif.got.tgz:378528.got - 2010.06.28 00:19:55.
