data_PCOD8101224
_publ_section_title
;
Structure prediction by ZEFSAII (Michael W. Deem and Ramdas Pophale) SiO2 
 PCOD8101224
Probable space group: C 2/M
;
_chemical_formula_sum "Si O2"
_cell_formula_units_Z 48
_cell_length_a 26.634245
_cell_length_b 8.672544
_cell_length_c 20.179722
_cell_angle_alpha 90.000000
_cell_angle_beta 145.714626
_cell_angle_gamma 90.000000
_cell_volume 2625.750842
_symmetry_space_group_name_H-M "C 2/M"
_symmetry_group_IT_number 12
_symmetry_cell_setting 'monoclinic'
loop_
_space_group_symop_operation_xyz
x,y,z
-x,y,-z
-x,-y,-z
x,-y,z
1/2+x,1/2+y,z
1/2-x,1/2+y,-z
1/2-x,1/2-y,-z
1/2+x,1/2-y,z
loop_
_atom_site_type_symbol
_atom_site_label
_atom_site_fract_x
_atom_site_fract_y
_atom_site_fract_z
Si Si1 0.462452 0.828419 0.367025
Si Si2 0.165126 0.321038 0.594156
Si Si3 0.806971 0.818492 0.002117
Si Si4 0.828303 0.182151 0.541952
Si Si5 0.985579 0.675788 0.237170
Si Si6 0.792833 0.821278 0.228629
O O1 0.561722 0.799276 0.502434
O O2 0.460842 0.815676 0.286710
O O3 0.396756 0.700235 0.324102
O O4 0.429775 0.000000 0.352732
O O5 0.188649 0.500000 0.610307
O O6 0.185641 0.235345 0.548481
O O7 0.225012 0.245947 0.717301
O O8 0.908336 0.760238 0.112280
O O9 0.804561 0.000000 0.007860
O O10 0.750000 0.750000 0.000000
O O11 0.766835 0.771945 0.887948
O O12 0.750000 0.250000 0.500000
O O13 0.920955 0.240751 0.673933
O O14 0.826528 0.000000 0.542872
O O15 0.993575 0.500000 0.221616
O O16 0.767500 0.000000 0.198653
#
# Coordination Sequence:
#
# PCOD8101224 Si02
#       6
#     8   8   8   8   8   8
#     4   9  18  32  51  74 108 148 185 226 277 329
#     4  10  21  37  55  78 110 145 186 233 284 334
#     4  12  23  36  54  78 112 155 197 234 273 327
#     4  11  22  39  63  89 114 143 184 233 287 338
#     4  10  20  36  57  83 114 147 188 235 282 330
#     4  12  23  33  50  77 112 152 191 229 275 332
#
# _framework density 18.280486
#
# number of rings (size 3 to 8) (size 9 to 14) (size 15 to 20)
#    0.000    1.333    1.667    7.000    0.000    5.333 
#    0.000    0.000    0.000    1.000    0.000    7.000 
#    0.000    0.000    0.000    0.000    0.000    0.000 
#
# Total GULP energy -297677.072301 kJ/mol
# GULP energy per Si atom -12403.211346 kJ/mol
# Density = 1.823888 g / cm^3
# Si number density = 18.280486 Si / 1000 Ang^3
#
#
#
# Elastic Constant Matrix: (Units=GPa)
#
#
# Indices 1 2 3 4 5 6 
#
# 1 68.3057 54.3733 67.4834 0.0000 11.8654 0.0000
# 2 54.3733 168.8037 53.7724 0.0000 2.3142 0.0000
# 3 67.4834 53.7724 110.7121 0.0000 -12.2265 0.0000
# 4 0.0000 0.0000 0.0000 33.2868 0.0000 -0.2879
# 5 11.8654 2.3142 -12.2265 0.0000 22.1527 0.0000
# 6 0.0000 0.0000 0.0000 -0.2879 0.0000 30.0196
#
#
#
# Elastic Compliance Matrix: (Units=1/GPa)
#
#
# Indices 1 2 3 4 5 6 
#
# 1 0.127550 -0.012748 -0.084077 0.000000 -0.113390 0.000000
# 2 -0.012748 0.008447 0.004605 0.000000 0.008487 0.000000
# 3 -0.084077 0.004605 0.067051 0.000000 0.081559 0.000000
# 4 0.000000 0.000000 0.000000 0.030044 0.000000 0.000288
# 5 -0.113390 0.008487 0.081559 0.000000 0.150002 0.000000
# 6 0.000000 0.000000 0.000000 0.000288 0.000000 0.033314
#
#
# Mechanical properties :
#
#
# Convention : Reuss Voigt Hill
#
# Bulk Modulus (GPa) = 53.74137 77.67553 65.70845
# Shear Modulus (GPa) = 8.23653 28.57131 18.40392
#
# Velocity S-wave (km/s) = 2.12495 3.95769 3.17638
# Velocity P-wave (km/s) = 5.95673 7.96666 7.03386
#
# Compressibility (1/GPa) = 0.01860764
#
# Stress axis : x y z
#
# Youngs Moduli (GPa) = 7.84008 118.38546 14.91395
#
# Poissons Ratio (x) = 1.50914 1.25392
# Poissons Ratio (y) = 0.09994 -0.06868
# Poissons Ratio (z) = 0.65917 -0.54514
#
# Static dielectric constant tensor:
#      x y z
#    x 3.243770 0.000000 -0.358460 
#    y 0.000000 3.514660 0.000000 
#    z -0.358460 0.000000 4.216160 
# 
# 
# High freq. dielectric constant tensor:
#      x y z
#    x 1.680840 0.000000 -0.017380 
#    y 0.000000 1.724600 0.000000 
#    z -0.017380 0.000000 1.710440 
# 
# From -- ./inp_files/327334.got.cif
#   From: 2010.06.25/outbox.cif.g09.slc.cpg/sg12_164_cif.got.tgz:327334.got - 2010.06.28 00:19:55.
