data_PCOD8101391
_publ_section_title
;
Structure prediction by ZEFSAII (Michael W. Deem and Ramdas Pophale) SiO2 
 PCOD8101391
Probable space group: C 2/M
;
_chemical_formula_sum "Si O2"
_cell_formula_units_Z 48
_cell_length_a 23.575541
_cell_length_b 8.876626
_cell_length_c 12.192213
_cell_angle_alpha 90.000000
_cell_angle_beta 76.775793
_cell_angle_gamma 90.000000
_cell_volume 2483.820505
_symmetry_space_group_name_H-M "C 2/M"
_symmetry_group_IT_number 12
_symmetry_cell_setting 'monoclinic'
loop_
_space_group_symop_operation_xyz
x,y,z
-x,y,-z
-x,-y,-z
x,-y,z
1/2+x,1/2+y,z
1/2-x,1/2+y,-z
1/2-x,1/2-y,-z
1/2+x,1/2-y,z
loop_
_atom_site_type_symbol
_atom_site_label
_atom_site_fract_x
_atom_site_fract_y
_atom_site_fract_z
Si Si1 0.595678 0.324871 0.456676
Si Si2 0.499654 0.325787 0.325079
Si Si3 0.531123 0.177981 0.093552
Si Si4 0.837084 0.675888 0.949829
Si Si5 0.247321 0.824762 0.176174
Si Si6 0.219944 0.322107 0.408576
O O1 0.613372 0.500000 0.440786
O O2 0.555615 0.276857 0.371819
O O3 0.559827 0.293841 0.583437
O O4 0.652505 0.222809 0.431342
O O5 0.504884 0.500000 0.292895
O O6 0.496610 0.231176 0.215685
O O7 0.597479 0.234945 0.065471
O O8 0.529080 0.000000 0.090699
O O9 0.500000 0.246391 0.000000
O O10 0.833266 0.500000 0.920941
O O11 0.809881 0.770086 0.862727
O O12 0.804253 0.708857 0.078385
O O13 0.254200 0.734824 0.286108
O O14 0.240035 0.000000 0.206172
O O15 0.225531 0.500000 0.414248
O O16 0.250000 0.250000 0.500000
#
# Coordination Sequence:
#
# PCOD8101391 Si02
#       6
#     8   8   8   8   8   8
#     4   9  19  38  60  83 111 141 178 226 277 326
#     4   9  19  36  59  84 110 142 180 224 273 326
#     4  10  21  35  51  76 111 146 180 222 269 317
#     4   9  19  36  57  81 109 143 184 227 272 324
#     4  10  20  36  58  82 109 142 183 229 275 323
#     4  12  25  39  56  81 113 148 186 227 277 333
#
# _framework density 19.325068000000002
#
# number of rings (size 3 to 8) (size 9 to 14) (size 15 to 20)
#    0.000    2.167    0.000    4.000    0.000    7.000 
#    0.000    3.333    0.000    0.000    0.000    0.000 
#    0.000    0.000    0.000    0.000    0.000    0.000 
#
# Total GULP energy -297684.895615 kJ/mol
# GULP energy per Si atom -12403.537317 kJ/mol
# Density = 1.928108 g / cm^3
# Si number density = 19.325068 Si / 1000 Ang^3
#
#
#
# Elastic Constant Matrix: (Units=GPa)
#
#
# Indices 1 2 3 4 5 6 
#
# 1 33.7353 17.6824 27.5273 0.0000 1.6573 0.0000
# 2 17.6824 75.2401 40.4407 0.0000 6.1131 0.0000
# 3 27.5273 40.4407 135.9114 0.0000 12.1490 0.0000
# 4 0.0000 0.0000 0.0000 37.4099 0.0000 1.2386
# 5 1.6573 6.1131 12.1490 0.0000 23.9419 0.0000
# 6 0.0000 0.0000 0.0000 1.2386 0.0000 28.7960
#
#
#
# Elastic Compliance Matrix: (Units=1/GPa)
#
#
# Indices 1 2 3 4 5 6 
#
# 1 0.037490 -0.005707 -0.006069 0.000000 0.001942 0.000000
# 2 -0.005707 0.016758 -0.003649 0.000000 -0.002032 0.000000
# 3 -0.006069 -0.003649 0.010006 0.000000 -0.003725 0.000000
# 4 0.000000 0.000000 0.000000 0.026769 0.000000 -0.001151
# 5 0.001942 -0.002032 -0.003725 0.000000 0.044043 0.000000
# 6 0.000000 0.000000 0.000000 -0.001151 0.000000 0.034777
#
#
# Mechanical properties :
#
#
# Convention : Reuss Voigt Hill
#
# Bulk Modulus (GPa) = 29.93512 46.24307 38.08909
# Shear Modulus (GPa) = 23.60423 28.64531 26.12477
#
# Velocity S-wave (km/s) = 3.49869 3.85423 3.68075
# Velocity P-wave (km/s) = 5.64314 6.61723 6.14950
#
# Compressibility (1/GPa) = 0.03340558
#
# Stress axis : x y z
#
# Youngs Moduli (GPa) = 26.67361 59.67189 99.94311
#
# Poissons Ratio (x) = 0.34052 0.60653
# Poissons Ratio (y) = 0.15221 0.36469
# Poissons Ratio (z) = 0.16188 0.21774
#
# Static dielectric constant tensor:
#      x y z
#    x 3.581290 0.000000 -0.007900 
#    y 0.000000 3.407850 0.000000 
#    z -0.007900 0.000000 3.677000 
# 
# 
# High freq. dielectric constant tensor:
#      x y z
#    x 1.749400 0.000000 -0.006210 
#    y 0.000000 1.746000 0.000000 
#    z -0.006210 0.000000 1.764600 
# 
# From -- ./inp_files/172173.got.cif
#   From: 2010.06.25/outbox.cif.g09.slc.cpg/sg12_87_cif.got.tgz:172173.got - 2010.06.28 00:19:55.
