data_PCOD8101870
_publ_section_title
;
Structure prediction by ZEFSAII (Michael W. Deem and Ramdas Pophale) SiO2 
 PCOD8101870
Probable space group: C 2/M
;
_chemical_formula_sum "Si O2"
_cell_formula_units_Z 56
_cell_length_a 28.549027
_cell_length_b 17.065249
_cell_length_c 9.708939
_cell_angle_alpha 90.000000
_cell_angle_beta 141.342077
_cell_angle_gamma 90.000000
_cell_volume 2954.785187
_symmetry_space_group_name_H-M "C 2/M"
_symmetry_group_IT_number 12
_symmetry_cell_setting 'monoclinic'
loop_
_space_group_symop_operation_xyz
x,y,z
-x,y,-z
-x,-y,-z
x,-y,z
1/2+x,1/2+y,z
1/2-x,1/2+y,-z
1/2-x,1/2-y,-z
1/2+x,1/2-y,z
loop_
_atom_site_type_symbol
_atom_site_label
_atom_site_fract_x
_atom_site_fract_y
_atom_site_fract_z
Si Si1 0.154206 0.170477 0.122293
Si Si2 0.888776 0.805441 0.478039
Si Si3 0.323574 0.227098 0.087927
Si Si4 0.706964 0.089355 0.414170
Si Si5 0.911444 0.717632 0.801659
Si Si6 0.516354 0.588171 0.697573
Si Si7 0.745370 0.088579 0.183738
O O1 0.228170 0.129003 0.347568
O O2 0.108625 0.214240 0.137117
O O3 0.178266 0.233029 0.064627
O O4 0.102550 0.105008 0.931785
O O5 0.891878 0.754585 0.342384
O O6 0.880849 0.744800 0.583704
O O7 0.822897 0.869043 0.325211
O O8 0.965939 0.852631 0.670319
O O9 0.250000 0.250000 0.000000
O O10 0.321846 0.133703 0.051942
O O11 0.629639 0.136602 0.254725
O O12 0.732418 0.091097 0.315726
O O13 0.693922 0.000000 0.433260
O O14 0.000000 0.701660 0.000000
O O15 0.500000 0.600808 0.500000
O O16 0.497199 0.500000 0.698553
O O17 0.748200 0.000000 0.134612
#
# Coordination Sequence:
#
# PCOD8101870 Si02
#       7
#     8   8   8   8   8   8   8
#     4  12  21  41  62  91 121 159 205 247 301 365
#     4  11  21  39  57  89 122 161 198 246 301 364
#     4  10  21  36  60  86 117 158 204 249 294 361
#     4  11  23  39  62  90 122 157 202 258 302 349
#     4  12  24  40  64  90 123 163 206 246 301 369
#     4  11  23  38  58  91 129 160 194 243 309 366
#     4  10  20  36  59  88 120 156 201 251 303 353
#
# _framework density 18.952307000000001
#
# number of rings (size 3 to 8) (size 9 to 14) (size 15 to 20)
#    0.000    1.000    5.714    3.000    0.000    0.286 
#    0.000    5.000    0.000    0.000    0.000    3.000 
#    0.000    0.000    0.000    0.000    0.000    0.000 
#
# Total GULP energy -347184.722034 kJ/mol
# GULP energy per Si atom -12399.454358 kJ/mol
# Density = 1.890917 g / cm^3
# Si number density = 18.952307 Si / 1000 Ang^3
#
#
#
# Elastic Constant Matrix: (Units=GPa)
#
#
# Indices 1 2 3 4 5 6 
#
# 1 49.3737 26.2093 29.0481 0.0000 -2.4402 0.0000
# 2 26.2093 127.6938 59.2233 0.0000 -2.7497 0.0000
# 3 29.0481 59.2233 100.6959 0.0000 1.0644 0.0000
# 4 0.0000 0.0000 0.0000 21.0589 0.0000 0.2473
# 5 -2.4402 -2.7497 1.0644 0.0000 32.3019 0.0000
# 6 0.0000 0.0000 0.0000 0.2473 0.0000 29.8396
#
#
#
# Elastic Compliance Matrix: (Units=1/GPa)
#
#
# Indices 1 2 3 4 5 6 
#
# 1 0.025053 -0.002393 -0.005839 0.000000 0.001881 0.000000
# 2 -0.002393 0.011038 -0.005812 0.000000 0.000950 0.000000
# 3 -0.005839 -0.005812 0.015049 0.000000 -0.001432 0.000000
# 4 0.000000 0.000000 0.000000 0.047491 0.000000 -0.000394
# 5 0.001881 0.000950 -0.001432 0.000000 0.031228 0.000000
# 6 0.000000 0.000000 0.000000 -0.000394 0.000000 0.033516
#
#
# Mechanical properties :
#
#
# Convention : Reuss Voigt Hill
#
# Bulk Modulus (GPa) = 43.38235 56.30274 49.84254
# Shear Modulus (GPa) = 25.10720 27.52562 26.31641
#
# Velocity S-wave (km/s) = 3.64367 3.81512 3.73038
# Velocity P-wave (km/s) = 6.37509 7.01277 6.70152
#
# Compressibility (1/GPa) = 0.02305085
#
# Stress axis : x y z
#
# Youngs Moduli (GPa) = 39.91610 90.59313 66.45142
#
# Poissons Ratio (x) = 0.21682 0.38803
# Poissons Ratio (y) = 0.09553 0.38620
# Poissons Ratio (z) = 0.23308 0.52650
#
# Static dielectric constant tensor:
#      x y z
#    x 3.446680 0.000000 -0.090500 
#    y 0.000000 3.748710 0.000000 
#    z -0.090500 0.000000 3.607540 
# 
# 
# High freq. dielectric constant tensor:
#      x y z
#    x 1.739600 0.000000 -0.009480 
#    y 0.000000 1.738310 0.000000 
#    z -0.009480 0.000000 1.735580 
# 
# From -- ./inp_files/106039.got.cif
#   From: 2010.06.25/outbox.cif.g09.slc.cpg/sg12_54_cif.got.tgz:106039.got - 2010.06.28 00:19:55.
