data_PCOD8101925
_publ_section_title
;
Structure prediction by ZEFSAII (Michael W. Deem and Ramdas Pophale) SiO2 
 PCOD8101925
Probable space group: C 2/M
;
_chemical_formula_sum "Si O2"
_cell_formula_units_Z 52
_cell_length_a 21.617851
_cell_length_b 9.495407
_cell_length_c 18.226061
_cell_angle_alpha 90.000000
_cell_angle_beta 135.033536
_cell_angle_gamma 90.000000
_cell_volume 2643.927719
_symmetry_space_group_name_H-M "C 2/M"
_symmetry_group_IT_number 12
_symmetry_cell_setting 'monoclinic'
loop_
_space_group_symop_operation_xyz
x,y,z
-x,y,-z
-x,-y,-z
x,-y,z
1/2+x,1/2+y,z
1/2-x,1/2+y,-z
1/2-x,1/2-y,-z
1/2+x,1/2-y,z
loop_
_atom_site_type_symbol
_atom_site_label
_atom_site_fract_x
_atom_site_fract_y
_atom_site_fract_z
Si Si1 0.439583 0.842353 0.791737
Si Si2 0.000000 0.259719 0.000000
Si Si3 0.468881 0.668346 0.255926
Si Si4 0.201733 0.658305 0.900606
Si Si5 0.813626 0.149561 0.854021
Si Si6 0.250746 0.835886 0.679167
Si Si7 0.440066 0.666007 0.516268
O O1 0.474944 0.847463 0.905483
O O2 0.487398 0.727216 0.781751
O O3 0.336213 0.800340 0.701863
O O4 0.452794 0.000000 0.770919
O O5 0.917100 0.166490 0.951170
O O6 0.454221 0.500000 0.235589
O O7 0.380069 0.751791 0.195820
O O8 0.525983 0.707195 0.374985
O O9 0.174109 0.500000 0.904936
O O10 0.273520 0.641164 0.899587
O O11 0.250000 0.750000 0.000000
O O12 0.764767 0.272713 0.770980
O O13 0.798658 0.000000 0.800200
O O14 0.159784 0.775100 0.570395
O O15 0.242175 0.000000 0.684703
O O16 0.500000 0.729764 0.500000
O O17 0.439391 0.500000 0.505923
#
# Coordination Sequence:
#
# PCOD8101925 Si02
#       7
#     8   4   8   8   8   8   8
#     4  10  21  37  57  83 115 149 190 238 287 339
#     4  10  20  36  60  82 110 152 192 226 274 344
#     4  11  23  38  59  86 114 149 193 237 285 338
#     4  11  23  38  56  81 115 151 187 229 281 337
#     4  10  21  35  54  82 112 142 181 232 284 333
#     4   9  19  36  58  82 109 147 191 232 278 337
#     4   9  18  35  59  84 111 147 192 237 280 335
#
# _framework density 19.667708000000001
#
# number of rings (size 3 to 8) (size 9 to 14) (size 15 to 20)
#    0.000    2.000    0.000    3.231    0.000    8.000 
#    0.000    1.538    0.000    4.154    0.000    0.000 
#    0.000    0.000    0.000    0.000    0.000    0.000 
#
# Total GULP energy -322175.893499 kJ/mol
# GULP energy per Si atom -12391.380519 kJ/mol
# Density = 1.962294 g / cm^3
# Si number density = 19.667708 Si / 1000 Ang^3
#
#
#
# Elastic Constant Matrix: (Units=GPa)
#
#
# Indices 1 2 3 4 5 6 
#
# 1 111.2049 47.9410 58.3780 0.0000 14.1995 0.0000
# 2 47.9410 93.5442 39.3261 0.0000 4.7158 0.0000
# 3 58.3780 39.3261 132.2016 0.0000 20.3962 0.0000
# 4 0.0000 0.0000 0.0000 20.0370 0.0000 3.5204
# 5 14.1995 4.7158 20.3962 0.0000 34.7329 0.0000
# 6 0.0000 0.0000 0.0000 3.5204 0.0000 24.1578
#
#
#
# Elastic Compliance Matrix: (Units=1/GPa)
#
#
# Indices 1 2 3 4 5 6 
#
# 1 0.013703 -0.005160 -0.004135 0.000000 -0.002474 0.000000
# 2 -0.005160 0.014170 -0.002161 0.000000 0.001455 0.000000
# 3 -0.004135 -0.002161 0.010696 0.000000 -0.004297 0.000000
# 4 0.000000 0.000000 0.000000 0.051219 0.000000 -0.007464
# 5 -0.002474 0.001455 -0.004297 0.000000 0.032128 0.000000
# 6 0.000000 0.000000 0.000000 -0.007464 0.000000 0.042482
#
#
# Mechanical properties :
#
#
# Convention : Reuss Voigt Hill
#
# Bulk Modulus (GPa) = 63.86599 69.80456 66.83527
# Shear Modulus (GPa) = 25.97019 28.53924 27.25472
#
# Velocity S-wave (km/s) = 3.63774 3.81343 3.72662
# Velocity P-wave (km/s) = 7.08429 7.41341 7.25072
#
# Compressibility (1/GPa) = 0.01565779
#
# Stress axis : x y z
#
# Youngs Moduli (GPa) = 72.97564 70.57300 93.49522
#
# Poissons Ratio (x) = 0.36415 0.38656
# Poissons Ratio (y) = 0.37655 0.20204
# Poissons Ratio (z) = 0.30172 0.15250
#
# Static dielectric constant tensor:
#      x y z
#    x 3.709170 0.000000 0.383860 
#    y 0.000000 3.491490 0.000000 
#    z 0.383860 0.000000 3.950360 
# 
# 
# High freq. dielectric constant tensor:
#      x y z
#    x 1.776370 0.000000 0.015310 
#    y 0.000000 1.758630 0.000000 
#    z 0.015310 0.000000 1.765470 
# 
# From -- ./inp_files/282266.got.cif
#   From: 2010.06.25/outbox.cif.g09.slc.cpg/sg12_142_cif.got.tgz:282266.got - 2010.06.28 00:19:55.
