data_PCOD8101167
_publ_section_title
;
Structure prediction by ZEFSAII (Michael W. Deem and Ramdas Pophale) SiO2 
 PCOD8101167
Probable space group: C 2/M
;
_chemical_formula_sum "Si O2"
_cell_formula_units_Z 56
_cell_length_a 17.975577
_cell_length_b 8.331732
_cell_length_c 18.533015
_cell_angle_alpha 90.000000
_cell_angle_beta 103.925981
_cell_angle_gamma 90.000000
_cell_volume 2694.063507
_symmetry_space_group_name_H-M "C 2/M"
_symmetry_group_IT_number 12
_symmetry_cell_setting 'monoclinic'
loop_
_space_group_symop_operation_xyz
x,y,z
-x,y,-z
-x,-y,-z
x,-y,z
1/2+x,1/2+y,z
1/2-x,1/2+y,-z
1/2-x,1/2-y,-z
1/2+x,1/2-y,z
loop_
_atom_site_type_symbol
_atom_site_label
_atom_site_fract_x
_atom_site_fract_y
_atom_site_fract_z
Si Si1 0.473691 0.187574 0.570038
Si Si2 0.808263 0.309200 0.573131
Si Si3 0.590819 0.685572 0.710847
Si Si4 0.879313 0.310930 0.865813
Si Si5 0.260566 0.809572 0.717889
Si Si6 0.665244 0.686426 0.991985
Si Si7 0.952359 0.315064 0.148266
O O1 0.500000 0.265675 0.500000
O O2 0.392132 0.262130 0.574454
O O3 0.535638 0.216187 0.646037
O O4 0.462323 0.000000 0.556421
O O5 0.809259 0.500000 0.575529
O O6 0.750000 0.250000 0.500000
O O7 0.782895 0.239668 0.644839
O O8 0.586133 0.500000 0.688256
O O9 0.676639 0.753505 0.720303
O O10 0.566231 0.706369 0.787493
O O11 0.869850 0.500000 0.879174
O O12 0.821926 0.248884 0.790544
O O13 0.860124 0.211033 0.932124
O O14 0.964789 0.266623 0.862137
O O15 0.261858 0.000000 0.716474
O O16 0.660698 0.500000 0.970188
O O17 0.750000 0.750000 0.000000
O O18 0.609395 0.786859 0.928052
O O19 0.951079 0.500000 0.172041
#
# Coordination Sequence:
#
# PCOD8101167 Si02
#       7
#     8   8   8   8   8   8   8
#     4  10  21  37  57  82 114 152 193 240 297 358
#     4  10  20  36  57  81 111 148 189 235 288 346
#     4  11  22  36  58  86 116 152 196 245 293 347
#     4  10  21  40  64  87 116 156 197 239 294 357
#     4   9  19  36  57  81 111 149 190 233 286 346
#     4  12  25  41  62  89 122 157 197 245 295 350
#     4  11  23  40  63  89 119 157 198 241 296 358
#
# _framework density 20.786445000000001
#
# number of rings (size 3 to 8) (size 9 to 14) (size 15 to 20)
#    0.000    1.571    0.000    5.143    0.000    7.143 
#    0.000    2.143    0.000    0.000    0.000    0.000 
#    0.000    0.000    0.000    0.000    0.000    0.000 
#
# Total GULP energy -347345.736466 kJ/mol
# GULP energy per Si atom -12405.204874 kJ/mol
# Density = 2.073913 g / cm^3
# Si number density = 20.786445 Si / 1000 Ang^3
#
#
#
# Elastic Constant Matrix: (Units=GPa)
#
#
# Indices 1 2 3 4 5 6 
#
# 1 187.2836 17.9567 72.1203 0.0000 4.2676 0.0000
# 2 17.9567 27.8702 -2.3344 0.0000 -5.8445 0.0000
# 3 72.1203 -2.3344 154.6833 0.0000 1.6846 0.0000
# 4 0.0000 0.0000 0.0000 26.4293 0.0000 -0.5414
# 5 4.2676 -5.8445 1.6846 0.0000 48.5341 0.0000
# 6 0.0000 0.0000 0.0000 -0.5414 0.0000 22.9452
#
#
#
# Elastic Compliance Matrix: (Units=1/GPa)
#
#
# Indices 1 2 3 4 5 6 
#
# 1 0.007171 -0.005143 -0.003409 0.000000 -0.001132 0.000000
# 2 -0.005143 0.040539 0.002953 0.000000 0.005231 0.000000
# 3 -0.003409 0.002953 0.008095 0.000000 0.000374 0.000000
# 4 0.000000 0.000000 0.000000 0.037855 0.000000 0.000893
# 5 -0.001132 0.005231 0.000374 0.000000 0.021321 0.000000
# 6 0.000000 0.000000 0.000000 0.000893 0.000000 0.043603
#
#
# Mechanical properties :
#
#
# Convention : Reuss Voigt Hill
#
# Bulk Modulus (GPa) = 22.41845 60.59139 41.50492
# Shear Modulus (GPa) = 27.07824 38.38803 32.73313
#
# Velocity S-wave (km/s) = 3.61319 4.30208 3.97260
# Velocity P-wave (km/s) = 5.31182 7.34098 6.40724
#
# Compressibility (1/GPa) = 0.04460611
#
# Stress axis : x y z
#
# Youngs Moduli (GPa) = 139.44911 24.66781 123.53865
#
# Poissons Ratio (x) = 0.12687 0.42112
# Poissons Ratio (y) = 0.71720 -0.36478
# Poissons Ratio (z) = 0.47535 -0.07284
#
# Static dielectric constant tensor:
#      x y z
#    x 4.162000 0.000000 -0.065540 
#    y 0.000000 3.458610 0.000000 
#    z -0.065540 0.000000 3.857400 
# 
# 
# High freq. dielectric constant tensor:
#      x y z
#    x 1.835910 0.000000 -0.000710 
#    y 0.000000 1.789340 0.000000 
#    z -0.000710 0.000000 1.829470 
# 
# From -- ./inp_files/275609.got.cif
#   From: 2010.06.25/outbox.cif.g09.slc.cpg/sg12_138_cif.got.tgz:275609.got - 2010.06.28 00:19:55.
