data_PCOD8101979
_publ_section_title
;
Structure prediction by ZEFSAII (Michael W. Deem and Ramdas Pophale) SiO2 
 PCOD8101979
Probable space group: C 2/M
;
_chemical_formula_sum "Si O2"
_cell_formula_units_Z 64
_cell_length_a 29.765761
_cell_length_b 8.994332
_cell_length_c 16.662508
_cell_angle_alpha 90.000000
_cell_angle_beta 136.303889
_cell_angle_gamma 90.000000
_cell_volume 3081.765313
_symmetry_space_group_name_H-M "C 2/M"
_symmetry_group_IT_number 12
_symmetry_cell_setting 'monoclinic'
loop_
_space_group_symop_operation_xyz
x,y,z
-x,y,-z
-x,-y,-z
x,-y,z
1/2+x,1/2+y,z
1/2-x,1/2+y,-z
1/2-x,1/2-y,-z
1/2+x,1/2-y,z
loop_
_atom_site_type_symbol
_atom_site_label
_atom_site_fract_x
_atom_site_fract_y
_atom_site_fract_z
Si Si1 0.547016 0.327272 0.490628
Si Si2 0.757972 0.173677 0.881454
Si Si3 0.194072 0.173848 0.656679
Si Si4 0.977966 0.175875 0.094717
Si Si5 0.602331 0.324629 0.158040
Si Si6 0.740963 0.678248 0.401541
Si Si7 0.161569 0.666712 0.895226
Si Si8 0.517821 0.832631 0.732454
O O1 0.500000 0.260853 0.500000
O O2 0.531593 0.500000 0.461533
O O3 0.623174 0.296676 0.604708
O O4 0.533721 0.253269 0.387793
O O5 0.748369 0.262167 0.786791
O O6 0.699339 0.218583 0.864869
O O7 0.761840 0.000000 0.865984
O O8 0.824054 0.225351 0.010682
O O9 0.201901 0.260005 0.582282
O O10 0.205527 0.000000 0.656554
O O11 0.969925 0.258545 0.166993
O O12 0.046239 0.231126 0.145666
O O13 0.978281 0.000000 0.109240
O O14 0.917926 0.222759 0.958733
O O15 0.604479 0.500000 0.164557
O O16 0.672389 0.263141 0.275864
O O17 0.744682 0.500000 0.412320
O O18 0.750000 0.750000 0.500000
O O19 0.183525 0.500000 0.947593
O O20 0.086349 0.672761 0.774655
O O21 0.492875 0.000000 0.712444
#
# Coordination Sequence:
#
# PCOD8101979 Si02
#       8
#     8   8   8   8   8   8   8   8
#     4  10  23  43  65  87 115 159 212 257 300 361
#     4  10  20  36  60  86 115 157 202 242 290 357
#     4  11  24  41  62  89 121 158 202 254 310 361
#     4   9  18  37  63  88 113 151 197 245 294 350
#     4   8  18  38  63  86 114 151 197 245 290 345
#     4  11  24  42  63  91 124 162 206 247 301 365
#     4   9  20  37  55  83 124 159 190 238 300 360
#     4  11  23  36  56  89 123 153 190 245 308 361
#
# _framework density 20.767316999999998
#
# number of rings (size 3 to 8) (size 9 to 14) (size 15 to 20)
#    0.000    2.125    0.000    3.000    3.500    2.750 
#    0.000    2.500    0.000    0.000    0.000    0.000 
#    0.000    0.000    0.000    0.000    0.000    0.000 
#
# Total GULP energy -396779.264993 kJ/mol
# GULP energy per Si atom -12399.352031 kJ/mol
# Density = 2.072005 g / cm^3
# Si number density = 20.767317 Si / 1000 Ang^3
#
#
#
# Elastic Constant Matrix: (Units=GPa)
#
#
# Indices 1 2 3 4 5 6 
#
# 1 67.5326 30.1639 29.0906 0.0000 -8.2697 0.0000
# 2 30.1639 78.1593 44.6738 0.0000 -4.8624 0.0000
# 3 29.0906 44.6738 110.7410 0.0000 -10.1143 0.0000
# 4 0.0000 0.0000 0.0000 30.4793 0.0000 -3.2628
# 5 -8.2697 -4.8624 -10.1143 0.0000 34.2385 0.0000
# 6 0.0000 0.0000 0.0000 -3.2628 0.0000 28.2098
#
#
#
# Elastic Compliance Matrix: (Units=1/GPa)
#
#
# Indices 1 2 3 4 5 6 
#
# 1 0.018735 -0.005702 -0.002345 0.000000 0.003023 0.000000
# 2 -0.005702 0.018369 -0.005961 0.000000 -0.000529 0.000000
# 3 -0.002345 -0.005961 0.012252 0.000000 0.002206 0.000000
# 4 0.000000 0.000000 0.000000 0.033220 0.000000 0.003842
# 5 0.003023 -0.000529 0.002206 0.000000 0.030514 0.000000
# 6 0.000000 0.000000 0.000000 0.003842 0.000000 0.035893
#
#
# Mechanical properties :
#
#
# Convention : Reuss Voigt Hill
#
# Bulk Modulus (GPa) = 46.85928 51.58774 49.22351
# Shear Modulus (GPa) = 27.15739 28.75250 27.95495
#
# Velocity S-wave (km/s) = 3.62013 3.72493 3.67291
# Velocity P-wave (km/s) = 6.33141 6.58748 6.46072
#
# Compressibility (1/GPa) = 0.02134049
#
# Stress axis : x y z
#
# Youngs Moduli (GPa) = 53.37674 54.43983 81.61746
#
# Poissons Ratio (x) = 0.31040 0.19141
# Poissons Ratio (y) = 0.30434 0.48650
# Poissons Ratio (z) = 0.12518 0.32450
#
# Static dielectric constant tensor:
#      x y z
#    x 3.894960 0.000000 0.153240 
#    y 0.000000 3.584030 0.000000 
#    z 0.153240 0.000000 3.827300 
# 
# 
# High freq. dielectric constant tensor:
#      x y z
#    x 1.816450 0.000000 -0.001170 
#    y 0.000000 1.798250 0.000000 
#    z -0.001170 0.000000 1.815650 
# 
# From -- ./inp_files/249941.got.cif
#   From: 2010.06.25/outbox.cif.g09.slc.cpg/sg12_125_cif.got.tgz:249941.got - 2010.06.28 00:19:55.
