data_PCOD8101231
_publ_section_title
;
Structure prediction by ZEFSAII (Michael W. Deem and Ramdas Pophale) SiO2 
 PCOD8101231
Probable space group: C 2/M
;
_chemical_formula_sum "Si O2"
_cell_formula_units_Z 64
_cell_length_a 20.731430
_cell_length_b 13.825315
_cell_length_c 11.957910
_cell_angle_alpha 90.000000
_cell_angle_beta 73.084990
_cell_angle_gamma 90.000000
_cell_volume 3279.082355
_symmetry_space_group_name_H-M "C 2/M"
_symmetry_group_IT_number 12
_symmetry_cell_setting 'monoclinic'
loop_
_space_group_symop_operation_xyz
x,y,z
-x,y,-z
-x,-y,-z
x,-y,z
1/2+x,1/2+y,z
1/2-x,1/2+y,-z
1/2-x,1/2-y,-z
1/2+x,1/2-y,z
loop_
_atom_site_type_symbol
_atom_site_label
_atom_site_fract_x
_atom_site_fract_y
_atom_site_fract_z
Si Si1 0.929576 0.112500 0.495240
Si Si2 0.811773 0.885263 0.712576
Si Si3 0.074986 0.743609 0.929853
Si Si4 0.606005 0.283512 0.157019
Si Si5 0.965626 0.886827 0.234347
Si Si6 0.162446 0.385030 0.732875
Si Si7 0.415059 0.888286 0.438908
Si Si8 0.068485 0.613221 0.323260
O O1 0.865552 0.154486 0.594233
O O2 0.920431 0.131954 0.367733
O O3 0.000000 0.161311 0.500000
O O4 0.933695 0.000000 0.520858
O O5 0.830211 0.840002 0.823653
O O6 0.738266 0.848194 0.713130
O O7 0.811948 0.000000 0.722617
O O8 0.071040 0.836508 0.851076
O O9 0.113847 0.655974 0.852915
O O10 0.115836 0.775978 0.019188
O O11 0.000000 0.707433 0.000000
O O12 0.539366 0.344225 0.220770
O O13 0.603771 0.175241 0.208960
O O14 0.972474 0.000000 0.204188
O O15 0.156084 0.500000 0.742197
O O16 0.138612 0.346197 0.622833
O O17 0.407699 0.844353 0.567337
O O18 0.488729 0.870334 0.351007
O O19 0.402423 0.000000 0.463640
O O20 0.086876 0.500000 0.298044
#
# Coordination Sequence:
#
# PCOD8101231 Si02
#       8
#     8   8   8   8   8   8   8   8
#     4   9  16  31  56  84 112 138 176 228 276 332
#     4  10  21  36  57  85 112 146 184 227 287 342
#     4  10  23  37  54  83 110 146 197 237 270 321
#     4  11  21  33  54  82 112 147 189 231 269 326
#     4  10  20  36  57  83 116 146 180 233 286 327
#     4  10  21  39  59  79 113 150 183 231 287 337
#     4   8  15  31  54  78 106 140 178 226 281 338
#     4   9  18  32  53  82 110 139 181 232 284 327
#
# _framework density 19.517655000000001
#
# number of rings (size 3 to 8) (size 9 to 14) (size 15 to 20)
#    0.000    2.375    1.250    2.625    0.000    7.000 
#    0.000    2.500    0.000    2.250    0.000    0.000 
#    0.000    0.000    0.000    0.000    0.000    0.000 
#
# Total GULP energy -396718.367352 kJ/mol
# GULP energy per Si atom -12397.448980 kJ/mol
# Density = 1.947323 g / cm^3
# Si number density = 19.517655 Si / 1000 Ang^3
#
#
#
# Elastic Constant Matrix: (Units=GPa)
#
#
# Indices 1 2 3 4 5 6 
#
# 1 136.3903 37.7110 70.5104 0.0000 22.1344 0.0000
# 2 37.7110 64.4620 34.2070 0.0000 3.9465 0.0000
# 3 70.5104 34.2070 111.3369 0.0000 18.9487 0.0000
# 4 0.0000 0.0000 0.0000 26.3194 0.0000 2.0133
# 5 22.1344 3.9465 18.9487 0.0000 33.4395 0.0000
# 6 0.0000 0.0000 0.0000 2.0133 0.0000 19.4949
#
#
#
# Elastic Compliance Matrix: (Units=1/GPa)
#
#
# Indices 1 2 3 4 5 6 
#
# 1 0.012023 -0.003724 -0.005745 0.000000 -0.004264 0.000000
# 2 -0.003724 0.019729 -0.004124 0.000000 0.002474 0.000000
# 3 -0.005745 -0.004124 0.014561 0.000000 -0.003962 0.000000
# 4 0.000000 0.000000 0.000000 0.038297 0.000000 -0.003955
# 5 -0.004264 0.002474 -0.003962 0.000000 0.034680 0.000000
# 6 0.000000 0.000000 0.000000 -0.003955 0.000000 0.051704
#
#
# Mechanical properties :
#
#
# Convention : Reuss Voigt Hill
#
# Bulk Modulus (GPa) = 52.27990 66.33842 59.30916
# Shear Modulus (GPa) = 24.44318 27.16814 25.80566
#
# Velocity S-wave (km/s) = 3.54271 3.73497 3.64011
# Velocity P-wave (km/s) = 6.60140 7.25691 6.93690
#
# Compressibility (1/GPa) = 0.01912781
#
# Stress axis : x y z
#
# Youngs Moduli (GPa) = 83.17080 50.68761 68.67624
#
# Poissons Ratio (x) = 0.18878 0.39451
# Poissons Ratio (y) = 0.30977 0.28320
# Poissons Ratio (z) = 0.47778 0.20902
#
# Static dielectric constant tensor:
#      x y z
#    x 4.100880 0.000000 0.672110 
#    y 0.000000 3.462220 0.000000 
#    z 0.672110 0.000000 3.947650 
# 
# 
# High freq. dielectric constant tensor:
#      x y z
#    x 1.738480 0.000000 0.025090 
#    y 0.000000 1.760690 0.000000 
#    z 0.025090 0.000000 1.754540 
# 
# From -- ./inp_files/167262.got.cif
#   From: 2010.06.25/outbox.cif.g09.slc.cpg/sg12_84_cif.got.tgz:167262.got - 2010.06.28 00:19:55.
