data_PCOD8101559
_publ_section_title
;
Structure prediction by ZEFSAII (Michael W. Deem and Ramdas Pophale) SiO2 
 PCOD8101559
Probable space group: C 2/M
;
_chemical_formula_sum "Si O2"
_cell_formula_units_Z 64
_cell_length_a 17.268066
_cell_length_b 14.372948
_cell_length_c 19.248256
_cell_angle_alpha 90.000000
_cell_angle_beta 134.071237
_cell_angle_gamma 90.000000
_cell_volume 3432.360860
_symmetry_space_group_name_H-M "C 2/M"
_symmetry_group_IT_number 12
_symmetry_cell_setting 'monoclinic'
loop_
_space_group_symop_operation_xyz
x,y,z
-x,y,-z
-x,-y,-z
x,-y,z
1/2+x,1/2+y,z
1/2-x,1/2+y,-z
1/2-x,1/2-y,-z
1/2+x,1/2-y,z
loop_
_atom_site_type_symbol
_atom_site_label
_atom_site_fract_x
_atom_site_fract_y
_atom_site_fract_z
Si Si1 0.862998 0.105324 0.618151
Si Si2 0.903185 0.605174 0.260597
Si Si3 0.052132 0.604613 0.867854
Si Si4 0.981798 0.891480 0.410094
Si Si5 0.124124 0.605060 0.058680
Si Si6 0.853394 0.394113 0.585258
Si Si7 0.637763 0.231981 0.284912
Si Si8 0.218730 0.772261 0.753900
O O1 0.733156 0.119108 0.530254
O O2 0.904003 0.172281 0.705308
O O3 0.916352 0.128877 0.576675
O O4 0.891485 0.000000 0.657790
O O5 0.878304 0.500000 0.269341
O O6 0.889083 0.615175 0.169014
O O7 0.816377 0.672187 0.240011
O O8 0.024818 0.634208 0.360794
O O9 0.002350 0.500000 0.843461
O O10 0.958236 0.680816 0.815555
O O11 0.136472 0.620565 0.983129
O O12 0.881096 0.840873 0.313299
O O13 0.000000 0.854141 0.500000
O O14 0.954562 0.000000 0.395847
O O15 0.159995 0.500000 0.101706
O O16 0.195908 0.681060 0.141490
O O17 0.000000 0.621070 0.000000
O O18 0.855357 0.500000 0.612964
O O19 0.813913 0.333319 0.625150
O O20 0.732409 0.251083 0.290307
#
# Coordination Sequence:
#
# PCOD8101559 Si02
#       8
#     8   8   8   8   8   8   8   8
#     4  10  21  37  54  75 108 150 189 223 262 321
#     4   9  20  37  55  77 107 144 188 231 266 311
#     4   9  18  36  60  81 103 137 180 226 271 319
#     4  10  21  36  54  82 118 144 171 221 285 341
#     4  10  20  36  58  86 115 136 173 228 277 329
#     4   9  18  35  58  77  99 140 191 232 267 312
#     4  11  20  31  53  79 106 141 180 222 268 321
#     4  12  23  33  55  85 113 145 178 223 278 326
#
# _framework density 18.646059000000001
#
# number of rings (size 3 to 8) (size 9 to 14) (size 15 to 20)
#    0.000    2.000    1.250    4.125    0.000    4.500 
#    0.000    0.000    0.000    3.750    0.000    0.000 
#    0.000    0.000    0.000    0.000    0.000    0.000 
#
# Total GULP energy -396728.001384 kJ/mol
# GULP energy per Si atom -12397.750043 kJ/mol
# Density = 1.860362 g / cm^3
# Si number density = 18.646059 Si / 1000 Ang^3
#
#
#
# Elastic Constant Matrix: (Units=GPa)
#
#
# Indices 1 2 3 4 5 6 
#
# 1 81.5947 62.9340 24.2478 0.0000 2.5829 0.0000
# 2 62.9340 111.0228 48.2340 0.0000 2.1535 0.0000
# 3 24.2478 48.2340 72.8146 0.0000 4.5087 0.0000
# 4 0.0000 0.0000 0.0000 20.8804 0.0000 1.6942
# 5 2.5829 2.1535 4.5087 0.0000 16.8243 0.0000
# 6 0.0000 0.0000 0.0000 1.6942 0.0000 32.0692
#
#
#
# Elastic Compliance Matrix: (Units=1/GPa)
#
#
# Indices 1 2 3 4 5 6 
#
# 1 0.021937 -0.013026 0.001453 0.000000 -0.002090 0.000000
# 2 -0.013026 0.020388 -0.009284 0.000000 0.001878 0.000000
# 3 0.001453 -0.009284 0.019666 0.000000 -0.004305 0.000000
# 4 0.000000 0.000000 0.000000 0.048098 0.000000 -0.002541
# 5 -0.002090 0.001878 -0.004305 0.000000 0.060672 0.000000
# 6 0.000000 0.000000 0.000000 -0.002541 0.000000 0.031317
#
#
# Mechanical properties :
#
#
# Convention : Reuss Voigt Hill
#
# Bulk Modulus (GPa) = 49.31678 59.58487 54.45082
# Shear Modulus (GPa) = 19.95607 22.62254 21.28930
#
# Velocity S-wave (km/s) = 3.27503 3.48697 3.38266
# Velocity P-wave (km/s) = 6.38807 6.94529 6.67250
#
# Compressibility (1/GPa) = 0.02027707
#
# Stress axis : x y z
#
# Youngs Moduli (GPa) = 45.58555 49.04883 50.84857
#
# Poissons Ratio (x) = 0.63889 -0.07387
# Poissons Ratio (y) = 0.59378 0.47208
# Poissons Ratio (z) = -0.06622 0.45537
#
# Static dielectric constant tensor:
#      x y z
#    x 3.316510 0.000000 -0.115760 
#    y 0.000000 3.478800 0.000000 
#    z -0.115760 0.000000 3.447810 
# 
# 
# High freq. dielectric constant tensor:
#      x y z
#    x 1.709920 0.000000 -0.008040 
#    y 0.000000 1.727900 0.000000 
#    z -0.008040 0.000000 1.710880 
# 
# From -- ./inp_files/270712.got.cif
#   From: 2010.06.25/outbox.cif.g09.slc.cpg/sg12_136_cif.got.tgz:270712.got - 2010.06.28 00:19:55.
