data_PCOD8101299
_publ_section_title
;
Structure prediction by ZEFSAII (Michael W. Deem and Ramdas Pophale) SiO2 
 PCOD8101299
Probable space group: C 2/M
;
_chemical_formula_sum "Si O2"
_cell_formula_units_Z 52
_cell_length_a 12.375940
_cell_length_b 23.469159
_cell_length_c 11.450324
_cell_angle_alpha 90.000000
_cell_angle_beta 52.501607
_cell_angle_gamma 90.000000
_cell_volume 2638.575340
_symmetry_space_group_name_H-M "C 2/M"
_symmetry_group_IT_number 12
_symmetry_cell_setting 'monoclinic'
loop_
_space_group_symop_operation_xyz
x,y,z
-x,y,-z
-x,-y,-z
x,-y,z
1/2+x,1/2+y,z
1/2-x,1/2+y,-z
1/2-x,1/2-y,-z
1/2+x,1/2-y,z
loop_
_atom_site_type_symbol
_atom_site_label
_atom_site_fract_x
_atom_site_fract_y
_atom_site_fract_z
Si Si1 0.101350 0.375829 0.324113
Si Si2 0.805203 0.807379 0.329400
Si Si3 0.882783 0.690470 0.336983
Si Si4 0.350550 0.000000 0.804367
Si Si5 0.707853 0.404411 0.348222
Si Si6 0.415117 0.000000 0.170656
Si Si7 0.474617 0.405710 0.324315
Si Si8 0.940823 0.000000 0.909368
O O1 0.236188 0.337340 0.261355
O O2 0.152300 0.440784 0.266800
O O3 0.000000 0.380659 0.500000
O O4 0.023671 0.345107 0.265564
O O5 0.891785 0.748733 0.253639
O O6 0.676599 0.793822 0.497066
O O7 0.915941 0.848049 0.312881
O O8 0.773491 0.654790 0.338303
O O9 0.492657 0.000000 0.776584
O O10 0.222901 0.000000 0.977126
O O11 0.823685 0.444982 0.227316
O O12 0.611541 0.391343 0.302809
O O13 0.631163 0.432191 0.511176
O O14 0.500000 0.000000 0.000000
O O15 0.503215 0.446151 0.197028
O O16 0.000000 0.000000 0.000000
#
# Coordination Sequence:
#
# PCOD8101299 Si02
#       8
#     8   8   8   4   8   4   8   4
#     4  10  20  36  57  88 123 153 194 245 298 355
#     4   9  19  32  56  86 119 154 191 243 291 351
#     4   9  18  33  54  88 118 151 191 240 300 346
#     4  12  23  38  58  86 117 159 197 239 299 362
#     4  10  20  37  61  87 120 151 198 249 291 360
#     4  12  23  37  57  85 119 152 192 242 304 352
#     4  10  21  38  60  88 115 158 199 242 298 344
#     4  12  25  41  59  84 119 159 202 246 293 358
#
# _framework density 19.707605000000001
#
# number of rings (size 3 to 8) (size 9 to 14) (size 15 to 20)
#    0.000    1.846    1.538    3.000    2.154    1.231 
#    2.769    0.000    0.000    3.692    0.000    0.000 
#    0.000    0.000    0.000    0.000    0.000    0.000 
#
# Total GULP energy -322185.237841 kJ/mol
# GULP energy per Si atom -12391.739917 kJ/mol
# Density = 1.966275 g / cm^3
# Si number density = 19.707605 Si / 1000 Ang^3
#
#
#
# Elastic Constant Matrix: (Units=GPa)
#
#
# Indices 1 2 3 4 5 6 
#
# 1 151.9365 66.1760 37.3026 0.0000 0.3891 0.0000
# 2 66.1760 149.9556 43.3805 0.0000 -1.3757 0.0000
# 3 37.3026 43.3805 74.6338 0.0000 -3.0769 0.0000
# 4 0.0000 0.0000 0.0000 -61.9169 0.0000 -50.0701
# 5 0.3891 -1.3757 -3.0769 0.0000 25.5829 0.0000
# 6 0.0000 0.0000 0.0000 -50.0701 0.0000 3.1716
#
#
#
# Elastic Compliance Matrix: (Units=1/GPa)
#
#
# Indices 1 2 3 4 5 6 
#
# 1 0.008525 -0.003039 -0.002519 0.000000 -0.000596 0.000000
# 2 -0.003039 0.009100 -0.003767 0.000000 0.000082 0.000000
# 3 -0.002519 -0.003767 0.016925 0.000000 0.001871 0.000000
# 4 0.000000 0.000000 0.000000 -0.001173 0.000000 -0.018521
# 5 -0.000596 0.000082 0.001871 0.000000 0.039327 0.000000
# 6 0.000000 0.000000 0.000000 -0.018521 0.000000 0.022903
#
#
# Mechanical properties :
#
#
# Convention : Reuss Voigt Hill
#
# Bulk Modulus (GPa) = 62.89483 74.47156 68.68320
# Shear Modulus (GPa) = 41.82056 8.67864 25.24960
#
# Velocity S-wave (km/s) = 4.61157 2.10078 3.58328
# Velocity P-wave (km/s) = 7.76780 6.61473 7.21434
#
# Compressibility (1/GPa) = 0.01589956
#
# Stress axis : x y z
#
# Youngs Moduli (GPa) = 117.29721 109.88632 59.08525
#
# Poissons Ratio (x) = 0.33394 0.14885
# Poissons Ratio (y) = 0.35646 0.22259
# Poissons Ratio (z) = 0.29550 0.41397
#
# Static dielectric constant tensor:
#      x y z
#    x 3.741270 0.000000 -0.062990 
#    y 0.000000 3.743150 0.000000 
#    z -0.062990 0.000000 3.343910 
# 
# 
# High freq. dielectric constant tensor:
#      x y z
#    x 1.788000 0.000000 -0.007830 
#    y 0.000000 1.776580 0.000000 
#    z -0.007830 0.000000 1.724300 
# 
# From -- ./inp_files/135892.got.cif
#   From: 2010.06.25/outbox.cif.g09.slc.cpg/sg12_68_cif.got.tgz:135892.got - 2010.06.28 00:19:55.
