data_PCOD8101731
_publ_section_title
;
Structure prediction by ZEFSAII (Michael W. Deem and Ramdas Pophale) SiO2 
 PCOD8101731
Probable space group: C 2/M
;
_chemical_formula_sum "Si O2"
_cell_formula_units_Z 56
_cell_length_a 8.769263
_cell_length_b 10.648828
_cell_length_c 31.927997
_cell_angle_alpha 90.000000
_cell_angle_beta 116.381465
_cell_angle_gamma 90.000000
_cell_volume 2671.004199
_symmetry_space_group_name_H-M "C 2/M"
_symmetry_group_IT_number 12
_symmetry_cell_setting 'monoclinic'
loop_
_space_group_symop_operation_xyz
x,y,z
-x,y,-z
-x,-y,-z
x,-y,z
1/2+x,1/2+y,z
1/2-x,1/2+y,-z
1/2-x,1/2-y,-z
1/2+x,1/2-y,z
loop_
_atom_site_type_symbol
_atom_site_label
_atom_site_fract_x
_atom_site_fract_y
_atom_site_fract_z
Si Si1 0.636345 0.140976 0.548560
Si Si2 0.805942 0.358631 0.671468
Si Si3 0.699805 0.640098 0.024677
Si Si4 0.738913 0.276019 0.189826
Si Si5 0.431294 0.641360 0.748714
Si Si6 0.592895 0.861869 0.870053
Si Si7 0.474027 0.772116 0.609682
O O1 0.500000 0.203355 0.500000
O O2 0.568585 0.139159 0.587983
O O3 0.812153 0.214533 0.566524
O O4 0.672634 0.000000 0.538306
O O5 0.829009 0.500000 0.692941
O O6 0.871878 0.250139 0.710141
O O7 0.605268 0.337531 0.639225
O O8 0.915463 0.352949 0.642326
O O9 0.769723 0.500000 0.020532
O O10 0.767650 0.680216 0.078791
O O11 0.500000 0.633003 0.000000
O O12 0.750000 0.750000 0.000000
O O13 0.687992 0.353418 0.224862
O O14 0.570283 0.225816 0.146971
O O15 0.828036 0.364941 0.166842
O O16 0.869811 0.163638 0.217021
O O17 0.412622 0.500000 0.727507
O O18 0.527256 0.000000 0.872437
#
# Coordination Sequence:
#
# PCOD8101731 Si02
#       7
#     8   8   8   8   8   8   8
#     4  10  20  36  59  85 114 149 188 232 282 334
#     4  11  24  40  60  85 116 155 194 235 285 341
#     4  10  21  37  58  86 118 152 192 236 283 338
#     4  10  22  38  59  84 114 148 190 237 288 342
#     4  11  24  40  60  87 116 148 191 241 290 342
#     4  10  20  37  59  82 113 152 190 232 284 340
#     4  10  22  38  58  84 117 149 191 236 280 335
#
# _framework density 20.965896999999998
#
# number of rings (size 3 to 8) (size 9 to 14) (size 15 to 20)
#    0.000    1.714    0.000    3.857    0.000    9.429 
#    0.000    3.571    0.000    6.857    0.000    0.000 
#    0.000    0.000    0.000    0.000    0.000    0.000 
#
# Total GULP energy -347110.234003 kJ/mol
# GULP energy per Si atom -12396.794072 kJ/mol
# Density = 2.091818 g / cm^3
# Si number density = 20.965897 Si / 1000 Ang^3
#
#
#
# Elastic Constant Matrix: (Units=GPa)
#
#
# Indices 1 2 3 4 5 6 
#
# 1 89.5185 25.6374 22.5753 0.0000 9.8836 0.0000
# 2 25.6374 133.1308 44.9150 0.0000 6.9754 0.0000
# 3 22.5753 44.9150 103.3612 0.0000 14.6043 0.0000
# 4 0.0000 0.0000 0.0000 31.8996 0.0000 -0.4093
# 5 9.8836 6.9754 14.6043 0.0000 31.4061 0.0000
# 6 0.0000 0.0000 0.0000 -0.4093 0.0000 15.0357
#
#
#
# Elastic Compliance Matrix: (Units=1/GPa)
#
#
# Indices 1 2 3 4 5 6 
#
# 1 0.012362 -0.001707 -0.001565 0.000000 -0.002783 0.000000
# 2 -0.001707 0.009038 -0.003582 0.000000 0.000196 0.000000
# 3 -0.001565 -0.003582 0.012192 0.000000 -0.004381 0.000000
# 4 0.000000 0.000000 0.000000 0.031359 0.000000 0.000854
# 5 -0.002783 0.000196 -0.004381 0.000000 0.034711 0.000000
# 6 0.000000 0.000000 0.000000 0.000854 0.000000 0.066532
#
#
# Mechanical properties :
#
#
# Convention : Reuss Voigt Hill
#
# Bulk Modulus (GPa) = 50.29117 56.91842 53.60479
# Shear Modulus (GPa) = 26.80521 31.19378 28.99950
#
# Velocity S-wave (km/s) = 3.57951 3.86143 3.72314
# Velocity P-wave (km/s) = 6.41273 6.86206 6.64120
#
# Compressibility (1/GPa) = 0.01988421
#
# Stress axis : x y z
#
# Youngs Moduli (GPa) = 80.89532 110.63821 82.01799
#
# Poissons Ratio (x) = 0.18883 0.12836
# Poissons Ratio (y) = 0.13806 0.29383
# Poissons Ratio (z) = 0.12660 0.39636
#
# Static dielectric constant tensor:
#      x y z
#    x 3.900030 0.000000 0.139120 
#    y 0.000000 4.033840 0.000000 
#    z 0.139120 0.000000 3.924220 
# 
# 
# High freq. dielectric constant tensor:
#      x y z
#    x 1.829190 0.000000 0.010270 
#    y 0.000000 1.812540 0.000000 
#    z 0.010270 0.000000 1.827130 
# 
# From -- ./inp_files/355861.got.cif
#   From: 2010.06.25/outbox.cif.g09.slc.cpg/sg12_178_cif.got.tgz:355861.got - 2010.06.28 00:19:55.
