data_PCOD8101643
_publ_section_title
;
Structure prediction by ZEFSAII (Michael W. Deem and Ramdas Pophale) SiO2 
 PCOD8101643
Probable space group: C 2/M
;
_chemical_formula_sum "Si O2"
_cell_formula_units_Z 56
_cell_length_a 10.139662
_cell_length_b 17.309188
_cell_length_c 16.107197
_cell_angle_alpha 90.000000
_cell_angle_beta 81.136760
_cell_angle_gamma 90.000000
_cell_volume 2793.206138
_symmetry_space_group_name_H-M "C 2/M"
_symmetry_group_IT_number 12
_symmetry_cell_setting 'monoclinic'
loop_
_space_group_symop_operation_xyz
x,y,z
-x,y,-z
-x,-y,-z
x,-y,z
1/2+x,1/2+y,z
1/2-x,1/2+y,-z
1/2-x,1/2-y,-z
1/2+x,1/2-y,z
loop_
_atom_site_type_symbol
_atom_site_label
_atom_site_fract_x
_atom_site_fract_y
_atom_site_fract_z
Si Si1 0.689592 0.589998 0.675283
Si Si2 0.731953 0.091624 0.654878
Si Si3 0.371051 0.407765 0.966763
Si Si4 0.914842 0.910148 0.781507
Si Si5 0.152306 0.822289 0.508763
Si Si6 0.050325 0.408093 0.253540
Si Si7 0.093916 0.592009 0.064073
O O1 0.702259 0.500000 0.649484
O O2 0.571883 0.603040 0.752925
O O3 0.654433 0.638324 0.597825
O O4 0.823951 0.621864 0.705321
O O5 0.827914 0.127663 0.716338
O O6 0.785871 0.117223 0.561235
O O7 0.582210 0.122111 0.687175
O O8 0.734503 0.000000 0.655414
O O9 0.377141 0.500000 0.962881
O O10 0.370227 0.373671 0.873449
O O11 0.500000 0.373816 0.000000
O O12 0.242610 0.379129 0.029477
O O13 0.879811 0.000000 0.786011
O O14 0.250000 0.750000 0.500000
O O15 0.000000 0.799464 0.500000
O O16 0.055004 0.500000 0.249077
O O17 0.052886 0.375566 0.158799
O O18 0.085402 0.500000 0.065662
O O19 0.000000 0.625101 0.000000
#
# Coordination Sequence:
#
# PCOD8101643 Si02
#       7
#     8   8   8   8   8   8   8
#     4  10  20  36  59  82 111 147 186 230 273 322
#     4  10  20  36  59  82 109 145 187 227 268 323
#     4   9  15  22  37  65 105 146 176 211 264 317
#     4   9  16  28  48  75 105 143 187 225 263 316
#     4  12  27  43  60  82 110 140 178 228 283 339
#     4   9  18  30  48  79 113 149 187 223 266 319
#     4   9  15  24  39  65 109 154 182 210 260 319
#
# _framework density 20.048645
#
# number of rings (size 3 to 8) (size 9 to 14) (size 15 to 20)
#    0.000    2.286    1.429    2.143    2.000    7.429 
#    0.000    2.143    0.000    0.000    0.000    0.000 
#    0.000   22.857    0.000    0.000    0.000    0.000 
#
# Total GULP energy -347128.482635 kJ/mol
# GULP energy per Si atom -12397.445808 kJ/mol
# Density = 2.000301 g / cm^3
# Si number density = 20.048645 Si / 1000 Ang^3
#
#
#
# Elastic Constant Matrix: (Units=GPa)
#
#
# Indices 1 2 3 4 5 6 
#
# 1 157.6451 16.9511 41.4288 0.0000 6.4063 0.0000
# 2 16.9511 19.8753 12.0928 0.0000 -0.3338 0.0000
# 3 41.4288 12.0928 117.5398 0.0000 0.7082 0.0000
# 4 0.0000 0.0000 0.0000 0.4904 0.0000 1.5098
# 5 6.4063 -0.3338 0.7082 0.0000 40.5972 0.0000
# 6 0.0000 0.0000 0.0000 1.5098 0.0000 15.6673
#
#
#
# Elastic Compliance Matrix: (Units=1/GPa)
#
#
# Indices 1 2 3 4 5 6 
#
# 1 0.007497 -0.005132 -0.002107 0.000000 -0.001189 0.000000
# 2 -0.005132 0.057198 -0.004084 0.000000 0.001351 0.000000
# 3 -0.002107 -0.004084 0.009670 0.000000 0.000130 0.000000
# 4 0.000000 0.000000 0.000000 2.898991 0.000000 -0.279367
# 5 -0.001189 0.001351 0.000130 0.000000 0.024829 0.000000
# 6 0.000000 0.000000 0.000000 -0.279367 0.000000 0.090749
#
#
# Mechanical properties :
#
#
# Convention : Reuss Voigt Hill
#
# Bulk Modulus (GPa) = 19.33535 48.44506 33.89021
# Shear Modulus (GPa) = 1.59805 26.32347 13.96076
#
# Velocity S-wave (km/s) = 0.89376 3.62744 2.64170
# Velocity P-wave (km/s) = 3.27570 6.46225 5.12303
#
# Compressibility (1/GPa) = 0.05171873
#
# Stress axis : x y z
#
# Youngs Moduli (GPa) = 133.38119 17.48303 103.41335
#
# Poissons Ratio (x) = 0.08972 0.21793
# Poissons Ratio (y) = 0.68452 0.42234
# Poissons Ratio (z) = 0.28109 0.07140
#
# Static dielectric constant tensor:
#      x y z
#    x 3.961330 0.000000 0.034020 
#    y 0.000000 2.944600 0.000000 
#    z 0.034020 0.000000 4.034090 
# 
# 
# High freq. dielectric constant tensor:
#      x y z
#    x 1.802840 0.000000 -0.000390 
#    y 0.000000 1.704780 0.000000 
#    z -0.000390 0.000000 1.800830 
# 
# From -- ./inp_files/197539.got.cif
#   From: 2010.06.25/outbox.cif.g09.slc.cpg/sg12_99_cif.got.tgz:197539.got - 2010.06.28 00:19:55.
