data_PCOD8101108
_publ_section_title
;
Structure prediction by ZEFSAII (Michael W. Deem and Ramdas Pophale) SiO2 
 PCOD8101108
Probable space group: C 2/M
;
_chemical_formula_sum "Si O2"
_cell_formula_units_Z 40
_cell_length_a 27.259089
_cell_length_b 9.032974
_cell_length_c 8.963781
_cell_angle_alpha 90.000000
_cell_angle_beta 109.196175
_cell_angle_gamma 90.000000
_cell_volume 2084.435891
_symmetry_space_group_name_H-M "C 2/M"
_symmetry_group_IT_number 12
_symmetry_cell_setting 'monoclinic'
loop_
_space_group_symop_operation_xyz
x,y,z
-x,y,-z
-x,-y,-z
x,-y,z
1/2+x,1/2+y,z
1/2-x,1/2+y,-z
1/2-x,1/2-y,-z
1/2+x,1/2-y,z
loop_
_atom_site_type_symbol
_atom_site_label
_atom_site_fract_x
_atom_site_fract_y
_atom_site_fract_z
Si Si1 0.251994 0.173841 0.843753
Si Si2 0.147088 0.325093 0.236642
Si Si3 0.050359 0.175720 0.634418
Si Si4 0.348482 0.325021 0.441147
Si Si5 0.055016 0.829296 0.977136
O O1 0.303575 0.226021 0.810483
O O2 0.202579 0.224585 0.698485
O O3 0.251205 0.000000 0.869645
O O4 0.250000 0.250000 0.000000
O O5 0.144935 0.500000 0.252340
O O6 0.152062 0.254067 0.402357
O O7 0.095448 0.269931 0.105571
O O8 0.101860 0.231028 0.602313
O O9 0.051187 0.232436 0.805098
O O10 0.000000 0.242281 0.500000
O O11 0.047140 0.000000 0.630722
O O12 0.350554 0.500000 0.469806
O O13 0.073456 0.000000 0.998492
O O14 0.000000 0.811118 0.000000
#
# Coordination Sequence:
#
# PCOD8101108 Si02
#       5
#     8   8   8   8   8
#     4  10  22  38  57  82 111 146 187 230 277 331
#     4  11  23  37  54  81 115 146 181 229 282 331
#     4   9  17  31  54  83 108 132 175 232 276 315
#     4  10  20  36  57  79 107 146 189 229 271 325
#     4  10  20  36  60  85 109 144 187 227 272 329
#
# _framework density 19.189843
#
# number of rings (size 3 to 8) (size 9 to 14) (size 15 to 20)
#    0.000    2.000    0.000    3.600    0.000    7.600 
#    0.000    1.000    0.000    2.400    0.000    0.000 
#    0.000    0.000    0.000    0.000    0.000    0.000 
#
# Total GULP energy -248078.594608 kJ/mol
# GULP energy per Si atom -12403.929730 kJ/mol
# Density = 1.914617 g / cm^3
# Si number density = 19.189843 Si / 1000 Ang^3
#
#
#
# Elastic Constant Matrix: (Units=GPa)
#
#
# Indices 1 2 3 4 5 6 
#
# 1 137.0352 37.8369 82.2306 0.0000 -4.3533 0.0000
# 2 37.8369 33.0847 49.2134 0.0000 -3.9341 0.0000
# 3 82.2306 49.2134 197.1291 0.0000 -9.1964 0.0000
# 4 0.0000 0.0000 0.0000 31.0067 0.0000 -5.2785
# 5 -4.3533 -3.9341 -9.1964 0.0000 43.4673 0.0000
# 6 0.0000 0.0000 0.0000 -5.2785 0.0000 9.0894
#
#
#
# Elastic Compliance Matrix: (Units=1/GPa)
#
#
# Indices 1 2 3 4 5 6 
#
# 1 0.011323 -0.009441 -0.002377 0.000000 -0.000223 0.000000
# 2 -0.009441 0.056096 -0.009972 0.000000 0.002022 0.000000
# 3 -0.002377 -0.009972 0.008585 0.000000 0.000676 0.000000
# 4 0.000000 0.000000 0.000000 0.035789 0.000000 0.020784
# 5 -0.000223 0.002022 0.000676 0.000000 0.023309 0.000000
# 6 0.000000 0.000000 0.000000 0.020784 0.000000 0.122088
#
#
# Mechanical properties :
#
#
# Convention : Reuss Voigt Hill
#
# Bulk Modulus (GPa) = 30.83999 78.42340 54.63170
# Shear Modulus (GPa) = 16.04732 29.91055 22.97894
#
# Velocity S-wave (km/s) = 2.89492 3.95228 3.46418
# Velocity P-wave (km/s) = 5.22302 7.86023 6.67320
#
# Compressibility (1/GPa) = 0.03242543
#
# Stress axis : x y z
#
# Youngs Moduli (GPa) = 88.31344 17.82666 116.47686
#
# Poissons Ratio (x) = 0.16829 0.27686
# Poissons Ratio (y) = 0.83373 1.16150
# Poissons Ratio (z) = 0.20992 0.17777
#
# Static dielectric constant tensor:
#      x y z
#    x 3.625830 0.000000 -0.110130 
#    y 0.000000 3.228470 0.000000 
#    z -0.110130 0.000000 3.498000 
# 
# 
# High freq. dielectric constant tensor:
#      x y z
#    x 1.767490 0.000000 -0.000770 
#    y 0.000000 1.716160 0.000000 
#    z -0.000770 0.000000 1.767120 
# 
# From -- ./inp_files/92768.got.cif
#   From: 2010.06.25/outbox.cif.g09.slc.cpg/sg12_47_cif.got.tgz:92768.got - 2010.06.28 00:19:55.
