data_PCOD8101137
_publ_section_title
;
Structure prediction by ZEFSAII (Michael W. Deem and Ramdas Pophale) SiO2 
 PCOD8101137
Probable space group: C 2/M
;
_chemical_formula_sum "Si O2"
_cell_formula_units_Z 56
_cell_length_a 23.832213
_cell_length_b 8.979465
_cell_length_c 14.598598
_cell_angle_alpha 90.000000
_cell_angle_beta 71.323864
_cell_angle_gamma 90.000000
_cell_volume 2959.603755
_symmetry_space_group_name_H-M "C 2/M"
_symmetry_group_IT_number 12
_symmetry_cell_setting 'monoclinic'
loop_
_space_group_symop_operation_xyz
x,y,z
-x,y,-z
-x,-y,-z
x,-y,z
1/2+x,1/2+y,z
1/2-x,1/2+y,-z
1/2-x,1/2-y,-z
1/2+x,1/2-y,z
loop_
_atom_site_type_symbol
_atom_site_label
_atom_site_fract_x
_atom_site_fract_y
_atom_site_fract_z
Si Si1 0.322578 0.325151 0.371844
Si Si2 0.795987 0.829421 0.588358
Si Si3 0.153299 0.172392 0.249216
Si Si4 0.878180 0.671139 0.047495
Si Si5 0.561868 0.175465 0.173881
Si Si6 0.259084 0.676252 0.092506
Si Si7 0.071616 0.670819 0.785824
O O1 0.321174 0.500000 0.360241
O O2 0.263363 0.261344 0.355703
O O3 0.324250 0.275716 0.477733
O O4 0.381098 0.267056 0.292908
O O5 0.845553 0.808636 0.641219
O O6 0.775702 0.000000 0.591606
O O7 0.092243 0.236751 0.241434
O O8 0.207708 0.267967 0.184714
O O9 0.160100 0.000000 0.216899
O O10 0.857198 0.500000 0.050286
O O11 0.822136 0.774212 0.099712
O O12 0.923861 0.691772 0.106955
O O13 0.908666 0.723734 0.937570
O O14 0.493552 0.223762 0.209288
O O15 0.569205 0.000000 0.185364
O O16 0.255853 0.500000 0.085389
O O17 0.250000 0.750000 0.000000
O O18 0.082248 0.500000 0.753480
#
# Coordination Sequence:
#
# PCOD8101137 Si02
#       7
#     8   8   8   8   8   8   8
#     4  10  20  36  59  86 111 139 180 230 276 323
#     4   9  20  38  59  83 112 144 178 220 279 338
#     4  11  22  37  57  81 111 147 183 225 276 327
#     4  10  20  36  57  80 109 146 186 228 273 324
#     4  10  21  37  56  78 109 149 190 227 266 324
#     4  12  23  35  53  80 113 145 179 222 270 322
#     4  10  21  37  57  81 110 147 186 225 276 329
#
# _framework density 18.921451000000001
#
# number of rings (size 3 to 8) (size 9 to 14) (size 15 to 20)
#    0.000    1.714    1.429    3.429    0.000    8.000 
#    0.000    0.714    0.000    6.857    0.000    0.000 
#    0.000    0.000    0.000    0.000    0.000    0.000 
#
# Total GULP energy -347277.619512 kJ/mol
# GULP energy per Si atom -12402.772125 kJ/mol
# Density = 1.887838 g / cm^3
# Si number density = 18.921451 Si / 1000 Ang^3
#
#
#
# Elastic Constant Matrix: (Units=GPa)
#
#
# Indices 1 2 3 4 5 6 
#
# 1 141.9464 53.6804 51.6098 0.0000 6.5281 0.0000
# 2 53.6804 89.2032 32.0221 0.0000 2.2240 0.0000
# 3 51.6098 32.0221 72.6852 0.0000 6.6409 0.0000
# 4 0.0000 0.0000 0.0000 27.6792 0.0000 0.6336
# 5 6.5281 2.2240 6.6409 0.0000 29.0523 0.0000
# 6 0.0000 0.0000 0.0000 0.6336 0.0000 32.5335
#
#
#
# Elastic Compliance Matrix: (Units=1/GPa)
#
#
# Indices 1 2 3 4 5 6 
#
# 1 0.010823 -0.004467 -0.005644 0.000000 -0.000800 0.000000
# 2 -0.004467 0.015163 -0.003569 0.000000 0.000659 0.000000
# 3 -0.005644 -0.003569 0.019606 0.000000 -0.002940 0.000000
# 4 0.000000 0.000000 0.000000 0.036144 0.000000 -0.000704
# 5 -0.000800 0.000659 -0.002940 0.000000 0.035222 0.000000
# 6 0.000000 0.000000 0.000000 -0.000704 0.000000 0.030751
#
#
# Mechanical properties :
#
#
# Convention : Reuss Voigt Hill
#
# Bulk Modulus (GPa) = 54.84439 64.27327 59.55883
# Shear Modulus (GPa) = 27.60193 28.95449 28.27821
#
# Velocity S-wave (km/s) = 3.82352 3.91608 3.87008
# Velocity P-wave (km/s) = 6.96711 7.38172 7.17741
#
# Compressibility (1/GPa) = 0.01823341
#
# Stress axis : x y z
#
# Youngs Moduli (GPa) = 92.39555 65.94911 51.00465
#
# Poissons Ratio (x) = 0.29460 0.28786
# Poissons Ratio (y) = 0.41274 0.18201
# Poissons Ratio (z) = 0.52145 0.23535
#
# Static dielectric constant tensor:
#      x y z
#    x 3.597530 0.000000 0.173050 
#    y 0.000000 3.513330 0.000000 
#    z 0.173050 0.000000 3.685740 
# 
# 
# High freq. dielectric constant tensor:
#      x y z
#    x 1.737070 0.000000 0.011300 
#    y 0.000000 1.735770 0.000000 
#    z 0.011300 0.000000 1.729660 
# 
# From -- ./inp_files/237444.got.cif
#   From: 2010.06.25/outbox.cif.g09.slc.cpg/sg12_119_cif.got.tgz:237444.got - 2010.06.28 00:19:55.
