data_PCOD8101234
_publ_section_title
;
Structure prediction by ZEFSAII (Michael W. Deem and Ramdas Pophale) SiO2 
 PCOD8101234
Probable space group: C 2/M
;
_chemical_formula_sum "Si O2"
_cell_formula_units_Z 64
_cell_length_a 31.655040
_cell_length_b 11.169348
_cell_length_c 17.325320
_cell_angle_alpha 90.000000
_cell_angle_beta 32.203354
_cell_angle_gamma 90.000000
_cell_volume 3264.515295
_symmetry_space_group_name_H-M "C 2/M"
_symmetry_group_IT_number 12
_symmetry_cell_setting 'monoclinic'
loop_
_space_group_symop_operation_xyz
x,y,z
-x,y,-z
-x,-y,-z
x,-y,z
1/2+x,1/2+y,z
1/2-x,1/2+y,-z
1/2-x,1/2-y,-z
1/2+x,1/2-y,z
loop_
_atom_site_type_symbol
_atom_site_label
_atom_site_fract_x
_atom_site_fract_y
_atom_site_fract_z
Si Si1 0.873931 0.132974 0.810524
Si Si2 0.517181 0.865547 0.383696
Si Si3 0.220398 0.134612 0.192623
Si Si4 0.029179 0.138167 0.749729
Si Si5 0.855015 0.807200 0.005871
Si Si6 0.781008 0.867844 0.276864
Si Si7 0.123954 0.252321 0.471974
Si Si8 0.920959 0.858535 0.161425
O O1 0.802011 0.152474 0.862356
O O2 0.839026 0.122290 0.950764
O O3 0.930670 0.249656 0.720519
O O4 0.913798 0.000000 0.731258
O O5 0.500000 0.853970 0.500000
O O6 0.436062 0.858194 0.459559
O O7 0.553734 0.000000 0.310525
O O8 0.151536 0.194605 0.349406
O O9 0.223817 0.000000 0.214269
O O10 0.308425 0.182255 0.072484
O O11 0.080254 0.157031 0.594166
O O12 0.080029 0.174405 0.746490
O O13 0.948740 0.216241 0.872321
O O14 0.002717 0.000000 0.794977
O O15 0.819360 0.879899 0.132634
O O16 0.699020 0.797188 0.404255
O O17 0.843216 0.803756 0.239416
O O18 0.761314 0.000000 0.337345
O O19 0.919537 0.000000 0.149139
O O20 0.000000 0.804322 0.000000
#
# Coordination Sequence:
#
# PCOD8101234 Si02
#       8
#     8   8   8   8   8   8   8   8
#     4  11  22  38  61  87 116 157 209 253 297 351
#     4  11  23  39  56  84 123 162 202 247 303 353
#     4  10  23  40  56  81 118 159 198 244 301 359
#     4  11  21  35  58  88 116 145 194 250 296 349
#     4  11  21  35  58  87 114 150 194 248 299 347
#     4  10  20  36  57  83 116 150 190 241 299 358
#     4  11  22  37  58  83 115 157 201 238 293 355
#     4   9  17  32  56  85 115 145 181 239 304 353
#
# _framework density 19.604747
#
# number of rings (size 3 to 8) (size 9 to 14) (size 15 to 20)
#    0.000    1.500    3.750    2.250    0.000    1.750 
#    0.000    1.250    0.000    0.000    0.000    8.750 
#    0.000    0.000    0.000    0.000    0.000    0.000 
#
# Total GULP energy -396555.186725 kJ/mol
# GULP energy per Si atom -12392.349585 kJ/mol
# Density = 1.956013 g / cm^3
# Si number density = 19.604747 Si / 1000 Ang^3
#
#
#
# Elastic Constant Matrix: (Units=GPa)
#
#
# Indices 1 2 3 4 5 6 
#
# 1 128.4050 27.8178 33.6806 0.0000 -10.9921 0.0000
# 2 27.8178 99.3580 30.8169 0.0001 -11.7370 0.0000
# 3 33.6806 30.8169 78.7034 0.0000 -11.0321 0.0000
# 4 0.0000 0.0001 0.0000 13.0421 0.0000 -3.7042
# 5 -10.9921 -11.7370 -11.0321 0.0000 39.0390 0.0000
# 6 0.0000 0.0000 0.0000 -3.7042 0.0000 20.7307
#
#
#
# Elastic Compliance Matrix: (Units=1/GPa)
#
#
# Indices 1 2 3 4 5 6 
#
# 1 0.009021 -0.001407 -0.003137 0.000000 0.001230 0.000000
# 2 -0.001407 0.011871 -0.003750 0.000000 0.002113 0.000000
# 3 -0.003137 -0.003750 0.015863 0.000000 0.002472 0.000000
# 4 0.000000 0.000000 0.000000 0.080774 0.000000 0.014433
# 5 0.001230 0.002113 0.002472 0.000000 0.027296 0.000000
# 6 0.000000 0.000000 0.000000 0.014433 0.000000 0.050817
#
#
# Mechanical properties :
#
#
# Convention : Reuss Voigt Hill
#
# Bulk Modulus (GPa) = 49.58542 54.56631 52.07587
# Shear Modulus (GPa) = 22.83600 28.83907 25.83754
#
# Velocity S-wave (km/s) = 3.41665 3.83956 3.63426
# Velocity P-wave (km/s) = 6.39626 6.89564 6.65064
#
# Compressibility (1/GPa) = 0.02016722
#
# Stress axis : x y z
#
# Youngs Moduli (GPa) = 110.85386 84.23665 63.03910
#
# Poissons Ratio (x) = 0.11855 0.19775
# Poissons Ratio (y) = 0.15601 0.23639
# Poissons Ratio (z) = 0.34774 0.31587
#
# Static dielectric constant tensor:
#      x y z
#    x 3.868350 0.000000 -0.050330 
#    y 0.000000 3.406450 0.000000 
#    z -0.050330 0.000000 3.452860 
# 
# 
# High freq. dielectric constant tensor:
#      x y z
#    x 1.781700 0.000000 -0.002460 
#    y 0.000000 1.736200 0.000000 
#    z -0.002460 0.000000 1.751140 
# 
# From -- ./inp_files/296441.got.cif
#   From: 2010.06.25/outbox.cif.g09.slc.cpg/sg12_149_cif.got.tgz:296441.got - 2010.06.28 00:19:55.
