data_PCOD8101568
_publ_section_title
;
Structure prediction by ZEFSAII (Michael W. Deem and Ramdas Pophale) SiO2 
 PCOD8101568
Probable space group: C 2/M
;
_chemical_formula_sum "Si O2"
_cell_formula_units_Z 40
_cell_length_a 23.542264
_cell_length_b 10.864308
_cell_length_c 22.338847
_cell_angle_alpha 90.000000
_cell_angle_beta 160.253423
_cell_angle_gamma 90.000000
_cell_volume 1930.405093
_symmetry_space_group_name_H-M "C 2/M"
_symmetry_group_IT_number 12
_symmetry_cell_setting 'monoclinic'
loop_
_space_group_symop_operation_xyz
x,y,z
-x,y,-z
-x,-y,-z
x,-y,z
1/2+x,1/2+y,z
1/2-x,1/2+y,-z
1/2-x,1/2-y,-z
1/2+x,1/2-y,z
loop_
_atom_site_type_symbol
_atom_site_label
_atom_site_fract_x
_atom_site_fract_y
_atom_site_fract_z
Si Si1 0.250695 0.856231 0.389521
Si Si2 0.927264 0.716949 0.101703
Si Si3 0.803029 0.636223 0.305565
Si Si4 0.143223 0.365847 0.093465
Si Si5 0.911701 0.638334 0.217297
O O1 0.236684 0.825955 0.305260
O O2 0.423804 0.799972 0.588475
O O3 0.089296 0.804578 0.263663
O O4 0.253451 0.000000 0.404837
O O5 0.933618 0.635341 0.167452
O O6 0.934756 0.632031 0.050371
O O7 0.753611 0.790754 0.926888
O O8 0.728191 0.500000 0.213378
O O9 0.759482 0.745054 0.215996
O O10 0.000000 0.622597 0.500000
O O11 0.234539 0.500000 0.192987
O O12 0.000000 0.352370 0.000000
O O13 0.890658 0.500000 0.220157
#
# Coordination Sequence:
#
# PCOD8101568 Si02
#       5
#     8   8   8   8   8
#     4  10  20  36  58  86 117 152 199 253 305 358
#     4  11  21  38  61  84 117 161 201 242 306 362
#     4  10  21  38  61  89 121 159 205 255 304 358
#     4  11  23  39  59  87 124 162 201 246 302 365
#     4  10  22  38  59  87 118 151 200 259 304 357
#
# _framework density 20.721039000000001
#
# number of rings (size 3 to 8) (size 9 to 14) (size 15 to 20)
#    0.000    1.600    2.000    3.000    0.000    4.000 
#    0.000    0.000    0.000    6.000    0.000    0.000 
#    0.000    0.000    0.000    0.000    0.000    0.000 
#
# Total GULP energy -247905.157027 kJ/mol
# GULP energy per Si atom -12395.257851 kJ/mol
# Density = 2.067388 g / cm^3
# Si number density = 20.721039 Si / 1000 Ang^3
#
#
#
# Elastic Constant Matrix: (Units=GPa)
#
#
# Indices 1 2 3 4 5 6 
#
# 1 84.5628 13.9686 15.4442 -0.0102 -0.8203 -0.0028
# 2 13.9686 106.5613 41.6888 -0.0077 -6.3655 -0.0012
# 3 15.4442 41.6888 101.1857 -0.0073 7.5649 -0.0009
# 4 -0.0102 -0.0077 -0.0073 69.4602 0.0012 0.9685
# 5 -0.8203 -6.3655 7.5649 0.0012 39.0373 0.0005
# 6 -0.0028 -0.0012 -0.0009 0.9685 0.0005 38.8812
#
#
#
# Elastic Compliance Matrix: (Units=1/GPa)
#
#
# Indices 1 2 3 4 5 6 
#
# 1 0.012267 -0.001003 -0.001488 0.000002 0.000382 0.000001
# 2 -0.001003 0.011570 -0.004823 0.000001 0.002800 0.000000
# 3 -0.001488 -0.004823 0.012337 0.000001 -0.003208 0.000000
# 4 0.000002 0.000001 0.000001 0.014402 0.000000 -0.000359
# 5 0.000382 0.002800 -0.003208 0.000000 0.026703 0.000000
# 6 0.000001 0.000000 0.000000 -0.000359 0.000000 0.025728
#
#
# Mechanical properties :
#
#
# Convention : Reuss Voigt Hill
#
# Bulk Modulus (GPa) = 46.41276 48.27922 47.34599
# Shear Modulus (GPa) = 40.05902 44.22298 42.14100
#
# Velocity S-wave (km/s) = 4.40165 4.62476 4.51458
# Velocity P-wave (km/s) = 6.94839 7.20195 7.07631
#
# Compressibility (1/GPa) = 0.02154580
#
# Stress axis : x y z
#
# Youngs Moduli (GPa) = 81.52198 86.43101 81.05795
#
# Poissons Ratio (x) = 0.08671 0.12058
# Poissons Ratio (y) = 0.08178 0.39095
# Poissons Ratio (z) = 0.12127 0.41686
#
# Static dielectric constant tensor:
#      x y z
#    x 4.130120 0.000000 -0.340420 
#    y 0.000000 3.838170 0.000000 
#    z -0.340420 0.000000 3.950990 
# 
# 
# High freq. dielectric constant tensor:
#      x y z
#    x 1.827070 0.000000 -0.003700 
#    y 0.000000 1.802140 0.000000 
#    z -0.003700 0.000000 1.803190 
# 
# From -- ./inp_files/83384.got.cif
#   From: 2010.06.25/outbox.cif.g09.slc.cpg/sg12_42_cif.got.tgz:83384.got - 2010.06.28 00:19:55.
