data_PCOD8101524
_publ_section_title
;
Structure prediction by ZEFSAII (Michael W. Deem and Ramdas Pophale) SiO2 
 PCOD8101524
Probable space group: C 2/M
;
_chemical_formula_sum "Si O2"
_cell_formula_units_Z 64
_cell_length_a 20.334759
_cell_length_b 8.720597
_cell_length_c 21.520362
_cell_angle_alpha 90.000000
_cell_angle_beta 62.150268
_cell_angle_gamma 90.000000
_cell_volume 3374.220466
_symmetry_space_group_name_H-M "C 2/M"
_symmetry_group_IT_number 12
_symmetry_cell_setting 'monoclinic'
loop_
_space_group_symop_operation_xyz
x,y,z
-x,y,-z
-x,-y,-z
x,-y,z
1/2+x,1/2+y,z
1/2-x,1/2+y,-z
1/2-x,1/2-y,-z
1/2+x,1/2-y,z
loop_
_atom_site_type_symbol
_atom_site_label
_atom_site_fract_x
_atom_site_fract_y
_atom_site_fract_z
Si Si1 0.299297 0.179265 0.296972
Si Si2 0.579173 0.820506 0.446571
Si Si3 0.228532 0.681710 0.443875
Si Si4 0.909809 0.824312 0.160988
Si Si5 0.332330 0.677094 0.065649
Si Si6 0.665510 0.818864 0.150138
Si Si7 0.567661 0.180434 0.080869
Si Si8 0.163297 0.679513 0.289537
O O1 0.289237 0.265320 0.366827
O O2 0.378202 0.227420 0.232797
O O3 0.234982 0.224583 0.277334
O O4 0.298588 0.000000 0.310273
O O5 0.500000 0.743211 0.500000
O O6 0.646956 0.755861 0.458753
O O7 0.595418 0.786168 0.366697
O O8 0.574184 0.000000 0.461309
O O9 0.228945 0.500000 0.447297
O O10 0.250000 0.750000 0.500000
O O11 0.856246 0.803385 0.126048
O O12 0.990520 0.765937 0.106489
O O13 0.914519 0.000000 0.179549
O O14 0.339810 0.500000 0.041203
O O15 0.248210 0.740427 0.097901
O O16 0.382110 0.784167 0.000668
O O17 0.607647 0.754113 0.125322
O O18 0.639560 0.768855 0.230802
O O19 0.667558 0.000000 0.145080
O O20 0.553550 0.000000 0.091266
O O21 0.185657 0.500000 0.282143
#
# Coordination Sequence:
#
# PCOD8101524 Si02
#       8
#     8   8   8   8   8   8   8   8
#     4  11  21  35  58  86 112 142 188 236 280 328
#     4   8  15  29  53  84 110 139 184 226 263 316
#     4  10  20  36  58  84 117 151 188 229 276 329
#     4  11  22  39  60  79 108 148 188 227 278 341
#     4  10  20  37  60  78 100 145 196 227 274 344
#     4   9  18  35  56  79 107 147 188 224 275 338
#     4  11  23  36  52  82 118 143 179 236 288 329
#     4   9  16  33  58  79 107 148 187 223 268 331
#
# _framework density 18.967344000000001
#
# number of rings (size 3 to 8) (size 9 to 14) (size 15 to 20)
#    0.000    2.125    1.250    3.750    0.000    2.500 
#    2.250    1.875    0.000    9.375    0.000    0.000 
#    0.000    0.000    0.000    0.000    0.000    0.000 
#
# Total GULP energy -396804.027939 kJ/mol
# GULP energy per Si atom -12400.125873 kJ/mol
# Density = 1.892417 g / cm^3
# Si number density = 18.967344 Si / 1000 Ang^3
#
#
#
# Elastic Constant Matrix: (Units=GPa)
#
#
# Indices 1 2 3 4 5 6 
#
# 1 52.5253 23.8668 24.5791 -0.0001 -3.6181 -0.0008
# 2 23.8668 60.6326 26.0990 -0.0001 5.7603 -0.0018
# 3 24.5791 26.0990 112.8433 0.0000 -1.2361 -0.0001
# 4 -0.0001 -0.0001 0.0000 27.5740 0.0000 4.3353
# 5 -3.6181 5.7603 -1.2361 0.0000 29.7092 -0.0002
# 6 -0.0008 -0.0018 -0.0001 4.3353 -0.0002 18.5710
#
#
#
# Elastic Compliance Matrix: (Units=1/GPa)
#
#
# Indices 1 2 3 4 5 6 
#
# 1 0.024922 -0.008809 -0.003340 0.000000 0.004604 0.000000
# 2 -0.008809 0.021853 -0.003195 0.000000 -0.005443 0.000002
# 3 -0.003340 -0.003195 0.010335 0.000000 0.000643 0.000000
# 4 0.000000 0.000000 0.000000 0.037648 0.000000 -0.008789
# 5 0.004604 -0.005443 0.000643 0.000000 0.035302 0.000000
# 6 0.000000 0.000002 0.000000 -0.008789 0.000000 0.055899
#
#
# Mechanical properties :
#
#
# Convention : Reuss Voigt Hill
#
# Bulk Modulus (GPa) = 37.84991 41.67678 39.76335
# Shear Modulus (GPa) = 22.17732 25.26793 23.72263
#
# Velocity S-wave (km/s) = 3.42312 3.65387 3.54037
# Velocity P-wave (km/s) = 5.96844 6.31043 6.14182
#
# Compressibility (1/GPa) = 0.02642014
#
# Stress axis : x y z
#
# Youngs Moduli (GPa) = 40.12587 45.76069 96.75447
#
# Poissons Ratio (x) = 0.40313 0.32320
# Poissons Ratio (y) = 0.35349 0.30913
# Poissons Ratio (z) = 0.13404 0.14621
#
# Static dielectric constant tensor:
#      x y z
#    x 3.685760 0.000000 -0.008280 
#    y 0.000000 3.252350 0.000000 
#    z -0.008280 0.000000 3.662860 
# 
# 
# High freq. dielectric constant tensor:
#      x y z
#    x 1.727670 0.000000 -0.000960 
#    y 0.000000 1.715150 0.000000 
#    z -0.000960 0.000000 1.750080 
# 
# From -- ./inp_files/319925.got.cif
#   From: 2010.06.25/outbox.cif.g09.slc.cpg/sg12_160_cif.got.tgz:319925.got - 2010.06.28 00:19:55.
