data_PCOD8101730
_publ_section_title
;
Structure prediction by ZEFSAII (Michael W. Deem and Ramdas Pophale) SiO2 
 PCOD8101730
Probable space group: C 2/M
;
_chemical_formula_sum "Si O2"
_cell_formula_units_Z 64
_cell_length_a 8.918525
_cell_length_b 10.605387
_cell_length_c 33.262615
_cell_angle_alpha 90.000000
_cell_angle_beta 96.255395
_cell_angle_gamma 90.000000
_cell_volume 3127.393018
_symmetry_space_group_name_H-M "C 2/M"
_symmetry_group_IT_number 12
_symmetry_cell_setting 'monoclinic'
loop_
_space_group_symop_operation_xyz
x,y,z
-x,y,-z
-x,-y,-z
x,-y,z
1/2+x,1/2+y,z
1/2-x,1/2+y,-z
1/2-x,1/2-y,-z
1/2+x,1/2-y,z
loop_
_atom_site_type_symbol
_atom_site_label
_atom_site_fract_x
_atom_site_fract_y
_atom_site_fract_z
Si Si1 0.662131 0.224930 0.227102
Si Si2 0.290030 0.750027 0.598713
Si Si3 0.083734 0.357831 0.720314
Si Si4 0.122241 0.142259 0.914992
Si Si5 0.062015 0.142518 0.652689
Si Si6 0.404963 0.362152 0.176023
Si Si7 0.982069 0.643189 0.456145
Si Si8 0.050213 0.642312 0.046254
O O1 0.570135 0.149217 0.258364
O O2 0.542879 0.273762 0.191375
O O3 0.764020 0.336049 0.249508
O O4 0.773557 0.135620 0.205538
O O5 0.200540 0.842928 0.625953
O O6 0.401152 0.657753 0.626320
O O7 0.175395 0.668091 0.569839
O O8 0.382162 0.831650 0.569997
O O9 0.092001 0.500000 0.702243
O O10 0.077545 0.249656 0.686720
O O11 0.270161 0.149334 0.946533
O O12 0.161306 0.173351 0.869631
O O13 0.009437 0.250405 0.925889
O O14 0.052641 0.000000 0.917126
O O15 0.069081 0.000000 0.671009
O O16 0.476003 0.500000 0.176731
O O17 0.987073 0.500000 0.467474
O O18 0.000000 0.716166 0.500000
O O19 0.995477 0.500000 0.056758
O O20 0.000000 0.675474 0.000000
#
# Coordination Sequence:
#
# PCOD8101730 Si02
#       8
#     8   8   8   8   8   8   8   8
#     4  10  22  38  59  83 113 148 185 230 285 340
#     4  10  22  38  58  84 117 149 190 234 279 333
#     4  11  24  40  60  87 115 147 191 237 283 338
#     4  10  21  36  57  85 113 146 190 234 280 337
#     4  11  24  40  60  85 116 154 192 234 284 336
#     4  10  20  37  58  81 112 147 184 230 282 337
#     4  10  20  36  59  85 114 149 188 231 279 331
#     4  10  21  37  56  81 115 152 190 234 283 335
#
# _framework density 20.464328999999999
#
# number of rings (size 3 to 8) (size 9 to 14) (size 15 to 20)
#    0.000    1.750    0.000    3.750    0.000    8.750 
#    0.000    3.125    0.000    6.000    0.000    0.000 
#    0.000    0.000    0.000    0.000    0.000    0.000 
#
# Total GULP energy -396643.124243 kJ/mol
# GULP energy per Si atom -12395.097633 kJ/mol
# Density = 2.041775 g / cm^3
# Si number density = 20.464329 Si / 1000 Ang^3
#
#
#
# Elastic Constant Matrix: (Units=GPa)
#
#
# Indices 1 2 3 4 5 6 
#
# 1 102.0637 32.5969 29.2269 0.0000 4.1032 0.0000
# 2 32.5969 135.2049 49.0672 0.0000 -8.9403 0.0000
# 3 29.2269 49.0672 101.0620 0.0000 0.4618 0.0000
# 4 0.0000 0.0000 0.0000 28.5623 0.0000 -0.0970
# 5 4.1032 -8.9403 0.4618 0.0000 48.0690 0.0000
# 6 0.0000 0.0000 0.0000 -0.0970 0.0000 16.4531
#
#
#
# Elastic Compliance Matrix: (Units=1/GPa)
#
#
# Indices 1 2 3 4 5 6 
#
# 1 0.011119 -0.001944 -0.002266 0.000000 -0.001289 0.000000
# 2 -0.001944 0.009461 -0.004040 0.000000 0.001964 0.000000
# 3 -0.002266 -0.004040 0.012515 0.000000 -0.000678 0.000000
# 4 0.000000 0.000000 0.000000 0.035012 0.000000 0.000206
# 5 -0.001289 0.001964 -0.000678 0.000000 0.021285 0.000000
# 6 0.000000 0.000000 0.000000 0.000206 0.000000 0.060780
#
#
# Mechanical properties :
#
#
# Convention : Reuss Voigt Hill
#
# Bulk Modulus (GPa) = 60.25865 62.23472 61.24669
# Shear Modulus (GPa) = 29.03528 33.77952 31.40740
#
# Velocity S-wave (km/s) = 3.77081 4.06723 3.92182
# Velocity P-wave (km/s) = 6.96192 7.24802 7.10641
#
# Compressibility (1/GPa) = 0.01659513
#
# Stress axis : x y z
#
# Youngs Moduli (GPa) = 89.93377 105.69791 79.90400
#
# Poissons Ratio (x) = 0.20543 0.18107
# Poissons Ratio (y) = 0.17480 0.32284
# Poissons Ratio (z) = 0.20380 0.42705
#
# Static dielectric constant tensor:
#      x y z
#    x 3.543930 0.000000 0.099760 
#    y 0.000000 3.580360 0.000000 
#    z 0.099760 0.000000 3.814120 
# 
# 
# High freq. dielectric constant tensor:
#      x y z
#    x 1.805100 0.000000 0.009100 
#    y 0.000000 1.794330 0.000000 
#    z 0.009100 0.000000 1.810570 
# 
# From -- ./inp_files/372165.got.cif
#   From: 2010.06.25/outbox.cif.g09.slc.cpg/sg12_187_cif.got.tgz:372165.got - 2010.06.28 00:19:55.
