data_PCOD8101683
_publ_section_title
;
Structure prediction by ZEFSAII (Michael W. Deem and Ramdas Pophale) SiO2 
 PCOD8101683
Probable space group: C 2/M
;
_chemical_formula_sum "Si O2"
_cell_formula_units_Z 64
_cell_length_a 18.371097
_cell_length_b 8.948001
_cell_length_c 34.391895
_cell_angle_alpha 90.000000
_cell_angle_beta 144.799389
_cell_angle_gamma 90.000000
_cell_volume 3258.908043
_symmetry_space_group_name_H-M "C 2/M"
_symmetry_group_IT_number 12
_symmetry_cell_setting 'monoclinic'
loop_
_space_group_symop_operation_xyz
x,y,z
-x,y,-z
-x,-y,-z
x,-y,z
1/2+x,1/2+y,z
1/2-x,1/2+y,-z
1/2-x,1/2-y,-z
1/2+x,1/2-y,z
loop_
_atom_site_type_symbol
_atom_site_label
_atom_site_fract_x
_atom_site_fract_y
_atom_site_fract_z
Si Si1 0.873057 0.172008 0.365984
Si Si2 0.192474 0.825243 0.011952
Si Si3 0.402565 0.327872 0.892644
Si Si4 0.693547 0.826890 0.739456
Si Si5 0.264065 0.327141 0.119674
Si Si6 0.263853 0.823945 0.393610
Si Si7 0.834520 0.827290 0.504340
Si Si8 0.473940 0.672393 0.272382
O O1 0.794958 0.238846 0.295890
O O2 0.840015 0.260198 0.390536
O O3 0.020196 0.189879 0.420118
O O4 0.835303 0.000000 0.355406
O O5 0.045930 0.781477 0.948737
O O6 0.212609 0.000000 0.018013
O O7 0.250000 0.750000 0.000000
O O8 0.267619 0.766028 0.081916
O O9 0.388811 0.500000 0.899811
O O10 0.324500 0.298321 0.819190
O O11 0.353498 0.224017 0.905671
O O12 0.575448 0.770606 0.713378
O O13 0.671777 0.000000 0.720716
O O14 0.248034 0.500000 0.102503
O O15 0.394341 0.293986 0.198902
O O16 0.316999 0.750458 0.455496
O O17 0.116698 0.783891 0.325002
O O18 0.286448 0.000000 0.405731
O O19 0.750000 0.750000 0.500000
O O20 0.795003 0.000000 0.483950
O O21 0.460661 0.500000 0.279249
#
# Coordination Sequence:
#
# PCOD8101683 Si02
#       8
#     8   8   8   8   8   8   8   8
#     4  11  24  40  57  82 118 152 182 225 281 331
#     4  11  23  38  55  78 112 148 184 229 280 331
#     4   9  20  38  58  81 111 146 183 229 280 326
#     4  10  20  36  60  86 110 143 189 231 271 327
#     4  10  20  36  59  84 111 144 184 228 274 329
#     4  11  23  39  60  85 114 149 188 228 274 329
#     4  11  24  41  61  85 114 148 186 230 278 327
#     4   9  20  38  58  83 115 147 180 226 280 327
#
# _framework density 19.638480000000001
#
# number of rings (size 3 to 8) (size 9 to 14) (size 15 to 20)
#    0.000    1.750    0.000    3.750    0.000   12.000 
#    0.000    5.000    0.000    0.000    0.000    0.000 
#    0.000    0.000    0.000    0.000    0.000    0.000 
#
# Total GULP energy -396987.678331 kJ/mol
# GULP energy per Si atom -12405.864948 kJ/mol
# Density = 1.959378 g / cm^3
# Si number density = 19.638480 Si / 1000 Ang^3
#
#
#
# Elastic Constant Matrix: (Units=GPa)
#
#
# Indices 1 2 3 4 5 6 
#
# 1 67.1076 33.7428 31.4530 0.0000 -20.7247 0.0000
# 2 33.7428 93.5853 41.0189 -0.0001 -11.2027 0.0002
# 3 31.4530 41.0189 85.4418 0.0000 -20.3611 0.0000
# 4 0.0000 -0.0001 0.0000 36.4314 0.0000 -6.0207
# 5 -20.7247 -11.2027 -20.3611 0.0000 34.1562 0.0000
# 6 0.0000 0.0002 0.0000 -6.0207 0.0000 40.1194
#
#
#
# Elastic Compliance Matrix: (Units=1/GPa)
#
#
# Indices 1 2 3 4 5 6 
#
# 1 0.022139 -0.005398 -0.003240 0.000000 0.009732 0.000000
# 2 -0.005398 0.014862 -0.005556 0.000000 -0.001713 0.000000
# 3 -0.003240 -0.005556 0.017089 0.000000 0.006399 0.000000
# 4 0.000000 0.000000 0.000000 0.028147 0.000000 0.004224
# 5 0.009732 -0.001713 0.006399 0.000000 0.038435 0.000000
# 6 0.000000 0.000000 0.000000 0.004224 0.000000 0.025560
#
#
# Mechanical properties :
#
#
# Convention : Reuss Voigt Hill
#
# Bulk Modulus (GPa) = 38.90538 50.95158 44.92848
# Shear Modulus (GPa) = 27.29479 31.46939 29.38209
#
# Velocity S-wave (km/s) = 3.73213 4.00739 3.87220
# Velocity P-wave (km/s) = 6.19883 6.88573 6.55129
#
# Compressibility (1/GPa) = 0.02570339
#
# Stress axis : x y z
#
# Youngs Moduli (GPa) = 45.16864 67.28666 58.51841
#
# Poissons Ratio (x) = 0.36319 0.18957
# Poissons Ratio (y) = 0.24380 0.32513
# Poissons Ratio (z) = 0.14633 0.37385
#
# Static dielectric constant tensor:
#      x y z
#    x 3.304060 0.000000 0.229490 
#    y 0.000000 3.717960 0.000000 
#    z 0.229490 0.000000 3.558170 
# 
# 
# High freq. dielectric constant tensor:
#      x y z
#    x 1.763180 0.000000 -0.004030 
#    y 0.000000 1.777450 0.000000 
#    z -0.004030 0.000000 1.778430 
# 
# From -- ./inp_files/378448.got.cif
#   From: 2010.06.25/outbox.cif.g09.slc.cpg/sg12_190_cif.got.tgz:378448.got - 2010.06.28 00:19:55.
