data_PCOD8101891
_publ_section_title
;
Structure prediction by ZEFSAII (Michael W. Deem and Ramdas Pophale) SiO2 
 PCOD8101891
Probable space group: C 2/M
;
_chemical_formula_sum "Si O2"
_cell_formula_units_Z 48
_cell_length_a 24.080877
_cell_length_b 8.868536
_cell_length_c 11.369538
_cell_angle_alpha 90.000000
_cell_angle_beta 105.675550
_cell_angle_gamma 90.000000
_cell_volume 2337.794590
_symmetry_space_group_name_H-M "C 2/M"
_symmetry_group_IT_number 12
_symmetry_cell_setting 'monoclinic'
loop_
_space_group_symop_operation_xyz
x,y,z
-x,y,-z
-x,-y,-z
x,-y,z
1/2+x,1/2+y,z
1/2-x,1/2+y,-z
1/2-x,1/2-y,-z
1/2+x,1/2-y,z
loop_
_atom_site_type_symbol
_atom_site_label
_atom_site_fract_x
_atom_site_fract_y
_atom_site_fract_z
Si Si1 0.655001 0.174906 0.741840
Si Si2 0.433283 0.677626 0.466858
Si Si3 0.170674 0.670859 0.012815
Si Si4 0.557241 0.170885 0.080471
Si Si5 0.721956 0.326397 0.262266
Si Si6 0.124194 0.320519 0.340649
O O1 0.599775 0.272510 0.670467
O O2 0.709073 0.197607 0.683762
O O3 0.636271 0.000000 0.736436
O O4 0.676077 0.229605 0.882543
O O5 0.500000 0.730665 0.500000
O O6 0.429525 0.500000 0.482011
O O7 0.398929 0.758496 0.550996
O O8 0.193939 0.500000 0.040129
O O9 0.103203 0.677825 0.003129
O O10 0.205845 0.776671 0.120756
O O11 0.582358 0.244481 0.214088
O O12 0.540674 0.000000 0.104076
O O13 0.500000 0.256166 0.000000
O O14 0.705091 0.500000 0.267037
O O15 0.688968 0.233691 0.345188
O O16 0.125856 0.500000 0.345692
#
# Coordination Sequence:
#
# PCOD8101891 Si02
#       6
#     8   8   8   8   8   8
#     4  10  22  38  60  88 116 158 205 240 284 345
#     4  11  26  44  60  83 118 155 192 241 299 352
#     4   9  18  33  55  86 121 153 194 240 284 346
#     4   8  15  28  51  83 111 141 184 235 283 326
#     4  10  20  36  59  89 124 154 189 242 299 348
#     4  10  21  38  62  86 113 153 198 243 289 342
#
# _framework density 20.532171000000002
#
# number of rings (size 3 to 8) (size 9 to 14) (size 15 to 20)
#    0.000    2.333    0.000    3.000    2.333    4.000 
#    0.000    0.000    0.000    2.500    0.000    0.000 
#    0.000    0.000    0.000    0.000    0.000    0.000 
#
# Total GULP energy -297533.834015 kJ/mol
# GULP energy per Si atom -12397.243084 kJ/mol
# Density = 2.048544 g / cm^3
# Si number density = 20.532171 Si / 1000 Ang^3
#
#
#
# Elastic Constant Matrix: (Units=GPa)
#
#
# Indices 1 2 3 4 5 6 
#
# 1 96.7062 38.3283 35.7247 0.0000 4.7563 0.0000
# 2 38.3283 74.4009 27.2048 0.0000 1.3531 0.0000
# 3 35.7247 27.2048 52.2034 0.0000 -12.5263 0.0000
# 4 0.0000 0.0000 0.0000 30.6202 0.0000 -2.7592
# 5 4.7563 1.3531 -12.5263 0.0000 33.6896 0.0000
# 6 0.0000 0.0000 0.0000 -2.7592 0.0000 27.4804
#
#
#
# Elastic Compliance Matrix: (Units=1/GPa)
#
#
# Indices 1 2 3 4 5 6 
#
# 1 0.016152 -0.004520 -0.010103 0.000000 -0.005855 0.000000
# 2 -0.004520 0.018447 -0.007186 0.000000 -0.002774 0.000000
# 3 -0.010103 -0.007186 0.033187 0.000000 0.014054 0.000000
# 4 0.000000 0.000000 0.000000 0.032956 0.000000 0.003309
# 5 -0.005855 -0.002774 0.014054 0.000000 0.035846 0.000000
# 6 0.000000 0.000000 0.000000 0.003309 0.000000 0.036722
#
#
# Mechanical properties :
#
#
# Convention : Reuss Voigt Hill
#
# Bulk Modulus (GPa) = 41.37655 47.31402 44.34529
# Shear Modulus (GPa) = 22.22366 26.49487 24.35927
#
# Velocity S-wave (km/s) = 3.29353 3.59612 3.44815
# Velocity P-wave (km/s) = 5.88718 6.35112 6.12354
#
# Compressibility (1/GPa) = 0.02416828
#
# Stress axis : x y z
#
# Youngs Moduli (GPa) = 61.91047 54.20823 30.13250
#
# Poissons Ratio (x) = 0.24504 0.30443
# Poissons Ratio (y) = 0.27986 0.21653
# Poissons Ratio (z) = 0.62548 0.38953
#
# Static dielectric constant tensor:
#      x y z
#    x 3.869290 0.000000 0.095100 
#    y 0.000000 3.486260 0.000000 
#    z 0.095100 0.000000 3.764910 
# 
# 
# High freq. dielectric constant tensor:
#      x y z
#    x 1.812780 0.000000 0.000250 
#    y 0.000000 1.779760 0.000000 
#    z 0.000250 0.000000 1.799970 
# 
# From -- ./inp_files/173030.got.cif
#   From: 2010.06.25/outbox.cif.g09.slc.cpg/sg12_87_cif.got.tgz:173030.got - 2010.06.28 00:19:55.
