data_PCOD8101773
_publ_section_title
;
Structure prediction by ZEFSAII (Michael W. Deem and Ramdas Pophale) SiO2 
 PCOD8101773
Probable space group: C 2/M
;
_chemical_formula_sum "Si O2"
_cell_formula_units_Z 56
_cell_length_a 18.376819
_cell_length_b 8.775672
_cell_length_c 22.648341
_cell_angle_alpha 90.000000
_cell_angle_beta 127.660935
_cell_angle_gamma 90.000000
_cell_volume 2891.445483
_symmetry_space_group_name_H-M "C 2/M"
_symmetry_group_IT_number 12
_symmetry_cell_setting 'monoclinic'
loop_
_space_group_symop_operation_xyz
x,y,z
-x,y,-z
-x,-y,-z
x,-y,z
1/2+x,1/2+y,z
1/2-x,1/2+y,-z
1/2-x,1/2-y,-z
1/2+x,1/2-y,z
loop_
_atom_site_type_symbol
_atom_site_label
_atom_site_fract_x
_atom_site_fract_y
_atom_site_fract_z
Si Si1 0.033611 0.822223 0.768609
Si Si2 0.487180 0.680758 0.926971
Si Si3 0.617930 0.178089 0.224000
Si Si4 0.843687 0.175056 0.064177
Si Si5 0.332581 0.320582 0.504345
Si Si6 0.022042 0.320959 0.638568
Si Si7 0.176720 0.822714 0.636195
O O1 0.125610 0.795592 0.853159
O O2 0.051116 0.726720 0.718605
O O3 0.943114 0.767713 0.758492
O O4 0.020579 0.000000 0.747280
O O5 0.472452 0.500000 0.914657
O O6 0.401883 0.763597 0.852486
O O7 0.577429 0.740605 0.938706
O O8 0.500000 0.735776 0.000000
O O9 0.723993 0.214105 0.288059
O O10 0.596324 0.000000 0.219617
O O11 0.831098 0.000000 0.044237
O O12 0.750000 0.250000 0.000000
O O13 0.327368 0.500000 0.509217
O O14 0.250000 0.250000 0.500000
O O15 0.428427 0.262982 0.576685
O O16 0.323412 0.272098 0.431829
O O17 0.005482 0.500000 0.627520
O O18 0.101374 0.276190 0.632463
O O19 0.151075 0.000000 0.630533
#
# Coordination Sequence:
#
# PCOD8101773 Si02
#       7
#     8   8   8   8   8   8   8
#     4  10  21  39  60  82 113 152 192 234 286 345
#     4   9  19  36  55  77 109 149 192 234 281 339
#     4  10  20  36  59  86 114 145 190 241 286 340
#     4   9  19  34  54  80 109 144 184 230 282 336
#     4  11  23  41  65  89 118 155 192 232 281 338
#     4  12  25  39  59  88 118 150 192 238 284 335
#     4  10  23  41  59  84 118 152 186 231 286 338
#
# _framework density 19.367474999999999
#
# number of rings (size 3 to 8) (size 9 to 14) (size 15 to 20)
#    0.000    1.857    0.000    4.714    0.000    9.429 
#    0.000    2.857    0.000    0.000    0.000    0.000 
#    0.000    0.000    0.000    0.000    0.000    0.000 
#
# Total GULP energy -347259.679971 kJ/mol
# GULP energy per Si atom -12402.131428 kJ/mol
# Density = 1.932339 g / cm^3
# Si number density = 19.367475 Si / 1000 Ang^3
#
#
#
# Elastic Constant Matrix: (Units=GPa)
#
#
# Indices 1 2 3 4 5 6 
#
# 1 107.6960 35.2433 61.4428 0.0000 -9.2151 0.0000
# 2 35.2433 48.9242 30.2966 0.0000 -5.8250 0.0000
# 3 61.4428 30.2966 128.9735 0.0000 -6.2064 0.0000
# 4 0.0000 0.0000 0.0000 34.2612 0.0000 1.7299
# 5 -9.2151 -5.8250 -6.2064 0.0000 38.1231 0.0000
# 6 0.0000 0.0000 0.0000 1.7299 0.0000 35.4846
#
#
#
# Elastic Compliance Matrix: (Units=1/GPa)
#
#
# Indices 1 2 3 4 5 6 
#
# 1 0.014789 -0.007192 -0.005278 0.000000 0.001617 0.000000
# 2 -0.007192 0.027709 -0.002986 0.000000 0.002009 0.000000
# 3 -0.005278 -0.002986 0.010972 0.000000 0.000054 0.000000
# 4 0.000000 0.000000 0.000000 0.029260 0.000000 -0.001426
# 5 0.001617 0.002009 0.000054 0.000000 0.026937 0.000000
# 6 0.000000 0.000000 0.000000 -0.001426 0.000000 0.028251
#
#
# Mechanical properties :
#
#
# Convention : Reuss Voigt Hill
#
# Bulk Modulus (GPa) = 44.33158 59.95100 52.14129
# Shear Modulus (GPa) = 28.35290 32.14785 30.25038
#
# Velocity S-wave (km/s) = 3.83030 4.07859 3.95640
# Velocity P-wave (km/s) = 6.51928 7.29394 6.91746
#
# Compressibility (1/GPa) = 0.02255728
#
# Stress axis : x y z
#
# Youngs Moduli (GPa) = 67.61995 36.08916 91.14141
#
# Poissons Ratio (x) = 0.25956 0.48104
# Poissons Ratio (y) = 0.48634 0.27215
# Poissons Ratio (z) = 0.35689 0.10776
#
# Static dielectric constant tensor:
#      x y z
#    x 3.388860 0.000000 -0.193560 
#    y 0.000000 3.534610 0.000000 
#    z -0.193560 0.000000 3.719110 
# 
# 
# High freq. dielectric constant tensor:
#      x y z
#    x 1.752200 0.000000 -0.002940 
#    y 0.000000 1.757080 0.000000 
#    z -0.002940 0.000000 1.772550 
# 
# From -- ./inp_files/342576.got.cif
#   From: 2010.06.25/outbox.cif.g09.slc.cpg/sg12_172_cif.got.tgz:342576.got - 2010.06.28 00:19:55.
