data_PCOD8101310
_publ_section_title
;
Structure prediction by ZEFSAII (Michael W. Deem and Ramdas Pophale) SiO2 
 PCOD8101310
Probable space group: C 2/M
;
_chemical_formula_sum "Si O2"
_cell_formula_units_Z 56
_cell_length_a 18.557737
_cell_length_b 9.095924
_cell_length_c 22.708900
_cell_angle_alpha 90.000000
_cell_angle_beta 52.435963
_cell_angle_gamma 90.000000
_cell_volume 3038.517245
_symmetry_space_group_name_H-M "C 2/M"
_symmetry_group_IT_number 12
_symmetry_cell_setting 'monoclinic'
loop_
_space_group_symop_operation_xyz
x,y,z
-x,y,-z
-x,-y,-z
x,-y,z
1/2+x,1/2+y,z
1/2-x,1/2+y,-z
1/2-x,1/2-y,-z
1/2+x,1/2-y,z
loop_
_atom_site_type_symbol
_atom_site_label
_atom_site_fract_x
_atom_site_fract_y
_atom_site_fract_z
Si Si1 0.751969 0.330568 0.938129
Si Si2 0.116212 0.670758 0.229993
Si Si3 0.558496 0.674649 0.642480
Si Si4 0.075765 0.327167 0.510427
Si Si5 0.770465 0.174453 0.367012
Si Si6 0.095748 0.824793 0.932174
Si Si7 0.719546 0.674792 0.769441
O O1 0.736501 0.500000 0.959111
O O2 0.844320 0.305769 0.855295
O O3 0.668797 0.266517 0.942135
O O4 0.750000 0.250000 0.000000
O O5 0.091912 0.500000 0.253023
O O6 0.188725 0.725755 0.242853
O O7 0.026823 0.769788 0.277514
O O8 0.556675 0.500000 0.639237
O O9 0.551627 0.741853 0.581373
O O10 0.650062 0.730697 0.629412
O O11 0.076302 0.500000 0.523713
O O12 0.173638 0.270853 0.439435
O O13 0.000000 0.287566 0.500000
O O14 0.784409 0.240996 0.294428
O O15 0.771640 0.000000 0.362496
O O16 0.129583 0.772574 0.850384
O O17 0.090905 0.000000 0.935311
O O18 0.000000 0.754975 0.000000
O O19 0.721104 0.500000 0.766931
#
# Coordination Sequence:
#
# PCOD8101310 Si02
#       7
#     8   8   8   8   8   8   8
#     4   9  18  31  49  74 101 130 165 206 250 293
#     4   9  18  34  53  71  96 134 175 205 234 287
#     4  11  22  33  49  77 108 130 153 198 255 297
#     4  10  20  36  58  76  93 128 172 203 235 290
#     4   9  18  31  48  74 102 126 158 202 250 293
#     4   8  14  25  44  71  98 124 159 204 248 285
#     4   8  14  28  49  69  92 125 167 208 237 277
#
# _framework density 18.430040999999999
#
# number of rings (size 3 to 8) (size 9 to 14) (size 15 to 20)
#    0.000    2.857    0.000    3.429    0.000    4.286 
#    0.000    3.571    0.000    2.143    0.000    0.000 
#    0.000    0.000    0.000    0.000    0.000    0.000 
#
# Total GULP energy -347086.021326 kJ/mol
# GULP energy per Si atom -12395.929333 kJ/mol
# Density = 1.838809 g / cm^3
# Si number density = 18.430041 Si / 1000 Ang^3
#
#
#
# Elastic Constant Matrix: (Units=GPa)
#
#
# Indices 1 2 3 4 5 6 
#
# 1 114.0255 33.7424 70.1959 0.0000 -4.0669 0.0000
# 2 33.7424 33.2415 34.7801 0.0000 3.2065 0.0000
# 3 70.1959 34.7801 137.2465 0.0000 -4.0675 0.0000
# 4 0.0000 0.0000 0.0000 24.6375 0.0000 1.5258
# 5 -4.0669 3.2065 -4.0675 0.0000 41.1611 0.0000
# 6 0.0000 0.0000 0.0000 1.5258 0.0000 20.2194
#
#
#
# Elastic Compliance Matrix: (Units=1/GPa)
#
#
# Indices 1 2 3 4 5 6 
#
# 1 0.014894 -0.010032 -0.005023 0.000000 0.001757 0.000000
# 2 -0.010032 0.048440 -0.007307 0.000000 -0.005487 0.000000
# 3 -0.005023 -0.007307 0.011744 0.000000 0.001233 0.000000
# 4 0.000000 0.000000 0.000000 0.040779 0.000000 -0.003077
# 5 0.001757 -0.005487 0.001233 0.000000 0.025018 0.000000
# 6 0.000000 0.000000 0.000000 -0.003077 0.000000 0.049690
#
#
# Mechanical properties :
#
#
# Convention : Reuss Voigt Hill
#
# Bulk Modulus (GPa) = 32.94539 62.43894 47.69216
# Shear Modulus (GPa) = 20.37438 26.92326 23.64882
#
# Velocity S-wave (km/s) = 3.32851 3.82623 3.58602
# Velocity P-wave (km/s) = 5.71723 7.31249 6.56351
#
# Compressibility (1/GPa) = 0.03035326
#
# Stress axis : x y z
#
# Youngs Moduli (GPa) = 67.14305 20.64390 85.15241
#
# Poissons Ratio (x) = 0.20709 0.42774
# Poissons Ratio (y) = 0.67356 0.62223
# Poissons Ratio (z) = 0.33727 0.15085
#
# Static dielectric constant tensor:
#      x y z
#    x 3.577430 0.000000 -0.030090 
#    y 0.000000 2.895760 0.000000 
#    z -0.030090 0.000000 3.731380 
# 
# 
# High freq. dielectric constant tensor:
#      x y z
#    x 1.715840 0.000000 -0.000520 
#    y 0.000000 1.662920 0.000000 
#    z -0.000520 0.000000 1.734580 
# 
# From -- ./inp_files/342331.got.cif
#   From: 2010.06.25/outbox.cif.g09.slc.cpg/sg12_172_cif.got.tgz:342331.got - 2010.06.28 00:19:55.
