data_PCOD8101220
_publ_section_title
;
Structure prediction by ZEFSAII (Michael W. Deem and Ramdas Pophale) SiO2 
 PCOD8101220
Probable space group: C 2/M
;
_chemical_formula_sum "Si O2"
_cell_formula_units_Z 40
_cell_length_a 27.159166
_cell_length_b 9.589159
_cell_length_c 9.307140
_cell_angle_alpha 90.000000
_cell_angle_beta 60.483674
_cell_angle_gamma 90.000000
_cell_volume 2109.307685
_symmetry_space_group_name_H-M "C 2/M"
_symmetry_group_IT_number 12
_symmetry_cell_setting 'monoclinic'
loop_
_space_group_symop_operation_xyz
x,y,z
-x,y,-z
-x,-y,-z
x,-y,z
1/2+x,1/2+y,z
1/2-x,1/2+y,-z
1/2-x,1/2-y,-z
1/2+x,1/2-y,z
loop_
_atom_site_type_symbol
_atom_site_label
_atom_site_fract_x
_atom_site_fract_y
_atom_site_fract_z
Si Si1 0.740801 0.339077 0.155306
Si Si2 0.545905 0.160194 0.054509
Si Si3 0.143988 0.837325 0.507358
Si Si4 0.483754 0.343260 0.359244
Si Si5 0.335576 0.163465 0.248254
O O1 0.748729 0.500000 0.100889
O O2 0.678737 0.310603 0.310487
O O3 0.785832 0.295730 0.211634
O O4 0.750000 0.250000 0.000000
O O5 0.530075 0.249059 0.215530
O O6 0.547159 0.000000 0.100113
O O7 0.500000 0.190241 0.000000
O O8 0.606171 0.209650 0.909899
O O9 0.079862 0.786406 0.572863
O O10 0.172314 0.749423 0.594244
O O11 0.147199 0.000000 0.544397
O O12 0.500000 0.338875 0.500000
O O13 0.487989 0.500000 0.292393
O O14 0.335487 0.000000 0.286981
#
# Coordination Sequence:
#
# PCOD8101220 Si02
#       5
#     8   8   8   8   8
#     4  10  23  40  58  83 113 144 183 230 277 327
#     4  10  20  36  57  83 113 144 182 226 272 326
#     4  10  21  38  58  82 111 145 187 229 272 326
#     4  10  22  37  55  82 115 148 183 226 274 326
#     4  10  21  38  59  83 112 145 184 229 273 325
#
# _framework density 18.963567000000001
#
# number of rings (size 3 to 8) (size 9 to 14) (size 15 to 20)
#    0.000    2.000    2.000    0.600    2.800    3.200 
#    0.000    0.000    0.000    0.000    0.000    0.000 
#    0.000    0.000    0.000    0.000    0.000    0.000 
#
# Total GULP energy -248072.747525 kJ/mol
# GULP energy per Si atom -12403.637376 kJ/mol
# Density = 1.892040 g / cm^3
# Si number density = 18.963567 Si / 1000 Ang^3
#
#
#
# Elastic Constant Matrix: (Units=GPa)
#
#
# Indices 1 2 3 4 5 6 
#
# 1 72.1075 25.9558 27.7337 0.0000 2.8945 0.0000
# 2 25.9558 63.5714 55.5259 0.0000 11.6451 0.0000
# 3 27.7337 55.5259 107.7061 0.0000 5.2405 0.0000
# 4 0.0000 0.0000 0.0000 37.7285 0.0000 8.8318
# 5 2.8945 11.6451 5.2405 0.0000 26.6108 0.0000
# 6 0.0000 0.0000 0.0000 8.8318 0.0000 19.0407
#
#
#
# Elastic Compliance Matrix: (Units=1/GPa)
#
#
# Indices 1 2 3 4 5 6 
#
# 1 0.016396 -0.005721 -0.001320 0.000000 0.000980 0.000000
# 2 -0.005721 0.033333 -0.015177 0.000000 -0.010976 0.000000
# 3 -0.001320 -0.015177 0.017284 0.000000 0.003381 0.000000
# 4 0.000000 0.000000 0.000000 0.029734 0.000000 -0.013792
# 5 0.000980 -0.010976 0.003381 0.000000 0.041609 0.000000
# 6 0.000000 0.000000 0.000000 -0.013792 0.000000 0.058916
#
#
# Mechanical properties :
#
#
# Convention : Reuss Voigt Hill
#
# Bulk Modulus (GPa) = 44.29310 51.31285 47.80297
# Shear Modulus (GPa) = 20.06148 25.62063 22.84105
#
# Velocity S-wave (km/s) = 3.25606 3.67964 3.47431
# Velocity P-wave (km/s) = 6.12728 6.72089 6.43094
#
# Compressibility (1/GPa) = 0.02257688
#
# Stress axis : x y z
#
# Youngs Moduli (GPa) = 60.99102 30.00042 57.85612
#
# Poissons Ratio (x) = 0.17162 0.07639
# Poissons Ratio (y) = 0.34890 0.87809
# Poissons Ratio (z) = 0.08053 0.45532
#
# Static dielectric constant tensor:
#      x y z
#    x 3.635540 0.000000 -0.254800 
#    y 0.000000 3.432430 0.000000 
#    z -0.254800 0.000000 3.481600 
# 
# 
# High freq. dielectric constant tensor:
#      x y z
#    x 1.746580 0.000000 -0.010210 
#    y 0.000000 1.730390 0.000000 
#    z -0.010210 0.000000 1.740610 
# 
# From -- ./inp_files/83470.got.cif
#   From: 2010.06.25/outbox.cif.g09.slc.cpg/sg12_42_cif.got.tgz:83470.got - 2010.06.28 00:19:55.
