data_PCOD8101750
_publ_section_title
;
Structure prediction by ZEFSAII (Michael W. Deem and Ramdas Pophale) SiO2 
 PCOD8101750
Probable space group: C 2/M
;
_chemical_formula_sum "Si O2"
_cell_formula_units_Z 56
_cell_length_a 23.498557
_cell_length_b 8.772181
_cell_length_c 14.669275
_cell_angle_alpha 90.000000
_cell_angle_beta 108.895607
_cell_angle_gamma 90.000000
_cell_volume 2860.876755
_symmetry_space_group_name_H-M "C 2/M"
_symmetry_group_IT_number 12
_symmetry_cell_setting 'monoclinic'
loop_
_space_group_symop_operation_xyz
x,y,z
-x,y,-z
-x,-y,-z
x,-y,z
1/2+x,1/2+y,z
1/2-x,1/2+y,-z
1/2-x,1/2-y,-z
1/2+x,1/2-y,z
loop_
_atom_site_type_symbol
_atom_site_label
_atom_site_fract_x
_atom_site_fract_y
_atom_site_fract_z
Si Si1 0.424964 0.325946 0.284042
Si Si2 0.940005 0.178989 0.677426
Si Si3 0.846112 0.679143 0.758992
Si Si4 0.675568 0.822969 0.883613
Si Si5 0.239701 0.678883 0.592346
Si Si6 0.811808 0.822501 0.921174
Si Si7 0.883391 0.174647 0.457767
O O1 0.409062 0.500000 0.250194
O O2 0.489835 0.279570 0.278591
O O3 0.374587 0.216414 0.216654
O O4 0.428032 0.307607 0.395244
O O5 0.906723 0.269995 0.739719
O O6 0.915725 0.232427 0.566197
O O7 0.928969 0.000000 0.684784
O O8 0.838476 0.500000 0.745312
O O9 0.788614 0.761371 0.687568
O O10 0.849240 0.727414 0.866137
O O11 0.740971 0.782660 0.876515
O O12 0.672347 0.000000 0.907794
O O13 0.663112 0.724828 0.967349
O O14 0.246733 0.500000 0.588625
O O15 0.250000 0.750000 0.500000
O O16 0.174120 0.722174 0.594231
O O17 0.824025 0.000000 0.911622
O O18 0.862464 0.000000 0.458844
#
# Coordination Sequence:
#
# PCOD8101750 Si02
#       7
#     8   8   8   8   8   8   8
#     4  10  21  37  59  86 115 154 198 238 286 343
#     4  10  21  38  58  81 116 158 199 240 283 340
#     4  12  24  38  58  86 119 155 193 237 290 345
#     4  10  21  38  61  90 119 148 186 238 292 342
#     4  12  23  36  55  82 116 152 191 236 286 339
#     4  10  21  39  64  90 117 150 187 234 290 349
#     4  10  20  36  59  85 115 153 197 243 288 340
#
# _framework density 19.57442
#
# number of rings (size 3 to 8) (size 9 to 14) (size 15 to 20)
#    0.000    1.429    1.429    4.714    0.000    6.857 
#    0.000    0.714    0.000    6.857    0.000    0.000 
#    0.000    0.000    0.000    0.000    0.000    0.000 
#
# Total GULP energy -347346.394650 kJ/mol
# GULP energy per Si atom -12405.228380 kJ/mol
# Density = 1.952987 g / cm^3
# Si number density = 19.574420 Si / 1000 Ang^3
#
#
#
# Elastic Constant Matrix: (Units=GPa)
#
#
# Indices 1 2 3 4 5 6 
#
# 1 98.0448 43.9344 41.4400 0.0000 -11.3544 0.0000
# 2 43.9344 99.3938 27.2716 0.0000 -10.4773 0.0000
# 3 41.4400 27.2716 80.5086 0.0000 -14.4843 0.0000
# 4 0.0000 0.0000 0.0000 31.5922 0.0000 -0.8409
# 5 -11.3544 -10.4773 -14.4843 0.0000 29.7824 0.0000
# 6 0.0000 0.0000 0.0000 -0.8409 0.0000 29.8195
#
#
#
# Elastic Compliance Matrix: (Units=1/GPa)
#
#
# Indices 1 2 3 4 5 6 
#
# 1 0.015005 -0.004905 -0.005856 0.000000 0.001147 0.000000
# 2 -0.004905 0.012838 -0.001477 0.000000 0.001928 0.000000
# 3 -0.005856 -0.001477 0.016921 0.000000 0.005477 0.000000
# 4 0.000000 0.000000 0.000000 0.031677 0.000000 0.000893
# 5 0.001147 0.001928 0.005477 0.000000 0.037356 0.000000
# 6 0.000000 0.000000 0.000000 0.000893 0.000000 0.033560
#
#
# Mechanical properties :
#
#
# Convention : Reuss Voigt Hill
#
# Bulk Modulus (GPa) = 49.28967 55.91545 52.60256
# Shear Modulus (GPa) = 27.99621 29.25891 28.62756
#
# Velocity S-wave (km/s) = 3.78596 3.87040 3.82841
# Velocity P-wave (km/s) = 6.65933 6.97143 6.81717
#
# Compressibility (1/GPa) = 0.02028823
#
# Stress axis : x y z
#
# Youngs Moduli (GPa) = 66.64343 77.89608 59.09874
#
# Poissons Ratio (x) = 0.38208 0.34606
# Poissons Ratio (y) = 0.32689 0.08729
# Poissons Ratio (z) = 0.39024 0.11505
#
# Static dielectric constant tensor:
#      x y z
#    x 3.584610 0.000000 -0.119900 
#    y 0.000000 3.498740 0.000000 
#    z -0.119900 0.000000 3.729930 
# 
# 
# High freq. dielectric constant tensor:
#      x y z
#    x 1.760550 0.000000 -0.011480 
#    y 0.000000 1.762920 0.000000 
#    z -0.011480 0.000000 1.760110 
# 
# From -- ./inp_files/237886.got.cif
#   From: 2010.06.25/outbox.cif.g09.slc.cpg/sg12_119_cif.got.tgz:237886.got - 2010.06.28 00:19:55.
