data_PCOD8101872
_publ_section_title
;
Structure prediction by ZEFSAII (Michael W. Deem and Ramdas Pophale) SiO2 
 PCOD8101872
Probable space group: C 2/M
;
_chemical_formula_sum "Si O2"
_cell_formula_units_Z 56
_cell_length_a 20.442594
_cell_length_b 31.855046
_cell_length_c 9.192185
_cell_angle_alpha 90.000000
_cell_angle_beta 152.385905
_cell_angle_gamma 90.000000
_cell_volume 2774.571247
_symmetry_space_group_name_H-M "C 2/M"
_symmetry_group_IT_number 12
_symmetry_cell_setting 'monoclinic'
loop_
_space_group_symop_operation_xyz
x,y,z
-x,y,-z
-x,-y,-z
x,-y,z
1/2+x,1/2+y,z
1/2-x,1/2+y,-z
1/2-x,1/2-y,-z
1/2+x,1/2-y,z
loop_
_atom_site_type_symbol
_atom_site_label
_atom_site_fract_x
_atom_site_fract_y
_atom_site_fract_z
Si Si1 0.356628 0.079576 0.802021
Si Si2 0.398225 0.720873 0.586542
Si Si3 0.845081 0.500000 0.621863
Si Si4 0.285941 0.298461 0.823626
Si Si5 0.344851 0.350781 0.688229
Si Si6 0.653516 0.000000 0.727597
Si Si7 0.662268 0.660539 0.786464
Si Si8 0.645858 0.080609 0.867370
O O1 0.275681 0.042203 0.552845
O O2 0.256259 0.119983 0.604803
O O3 0.500000 0.091059 0.000000
O O4 0.387741 0.067102 0.031232
O O5 0.338154 0.767683 0.470228
O O6 0.359954 0.696820 0.658687
O O7 0.326765 0.692241 0.324313
O O8 0.565091 0.725537 0.892990
O O9 0.844047 0.500000 0.443968
O O10 0.000000 0.500000 0.000000
O O11 0.283255 0.342075 0.726924
O O12 0.258476 0.314258 0.931271
O O13 0.500000 0.372124 0.000000
O O14 0.500000 0.000000 0.500000
O O15 0.722453 0.042520 0.928668
O O16 0.500000 0.648776 0.500000
O O17 0.744750 0.618276 0.914235
O O18 0.500000 0.093399 0.500000
#
# Coordination Sequence:
#
# PCOD8101872 Si02
#       8
#     8   8   4   8   8   4   8   8
#     4  11  22  38  61  89 120 153 196 240 289 344
#     4  10  20  40  54  87 110 157 191 246 291 348
#     4  10  20  36  59  88 121 152 190 236 292 342
#     4  10  22  34  62  79 120 147 199 238 297 342
#     4  10  22  39  59  84 118 159 194 239 294 347
#     4  10  20  36  59  88 121 152 190 236 292 342
#     4  10  22  39  59  84 118 159 194 239 294 347
#     4  11  22  38  61  89 120 153 196 240 289 344
#
# _framework density 20.183298000000001
#
# number of rings (size 3 to 8) (size 9 to 14) (size 15 to 20)
#    0.000    1.714    1.429    4.714    4.000    2.286 
#    0.000    0.714    0.000    0.000    0.000    0.000 
#    0.000    0.000    0.000    0.000    0.000    0.000 
#
# Total GULP energy -347041.981651 kJ/mol
# GULP energy per Si atom -12394.356488 kJ/mol
# Density = 2.013736 g / cm^3
# Si number density = 20.183298 Si / 1000 Ang^3
#
#
#
# Elastic Constant Matrix: (Units=GPa)
#
#
# Indices 1 2 3 4 5 6 
#
# 1 85.9635 33.7607 43.5250 0.0000 -17.6219 0.0000
# 2 33.7607 73.0963 21.3629 0.0000 -5.3873 0.0000
# 3 43.5250 21.3629 59.4662 0.0000 -27.1320 0.0000
# 4 0.0000 0.0000 0.0000 25.9077 0.0000 -1.6184
# 5 -17.6219 -5.3873 -27.1320 0.0000 25.9687 0.0000
# 6 0.0000 0.0000 0.0000 -1.6184 0.0000 26.1719
#
#
#
# Elastic Compliance Matrix: (Units=1/GPa)
#
#
# Indices 1 2 3 4 5 6 
#
# 1 0.020406 -0.005548 -0.013663 0.000000 -0.001579 0.000000
# 2 -0.005548 0.017128 -0.004183 0.000000 -0.004582 0.000000
# 3 -0.013663 -0.004183 0.045276 0.000000 0.037165 0.000000
# 4 0.000000 0.000000 0.000000 0.038748 0.000000 0.002396
# 5 -0.001579 -0.004582 0.037165 0.000000 0.075316 0.000000
# 6 0.000000 0.000000 0.000000 0.002396 0.000000 0.038357
#
#
# Mechanical properties :
#
#
# Convention : Reuss Voigt Hill
#
# Bulk Modulus (GPa) = 27.76046 46.20259 36.98152
# Shear Modulus (GPa) = 17.00530 23.60148 20.30339
#
# Velocity S-wave (km/s) = 2.90581 3.42330 3.17511
# Velocity P-wave (km/s) = 5.00423 6.21019 5.63954
#
# Compressibility (1/GPa) = 0.03602246
#
# Stress axis : x y z
#
# Youngs Moduli (GPa) = 49.00551 58.38459 22.08672
#
# Poissons Ratio (x) = 0.32392 0.30177
# Poissons Ratio (y) = 0.27189 0.09238
# Poissons Ratio (z) = 0.66955 0.24421
#
# Static dielectric constant tensor:
#      x y z
#    x 3.727530 0.000000 -0.299390 
#    y 0.000000 3.949290 0.000000 
#    z -0.299390 0.000000 3.570130 
# 
# 
# High freq. dielectric constant tensor:
#      x y z
#    x 1.794820 0.000000 -0.028540 
#    y 0.000000 1.787760 0.000000 
#    z -0.028540 0.000000 1.775010 
# 
# From -- ./inp_files/91695.got.cif
#   From: 2010.06.25/outbox.cif.g09.slc.cpg/sg12_46_cif.got.tgz:91695.got - 2010.06.28 00:19:55.
