data_PCOD8101620
_publ_section_title
;
Structure prediction by ZEFSAII (Michael W. Deem and Ramdas Pophale) SiO2 
 PCOD8101620
Probable space group: C 2/M
;
_chemical_formula_sum "Si O2"
_cell_formula_units_Z 48
_cell_length_a 23.690487
_cell_length_b 8.685689
_cell_length_c 14.588633
_cell_angle_alpha 90.000000
_cell_angle_beta 50.319542
_cell_angle_gamma 90.000000
_cell_volume 2310.296537
_symmetry_space_group_name_H-M "C 2/M"
_symmetry_group_IT_number 12
_symmetry_cell_setting 'monoclinic'
loop_
_space_group_symop_operation_xyz
x,y,z
-x,y,-z
-x,-y,-z
x,-y,z
1/2+x,1/2+y,z
1/2-x,1/2+y,-z
1/2-x,1/2-y,-z
1/2+x,1/2-y,z
loop_
_atom_site_type_symbol
_atom_site_label
_atom_site_fract_x
_atom_site_fract_y
_atom_site_fract_z
Si Si1 0.044129 0.818987 0.178335
Si Si2 0.508481 0.825734 0.591485
Si Si3 0.890422 0.183131 0.263751
Si Si4 0.828937 0.676074 0.504128
Si Si5 0.785227 0.318444 0.240481
Si Si6 0.295504 0.317145 0.036865
O O1 0.041874 0.767925 0.286210
O O2 0.973054 0.754180 0.196995
O O3 0.040903 0.000000 0.178624
O O4 0.119969 0.759565 0.056481
O O5 0.500000 0.750574 0.500000
O O6 0.592342 0.817728 0.531725
O O7 0.478771 0.000000 0.621411
O O8 0.833526 0.244195 0.399777
O O9 0.863345 0.250524 0.194599
O O10 0.888258 0.000000 0.263624
O O11 0.801093 0.500000 0.522825
O O12 0.776232 0.773057 0.623145
O O13 0.790689 0.500000 0.224788
O O14 0.763642 0.245737 0.165202
O O15 0.289444 0.500000 0.040528
O O16 0.250000 0.250000 0.000000
#
# Coordination Sequence:
#
# PCOD8101620 Si02
#       6
#     8   8   8   8   8   8
#     4   9  21  40  62  87 117 154 197 246 298 353
#     4   9  19  34  56  87 118 154 196 242 297 351
#     4  10  20  39  64  91 122 157 197 248 304 359
#     4  10  20  36  58  89 126 160 197 246 300 357
#     4  12  25  40  60  89 122 162 205 247 298 356
#     4  11  25  45  64  88 120 159 203 248 298 354
#
# _framework density 20.776554000000001
#
# number of rings (size 3 to 8) (size 9 to 14) (size 15 to 20)
#    0.000    1.833    0.000    3.500    2.333    3.667 
#    0.000    3.333    0.000    0.000    0.000    0.000 
#    0.000    0.000    0.000    0.000    0.000    0.000 
#
# Total GULP energy -297646.324050 kJ/mol
# GULP energy per Si atom -12401.930169 kJ/mol
# Density = 2.072927 g / cm^3
# Si number density = 20.776554 Si / 1000 Ang^3
#
#
#
# Elastic Constant Matrix: (Units=GPa)
#
#
# Indices 1 2 3 4 5 6 
#
# 1 93.9931 46.9413 53.2903 0.0000 28.0850 0.0000
# 2 46.9413 64.7433 29.8347 -0.0003 -2.9946 0.0002
# 3 53.2903 29.8347 84.5470 -0.0001 -1.8525 0.0000
# 4 0.0000 -0.0003 -0.0001 32.1756 0.0000 6.2891
# 5 28.0850 -2.9946 -1.8525 0.0000 32.2903 0.0000
# 6 0.0000 0.0002 0.0000 6.2891 0.0000 33.4091
#
#
#
# Elastic Compliance Matrix: (Units=1/GPa)
#
#
# Indices 1 2 3 4 5 6 
#
# 1 0.059075 -0.033076 -0.026790 0.000000 -0.055986 0.000000
# 2 -0.033076 0.037022 0.008500 0.000000 0.032689 0.000000
# 3 -0.026790 0.008500 0.026275 0.000000 0.025597 0.000000
# 4 0.000000 0.000000 0.000000 0.032267 0.000000 -0.006074
# 5 -0.055986 0.032689 0.025597 0.000000 0.084164 0.000000
# 6 0.000000 0.000000 0.000000 -0.006074 0.000000 0.031075
#
#
# Mechanical properties :
#
#
# Convention : Reuss Voigt Hill
#
# Bulk Modulus (GPa) = 50.91706 55.93512 53.42609
# Shear Modulus (GPa) = 13.18718 27.12280 20.15499
#
# Velocity S-wave (km/s) = 2.52209 3.61702 3.11799
# Velocity P-wave (km/s) = 5.74817 6.66517 6.22358
#
# Compressibility (1/GPa) = 0.01963978
#
# Stress axis : x y z
#
# Youngs Moduli (GPa) = 16.92766 27.01105 38.05886
#
# Poissons Ratio (x) = 0.89341 1.01960
# Poissons Ratio (y) = 0.55989 -0.32349
# Poissons Ratio (z) = 0.45349 -0.22959
#
# Static dielectric constant tensor:
#      x y z
#    x 4.110880 0.000000 -0.062810 
#    y 0.000000 3.747570 0.000000 
#    z -0.062810 0.000000 3.826910 
# 
# 
# High freq. dielectric constant tensor:
#      x y z
#    x 1.828430 0.000000 0.000750 
#    y 0.000000 1.811200 0.000000 
#    z 0.000750 0.000000 1.808270 
# 
# From -- ./inp_files/244676.got.cif
#   From: 2010.06.25/outbox.cif.g09.slc.cpg/sg12_123_cif.got.tgz:244676.got - 2010.06.28 00:19:55.
