data_PCOD8101550
_publ_section_title
;
Structure prediction by ZEFSAII (Michael W. Deem and Ramdas Pophale) SiO2 
 PCOD8101550
Probable space group: C 2/M
;
_chemical_formula_sum "Si O2"
_cell_formula_units_Z 60
_cell_length_a 17.679062
_cell_length_b 26.984713
_cell_length_c 9.207184
_cell_angle_alpha 90.000000
_cell_angle_beta 45.758455
_cell_angle_gamma 90.000000
_cell_volume 3146.751127
_symmetry_space_group_name_H-M "C 2/M"
_symmetry_group_IT_number 12
_symmetry_cell_setting 'monoclinic'
loop_
_space_group_symop_operation_xyz
x,y,z
-x,y,-z
-x,-y,-z
x,-y,z
1/2+x,1/2+y,z
1/2-x,1/2+y,-z
1/2-x,1/2-y,-z
1/2+x,1/2-y,z
loop_
_atom_site_type_symbol
_atom_site_label
_atom_site_fract_x
_atom_site_fract_y
_atom_site_fract_z
Si Si1 0.367487 0.756571 0.387106
Si Si2 0.358124 0.320733 0.628131
Si Si3 0.430387 0.869870 0.291039
Si Si4 0.288267 0.556858 0.933465
Si Si5 0.951442 0.139105 0.776275
Si Si6 0.115773 0.555220 0.409101
Si Si7 0.840752 0.619082 0.104741
Si Si8 0.000000 0.810385 0.000000
O O1 0.250000 0.750000 0.500000
O O2 0.384061 0.732800 0.524675
O O3 0.402237 0.812862 0.347619
O O4 0.424507 0.725975 0.186312
O O5 0.426597 0.361908 0.443647
O O6 0.391585 0.320776 0.752729
O O7 0.233042 0.332085 0.784518
O O8 0.370859 0.902541 0.489405
O O9 0.387000 0.893079 0.200212
O O10 0.557629 0.872895 0.134846
O O11 0.319943 0.500000 0.871455
O O12 0.204085 0.565760 0.172064
O O13 0.395691 0.586051 0.827887
O O14 0.233579 0.575444 0.857752
O O15 0.941618 0.154772 0.958631
O O16 0.131468 0.500000 0.454564
O O17 0.000000 0.559274 0.500000
#
# Coordination Sequence:
#
# PCOD8101550 Si02
#       8
#     8   8   8   8   8   8   8   4
#     4  11  22  37  59  85 123 157 198 242 290 344
#     4   9  19  40  58  82 121 160 190 241 297 351
#     4  11  22  36  59  89 117 155 203 239 286 356
#     4  10  21  39  62  88 116 151 198 250 301 354
#     4   9  20  38  63  81 113 162 196 237 301 358
#     4  10  21  39  57  80 116 152 190 241 295 343
#     4  10  20  36  58  85 120 151 192 244 295 348
#     4  10  22  40  59  84 117 160 194 242 296 346
#
# _framework density 19.067284000000001
#
# number of rings (size 3 to 8) (size 9 to 14) (size 15 to 20)
#    0.000    2.000    2.667    0.800    1.867    0.533 
#    4.800    7.667    0.000    0.000    0.000    0.000 
#    0.000    0.000    0.000    0.000    0.000    0.000 
#
# Total GULP energy -371793.363380 kJ/mol
# GULP energy per Si atom -12393.112113 kJ/mol
# Density = 1.902389 g / cm^3
# Si number density = 19.067284 Si / 1000 Ang^3
#
#
#
# Elastic Constant Matrix: (Units=GPa)
#
#
# Indices 1 2 3 4 5 6 
#
# 1 95.6741 54.9650 38.2545 0.0000 7.1090 0.0000
# 2 54.9650 137.1483 47.8422 0.0000 12.3929 0.0000
# 3 38.2545 47.8422 65.5912 0.0000 10.7322 0.0000
# 4 0.0000 0.0000 0.0000 26.5272 0.0000 4.2052
# 5 7.1090 12.3929 10.7322 0.0000 36.8698 0.0000
# 6 0.0000 0.0000 0.0000 4.2052 0.0000 14.7446
#
#
#
# Elastic Compliance Matrix: (Units=1/GPa)
#
#
# Indices 1 2 3 4 5 6 
#
# 1 0.015106 -0.004005 -0.005915 0.000000 0.000155 0.000000
# 2 -0.004005 0.010899 -0.005398 0.000000 -0.001320 0.000000
# 3 -0.005915 -0.005398 0.023257 0.000000 -0.003815 0.000000
# 4 0.000000 0.000000 0.000000 0.039482 0.000000 -0.011260
# 5 0.000155 -0.001320 -0.003815 0.000000 0.028647 0.000000
# 6 0.000000 0.000000 0.000000 -0.011260 0.000000 0.071033
#
#
# Mechanical properties :
#
#
# Convention : Reuss Voigt Hill
#
# Bulk Modulus (GPa) = 53.68464 64.50411 59.09438
# Shear Modulus (GPa) = 22.19584 26.11845 24.15715
#
# Velocity S-wave (km/s) = 3.41556 3.70510 3.56327
# Velocity P-wave (km/s) = 6.61598 7.22543 6.92741
#
# Compressibility (1/GPa) = 0.01862730
#
# Stress axis : x y z
#
# Youngs Moduli (GPa) = 66.19707 91.75466 42.99821
#
# Poissons Ratio (x) = 0.36748 0.25432
# Poissons Ratio (y) = 0.26512 0.23209
# Poissons Ratio (z) = 0.39153 0.49526
#
# Static dielectric constant tensor:
#      x y z
#    x 3.585390 0.000000 -0.070590 
#    y 0.000000 5.282930 0.000000 
#    z -0.070590 0.000000 3.726350 
# 
# 
# High freq. dielectric constant tensor:
#      x y z
#    x 1.744230 0.000000 -0.005100 
#    y 0.000000 1.724710 0.000000 
#    z -0.005100 0.000000 1.750990 
# 
# From -- ./inp_files/79866.got.cif
#   From: 2010.06.25/outbox.cif.g09.slc.cpg/sg12_40_cif.got.tgz:79866.got - 2010.06.28 00:19:55.
