data_PCOD8101253
_publ_section_title
;
Structure prediction by ZEFSAII (Michael W. Deem and Ramdas Pophale) SiO2 
 PCOD8101253
Probable space group: C 2/M
;
_chemical_formula_sum "Si O2"
_cell_formula_units_Z 48
_cell_length_a 12.466854
_cell_length_b 19.026957
_cell_length_c 12.643533
_cell_angle_alpha 90.000000
_cell_angle_beta 58.624059
_cell_angle_gamma 90.000000
_cell_volume 2560.561975
_symmetry_space_group_name_H-M "C 2/M"
_symmetry_group_IT_number 12
_symmetry_cell_setting 'monoclinic'
loop_
_space_group_symop_operation_xyz
x,y,z
-x,y,-z
-x,-y,-z
x,-y,z
1/2+x,1/2+y,z
1/2-x,1/2+y,-z
1/2-x,1/2-y,-z
1/2+x,1/2-y,z
loop_
_atom_site_type_symbol
_atom_site_label
_atom_site_fract_x
_atom_site_fract_y
_atom_site_fract_z
Si Si1 0.377264 0.685464 0.833784
Si Si2 0.018338 0.421738 0.757800
Si Si3 0.774338 0.339028 0.889412
Si Si4 0.832612 0.821620 0.278433
Si Si5 0.231700 0.579746 0.501179
Si Si6 0.761345 0.335664 0.307178
O O1 0.353924 0.767930 0.859050
O O2 0.523977 0.670111 0.761642
O O3 0.326650 0.656153 0.749025
O O4 0.307079 0.645146 0.964690
O O5 0.026086 0.500000 0.801932
O O6 0.873628 0.401111 0.823059
O O7 0.082608 0.420324 0.607350
O O8 0.100734 0.369365 0.790432
O O9 0.679206 0.335852 0.840172
O O10 0.751375 0.879608 0.381813
O O11 0.778346 0.744997 0.333695
O O12 0.283652 0.500000 0.465445
O O13 0.301426 0.621480 0.562389
#
# Coordination Sequence:
#
# PCOD8101253 Si02
#       6
#     8   8   8   8   8   8
#     4  10  20  36  57  84 116 147 187 236 277 332
#     4   9  19  39  58  82 114 145 192 236 278 327
#     4  10  21  35  57  85 114 150 187 230 284 332
#     4  11  20  35  59  86 115 148 187 233 281 341
#     4   9  20  38  57  81 112 147 186 235 287 331
#     4   9  19  36  58  85 110 146 194 233 278 329
#
# _framework density 18.745885000000001
#
# number of rings (size 3 to 8) (size 9 to 14) (size 15 to 20)
#    1.000    1.333    1.667    1.000    0.000    2.667 
#    0.000   10.833    0.000    2.000    0.000    0.000 
#    0.000    0.000    0.000    0.000    0.000    0.000 
#
# Total GULP energy -297459.141491 kJ/mol
# GULP energy per Si atom -12394.130895 kJ/mol
# Density = 1.870322 g / cm^3
# Si number density = 18.745885 Si / 1000 Ang^3
#
#
#
# Elastic Constant Matrix: (Units=GPa)
#
#
# Indices 1 2 3 4 5 6 
#
# 1 101.4173 39.1248 31.1169 0.0000 1.3105 0.0000
# 2 39.1248 119.6753 48.9191 0.0000 5.4187 0.0000
# 3 31.1169 48.9191 90.3019 0.0000 0.5208 0.0000
# 4 0.0000 0.0000 0.0000 16.4940 0.0000 -9.7984
# 5 1.3105 5.4187 0.5208 0.0000 19.7992 0.0000
# 6 0.0000 0.0000 0.0000 -9.7984 0.0000 17.1400
#
#
#
# Elastic Compliance Matrix: (Units=1/GPa)
#
#
# Indices 1 2 3 4 5 6 
#
# 1 0.011713 -0.002803 -0.002518 0.000000 0.000058 0.000000
# 2 -0.002803 0.011559 -0.005280 0.000000 -0.002839 0.000000
# 3 -0.002518 -0.005280 0.014795 0.000000 0.001222 0.000000
# 4 0.000000 0.000000 0.000000 0.091806 0.000000 0.052483
# 5 0.000058 -0.002839 0.001222 0.000000 0.051248 0.000000
# 6 0.000000 0.000000 0.000000 0.052483 0.000000 0.088346
#
#
# Mechanical properties :
#
#
# Convention : Reuss Voigt Hill
#
# Bulk Modulus (GPa) = 59.29138 61.07956 60.18547
# Shear Modulus (GPa) = 16.87534 23.50222 20.18878
#
# Velocity S-wave (km/s) = 3.00361 3.54464 3.28528
# Velocity P-wave (km/s) = 6.61261 7.02896 6.82396
#
# Compressibility (1/GPa) = 0.01686586
#
# Stress axis : x y z
#
# Youngs Moduli (GPa) = 85.37248 86.51373 67.59116
#
# Poissons Ratio (x) = 0.24246 0.17022
# Poissons Ratio (y) = 0.23926 0.35686
# Poissons Ratio (z) = 0.21500 0.45676
#
# Static dielectric constant tensor:
#      x y z
#    x 3.181230 0.000000 0.027380 
#    y 0.000000 3.373570 0.000000 
#    z 0.027380 0.000000 3.298540 
# 
# 
# High freq. dielectric constant tensor:
#      x y z
#    x 1.713340 0.000000 0.002230 
#    y 0.000000 1.723080 0.000000 
#    z 0.002230 0.000000 1.717620 
# 
# From -- ./inp_files/131633.got.cif
#   From: 2010.06.25/outbox.cif.g09.slc.cpg/sg12_66_cif.got.tgz:131633.got - 2010.06.28 00:19:55.
