data_PCOD8101291
_publ_section_title
;
Structure prediction by ZEFSAII (Michael W. Deem and Ramdas Pophale) SiO2 
 PCOD8101291
Probable space group: C 2/M
;
_chemical_formula_sum "Si O2"
_cell_formula_units_Z 56
_cell_length_a 16.207751
_cell_length_b 24.544159
_cell_length_c 15.394396
_cell_angle_alpha 90.000000
_cell_angle_beta 28.182992
_cell_angle_gamma 90.000000
_cell_volume 2892.287886
_symmetry_space_group_name_H-M "C 2/M"
_symmetry_group_IT_number 12
_symmetry_cell_setting 'monoclinic'
loop_
_space_group_symop_operation_xyz
x,y,z
-x,y,-z
-x,-y,-z
x,-y,z
1/2+x,1/2+y,z
1/2-x,1/2+y,-z
1/2-x,1/2-y,-z
1/2+x,1/2-y,z
loop_
_atom_site_type_symbol
_atom_site_label
_atom_site_fract_x
_atom_site_fract_y
_atom_site_fract_z
Si Si1 0.779119 0.097379 0.524383
Si Si2 0.657081 0.561521 0.200161
Si Si3 0.904672 0.561990 0.811687
Si Si4 0.258308 0.197614 0.549921
Si Si5 0.688268 0.740061 0.797926
Si Si6 0.202230 0.360905 0.786105
Si Si7 0.086668 0.347924 0.327733
O O1 0.611969 0.066725 0.638432
O O2 0.836542 0.148642 0.411870
O O3 0.721702 0.114934 0.672894
O O4 0.952504 0.060371 0.363521
O O5 0.708032 0.500000 0.181476
O O6 0.681765 0.603174 0.256380
O O7 0.784193 0.580399 0.004171
O O8 0.862490 0.500000 0.825943
O O9 0.845000 0.597868 0.783521
O O10 0.250000 0.250000 0.500000
O O11 0.169562 0.210437 0.723441
O O12 0.457820 0.181089 0.380116
O O13 0.783711 0.799176 0.708934
O O14 0.766747 0.697586 0.793427
O O15 0.500000 0.757673 0.000000
O O16 0.000000 0.364522 0.000000
O O17 0.000000 0.364227 0.500000
#
# Coordination Sequence:
#
# PCOD8101291 Si02
#       7
#     8   8   8   8   8   8   8
#     4  11  22  38  62  87 119 154 197 242 294 352
#     4  11  25  39  60  88 116 158 203 241 295 349
#     4  10  22  42  62  84 119 154 196 253 292 342
#     4  10  20  36  57  87 116 153 191 236 293 345
#     4  10  22  37  59  88 122 154 191 239 291 354
#     4  11  22  39  57  85 121 161 197 235 296 351
#     4   9  21  38  59  86 117 153 196 236 296 352
#
# _framework density 19.361836
#
# number of rings (size 3 to 8) (size 9 to 14) (size 15 to 20)
#    0.000    1.714    2.857    0.857    4.000    3.429 
#    0.000    1.429    0.000    0.429    0.000    0.000 
#    0.000    0.000    0.000    0.000    0.000    0.000 
#
# Total GULP energy -347096.824648 kJ/mol
# GULP energy per Si atom -12396.315166 kJ/mol
# Density = 1.931777 g / cm^3
# Si number density = 19.361836 Si / 1000 Ang^3
#
#
#
# Elastic Constant Matrix: (Units=GPa)
#
#
# Indices 1 2 3 4 5 6 
#
# 1 82.6061 45.7541 13.9204 0.2602 8.6793 0.0207
# 2 45.7541 113.1275 19.9808 0.1568 19.2541 0.0464
# 3 13.9204 19.9808 67.8255 1.0685 -1.5932 0.0643
# 4 0.2602 0.1568 1.0685 17.9645 -0.2877 -2.4671
# 5 8.6793 19.2541 -1.5932 -0.2877 22.5015 -0.0173
# 6 0.0207 0.0464 0.0643 -2.4671 -0.0173 31.6318
#
#
#
# Elastic Compliance Matrix: (Units=1/GPa)
#
#
# Indices 1 2 3 4 5 6 
#
# 1 0.015755 -0.005912 -0.001517 -0.000105 -0.001127 -0.000007
# 2 -0.005912 0.013339 -0.002935 -0.000008 -0.009342 -0.000015
# 3 -0.001517 -0.002935 0.016032 -0.000851 0.004221 -0.000091
# 4 -0.000105 -0.000008 -0.000851 0.056333 0.000711 0.004396
# 5 -0.001127 -0.009342 0.004221 0.000711 0.053178 0.000090
# 6 -0.000007 -0.000015 -0.000091 0.004396 0.000090 0.031957
#
#
# Mechanical properties :
#
#
# Convention : Reuss Voigt Hill
#
# Bulk Modulus (GPa) = 40.98746 46.98552 43.98649
# Shear Modulus (GPa) = 23.20680 26.67981 24.94330
#
# Velocity S-wave (km/s) = 3.46581 3.71611 3.59314
# Velocity P-wave (km/s) = 6.10172 6.53700 6.32311
#
# Compressibility (1/GPa) = 0.02439771
#
# Stress axis : x y z
#
# Youngs Moduli (GPa) = 63.47372 74.96739 62.37371
#
# Poissons Ratio (x) = 0.44322 0.09460
# Poissons Ratio (y) = 0.37526 0.18310
# Poissons Ratio (z) = 0.09626 0.22007
#
# Static dielectric constant tensor:
#      x y z
#    x 3.865820 -0.000480 0.277930 
#    y -0.000480 3.708990 0.000490 
#    z 0.277930 0.000490 3.635650 
# 
# 
# High freq. dielectric constant tensor:
#      x y z
#    x 1.751010 -0.000020 0.006200 
#    y -0.000020 1.764170 0.000050 
#    z 0.006200 0.000050 1.749950 
# 
# From -- ./inp_files/65461.got.cif
#   From: 2010.06.25/outbox.cif.g09.slc.cpg/sg12_33_cif.got.tgz:65461.got - 2010.06.28 00:19:55.
