data_PCOD8101576
_publ_section_title
;
Structure prediction by ZEFSAII (Michael W. Deem and Ramdas Pophale) SiO2 
 PCOD8101576
Probable space group: C 2/M
;
_chemical_formula_sum "Si O2"
_cell_formula_units_Z 48
_cell_length_a 18.047696
_cell_length_b 14.125209
_cell_length_c 15.492234
_cell_angle_alpha 90.000000
_cell_angle_beta 141.005230
_cell_angle_gamma 90.000000
_cell_volume 2485.155350
_symmetry_space_group_name_H-M "C 2/M"
_symmetry_group_IT_number 12
_symmetry_cell_setting 'monoclinic'
loop_
_space_group_symop_operation_xyz
x,y,z
-x,y,-z
-x,-y,-z
x,-y,z
1/2+x,1/2+y,z
1/2-x,1/2+y,-z
1/2-x,1/2-y,-z
1/2+x,1/2-y,z
loop_
_atom_site_type_symbol
_atom_site_label
_atom_site_fract_x
_atom_site_fract_y
_atom_site_fract_z
Si Si1 0.556567 0.103432 0.642799
Si Si2 0.708640 0.712907 0.769984
Si Si3 0.560716 0.108080 0.293003
Si Si4 0.465220 0.609906 0.265500
Si Si5 0.871912 0.254826 0.058396
Si Si6 0.702650 0.387705 0.581194
O O1 0.500000 0.098103 0.500000
O O2 0.651994 0.184490 0.729429
O O3 0.451820 0.125698 0.615851
O O4 0.613598 0.000000 0.717014
O O5 0.639717 0.635464 0.764296
O O6 0.709367 0.674403 0.673960
O O7 0.839491 0.733615 0.927350
O O8 0.447640 0.152955 0.145752
O O9 0.686626 0.146593 0.375394
O O10 0.554633 0.000000 0.260512
O O11 0.462492 0.500000 0.240805
O O12 0.450209 0.664531 0.160096
O O13 0.586823 0.639371 0.422148
O O14 0.750000 0.250000 0.000000
O O15 0.702923 0.500000 0.603429
#
# Coordination Sequence:
#
# PCOD8101576 Si02
#       6
#     8   8   8   8   8   8
#     4  10  20  36  59  86 115 151 199 245 283 340
#     4  11  21  37  57  89 121 154 200 239 297 354
#     4  10  21  39  61  87 117 150 197 246 296 346
#     4  10  20  36  58  86 119 157 201 244 294 355
#     4  10  21  36  54  85 117 155 197 231 294 352
#     4  10  22  38  62  91 119 152 192 252 307 347
#
# _framework density 19.314686999999999
#
# number of rings (size 3 to 8) (size 9 to 14) (size 15 to 20)
#    0.000    1.833    3.333    2.000    0.000    6.667 
#    0.000    1.667    0.000    0.000    0.000    2.333 
#    0.000    0.000    0.000    0.000    0.000    0.000 
#
# Total GULP energy -297379.489353 kJ/mol
# GULP energy per Si atom -12390.812056 kJ/mol
# Density = 1.927073 g / cm^3
# Si number density = 19.314687 Si / 1000 Ang^3
#
#
#
# Elastic Constant Matrix: (Units=GPa)
#
#
# Indices 1 2 3 4 5 6 
#
# 1 91.8409 37.9892 56.0595 0.0000 4.2722 0.0000
# 2 37.9892 71.4335 51.5704 0.0000 -2.5735 0.0000
# 3 56.0595 51.5704 153.9269 0.0000 -3.4655 0.0000
# 4 0.0000 0.0000 0.0000 33.4486 0.0000 11.2264
# 5 4.2722 -2.5735 -3.4655 0.0000 16.7278 0.0000
# 6 0.0000 0.0000 0.0000 11.2264 0.0000 22.3190
#
#
#
# Elastic Compliance Matrix: (Units=1/GPa)
#
#
# Indices 1 2 3 4 5 6 
#
# 1 0.016021 -0.005834 -0.004011 0.000000 -0.005820 0.000000
# 2 -0.005834 0.020631 -0.004704 0.000000 0.003689 0.000000
# 3 -0.004011 -0.004704 0.009585 0.000000 0.002286 0.000000
# 4 0.000000 0.000000 0.000000 0.035969 0.000000 -0.018092
# 5 -0.005820 0.003689 0.002286 0.000000 0.062309 0.000000
# 6 0.000000 0.000000 0.000000 -0.018092 0.000000 0.053905
#
#
# Mechanical properties :
#
#
# Convention : Reuss Voigt Hill
#
# Bulk Modulus (GPa) = 58.35047 67.60438 62.97743
# Shear Modulus (GPa) = 21.43804 25.93786 23.68795
#
# Velocity S-wave (km/s) = 3.33518 3.66855 3.50583
# Velocity P-wave (km/s) = 6.71619 7.28161 7.00461
#
# Compressibility (1/GPa) = 0.01713782
#
# Stress axis : x y z
#
# Youngs Moduli (GPa) = 62.41942 48.47175 104.33002
#
# Poissons Ratio (x) = 0.28278 0.41848
# Poissons Ratio (y) = 0.36414 0.49079
# Poissons Ratio (z) = 0.25037 0.22802
#
# Static dielectric constant tensor:
#      x y z
#    x 3.418520 0.000000 0.015920 
#    y 0.000000 4.263710 0.000000 
#    z 0.015920 0.000000 3.789400 
# 
# 
# High freq. dielectric constant tensor:
#      x y z
#    x 1.727370 0.000000 -0.005000 
#    y 0.000000 1.764920 0.000000 
#    z -0.005000 0.000000 1.759040 
# 
# From -- ./inp_files/166543.got.cif
#   From: 2010.06.25/outbox.cif.g09.slc.cpg/sg12_84_cif.got.tgz:166543.got - 2010.06.28 00:19:55.
