data_PCOD8101067
_publ_section_title
;
Structure prediction by ZEFSAII (Michael W. Deem and Ramdas Pophale) SiO2 
 PCOD8101067
Probable space group: C 2/M
;
_chemical_formula_sum "Si O2"
_cell_formula_units_Z 56
_cell_length_a 16.408366
_cell_length_b 17.782880
_cell_length_c 11.678547
_cell_angle_alpha 90.000000
_cell_angle_beta 54.857945
_cell_angle_gamma 90.000000
_cell_volume 2786.537032
_symmetry_space_group_name_H-M "C 2/M"
_symmetry_group_IT_number 12
_symmetry_cell_setting 'monoclinic'
loop_
_space_group_symop_operation_xyz
x,y,z
-x,y,-z
-x,-y,-z
x,-y,z
1/2+x,1/2+y,z
1/2-x,1/2+y,-z
1/2-x,1/2-y,-z
1/2+x,1/2-y,z
loop_
_atom_site_type_symbol
_atom_site_label
_atom_site_fract_x
_atom_site_fract_y
_atom_site_fract_z
Si Si1 0.606945 0.344421 0.955619
Si Si2 0.760902 0.584455 0.990644
Si Si3 0.427148 0.207605 0.861945
Si Si4 0.352155 0.833649 0.347491
Si Si5 0.248783 0.809836 0.651903
Si Si6 0.790242 0.083087 0.706400
Si Si7 0.409146 0.719825 0.645778
O O1 0.655029 0.392681 0.019685
O O2 0.676445 0.359898 0.788452
O O3 0.500000 0.375106 0.000000
O O4 0.595716 0.255366 0.003289
O O5 0.790796 0.500000 0.924778
O O6 0.843958 0.646683 0.894457
O O7 0.754095 0.584393 0.131749
O O8 0.530678 0.161171 0.776683
O O9 0.431652 0.272163 0.761359
O O10 0.319096 0.855737 0.505229
O O11 0.322211 0.746658 0.360176
O O12 0.296237 0.889133 0.307635
O O13 0.311898 0.766681 0.695609
O O14 0.889286 0.133960 0.623543
O O15 0.822645 0.000000 0.642095
O O16 0.500000 0.752681 0.500000
#
# Coordination Sequence:
#
# PCOD8101067 Si02
#       7
#     8   8   8   8   8   8   8
#     4  12  23  38  67  93 121 157 209 262 309 364
#     4  11  25  42  61  89 129 168 203 252 312 373
#     4  12  21  37  66  97 120 159 210 259 307 367
#     4  10  21  36  61  90 125 158 201 255 313 354
#     4  10  20  36  56  93 124 150 200 261 308 356
#     4  10  23  41  59  86 132 171 203 249 307 376
#     4  11  20  35  65  93 121 162 207 262 308 356
#
# _framework density 20.096627000000002
#
# number of rings (size 3 to 8) (size 9 to 14) (size 15 to 20)
#    0.000    1.143    5.714    2.143    0.000    1.143 
#    0.000    2.143    0.000    1.286    0.000    0.000 
#    0.000    0.000    0.000    0.000    0.000    0.000 
#
# Total GULP energy -347019.530217 kJ/mol
# GULP energy per Si atom -12393.554651 kJ/mol
# Density = 2.005089 g / cm^3
# Si number density = 20.096627 Si / 1000 Ang^3
#
#
#
# Elastic Constant Matrix: (Units=GPa)
#
#
# Indices 1 2 3 4 5 6 
#
# 1 97.0138 37.5834 27.3186 0.0000 -2.7602 0.0000
# 2 37.5834 73.9068 16.0247 0.0000 4.0553 0.0000
# 3 27.3186 16.0247 96.9186 0.0000 1.8326 0.0000
# 4 0.0000 0.0000 0.0000 12.0388 0.0000 4.3897
# 5 -2.7602 4.0553 1.8326 0.0000 33.8015 0.0000
# 6 0.0000 0.0000 0.0000 4.3897 0.0000 16.5035
#
#
#
# Elastic Compliance Matrix: (Units=1/GPa)
#
#
# Indices 1 2 3 4 5 6 
#
# 1 0.013658 -0.006445 -0.002823 0.000000 0.002042 0.000000
# 2 -0.006445 0.017158 -0.000972 0.000000 -0.002532 0.000000
# 3 -0.002823 -0.000972 0.011288 0.000000 -0.000726 0.000000
# 4 0.000000 0.000000 0.000000 0.091986 0.000000 -0.024467
# 5 0.002042 -0.002532 -0.000726 0.000000 0.030094 0.000000
# 6 0.000000 0.000000 0.000000 -0.024467 0.000000 0.067101
#
#
# Mechanical properties :
#
#
# Convention : Reuss Voigt Hill
#
# Bulk Modulus (GPa) = 46.24665 47.74362 46.99513
# Shear Modulus (GPa) = 19.30700 24.92958 22.11829
#
# Velocity S-wave (km/s) = 3.10289 3.52587 3.32112
# Velocity P-wave (km/s) = 5.99161 6.35487 6.17591
#
# Compressibility (1/GPa) = 0.02162319
#
# Stress axis : x y z
#
# Youngs Moduli (GPa) = 73.21902 58.28220 88.58930
#
# Poissons Ratio (x) = 0.37564 0.25005
# Poissons Ratio (y) = 0.47192 0.08614
# Poissons Ratio (z) = 0.20667 0.05667
#
# Static dielectric constant tensor:
#      x y z
#    x 3.760040 0.000000 0.071380 
#    y 0.000000 3.515530 0.000000 
#    z 0.071380 0.000000 3.746350 
# 
# 
# High freq. dielectric constant tensor:
#      x y z
#    x 1.798120 0.000000 0.006010 
#    y 0.000000 1.740640 0.000000 
#    z 0.006010 0.000000 1.789420 
# 
# From -- ./inp_files/158184.got.cif
#   From: 2010.06.25/outbox.cif.g09.slc.cpg/sg12_80_cif.got.tgz:158184.got - 2010.06.28 00:19:55.
