data_PCOD8101582
_publ_section_title
;
Structure prediction by ZEFSAII (Michael W. Deem and Ramdas Pophale) SiO2 
 PCOD8101582
Probable space group: C 2/M
;
_chemical_formula_sum "Si O2"
_cell_formula_units_Z 64
_cell_length_a 8.791766
_cell_length_b 28.622173
_cell_length_c 14.745279
_cell_angle_alpha 90.000000
_cell_angle_beta 56.623131
_cell_angle_gamma 90.000000
_cell_volume 3098.522222
_symmetry_space_group_name_H-M "C 2/M"
_symmetry_group_IT_number 12
_symmetry_cell_setting 'monoclinic'
loop_
_space_group_symop_operation_xyz
x,y,z
-x,y,-z
-x,-y,-z
x,-y,z
1/2+x,1/2+y,z
1/2-x,1/2+y,-z
1/2-x,1/2-y,-z
1/2+x,1/2-y,z
loop_
_atom_site_type_symbol
_atom_site_label
_atom_site_fract_x
_atom_site_fract_y
_atom_site_fract_z
Si Si1 0.808837 0.764665 0.080278
Si Si2 0.449915 0.810698 0.178250
Si Si3 0.259119 0.050858 0.127397
Si Si4 0.242049 0.552245 0.571572
Si Si5 0.616418 0.355225 0.382123
Si Si6 0.108460 0.592298 0.084726
Si Si7 0.413497 0.416801 0.332723
Si Si8 0.323599 0.054147 0.747899
O O1 0.626967 0.790941 0.176376
O O2 0.860576 0.722850 0.131979
O O3 0.750000 0.750000 0.000000
O O4 0.000000 0.793603 0.000000
O O5 0.291972 0.824019 0.301993
O O6 0.525497 0.856197 0.104272
O O7 0.440483 0.056855 0.127921
O O8 0.092416 0.054090 0.250051
O O9 0.261870 0.000000 0.081709
O O10 0.251466 0.087171 0.045463
O O11 0.299811 0.500000 0.585462
O O12 0.334043 0.591741 0.603391
O O13 0.298844 0.558064 0.448569
O O14 0.027830 0.558182 0.647156
O O15 0.500000 0.329959 0.500000
O O16 0.482316 0.364432 0.340017
O O17 0.207251 0.579320 0.145629
O O18 0.291940 0.414231 0.282916
O O19 0.257819 0.000000 0.772075
#
# Coordination Sequence:
#
# PCOD8101582 Si02
#       8
#     8   8   8   8   8   8   8   8
#     4   9  22  40  72  96 121 152 190 255 320 397
#     4  11  21  46  64  97 122 156 204 259 327 386
#     4  11  22  37  57  85 121 173 217 252 301 363
#     4  10  20  36  58  86 124 175 222 261 305 354
#     4  10  22  40  65  93 128 167 217 265 304 373
#     4  11  23  38  60  84 121 164 204 257 304 379
#     4  11  22  35  55  87 124 176 215 268 299 353
#     4  11  21  36  54  84 126 169 213 261 310 352
#
# _framework density 20.655007999999999
#
# number of rings (size 3 to 8) (size 9 to 14) (size 15 to 20)
#    0.000    1.500    2.500    3.000    5.250    5.750 
#    6.750    1.875    0.000    0.000    0.000    0.000 
#    0.000    0.000    0.000    0.000    0.000    0.000 
#
# Total GULP energy -396448.778385 kJ/mol
# GULP energy per Si atom -12389.024325 kJ/mol
# Density = 2.060800 g / cm^3
# Si number density = 20.655008 Si / 1000 Ang^3
#
#
#
# Elastic Constant Matrix: (Units=GPa)
#
#
# Indices 1 2 3 4 5 6 
#
# 1 110.2552 24.9355 54.5157 0.0000 8.1582 0.0000
# 2 24.9355 68.3902 55.0038 0.0000 -5.4622 0.0000
# 3 54.5157 55.0038 100.2286 0.0000 5.9371 0.0000
# 4 0.0000 0.0000 0.0000 1.2654 0.0000 5.9163
# 5 8.1582 -5.4622 5.9371 0.0000 30.9252 0.0000
# 6 0.0000 0.0000 0.0000 5.9163 0.0000 21.5513
#
#
#
# Elastic Compliance Matrix: (Units=1/GPa)
#
#
# Indices 1 2 3 4 5 6 
#
# 1 0.012586 0.001260 -0.007439 0.000000 -0.001670 0.000000
# 2 0.001260 0.028123 -0.016582 0.000000 0.007818 0.000000
# 3 -0.007439 -0.016582 0.023447 0.000000 -0.005468 0.000000
# 4 0.000000 0.000000 0.000000 -2.787416 0.000000 0.765207
# 5 -0.001670 0.007818 -0.005468 0.000000 0.035207 0.000000
# 6 0.000000 0.000000 0.000000 0.765207 0.000000 -0.163665
#
#
# Mechanical properties :
#
#
# Convention : Reuss Voigt Hill
#
# Bulk Modulus (GPa) = 53.66061 60.86489 57.26275
# Shear Modulus (GPa) = -1.78572 20.37632 9.29530
#
# Velocity S-wave (km/s) = -0.93082 3.14428 2.12368
# Velocity P-wave (km/s) = 4.98805 6.53554 5.81352
#
# Compressibility (1/GPa) = 0.01863564
#
# Stress axis : x y z
#
# Youngs Moduli (GPa) = 79.45073 35.55752 42.64927
#
# Poissons Ratio (x) = -0.04481 0.31725
# Poissons Ratio (y) = -0.10012 0.70722
# Poissons Ratio (z) = 0.59100 0.58962
#
# Static dielectric constant tensor:
#      x y z
#    x 4.223290 0.000000 -0.357980 
#    y 0.000000 3.725090 0.000000 
#    z -0.357980 0.000000 4.103320 
# 
# 
# High freq. dielectric constant tensor:
#      x y z
#    x 1.813740 0.000000 -0.009980 
#    y 0.000000 1.767630 0.000000 
#    z -0.009980 0.000000 1.823280 
# 
# From -- ./inp_files/200915.got.cif
#   From: 2010.06.25/outbox.cif.g09.slc.cpg/sg12_101_cif.got.tgz:200915.got - 2010.06.28 00:19:55.
