data_PCOD8101022
_publ_section_title
;
Structure prediction by ZEFSAII (Michael W. Deem and Ramdas Pophale) SiO2 
 PCOD8101022
Probable space group: C 2/M
;
_chemical_formula_sum "Si O2"
_cell_formula_units_Z 48
_cell_length_a 30.703921
_cell_length_b 8.667255
_cell_length_c 9.302348
_cell_angle_alpha 90.000000
_cell_angle_beta 90.506021
_cell_angle_gamma 90.000000
_cell_volume 2475.432331
_symmetry_space_group_name_H-M "C 2/M"
_symmetry_group_IT_number 12
_symmetry_cell_setting 'monoclinic'
loop_
_space_group_symop_operation_xyz
x,y,z
-x,y,-z
-x,-y,-z
x,-y,z
1/2+x,1/2+y,z
1/2-x,1/2+y,-z
1/2-x,1/2-y,-z
1/2+x,1/2-y,z
loop_
_atom_site_type_symbol
_atom_site_label
_atom_site_fract_x
_atom_site_fract_y
_atom_site_fract_z
Si Si1 0.958624 0.820959 0.398373
Si Si2 0.383300 0.678322 0.596297
Si Si3 0.214513 0.179769 0.395499
Si Si4 0.289299 0.818865 0.913484
Si Si5 0.041960 0.319743 0.909858
Si Si6 0.379784 0.682234 0.917624
O O1 0.916777 0.749797 0.481837
O O2 0.965945 0.723445 0.255246
O O3 0.000000 0.797609 0.500000
O O4 0.952006 0.000000 0.356536
O O5 0.395728 0.500000 0.607809
O O6 0.333871 0.703133 0.539751
O O7 0.389561 0.748746 0.757108
O O8 0.250000 0.250000 0.500000
O O9 0.217943 0.273892 0.250482
O O10 0.223675 0.000000 0.366697
O O11 0.334762 0.752632 0.974748
O O12 0.289695 0.000000 0.931981
O O13 0.250000 0.750000 0.000000
O O14 0.051591 0.500000 0.925173
O O15 0.082685 0.225771 0.971237
O O16 0.000000 0.270286 0.000000
O O17 0.373724 0.500000 0.910162
#
# Coordination Sequence:
#
# PCOD8101022 Si02
#       6
#     8   8   8   8   8   8
#     4  10  20  36  59  84 108 140 185 232 279 334
#     4   8  17  34  56  81 108 138 178 230 281 330
#     4  10  20  36  56  81 114 152 193 236 284 338
#     4  11  22  38  59  85 117 153 193 237 288 343
#     4  11  24  39  55  81 117 153 189 231 281 337
#     4  10  20  38  62  85 111 146 189 236 287 340
#
# _framework density 19.390552
#
# number of rings (size 3 to 8) (size 9 to 14) (size 15 to 20)
#    0.000    2.000    0.000    5.000    0.000    4.333 
#    0.000   10.000    0.000    0.000    0.000    0.000 
#    0.000    0.000    0.000    0.000    0.000    0.000 
#
# Total GULP energy -297627.206691 kJ/mol
# GULP energy per Si atom -12401.133612 kJ/mol
# Density = 1.934642 g / cm^3
# Si number density = 19.390552 Si / 1000 Ang^3
#
#
#
# Elastic Constant Matrix: (Units=GPa)
#
#
# Indices 1 2 3 4 5 6 
#
# 1 145.0204 48.2930 64.9113 0.0000 -12.5831 0.0000
# 2 48.2930 90.5100 31.0933 0.0000 -5.5194 0.0000
# 3 64.9113 31.0933 93.1656 0.0000 -10.6029 0.0000
# 4 0.0000 0.0000 0.0000 30.0323 0.0000 3.1713
# 5 -12.5831 -5.5194 -10.6029 0.0000 43.8559 0.0000
# 6 0.0000 0.0000 0.0000 3.1713 0.0000 29.1165
#
#
#
# Elastic Compliance Matrix: (Units=1/GPa)
#
#
# Indices 1 2 3 4 5 6 
#
# 1 0.011054 -0.003644 -0.006352 0.000000 0.001177 0.000000
# 2 -0.003644 0.013695 -0.002010 0.000000 0.000192 0.000000
# 3 -0.006352 -0.002010 0.016035 0.000000 0.001801 0.000000
# 4 0.000000 0.000000 0.000000 0.033685 0.000000 -0.003669
# 5 0.001177 0.000192 0.001801 0.000000 0.023599 0.000000
# 6 0.000000 0.000000 0.000000 -0.003669 0.000000 0.034744
#
#
# Mechanical properties :
#
#
# Convention : Reuss Voigt Hill
#
# Bulk Modulus (GPa) = 59.62022 68.58792 64.10407
# Shear Modulus (GPa) = 30.78532 32.89417 31.83974
#
# Velocity S-wave (km/s) = 3.98885 4.12321 4.05659
# Velocity P-wave (km/s) = 7.21307 7.62341 7.42108
#
# Compressibility (1/GPa) = 0.01677283
#
# Stress axis : x y z
#
# Youngs Moduli (GPa) = 90.46203 73.01868 62.36499
#
# Poissons Ratio (x) = 0.26611 0.39612
# Poissons Ratio (y) = 0.32968 0.12533
# Poissons Ratio (z) = 0.57458 0.14674
#
# Static dielectric constant tensor:
#      x y z
#    x 3.888280 0.000000 -0.505360 
#    y 0.000000 3.437370 0.000000 
#    z -0.505360 0.000000 4.097840 
# 
# 
# High freq. dielectric constant tensor:
#      x y z
#    x 1.771560 0.000000 -0.002740 
#    y 0.000000 1.745730 0.000000 
#    z -0.002740 0.000000 1.752410 
# 
# From -- ./inp_files/108700.got.cif
#   From: 2010.06.25/outbox.cif.g09.slc.cpg/sg12_55_cif.got.tgz:108700.got - 2010.06.28 00:19:55.
