data_PCOD8101759
_publ_section_title
;
Structure prediction by ZEFSAII (Michael W. Deem and Ramdas Pophale) SiO2 
 PCOD8101759
Probable space group: C 2/M
;
_chemical_formula_sum "Si O2"
_cell_formula_units_Z 48
_cell_length_a 23.322840
_cell_length_b 8.913348
_cell_length_c 12.573538
_cell_angle_alpha 90.000000
_cell_angle_beta 89.495259
_cell_angle_gamma 90.000000
_cell_volume 2613.743359
_symmetry_space_group_name_H-M "C 2/M"
_symmetry_group_IT_number 12
_symmetry_cell_setting 'monoclinic'
loop_
_space_group_symop_operation_xyz
x,y,z
-x,y,-z
-x,-y,-z
x,-y,z
1/2+x,1/2+y,z
1/2-x,1/2+y,-z
1/2-x,1/2-y,-z
1/2+x,1/2-y,z
loop_
_atom_site_type_symbol
_atom_site_label
_atom_site_fract_x
_atom_site_fract_y
_atom_site_fract_z
Si Si1 0.886755 0.176276 0.684423
Si Si2 0.498799 0.822328 0.378084
Si Si3 0.310787 0.674930 0.491353
Si Si4 0.320183 0.174198 0.106975
Si Si5 0.113823 0.175828 0.709219
Si Si6 0.188947 0.173651 0.111462
O O1 0.851717 0.236659 0.583528
O O2 0.851005 0.216957 0.789624
O O3 0.946514 0.262928 0.687172
O O4 0.899009 0.000000 0.675304
O O5 0.500000 0.763498 0.500000
O O6 0.444007 0.760706 0.318061
O O7 0.497762 0.000000 0.374616
O O8 0.301542 0.500000 0.507328
O O9 0.250000 0.750000 0.500000
O O10 0.338314 0.716258 0.378404
O O11 0.363151 0.269715 0.178092
O O12 0.254693 0.207954 0.142163
O O13 0.335228 0.000000 0.119210
O O14 0.330554 0.223238 0.985646
O O15 0.100784 0.000000 0.713094
O O16 0.182462 0.000000 0.078726
#
# Coordination Sequence:
#
# PCOD8101759 Si02
#       6
#     8   8   8   8   8   8
#     4  10  20  37  58  81 112 149 189 230 276 335
#     4  11  23  38  57  82 112 149 190 235 283 332
#     4  10  21  34  53  82 114 146 180 225 279 333
#     4  10  20  36  59  85 117 150 186 234 281 331
#     4  11  22  37  58  82 112 150 191 230 276 338
#     4   9  19  36  59  85 115 151 188 228 280 338
#
# _framework density 18.364466
#
# number of rings (size 3 to 8) (size 9 to 14) (size 15 to 20)
#    0.000    1.833    1.667    2.500    0.000    5.333 
#    0.000    0.833    0.000    5.000    0.000    0.000 
#    0.000    0.000    0.000    0.000    0.000    0.000 
#
# Total GULP energy -297723.083403 kJ/mol
# GULP energy per Si atom -12405.128475 kJ/mol
# Density = 1.832267 g / cm^3
# Si number density = 18.364466 Si / 1000 Ang^3
#
#
#
# Elastic Constant Matrix: (Units=GPa)
#
#
# Indices 1 2 3 4 5 6 
#
# 1 90.3910 40.3891 30.8140 0.0000 14.7854 0.0000
# 2 40.3891 54.0582 35.0136 0.0000 -2.1376 0.0000
# 3 30.8140 35.0136 83.0166 0.0000 8.1313 0.0000
# 4 0.0000 0.0000 0.0000 25.1033 0.0000 -0.0043
# 5 14.7854 -2.1376 8.1313 0.0000 24.5092 0.0000
# 6 0.0000 0.0000 0.0000 -0.0043 0.0000 36.0862
#
#
#
# Elastic Compliance Matrix: (Units=1/GPa)
#
#
# Indices 1 2 3 4 5 6 
#
# 1 0.020336 -0.016145 0.000621 0.000000 -0.013882 0.000000
# 2 -0.016145 0.039145 -0.012202 0.000000 0.017202 0.000000
# 3 0.000621 -0.012202 0.017677 0.000000 -0.007303 0.000000
# 4 0.000000 0.000000 0.000000 0.039835 0.000000 0.000005
# 5 -0.013882 0.017202 -0.007303 0.000000 0.053099 0.000000
# 6 0.000000 0.000000 0.000000 0.000005 0.000000 0.027711
#
#
# Mechanical properties :
#
#
# Convention : Reuss Voigt Hill
#
# Bulk Modulus (GPa) = 46.07161 48.87770 47.47465
# Shear Modulus (GPa) = 19.19453 25.22302 22.20878
#
# Velocity S-wave (km/s) = 3.23646 3.71005 3.48132
# Velocity P-wave (km/s) = 6.25365 6.71013 6.48590
#
# Compressibility (1/GPa) = 0.02170534
#
# Stress axis : x y z
#
# Youngs Moduli (GPa) = 49.17367 25.54630 56.57021
#
# Poissons Ratio (x) = 0.41244 -0.03512
# Poissons Ratio (y) = 0.79390 0.69028
# Poissons Ratio (z) = -0.03052 0.31172
#
# Static dielectric constant tensor:
#      x y z
#    x 3.306500 0.000000 -0.033730 
#    y 0.000000 3.366390 0.000000 
#    z -0.033730 0.000000 3.382970 
# 
# 
# High freq. dielectric constant tensor:
#      x y z
#    x 1.714060 0.000000 0.002010 
#    y 0.000000 1.714630 0.000000 
#    z 0.002010 0.000000 1.713400 
# 
# From -- ./inp_files/172103.got.cif
#   From: 2010.06.25/outbox.cif.g09.slc.cpg/sg12_87_cif.got.tgz:172103.got - 2010.06.28 00:19:55.
