data_PCOD8101257
_publ_section_title
;
Structure prediction by ZEFSAII (Michael W. Deem and Ramdas Pophale) SiO2 
 PCOD8101257
Probable space group: C 2/M
;
_chemical_formula_sum "Si O2"
_cell_formula_units_Z 48
_cell_length_a 21.908537
_cell_length_b 22.544708
_cell_length_c 10.333406
_cell_angle_alpha 90.000000
_cell_angle_beta 26.749572
_cell_angle_gamma 90.000000
_cell_volume 2297.219835
_symmetry_space_group_name_H-M "C 2/M"
_symmetry_group_IT_number 12
_symmetry_cell_setting 'monoclinic'
loop_
_space_group_symop_operation_xyz
x,y,z
-x,y,-z
-x,-y,-z
x,-y,z
1/2+x,1/2+y,z
1/2-x,1/2+y,-z
1/2-x,1/2-y,-z
1/2+x,1/2-y,z
loop_
_atom_site_type_symbol
_atom_site_label
_atom_site_fract_x
_atom_site_fract_y
_atom_site_fract_z
Si Si1 0.762952 0.746008 0.263520
Si Si2 0.721198 0.432797 0.385810
Si Si3 0.696229 0.150138 0.222981
Si Si4 0.450763 0.568477 0.734894
Si Si5 0.354537 0.332171 0.313833
Si Si6 0.594223 0.858506 0.130588
O O1 0.716299 0.780988 0.224584
O O2 0.644421 0.706525 0.554515
O O3 0.798836 0.795327 0.300511
O O4 0.885719 0.701245 0.993722
O O5 0.742685 0.500000 0.388369
O O6 0.573645 0.422248 0.601612
O O7 0.732787 0.391592 0.491917
O O8 0.839832 0.415768 0.061547
O O9 0.563537 0.126829 0.550430
O O10 0.673196 0.150727 0.114551
O O11 0.824199 0.109137 0.018491
O O12 0.500000 0.588546 0.500000
O O13 0.402839 0.500000 0.822779
O O14 0.500000 0.355204 0.000000
#
# Coordination Sequence:
#
# PCOD8101257 Si02
#       6
#     8   8   8   8   8   8
#     4  10  21  37  55  81 119 152 191 240 291 345
#     4  10  21  39  61  85 117 151 194 246 292 343
#     4  11  21  36  59  86 118 154 195 236 284 353
#     4  10  20  36  57  84 116 152 191 237 290 339
#     4  10  20  36  58  81 108 152 196 236 290 344
#     4  10  22  37  57  89 119 153 194 235 293 345
#
# _framework density 20.894821
#
# number of rings (size 3 to 8) (size 9 to 14) (size 15 to 20)
#    0.000    1.833    1.667    2.500    0.000    2.333 
#    3.000    2.500    0.000    1.000    0.000    0.000 
#    0.000    0.000    0.000    0.000    0.000    0.000 
#
# Total GULP energy -297496.423908 kJ/mol
# GULP energy per Si atom -12395.684330 kJ/mol
# Density = 2.084726 g / cm^3
# Si number density = 20.894821 Si / 1000 Ang^3
#
#
#
# Elastic Constant Matrix: (Units=GPa)
#
#
# Indices 1 2 3 4 5 6 
#
# 1 27.7573 29.8047 21.3904 -0.0011 9.9251 0.0001
# 2 29.8047 142.6726 63.7810 -0.0003 10.4666 0.0006
# 3 21.3904 63.7810 135.2571 0.0045 8.3653 0.0027
# 4 -0.0011 -0.0003 0.0045 44.4888 0.0003 12.5623
# 5 9.9251 10.4666 8.3653 0.0003 28.5633 -0.0015
# 6 0.0001 0.0006 0.0027 12.5623 -0.0015 38.1016
#
#
#
# Elastic Compliance Matrix: (Units=1/GPa)
#
#
# Indices 1 2 3 4 5 6 
#
# 1 0.052882 -0.008435 -0.003504 0.000002 -0.014258 -0.000001
# 2 -0.008435 0.010348 -0.003557 0.000000 0.000181 0.000000
# 3 -0.003504 -0.003557 0.009643 -0.000001 -0.000303 0.000000
# 4 0.000002 0.000000 -0.000001 0.024785 -0.000001 -0.008172
# 5 -0.014258 0.000181 -0.000303 -0.000001 0.039987 0.000002
# 6 -0.000001 0.000000 0.000000 -0.008172 0.000002 0.028940
#
#
# Mechanical properties :
#
#
# Convention : Reuss Voigt Hill
#
# Bulk Modulus (GPa) = 23.87638 59.51546 41.69592
# Shear Modulus (GPa) = 23.63654 34.94480 29.29067
#
# Velocity S-wave (km/s) = 3.36700 4.09395 3.74814
# Velocity P-wave (km/s) = 5.15435 7.13390 6.22334
#
# Compressibility (1/GPa) = 0.04188240
#
# Stress axis : x y z
#
# Youngs Moduli (GPa) = 18.91006 96.63775 103.69741
#
# Poissons Ratio (x) = 0.81512 0.36333
# Poissons Ratio (y) = 0.15950 0.36884
# Poissons Ratio (z) = 0.06626 0.34373
#
# Static dielectric constant tensor:
#      x y z
#    x 3.644220 0.000000 0.244260 
#    y 0.000000 3.880040 0.000000 
#    z 0.244260 0.000000 3.922280 
# 
# 
# High freq. dielectric constant tensor:
#      x y z
#    x 1.797770 0.000000 0.020760 
#    y 0.000000 1.820410 0.000000 
#    z 0.020760 0.000000 1.827120 
# 
# From -- ./inp_files/184787.got.cif
#   From: 2010.06.25/outbox.cif.g09.slc.cpg/sg12_93_cif.got.tgz:184787.got - 2010.06.28 00:19:55.
