data_PCOD8101451
_publ_section_title
;
Structure prediction by ZEFSAII (Michael W. Deem and Ramdas Pophale) SiO2 
 PCOD8101451
Probable space group: C 2/M
;
_chemical_formula_sum "Si O2"
_cell_formula_units_Z 48
_cell_length_a 8.681471
_cell_length_b 16.494897
_cell_length_c 32.004956
_cell_angle_alpha 90.000000
_cell_angle_beta 149.497885
_cell_angle_gamma 90.000000
_cell_volume 2326.249274
_symmetry_space_group_name_H-M "C 2/M"
_symmetry_group_IT_number 12
_symmetry_cell_setting 'monoclinic'
loop_
_space_group_symop_operation_xyz
x,y,z
-x,y,-z
-x,-y,-z
x,-y,z
1/2+x,1/2+y,z
1/2-x,1/2+y,-z
1/2-x,1/2-y,-z
1/2+x,1/2-y,z
loop_
_atom_site_type_symbol
_atom_site_label
_atom_site_fract_x
_atom_site_fract_y
_atom_site_fract_z
Si Si1 0.846734 0.196346 0.079837
Si Si2 0.246557 0.322716 0.594000
Si Si3 0.811578 0.910619 0.993299
Si Si4 0.785732 0.838647 0.156617
Si Si5 0.229229 0.500000 0.590847
Si Si6 0.644364 0.000000 0.411718
Si Si7 0.389403 0.832361 0.344348
O O1 0.877776 0.124351 0.054308
O O2 0.953378 0.169242 0.150990
O O3 0.062567 0.264490 0.112581
O O4 0.500000 0.226816 0.000000
O O5 0.410049 0.413186 0.629756
O O6 0.485175 0.248806 0.648726
O O7 0.070391 0.318642 0.596836
O O8 0.000000 0.311213 0.500000
O O9 0.941868 0.000000 0.027037
O O10 0.448523 0.913704 0.898426
O O11 0.000000 0.866172 0.000000
O O12 0.035922 0.844983 0.251015
O O13 0.000000 0.500000 0.500000
O O14 0.035805 0.500000 0.587484
O O15 0.558297 0.084822 0.368241
O O16 0.000000 0.000000 0.500000
#
# Coordination Sequence:
#
# PCOD8101451 Si02
#       7
#     8   8   8   8   4   4   8
#     4  10  20  36  58  83 112 157 192 232 285 347
#     4  10  20  38  60  86 115 154 203 241 297 363
#     4  10  21  37  59  84 111 154 197 231 280 347
#     4  11  21  35  58  83 120 146 194 243 290 344
#     4   8  18  36  60  82 106 144 188 243 284 341
#     4  10  22  40  58  82 116 154 198 239 291 361
#     4  11  23  37  60  89 119 158 194 248 309 341
#
# _framework density 20.634073000000001
#
# number of rings (size 3 to 8) (size 9 to 14) (size 15 to 20)
#    0.000    1.833    0.000    5.500    1.167    5.667 
#    0.000    0.000    1.833    0.000    0.000    0.000 
#    0.000    0.000    0.000    0.000    0.000    0.000 
#
# Total GULP energy -297313.342489 kJ/mol
# GULP energy per Si atom -12388.055937 kJ/mol
# Density = 2.058711 g / cm^3
# Si number density = 20.634073 Si / 1000 Ang^3
#
#
#
# Elastic Constant Matrix: (Units=GPa)
#
#
# Indices 1 2 3 4 5 6 
#
# 1 96.6669 38.8692 29.5814 -0.0028 -11.6831 0.0010
# 2 38.8692 160.6445 25.2003 -0.0154 8.4698 -0.0051
# 3 29.5814 25.2003 91.3940 -0.0396 -0.8342 -0.0048
# 4 -0.0028 -0.0154 -0.0396 -107.1708 -0.0353 -33.9108
# 5 -11.6831 8.4698 -0.8342 -0.0353 27.2021 -0.0120
# 6 0.0010 -0.0051 -0.0048 -33.9108 -0.0120 14.5824
#
#
#
# Elastic Compliance Matrix: (Units=1/GPa)
#
#
# Indices 1 2 3 4 5 6 
#
# 1 0.013427 -0.003057 -0.003442 -0.000001 0.006613 0.000000
# 2 -0.003057 0.007323 -0.001063 0.000000 -0.003626 0.000000
# 3 -0.003442 -0.001063 0.012342 -0.000003 -0.000769 -0.000004
# 4 -0.000001 0.000000 -0.000003 -0.005375 -0.000013 -0.012501
# 5 0.006613 -0.003626 -0.000769 -0.000013 0.040707 0.000001
# 6 0.000000 0.000000 -0.000004 -0.012501 0.000001 0.039506
#
#
# Mechanical properties :
#
#
# Convention : Reuss Voigt Hill
#
# Bulk Modulus (GPa) = 55.65961 59.55634 57.60798
# Shear Modulus (GPa) = 38.74675 3.92638 21.33656
#
# Velocity S-wave (km/s) = 4.33806 1.38094 3.21915
# Velocity P-wave (km/s) = 7.21976 5.60967 6.46503
#
# Compressibility (1/GPa) = 0.01796635
#
# Stress axis : x y z
#
# Youngs Moduli (GPa) = 74.47754 136.56494 81.02526
#
# Poissons Ratio (x) = 0.41753 0.27893
# Poissons Ratio (y) = 0.22771 0.08609
# Poissons Ratio (z) = 0.25639 0.14511
#
# Static dielectric constant tensor:
#      x y z
#    x 3.154870 0.000090 -2.275320 
#    y 0.000090 4.291650 0.000220 
#    z -2.275320 0.000220 -1.733380 
# 
# 
# High freq. dielectric constant tensor:
#      x y z
#    x 1.804990 0.000000 -0.018450 
#    y 0.000000 1.825330 0.000000 
#    z -0.018450 0.000000 1.782110 
# 
# From -- ./inp_files/256499.got.cif
#   From: 2010.06.25/outbox.cif.g09.slc.cpg/sg12_129_cif.got.tgz:256499.got - 2010.06.28 00:19:55.
