data_PCOD8101478
_publ_section_title
;
Structure prediction by ZEFSAII (Michael W. Deem and Ramdas Pophale) SiO2 
 PCOD8101478
Probable space group: C 2/M
;
_chemical_formula_sum "Si O2"
_cell_formula_units_Z 48
_cell_length_a 28.784688
_cell_length_b 8.567286
_cell_length_c 15.931901
_cell_angle_alpha 90.000000
_cell_angle_beta 37.550280
_cell_angle_gamma 90.000000
_cell_volume 2394.504995
_symmetry_space_group_name_H-M "C 2/M"
_symmetry_group_IT_number 12
_symmetry_cell_setting 'monoclinic'
loop_
_space_group_symop_operation_xyz
x,y,z
-x,y,-z
-x,-y,-z
x,-y,z
1/2+x,1/2+y,z
1/2-x,1/2+y,-z
1/2-x,1/2-y,-z
1/2+x,1/2-y,z
loop_
_atom_site_type_symbol
_atom_site_label
_atom_site_fract_x
_atom_site_fract_y
_atom_site_fract_z
Si Si1 0.229282 0.184355 0.118908
Si Si2 0.490924 0.315996 0.758818
Si Si3 0.360152 0.183013 0.053659
Si Si4 0.191019 0.819277 0.702548
Si Si5 0.354646 0.817795 0.402850
Si Si6 0.438865 0.314748 0.651714
O O1 0.287425 0.247621 0.105734
O O2 0.143752 0.241329 0.262525
O O3 0.232925 0.000000 0.109191
O O4 0.250000 0.250000 0.000000
O O5 0.504918 0.500000 0.739039
O O6 0.571675 0.230302 0.650223
O O7 0.453650 0.256016 0.725281
O O8 0.435956 0.270245 0.914191
O O9 0.345904 0.217503 0.171165
O O10 0.372151 0.000000 0.023011
O O11 0.280178 0.775891 0.564685
O O12 0.145969 0.779457 0.682231
O O13 0.179687 0.000000 0.740328
O O14 0.355525 0.000000 0.379192
O O15 0.500000 0.241229 0.500000
O O16 0.444643 0.500000 0.642749
#
# Coordination Sequence:
#
# PCOD8101478 Si02
#       6
#     8   8   8   8   8   8
#     4  10  20  36  58  83 116 155 194 238 287 343
#     4  11  22  37  61  87 119 158 199 242 290 351
#     4  11  23  37  59  88 121 157 198 245 293 344
#     4  10  22  41  64  89 117 152 195 238 291 357
#     4  10  22  41  63  88 121 151 188 243 297 349
#     4   9  19  35  56  84 116 152 195 240 285 339
#
# _framework density 20.045895999999999
#
# number of rings (size 3 to 8) (size 9 to 14) (size 15 to 20)
#    0.000    1.833    1.667    2.000    2.333    3.333 
#    0.000    3.333    0.000    2.500    0.000    0.000 
#    0.000    0.000    0.000    0.000    0.000    0.000 
#
# Total GULP energy -297681.093318 kJ/mol
# GULP energy per Si atom -12403.378888 kJ/mol
# Density = 2.000027 g / cm^3
# Si number density = 20.045896 Si / 1000 Ang^3
#
#
#
# Elastic Constant Matrix: (Units=GPa)
#
#
# Indices 1 2 3 4 5 6 
#
# 1 61.2140 11.3458 19.5023 0.0007 -9.2055 -0.0003
# 2 11.3458 32.3767 17.6168 0.0002 -5.4455 -0.0007
# 3 19.5023 17.6168 110.1478 0.0007 1.5248 -0.0005
# 4 0.0007 0.0002 0.0007 28.4503 -0.0003 -1.5977
# 5 -9.2055 -5.4455 1.5248 -0.0003 37.9302 0.0002
# 6 -0.0003 -0.0007 -0.0005 -1.5977 0.0002 26.9021
#
#
#
# Elastic Compliance Matrix: (Units=1/GPa)
#
#
# Indices 1 2 3 4 5 6 
#
# 1 0.018594 -0.004408 -0.002642 0.000000 0.003986 0.000000
# 2 -0.004408 0.035882 -0.005018 0.000000 0.004283 0.000001
# 3 -0.002642 -0.005018 0.010374 0.000000 -0.001779 0.000000
# 4 0.000000 0.000000 0.000000 0.035267 0.000000 0.002094
# 5 0.003986 0.004283 -0.001779 0.000000 0.028018 0.000000
# 6 0.000000 0.000001 0.000000 0.002094 0.000000 0.037296
#
#
# Mechanical properties :
#
#
# Convention : Reuss Voigt Hill
#
# Bulk Modulus (GPa) = 24.56164 33.40759 28.98462
# Shear Modulus (GPa) = 24.61380 29.00809 26.81095
#
# Velocity S-wave (km/s) = 3.50790 3.80818 3.66112
# Velocity P-wave (km/s) = 5.35598 6.00317 5.68878
#
# Compressibility (1/GPa) = 0.04071389
#
# Stress axis : x y z
#
# Youngs Moduli (GPa) = 53.77961 27.86935 96.39740
#
# Poissons Ratio (x) = 0.12284 0.25473
# Poissons Ratio (y) = 0.23705 0.48370
# Poissons Ratio (z) = 0.14211 0.13984
#
# Static dielectric constant tensor:
#      x y z
#    x 3.825760 0.000000 -0.201530 
#    y 0.000000 3.541940 0.000000 
#    z -0.201530 0.000000 3.768680 
# 
# 
# High freq. dielectric constant tensor:
#      x y z
#    x 1.785950 0.000000 -0.005880 
#    y 0.000000 1.769420 0.000000 
#    z -0.005880 0.000000 1.790710 
# 
# From -- ./inp_files/244725.got.cif
#   From: 2010.06.25/outbox.cif.g09.slc.cpg/sg12_123_cif.got.tgz:244725.got - 2010.06.28 00:19:55.
