data_PCOD8101347
_publ_section_title
;
Structure prediction by ZEFSAII (Michael W. Deem and Ramdas Pophale) SiO2 
 PCOD8101347
Probable space group: C 2/M
;
_chemical_formula_sum "Si O2"
_cell_formula_units_Z 64
_cell_length_a 30.198218
_cell_length_b 9.468017
_cell_length_c 11.962063
_cell_angle_alpha 90.000000
_cell_angle_beta 93.470518
_cell_angle_gamma 90.000000
_cell_volume 3413.887752
_symmetry_space_group_name_H-M "C 2/M"
_symmetry_group_IT_number 12
_symmetry_cell_setting 'monoclinic'
loop_
_space_group_symop_operation_xyz
x,y,z
-x,y,-z
-x,-y,-z
x,-y,z
1/2+x,1/2+y,z
1/2-x,1/2+y,-z
1/2-x,1/2-y,-z
1/2+x,1/2-y,z
loop_
_atom_site_type_symbol
_atom_site_label
_atom_site_fract_x
_atom_site_fract_y
_atom_site_fract_z
Si Si1 0.975715 0.661599 0.703480
Si Si2 0.742573 0.664531 0.668922
Si Si3 0.217430 0.166307 0.914830
Si Si4 0.546996 0.161249 0.050751
Si Si5 0.383176 0.661424 0.070350
Si Si6 0.438128 0.340774 0.294334
Si Si7 0.087264 0.162209 0.459573
Si Si8 0.187564 0.164299 0.445047
O O1 0.982127 0.500000 0.667803
O O2 0.949560 0.672938 0.815552
O O3 0.948914 0.740614 0.603795
O O4 0.023600 0.730229 0.725998
O O5 0.754289 0.500000 0.668168
O O6 0.725533 0.711615 0.787772
O O7 0.787323 0.748636 0.646700
O O8 0.705057 0.702534 0.571757
O O9 0.167757 0.209788 0.941887
O O10 0.225288 0.000000 0.931089
O O11 0.250000 0.250000 0.000000
O O12 0.550817 0.000000 0.009751
O O13 0.500000 0.224359 0.000000
O O14 0.588347 0.246426 0.010136
O O15 0.388196 0.500000 0.032512
O O16 0.399349 0.681741 0.199272
O O17 0.457606 0.500000 0.290956
O O18 0.415810 0.312050 0.409401
O O19 0.136189 0.206444 0.428378
O O20 0.077127 0.000000 0.427106
O O21 0.194879 0.000000 0.421419
#
# Coordination Sequence:
#
# PCOD8101347 Si02
#       8
#     8   8   8   8   8   8   8   8
#     4  11  23  37  54  78 110 146 181 223 272 324
#     4   9  18  35  58  80 108 143 180 223 274 325
#     4  10  22  39  57  82 115 148 183 228 279 330
#     4  10  21  39  58  78 110 147 184 227 277 328
#     4  10  21  37  61  87 108 140 190 236 273 323
#     4  10  20  36  58  81 107 141 182 226 273 324
#     4  10  21  36  54  79 112 145 178 220 274 328
#     4   9  18  34  57  82 107 140 181 225 270 322
#
# _framework density 18.746953999999999
#
# number of rings (size 3 to 8) (size 9 to 14) (size 15 to 20)
#    0.000    2.125    1.250    1.500    0.000    8.750 
#    0.000    5.000    0.000    4.500    0.000    0.000 
#    0.000    0.000    0.000    0.000    0.000    0.000 
#
# Total GULP energy -396911.279720 kJ/mol
# GULP energy per Si atom -12403.477491 kJ/mol
# Density = 1.870429 g / cm^3
# Si number density = 18.746954 Si / 1000 Ang^3
#
#
#
# Elastic Constant Matrix: (Units=GPa)
#
#
# Indices 1 2 3 4 5 6 
#
# 1 134.1563 63.0018 43.4591 0.0000 -6.4780 0.0000
# 2 63.0018 79.1549 40.9326 0.0000 -5.8475 0.0000
# 3 43.4591 40.9326 56.9397 0.0000 -6.1333 0.0000
# 4 0.0000 0.0000 0.0000 29.1068 0.0000 -0.8305
# 5 -6.4780 -5.8475 -6.1333 0.0000 31.1159 0.0000
# 6 0.0000 0.0000 0.0000 -0.8305 0.0000 33.5186
#
#
#
# Elastic Compliance Matrix: (Units=1/GPa)
#
#
# Indices 1 2 3 4 5 6 
#
# 1 0.012395 -0.007906 -0.003739 0.000000 0.000358 0.000000
# 2 -0.007906 0.025179 -0.011989 0.000000 0.000723 0.000000
# 3 -0.003739 -0.011989 0.029330 0.000000 0.002750 0.000000
# 4 0.000000 0.000000 0.000000 0.034380 0.000000 0.000852
# 5 0.000358 0.000723 0.002750 0.000000 0.032890 0.000000
# 6 0.000000 0.000000 0.000000 0.000852 0.000000 0.029855
#
#
# Mechanical properties :
#
#
# Convention : Reuss Voigt Hill
#
# Bulk Modulus (GPa) = 50.92072 62.78198 56.85135
# Shear Modulus (GPa) = 22.95233 26.93876 24.94554
#
# Velocity S-wave (km/s) = 3.50283 3.79485 3.65176
# Velocity P-wave (km/s) = 6.60158 7.26382 6.94060
#
# Compressibility (1/GPa) = 0.01963837
#
# Stress axis : x y z
#
# Youngs Moduli (GPa) = 80.67714 39.71576 34.09422
#
# Poissons Ratio (x) = 0.31399 0.12747
# Poissons Ratio (y) = 0.63782 0.40874
# Poissons Ratio (z) = 0.30162 0.47614
#
# Static dielectric constant tensor:
#      x y z
#    x 3.448130 0.000000 -0.036500 
#    y 0.000000 3.449250 0.000000 
#    z -0.036500 0.000000 3.443620 
# 
# 
# High freq. dielectric constant tensor:
#      x y z
#    x 1.730510 0.000000 -0.002880 
#    y 0.000000 1.722850 0.000000 
#    z -0.002880 0.000000 1.732980 
# 
# From -- ./inp_files/187599.got.cif
#   From: 2010.06.25/outbox.cif.g09.slc.cpg/sg12_94_cif.got.tgz:187599.got - 2010.06.28 00:19:55.
