data_PCOD8101915
_publ_section_title
;
Structure prediction by ZEFSAII (Michael W. Deem and Ramdas Pophale) SiO2 
 PCOD8101915
Probable space group: C 2/M
;
_chemical_formula_sum "Si O2"
_cell_formula_units_Z 40
_cell_length_a 8.775854
_cell_length_b 33.678150
_cell_length_c 7.851860
_cell_angle_alpha 90.000000
_cell_angle_beta 58.005296
_cell_angle_gamma 90.000000
_cell_volume 1968.138826
_symmetry_space_group_name_H-M "C 2/M"
_symmetry_group_IT_number 12
_symmetry_cell_setting 'monoclinic'
loop_
_space_group_symop_operation_xyz
x,y,z
-x,y,-z
-x,-y,-z
x,-y,z
1/2+x,1/2+y,z
1/2-x,1/2+y,-z
1/2-x,1/2-y,-z
1/2+x,1/2-y,z
loop_
_atom_site_type_symbol
_atom_site_label
_atom_site_fract_x
_atom_site_fract_y
_atom_site_fract_z
Si Si1 0.500000 0.321097 0.500000
Si Si2 0.791194 0.044032 0.582502
Si Si3 0.000000 0.572665 0.000000
Si Si4 0.727971 0.125781 0.471307
Si Si5 0.854292 0.636974 0.835916
Si Si6 0.359719 0.290166 0.927420
O O1 0.649517 0.351850 0.468185
O O2 0.453848 0.292670 0.686775
O O3 0.654570 0.045803 0.823760
O O4 0.726933 0.078162 0.493198
O O5 0.000000 0.051697 0.500000
O O6 0.771488 0.000000 0.512573
O O7 0.881873 0.599587 0.942036
O O8 0.538163 0.145436 0.628919
O O9 0.785688 0.130811 0.239142
O O10 0.783519 0.674089 0.984763
O O11 0.500000 0.291856 0.000000
O O12 0.250000 0.250000 0.000000
#
# Coordination Sequence:
#
# PCOD8101915 Si02
#       6
#     4   8   4   8   8   8
#     4  12  24  44  69  92 128 172 216 262 315 388
#     4  10  20  36  59  93 131 170 215 271 330 382
#     4  10  21  38  64  88 128 178 216 272 322 390
#     4  10  21  40  68  93 122 174 217 264 318 387
#     4  10  22  42  64  92 126 165 221 264 317 393
#     4  12  28  44  65  97 130 168 210 269 327 385
#
# _framework density 20.323768999999999
#
# number of rings (size 3 to 8) (size 9 to 14) (size 15 to 20)
#    0.000    1.400    3.000    2.700    4.200    2.400 
#    0.000    9.000    0.000    2.400    0.000    0.000 
#    0.000    0.000    0.000    0.000    0.000    0.000 
#
# Total GULP energy -247772.386069 kJ/mol
# GULP energy per Si atom -12388.619303 kJ/mol
# Density = 2.027751 g / cm^3
# Si number density = 20.323769 Si / 1000 Ang^3
#
#
#
# Elastic Constant Matrix: (Units=GPa)
#
#
# Indices 1 2 3 4 5 6 
#
# 1 86.8392 33.0859 38.0520 0.0000 9.6503 0.0000
# 2 33.0859 110.3774 51.6077 0.0000 -5.5303 0.0000
# 3 38.0520 51.6077 124.3561 0.0000 6.0250 0.0000
# 4 0.0000 0.0000 0.0000 26.8171 0.0000 -7.8161
# 5 9.6503 -5.5303 6.0250 0.0000 40.7361 0.0000
# 6 0.0000 0.0000 0.0000 -7.8161 0.0000 21.5609
#
#
#
# Elastic Compliance Matrix: (Units=1/GPa)
#
#
# Indices 1 2 3 4 5 6 
#
# 1 0.014363 -0.003098 -0.002945 0.000000 -0.003387 0.000000
# 2 -0.003098 0.012114 -0.004225 0.000000 0.003003 0.000000
# 3 -0.002945 -0.004225 0.010767 0.000000 -0.001468 0.000000
# 4 0.000000 0.000000 0.000000 0.041695 0.000000 0.015115
# 5 -0.003387 0.003003 -0.001468 0.000000 0.025976 0.000000
# 6 0.000000 0.000000 0.000000 0.015115 0.000000 0.051860
#
#
# Mechanical properties :
#
#
# Convention : Reuss Voigt Hill
#
# Bulk Modulus (GPa) = 59.85133 63.00710 61.42922
# Shear Modulus (GPa) = 27.34031 31.07797 29.20914
#
# Velocity S-wave (km/s) = 3.67173 3.91467 3.79514
# Velocity P-wave (km/s) = 6.89118 7.17648 7.03527
#
# Compressibility (1/GPa) = 0.01670807
#
# Stress axis : x y z
#
# Youngs Moduli (GPa) = 69.62409 82.54652 92.87531
#
# Poissons Ratio (x) = 0.25573 0.27353
# Poissons Ratio (y) = 0.21570 0.39240
# Poissons Ratio (z) = 0.20505 0.34876
#
# Static dielectric constant tensor:
#      x y z
#    x 3.739710 0.000000 -0.103620 
#    y 0.000000 3.621940 0.000000 
#    z -0.103620 0.000000 3.781070 
# 
# 
# High freq. dielectric constant tensor:
#      x y z
#    x 1.799560 0.000000 -0.002230 
#    y 0.000000 1.790300 0.000000 
#    z -0.002230 0.000000 1.803420 
# 
# From -- ./inp_files/41501.got.cif
#   From: 2010.06.25/outbox.cif.g09.slc.cpg/sg12_21_cif.got.tgz:41501.got - 2010.06.28 00:19:55.
