data_PCOD8101631
_publ_section_title
;
Structure prediction by ZEFSAII (Michael W. Deem and Ramdas Pophale) SiO2 
 PCOD8101631
Probable space group: C 2/M
;
_chemical_formula_sum "Si O2"
_cell_formula_units_Z 56
_cell_length_a 17.895757
_cell_length_b 9.406970
_cell_length_c 20.478193
_cell_angle_alpha 90.000000
_cell_angle_beta 61.350800
_cell_angle_gamma 90.000000
_cell_volume 3025.338847
_symmetry_space_group_name_H-M "C 2/M"
_symmetry_group_IT_number 12
_symmetry_cell_setting 'monoclinic'
loop_
_space_group_symop_operation_xyz
x,y,z
-x,y,-z
-x,-y,-z
x,-y,z
1/2+x,1/2+y,z
1/2-x,1/2+y,-z
1/2-x,1/2-y,-z
1/2+x,1/2-y,z
loop_
_atom_site_type_symbol
_atom_site_label
_atom_site_fract_x
_atom_site_fract_y
_atom_site_fract_z
Si Si1 0.627319 0.842570 0.075636
Si Si2 0.685590 0.656394 0.943313
Si Si3 0.260171 0.668801 0.649333
Si Si4 0.562406 0.169387 0.236378
Si Si5 0.760524 0.668253 0.777588
Si Si6 0.104350 0.332616 0.623913
Si Si7 0.097006 0.663975 0.479952
O O1 0.723632 0.848982 0.059934
O O2 0.571205 0.773559 0.157943
O O3 0.594336 0.000000 0.072581
O O4 0.620433 0.753705 0.011558
O O5 0.644989 0.500000 0.959384
O O6 0.698442 0.709993 0.863665
O O7 0.270096 0.500000 0.653257
O O8 0.229394 0.738660 0.729701
O O9 0.190383 0.709829 0.624442
O O10 0.348998 0.738313 0.591091
O O11 0.642861 0.215156 0.246414
O O12 0.477131 0.233886 0.304397
O O13 0.561122 0.000000 0.232424
O O14 0.755846 0.500000 0.764322
O O15 0.090261 0.500000 0.627555
O O16 0.108965 0.275441 0.548145
O O17 0.127273 0.500000 0.461345
O O18 0.000000 0.678634 0.500000
#
# Coordination Sequence:
#
# PCOD8101631 Si02
#       7
#     8   8   8   8   8   8   8
#     4   8  13  22  41  68  93 118 151 196 245 283
#     4   8  14  24  40  65  95 123 153 195 242 282
#     4  11  22  33  48  73 104 130 151 191 248 289
#     4   8  14  28  50  72  93 122 165 207 235 273
#     4   9  17  31  51  71  93 128 171 204 231 277
#     4   9  18  32  50  73  99 126 158 195 236 283
#     4  10  20  36  59  78  92 122 165 198 227 277
#
# _framework density 18.510323
#
# number of rings (size 3 to 8) (size 9 to 14) (size 15 to 20)
#    0.000    3.000    0.000    3.429    0.000    3.143 
#    0.000    2.857    0.000    5.143    0.000    6.000 
#    0.000    0.000    0.000    0.000    0.000    0.000 
#
# Total GULP energy -347070.993329 kJ/mol
# GULP energy per Si atom -12395.392619 kJ/mol
# Density = 1.846819 g / cm^3
# Si number density = 18.510323 Si / 1000 Ang^3
#
#
#
# Elastic Constant Matrix: (Units=GPa)
#
#
# Indices 1 2 3 4 5 6 
#
# 1 45.1755 22.5975 28.5817 0.0000 14.7146 0.0001
# 2 22.5975 59.9106 50.9411 0.0001 12.0006 0.0003
# 3 28.5817 50.9411 141.1234 0.0000 21.8332 0.0000
# 4 0.0000 0.0001 0.0000 31.5908 0.0000 4.2938
# 5 14.7146 12.0006 21.8332 0.0000 19.9144 0.0000
# 6 0.0001 0.0003 0.0000 4.2938 0.0000 14.9122
#
#
#
# Elastic Compliance Matrix: (Units=1/GPa)
#
#
# Indices 1 2 3 4 5 6 
#
# 1 0.032627 -0.007828 -0.000942 0.000000 -0.018358 0.000000
# 2 -0.007828 0.026572 -0.007736 0.000000 -0.001747 -0.000001
# 3 -0.000942 -0.007736 0.011128 0.000000 -0.006842 0.000000
# 4 0.000000 0.000000 0.000000 0.032944 0.000000 -0.009486
# 5 -0.018358 -0.001747 -0.006842 0.000000 0.072333 0.000000
# 6 0.000000 -0.000001 0.000000 -0.009486 0.000000 0.069790
#
#
# Mechanical properties :
#
#
# Convention : Reuss Voigt Hill
#
# Bulk Modulus (GPa) = 26.79939 50.05002 38.42470
# Shear Modulus (GPa) = 17.19126 22.88943 20.04035
#
# Velocity S-wave (km/s) = 3.05083 3.52031 3.29395
# Velocity P-wave (km/s) = 5.18841 6.60463 5.93889
#
# Compressibility (1/GPa) = 0.03731429
#
# Stress axis : x y z
#
# Youngs Moduli (GPa) = 30.64921 37.63376 89.86534
#
# Poissons Ratio (x) = 0.29461 0.08466
# Poissons Ratio (y) = 0.23993 0.69519
# Poissons Ratio (z) = 0.02887 0.29113
#
# Static dielectric constant tensor:
#      x y z
#    x 3.082160 0.000000 -0.005930 
#    y 0.000000 3.220770 0.000000 
#    z -0.005930 0.000000 3.770400 
# 
# 
# High freq. dielectric constant tensor:
#      x y z
#    x 1.683760 0.000000 0.002610 
#    y 0.000000 1.682370 0.000000 
#    z 0.002610 0.000000 1.740140 
# 
# From -- ./inp_files/275353.got.cif
#   From: 2010.06.25/outbox.cif.g09.slc.cpg/sg12_138_cif.got.tgz:275353.got - 2010.06.28 00:19:55.
