data_PCOD8101089
_publ_section_title
;
Structure prediction by ZEFSAII (Michael W. Deem and Ramdas Pophale) SiO2 
 PCOD8101089
Probable space group: C 2/M
;
_chemical_formula_sum "Si O2"
_cell_formula_units_Z 64
_cell_length_a 30.337687
_cell_length_b 16.705221
_cell_length_c 21.123813
_cell_angle_alpha 90.000000
_cell_angle_beta 18.601942
_cell_angle_gamma 90.000000
_cell_volume 3414.963181
_symmetry_space_group_name_H-M "C 2/M"
_symmetry_group_IT_number 12
_symmetry_cell_setting 'monoclinic'
loop_
_space_group_symop_operation_xyz
x,y,z
-x,y,-z
-x,-y,-z
x,-y,z
1/2+x,1/2+y,z
1/2-x,1/2+y,-z
1/2-x,1/2-y,-z
1/2+x,1/2-y,z
loop_
_atom_site_type_symbol
_atom_site_label
_atom_site_fract_x
_atom_site_fract_y
_atom_site_fract_z
Si Si1 0.670837 0.090762 0.546840
Si Si2 0.946256 0.831357 0.212961
Si Si3 0.308380 0.093395 0.245296
Si Si4 0.270308 0.906103 0.900890
Si Si5 0.769448 0.905129 0.186207
Si Si6 0.456962 0.904725 0.407795
Si Si7 0.466577 0.592692 0.319236
Si Si8 0.974486 0.649905 0.137852
O O1 0.808037 0.143825 0.364561
O O2 0.579949 0.125029 0.612283
O O3 0.576973 0.090685 0.737311
O O4 0.717368 0.000000 0.469931
O O5 0.928012 0.853400 0.311473
O O6 0.966242 0.737373 0.178555
O O7 0.078442 0.874458 0.002120
O O8 0.143010 0.107435 0.474998
O O9 0.377267 0.140560 0.209436
O O10 0.346013 0.000000 0.199641
O O11 0.368300 0.127898 0.097529
O O12 0.272914 0.872498 0.825598
O O13 0.393818 0.868125 0.774649
O O14 0.295985 0.000000 0.862879
O O15 0.120149 0.886256 0.135879
O O16 0.659007 0.871453 0.386375
O O17 0.773696 0.000000 0.181033
O O18 0.461715 0.000000 0.403920
O O19 0.461956 0.500000 0.302584
#
# Coordination Sequence:
#
# PCOD8101089 Si02
#       8
#     8   8   8   8   8   8   8   8
#     4  11  21  34  51  72 109 142 164 204 261 329
#     4  11  21  33  49  80 106 137 168 207 267 315
#     4  10  20  36  57  78  99 134 186 223 254 293
#     4   8  14  28  51  78 101 125 172 224 250 282
#     4   9  17  31  51  74 104 139 174 212 245 295
#     4   9  18  29  47  77 104 135 170 202 253 310
#     4   9  17  32  58  81 102 132 174 225 259 296
#     4  11  22  34  51  77 104 137 170 220 261 306
#
# _framework density 18.741052
#
# number of rings (size 3 to 8) (size 9 to 14) (size 15 to 20)
#    0.000    2.250    1.250    4.125    0.000    4.000 
#    0.000    1.875    0.000    3.750    6.500    4.375 
#    0.000    0.000    0.000    0.000    0.000    0.000 
#
# Total GULP energy -396674.868345 kJ/mol
# GULP energy per Si atom -12396.089636 kJ/mol
# Density = 1.869840 g / cm^3
# Si number density = 18.741052 Si / 1000 Ang^3
#
#
#
# Elastic Constant Matrix: (Units=GPa)
#
#
# Indices 1 2 3 4 5 6 
#
# 1 90.1209 12.8639 68.9129 -0.0004 -13.1276 0.0036
# 2 12.8639 54.9297 25.2166 -0.0022 -1.6699 0.0030
# 3 68.9129 25.2166 172.4265 0.0078 -1.9758 -0.0028
# 4 -0.0004 -0.0022 0.0078 13.8112 -0.0074 7.7192
# 5 -13.1276 -1.6699 -1.9758 -0.0074 21.8336 0.0016
# 6 0.0036 0.0030 -0.0028 7.7192 0.0016 4.4218
#
#
#
# Elastic Compliance Matrix: (Units=1/GPa)
#
#
# Indices 1 2 3 4 5 6 
#
# 1 0.018012 -0.000706 -0.006979 0.000918 0.010144 -0.001625
# 2 -0.000706 0.019576 -0.002571 0.000542 0.000841 -0.000961
# 3 -0.006979 -0.002571 0.008924 -0.000643 -0.003586 0.001138
# 4 0.000918 0.000542 -0.000643 2.977214 0.001933 -5.197309
# 5 0.010144 0.000841 -0.003586 0.001933 0.051641 -0.003405
# 6 -0.001625 -0.000961 0.001138 -5.197309 -0.003405 9.299067
#
#
# Mechanical properties :
#
#
# Convention : Reuss Voigt Hill
#
# Bulk Modulus (GPa) = 38.46232 59.05153 48.75692
# Shear Modulus (GPa) = 0.40311 22.04558 11.22435
#
# Velocity S-wave (km/s) = 0.46429 3.43348 2.44993
# Velocity P-wave (km/s) = 4.56673 6.87721 5.83742
#
# Compressibility (1/GPa) = 0.02599947
#
# Stress axis : x y z
#
# Youngs Moduli (GPa) = 55.52007 51.08192 112.05836
#
# Poissons Ratio (x) = 0.03604 0.78208
# Poissons Ratio (y) = 0.03918 0.28814
# Poissons Ratio (z) = 0.38749 0.13135
#
# Static dielectric constant tensor:
#      x y z
#    x 3.377590 0.000000 -0.000230 
#    y 0.000000 3.104640 0.000000 
#    z -0.000230 0.000000 3.912740 
# 
# 
# High freq. dielectric constant tensor:
#      x y z
#    x 1.699120 0.000000 0.002790 
#    y 0.000000 1.695340 0.000000 
#    z 0.002790 0.000000 1.746380 
# 
# From -- ./inp_files/330367.got.cif
#   From: 2010.06.25/outbox.cif.g09.slc.cpg/sg12_166_cif.got.tgz:330367.got - 2010.06.28 00:19:55.
