data_PCOD8101330
_publ_section_title
;
Structure prediction by ZEFSAII (Michael W. Deem and Ramdas Pophale) SiO2 
 PCOD8101330
Probable space group: C 2/M
;
_chemical_formula_sum "Si O2"
_cell_formula_units_Z 56
_cell_length_a 19.018755
_cell_length_b 8.923116
_cell_length_c 20.884481
_cell_angle_alpha 90.000000
_cell_angle_beta 57.713762
_cell_angle_gamma 90.000000
_cell_volume 2996.259999
_symmetry_space_group_name_H-M "C 2/M"
_symmetry_group_IT_number 12
_symmetry_cell_setting 'monoclinic'
loop_
_space_group_symop_operation_xyz
x,y,z
-x,y,-z
-x,-y,-z
x,-y,z
1/2+x,1/2+y,z
1/2-x,1/2+y,-z
1/2-x,1/2-y,-z
1/2+x,1/2-y,z
loop_
_atom_site_type_symbol
_atom_site_label
_atom_site_fract_x
_atom_site_fract_y
_atom_site_fract_z
Si Si1 0.405890 0.828664 0.061189
Si Si2 0.865275 0.678373 0.762703
Si Si3 0.742087 0.676952 0.934549
Si Si4 0.097899 0.161633 0.812725
Si Si5 0.717603 0.836939 0.322818
Si Si6 0.534978 0.673736 0.709822
Si Si7 0.217623 0.820767 0.580296
O O1 0.348061 0.719594 0.048511
O O2 0.397484 0.797414 0.140348
O O3 0.382063 0.000000 0.058021
O O4 0.500000 0.790796 0.000000
O O5 0.857238 0.500000 0.764902
O O6 0.812326 0.736416 0.850112
O O7 0.827651 0.748321 0.714364
O O8 0.960373 0.727773 0.718364
O O9 0.748441 0.500000 0.939587
O O10 0.750000 0.750000 0.000000
O O11 0.186605 0.138854 0.738659
O O12 0.034190 0.201032 0.786730
O O13 0.072768 0.000000 0.856561
O O14 0.721429 0.759042 0.391512
O O15 0.674324 0.000000 0.350479
O O16 0.518930 0.500000 0.701533
O O17 0.621663 0.729310 0.636668
O O18 0.250000 0.750000 0.500000
O O19 0.223099 0.000000 0.575667
#
# Coordination Sequence:
#
# PCOD8101330 Si02
#       7
#     8   8   8   8   8   8   8
#     4  11  24  38  53  78 111 142 183 236 284 330
#     4  10  20  36  58  80 108 144 185 230 273 327
#     4  11  24  41  59  80 111 150 191 235 286 337
#     4   9  17  35  57  75  99 139 187 227 270 326
#     4   8  15  33  57  78 102 139 181 221 264 318
#     4   9  20  35  55  83 112 144 181 223 274 329
#     4   9  18  35  59  83 112 143 179 223 267 323
#
# _framework density 18.689966999999999
#
# number of rings (size 3 to 8) (size 9 to 14) (size 15 to 20)
#    0.000    2.429    1.429    2.571    2.000    3.429 
#    0.000    3.571    0.000    4.286    0.000    0.000 
#    0.000    0.000    0.000    0.000    0.000    0.000 
#
# Total GULP energy -346920.692626 kJ/mol
# GULP energy per Si atom -12390.024737 kJ/mol
# Density = 1.864743 g / cm^3
# Si number density = 18.689967 Si / 1000 Ang^3
#
#
#
# Elastic Constant Matrix: (Units=GPa)
#
#
# Indices 1 2 3 4 5 6 
#
# 1 134.6618 30.6372 65.6564 -0.0001 19.3848 -0.0002
# 2 30.6372 32.9885 32.0610 -0.0001 3.5439 -0.0005
# 3 65.6564 32.0610 117.8607 0.0000 25.3636 -0.0001
# 4 -0.0001 -0.0001 0.0000 30.1565 0.0000 0.9690
# 5 19.3848 3.5439 25.3636 0.0000 30.2630 0.0000
# 6 -0.0002 -0.0005 -0.0001 0.9690 0.0000 34.0399
#
#
#
# Elastic Compliance Matrix: (Units=1/GPa)
#
#
# Indices 1 2 3 4 5 6 
#
# 1 0.011194 -0.006340 -0.003816 0.000000 -0.003230 0.000000
# 2 -0.006340 0.045585 -0.010484 0.000000 0.007510 0.000001
# 3 -0.003816 -0.010484 0.015461 0.000000 -0.009286 0.000000
# 4 0.000000 0.000000 0.000000 0.033191 0.000000 -0.000945
# 5 -0.003230 0.007510 -0.009286 0.000000 0.042015 0.000000
# 6 0.000000 0.000001 0.000000 -0.000945 0.000000 0.029404
#
#
# Mechanical properties :
#
#
# Convention : Reuss Voigt Hill
#
# Bulk Modulus (GPa) = 32.30197 60.24668 46.27432
# Shear Modulus (GPa) = 21.88657 29.36898 25.62777
#
# Velocity S-wave (km/s) = 3.42575 3.96836 3.70700
# Velocity P-wave (km/s) = 5.74180 7.30082 6.56773
#
# Compressibility (1/GPa) = 0.03095786
#
# Stress axis : x y z
#
# Youngs Moduli (GPa) = 89.33345 21.93708 64.68031
#
# Poissons Ratio (x) = 0.13909 0.24683
# Poissons Ratio (y) = 0.56641 0.67813
# Poissons Ratio (z) = 0.34090 0.23000
#
# Static dielectric constant tensor:
#      x y z
#    x 3.592400 0.000000 0.297690 
#    y 0.000000 3.184250 0.000000 
#    z 0.297690 0.000000 3.405780 
# 
# 
# High freq. dielectric constant tensor:
#      x y z
#    x 1.734140 0.000000 0.015390 
#    y 0.000000 1.701850 0.000000 
#    z 0.015390 0.000000 1.715290 
# 
# From -- ./inp_files/313691.got.cif
#   From: 2010.06.25/outbox.cif.g09.slc.cpg/sg12_157_cif.got.tgz:313691.got - 2010.06.28 00:19:55.
