data_PCOD8101976
_publ_section_title
;
Structure prediction by ZEFSAII (Michael W. Deem and Ramdas Pophale) SiO2 
 PCOD8101976
Probable space group: C 2/M
;
_chemical_formula_sum "Si O2"
_cell_formula_units_Z 56
_cell_length_a 15.950335
_cell_length_b 9.023267
_cell_length_c 22.707270
_cell_angle_alpha 90.000000
_cell_angle_beta 121.922746
_cell_angle_gamma 90.000000
_cell_volume 2773.859017
_symmetry_space_group_name_H-M "C 2/M"
_symmetry_group_IT_number 12
_symmetry_cell_setting 'monoclinic'
loop_
_space_group_symop_operation_xyz
x,y,z
-x,y,-z
-x,-y,-z
x,-y,z
1/2+x,1/2+y,z
1/2-x,1/2+y,-z
1/2-x,1/2-y,-z
1/2+x,1/2-y,z
loop_
_atom_site_type_symbol
_atom_site_label
_atom_site_fract_x
_atom_site_fract_y
_atom_site_fract_z
Si Si1 0.835996 0.327580 0.567268
Si Si2 0.715283 0.824849 0.841554
Si Si3 0.941050 0.823938 0.921611
Si Si4 0.545812 0.324473 0.841292
Si Si5 0.491378 0.670229 0.429522
Si Si6 0.619202 0.829120 0.285640
Si Si7 0.191578 0.831774 0.716729
O O1 0.822948 0.500000 0.552033
O O2 0.750000 0.250000 0.500000
O O3 0.941522 0.276203 0.583987
O O4 0.830407 0.285965 0.633931
O O5 0.828347 0.766144 0.884398
O O6 0.653576 0.749088 0.871674
O O7 0.666947 0.777757 0.761285
O O8 0.709072 0.000000 0.846982
O O9 0.997813 0.765809 0.884496
O O10 0.939762 0.000000 0.919761
O O11 0.000000 0.763214 0.000000
O O12 0.557927 0.500000 0.845410
O O13 0.475040 0.274113 0.761514
O O14 0.500000 0.721081 0.500000
O O15 0.526050 0.500000 0.435813
O O16 0.380541 0.694184 0.365309
O O17 0.698284 0.798704 0.264125
O O18 0.584348 0.000000 0.273484
O O19 0.181341 0.000000 0.736109
#
# Coordination Sequence:
#
# PCOD8101976 Si02
#       7
#     8   8   8   8   8   8   8
#     4  11  23  38  56  81 112 150 194 244 299 356
#     4  11  22  38  61  90 122 159 201 249 301 357
#     4   9  20  40  63  88 123 163 201 246 302 361
#     4  11  22  38  62  92 122 159 204 248 298 359
#     4  10  21  38  57  79 111 151 194 240 297 358
#     4  10  21  38  60  86 118 154 195 246 301 355
#     4  10  20  36  60  86 115 153 195 245 298 355
#
# _framework density 20.188479999999998
#
# number of rings (size 3 to 8) (size 9 to 14) (size 15 to 20)
#    0.000    1.714    1.429    3.000    0.000    7.143 
#    0.000    1.429    0.000    6.000    0.000    0.000 
#    0.000    0.000    0.000    0.000    0.000    0.000 
#
# Total GULP energy -347277.961475 kJ/mol
# GULP energy per Si atom -12402.784338 kJ/mol
# Density = 2.014253 g / cm^3
# Si number density = 20.188480 Si / 1000 Ang^3
#
#
#
# Elastic Constant Matrix: (Units=GPa)
#
#
# Indices 1 2 3 4 5 6 
#
# 1 143.7558 48.9440 52.2778 0.0000 0.2028 0.0000
# 2 48.9440 67.1371 41.3926 0.0000 -4.3002 0.0000
# 3 52.2778 41.3926 107.6103 0.0000 0.4711 0.0000
# 4 0.0000 0.0000 0.0000 21.7434 0.0000 0.6016
# 5 0.2028 -4.3002 0.4711 0.0000 27.5494 0.0000
# 6 0.0000 0.0000 0.0000 0.6016 0.0000 35.9603
#
#
#
# Elastic Compliance Matrix: (Units=1/GPa)
#
#
# Indices 1 2 3 4 5 6 
#
# 1 0.009814 -0.005604 -0.002608 0.000000 -0.000902 0.000000
# 2 -0.005604 0.023008 -0.006144 0.000000 0.003738 0.000000
# 3 -0.002608 -0.006144 0.012928 0.000000 -0.001161 0.000000
# 4 0.000000 0.000000 0.000000 0.046012 0.000000 -0.000770
# 5 -0.000902 0.003738 -0.001161 0.000000 0.036908 0.000000
# 6 0.000000 0.000000 0.000000 -0.000770 0.000000 0.027821
#
#
# Mechanical properties :
#
#
# Convention : Reuss Voigt Hill
#
# Bulk Modulus (GPa) = 58.69370 67.08134 62.88752
# Shear Modulus (GPa) = 26.19399 28.77654 27.48527
#
# Velocity S-wave (km/s) = 3.60595 3.77954 3.69376
# Velocity P-wave (km/s) = 6.81712 7.23507 7.02920
#
# Compressibility (1/GPa) = 0.01703760
#
# Stress axis : x y z
#
# Youngs Moduli (GPa) = 101.89445 43.46340 77.35118
#
# Poissons Ratio (x) = 0.24359 0.20173
# Poissons Ratio (y) = 0.57107 0.47522
# Poissons Ratio (z) = 0.26574 0.26703
#
# Static dielectric constant tensor:
#      x y z
#    x 0.000000 0.000000 0.000000 
#    y 0.000000 0.000000 0.000000 
#    z 0.000000 0.000000 0.000000 
# 
# 
# High freq. dielectric constant tensor:
#      x y z
#    x 1.801290 0.000000 0.000730 
#    y 0.000000 1.771270 0.000000 
#    z 0.000730 0.000000 1.788330 
# 
# From -- ./inp_files/339035.got.cif
#   From: 2010.06.25/outbox.cif.g09.slc.cpg/sg12_170_cif.got.tgz:339035.got - 2010.06.28 00:19:55.
