data_PCOD8101732
_publ_section_title
;
Structure prediction by ZEFSAII (Michael W. Deem and Ramdas Pophale) SiO2 
 PCOD8101732
Probable space group: C 2/M
;
_chemical_formula_sum "Si O2"
_cell_formula_units_Z 56
_cell_length_a 18.715999
_cell_length_b 8.443894
_cell_length_c 29.365548
_cell_angle_alpha 90.000000
_cell_angle_beta 142.519040
_cell_angle_gamma 90.000000
_cell_volume 2823.923169
_symmetry_space_group_name_H-M "C 2/M"
_symmetry_group_IT_number 12
_symmetry_cell_setting 'monoclinic'
loop_
_space_group_symop_operation_xyz
x,y,z
-x,y,-z
-x,-y,-z
x,-y,z
1/2+x,1/2+y,z
1/2-x,1/2+y,-z
1/2-x,1/2-y,-z
1/2+x,1/2-y,z
loop_
_atom_site_type_symbol
_atom_site_label
_atom_site_fract_x
_atom_site_fract_y
_atom_site_fract_z
Si Si1 0.302416 0.186307 0.205402
Si Si2 0.957142 0.188719 0.929693
Si Si3 0.329069 0.683395 0.629328
Si Si4 0.077708 0.816721 0.496793
Si Si5 0.968022 0.686522 0.209210
Si Si6 0.481416 0.815513 0.628658
Si Si7 0.380814 0.312177 0.070707
O O1 0.172866 0.260988 0.145685
O O2 0.358206 0.238105 0.185242
O O3 0.388451 0.241105 0.289832
O O4 0.287333 0.000000 0.198642
O O5 0.046158 0.247835 0.935980
O O6 0.954091 0.000000 0.928885
O O7 0.000000 0.254492 0.000000
O O8 0.295683 0.500000 0.614697
O O9 0.212449 0.785592 0.576717
O O10 0.415622 0.726682 0.714258
O O11 0.384637 0.719952 0.608203
O O12 0.034565 0.713929 0.432427
O O13 0.000000 0.762199 0.500000
O O14 0.058258 0.000000 0.475399
O O15 0.989293 0.500000 0.223015
O O16 0.943766 0.738367 0.145967
O O17 0.464727 0.000000 0.631781
O O18 0.380153 0.500000 0.074314
O O19 0.250000 0.250000 0.000000
#
# Coordination Sequence:
#
# PCOD8101732 Si02
#       7
#     8   8   8   8   8   8   8
#     4   8  16  32  55  81 106 137 180 228 273 322
#     4   9  17  31  53  80 107 140 185 230 270 319
#     4  11  22  38  61  86 114 149 190 232 279 342
#     4  11  24  40  57  81 115 151 190 240 292 336
#     4  10  20  37  60  84 112 144 181 229 282 335
#     4  10  20  36  59  85 114 149 190 234 284 344
#     4  11  22  35  55  82 112 147 186 231 281 335
#
# _framework density 19.830569000000001
#
# number of rings (size 3 to 8) (size 9 to 14) (size 15 to 20)
#    0.000    2.000    0.000    5.143    0.000    4.571 
#    0.000    1.429    0.000   15.429    0.000    0.000 
#    0.000    0.000    0.000    0.000    0.000    0.000 
#
# Total GULP energy -347252.086471 kJ/mol
# GULP energy per Si atom -12401.860231 kJ/mol
# Density = 1.978543 g / cm^3
# Si number density = 19.830569 Si / 1000 Ang^3
#
#
#
# Elastic Constant Matrix: (Units=GPa)
#
#
# Indices 1 2 3 4 5 6 
#
# 1 138.5331 8.7969 86.2021 0.0001 5.4293 -0.0004
# 2 8.7969 39.2725 11.2771 0.0002 -4.1757 -0.0011
# 3 86.2021 11.2771 128.8654 0.0000 3.3723 -0.0002
# 4 0.0001 0.0002 0.0000 26.0306 0.0000 -2.1927
# 5 5.4293 -4.1757 3.3723 0.0000 41.8568 0.0001
# 6 -0.0004 -0.0011 -0.0002 -2.1927 0.0001 24.4030
#
#
#
# Elastic Compliance Matrix: (Units=1/GPa)
#
#
# Indices 1 2 3 4 5 6 
#
# 1 0.012413 -0.000523 -0.008231 0.000000 -0.000999 0.000000
# 2 -0.000523 0.026472 -0.002042 0.000000 0.002873 0.000001
# 3 -0.008231 -0.002042 0.013451 0.000000 -0.000220 0.000000
# 4 0.000000 0.000000 0.000000 0.038709 0.000000 0.003478
# 5 -0.000999 0.002873 -0.000220 0.000000 0.024325 0.000000
# 6 0.000000 0.000001 0.000000 0.003478 0.000000 0.041291
#
#
# Mechanical properties :
#
#
# Convention : Reuss Voigt Hill
#
# Bulk Modulus (GPa) = 32.52774 57.69145 45.10959
# Shear Modulus (GPa) = 26.52499 31.81774 29.17137
#
# Velocity S-wave (km/s) = 3.66126 4.00994 3.83956
# Velocity P-wave (km/s) = 5.85761 7.11300 6.51561
#
# Compressibility (1/GPa) = 0.03074299
#
# Stress axis : x y z
#
# Youngs Moduli (GPa) = 80.56165 37.77558 74.34539
#
# Poissons Ratio (x) = 0.01976 0.61197
# Poissons Ratio (y) = 0.04213 0.15181
# Poissons Ratio (z) = 0.66314 0.07713
#
# Static dielectric constant tensor:
#      x y z
#    x 3.733390 0.000000 0.120030 
#    y 0.000000 3.374490 0.000000 
#    z 0.120030 0.000000 3.797920 
# 
# 
# High freq. dielectric constant tensor:
#      x y z
#    x 1.772550 0.000000 0.003120 
#    y 0.000000 1.754900 0.000000 
#    z 0.003120 0.000000 1.789390 
# 
# From -- ./inp_files/363222.got.cif
#   From: 2010.06.25/outbox.cif.g09.slc.cpg/sg12_182_cif.got.tgz:363222.got - 2010.06.28 00:19:55.
