data_PCOD8101329
_publ_section_title
;
Structure prediction by ZEFSAII (Michael W. Deem and Ramdas Pophale) SiO2 
 PCOD8101329
Probable space group: C 2/M
;
_chemical_formula_sum "Si O2"
_cell_formula_units_Z 56
_cell_length_a 29.359165
_cell_length_b 9.131743
_cell_length_c 21.575937
_cell_angle_alpha 90.000000
_cell_angle_beta 31.168909
_cell_angle_gamma 90.000000
_cell_volume 2993.850300
_symmetry_space_group_name_H-M "C 2/M"
_symmetry_group_IT_number 12
_symmetry_cell_setting 'monoclinic'
loop_
_space_group_symop_operation_xyz
x,y,z
-x,y,-z
-x,-y,-z
x,-y,z
1/2+x,1/2+y,z
1/2-x,1/2+y,-z
1/2-x,1/2-y,-z
1/2+x,1/2-y,z
loop_
_atom_site_type_symbol
_atom_site_label
_atom_site_fract_x
_atom_site_fract_y
_atom_site_fract_z
Si Si1 0.111552 0.668331 0.730804
Si Si2 0.426301 0.830772 0.363701
Si Si3 0.782785 0.828921 0.605509
Si Si4 0.713449 0.166529 0.818682
Si Si5 0.966173 0.827489 0.972838
Si Si6 0.888836 0.170988 0.852216
Si Si7 0.252725 0.666241 0.908110
O O1 0.094021 0.500000 0.768793
O O2 0.124245 0.689506 0.642671
O O3 0.197795 0.726374 0.666058
O O4 0.026791 0.760088 0.849142
O O5 0.368018 0.758866 0.485000
O O6 0.520168 0.754907 0.252463
O O7 0.440398 0.000000 0.363203
O O8 0.770712 0.791716 0.692058
O O9 0.799065 0.000000 0.574588
O O10 0.772495 0.184464 0.811828
O O11 0.678545 0.000000 0.852310
O O12 0.632401 0.274382 0.920639
O O13 0.969475 0.000000 0.961883
O O14 0.000000 0.773954 0.000000
O O15 0.841828 0.204326 0.841184
O O16 0.906510 0.000000 0.842014
O O17 0.826779 0.227829 0.979769
O O18 0.223390 0.500000 0.957714
#
# Coordination Sequence:
#
# PCOD8101329 Si02
#       7
#     8   8   8   8   8   8   8
#     4  10  21  37  56  78 105 143 185 223 264 316
#     4  11  23  37  55  79 108 142 182 225 268 313
#     4  10  21  37  56  77 104 142 184 222 266 318
#     4  10  20  36  58  80 107 143 181 220 266 320
#     4  11  22  33  50  80 114 143 174 216 264 314
#     4  10  20  36  58  83 111 140 175 220 269 320
#     4   9  19  36  59  86 110 136 174 222 271 317
#
# _framework density 18.705009
#
# number of rings (size 3 to 8) (size 9 to 14) (size 15 to 20)
#    0.000    1.857    1.429    2.571    0.000    7.429 
#    0.000    0.714    0.000    4.286    0.000    0.000 
#    0.000    0.000    0.000    0.000    0.000    0.000 
#
# Total GULP energy -347304.996607 kJ/mol
# GULP energy per Si atom -12403.749879 kJ/mol
# Density = 1.866244 g / cm^3
# Si number density = 18.705009 Si / 1000 Ang^3
#
#
#
# Elastic Constant Matrix: (Units=GPa)
#
#
# Indices 1 2 3 4 5 6 
#
# 1 109.2411 36.4411 47.7960 -0.0059 12.8731 0.0000
# 2 36.4411 75.5251 44.5973 -0.0130 1.7947 0.0004
# 3 47.7960 44.5973 94.1906 -0.0134 9.4593 0.0012
# 4 -0.0059 -0.0130 -0.0134 44.9594 0.0036 3.3071
# 5 12.8731 1.7947 9.4593 0.0036 25.1548 -0.0011
# 6 0.0000 0.0004 0.0012 3.3071 -0.0011 28.0967
#
#
#
# Elastic Compliance Matrix: (Units=1/GPa)
#
#
# Indices 1 2 3 4 5 6 
#
# 1 0.012772 -0.003471 -0.004371 0.000000 -0.004645 0.000000
# 2 -0.003471 0.019424 -0.007768 0.000003 0.003312 0.000000
# 3 -0.004371 -0.007768 0.016870 0.000003 -0.003553 -0.000001
# 4 0.000000 0.000003 0.000003 0.022437 -0.000004 -0.002641
# 5 -0.004645 0.003312 -0.003553 -0.000004 0.043230 0.000002
# 6 0.000000 0.000000 -0.000001 -0.002641 0.000002 0.035902
#
#
# Mechanical properties :
#
#
# Convention : Reuss Voigt Hill
#
# Bulk Modulus (GPa) = 56.03799 59.62508 57.83153
# Shear Modulus (GPa) = 26.62375 29.65032 28.13703
#
# Velocity S-wave (km/s) = 3.77682 3.98572 3.88268
# Velocity P-wave (km/s) = 7.00307 7.28883 7.14738
#
# Compressibility (1/GPa) = 0.01784504
#
# Stress axis : x y z
#
# Youngs Moduli (GPa) = 78.29830 51.48367 59.27847
#
# Poissons Ratio (x) = 0.17870 0.25911
# Poissons Ratio (y) = 0.27177 0.46047
# Poissons Ratio (z) = 0.34224 0.39992
#
# Static dielectric constant tensor:
#      x y z
#    x 3.635210 -0.000010 0.149610 
#    y -0.000010 3.453350 0.000010 
#    z 0.149610 0.000010 3.268740 
# 
# 
# High freq. dielectric constant tensor:
#      x y z
#    x 1.732550 0.000000 0.009450 
#    y 0.000000 1.729530 0.000000 
#    z 0.009450 0.000000 1.712780 
# 
# From -- ./inp_files/329489.got.cif
#   From: 2010.06.25/outbox.cif.g09.slc.cpg/sg12_165_cif.got.tgz:329489.got - 2010.06.28 00:19:55.
