data_PCOD8101607
_publ_section_title
;
Structure prediction by ZEFSAII (Michael W. Deem and Ramdas Pophale) SiO2 
 PCOD8101607
Probable space group: C 2/M
;
_chemical_formula_sum "Si O2"
_cell_formula_units_Z 56
_cell_length_a 9.579377
_cell_length_b 26.381577
_cell_length_c 12.299418
_cell_angle_alpha 90.000000
_cell_angle_beta 119.137052
_cell_angle_gamma 90.000000
_cell_volume 2714.965882
_symmetry_space_group_name_H-M "C 2/M"
_symmetry_group_IT_number 12
_symmetry_cell_setting 'monoclinic'
loop_
_space_group_symop_operation_xyz
x,y,z
-x,y,-z
-x,-y,-z
x,-y,z
1/2+x,1/2+y,z
1/2-x,1/2+y,-z
1/2-x,1/2-y,-z
1/2+x,1/2-y,z
loop_
_atom_site_type_symbol
_atom_site_label
_atom_site_fract_x
_atom_site_fract_y
_atom_site_fract_z
Si Si1 0.672567 0.315743 0.264651
Si Si2 0.157070 0.146262 0.917059
Si Si3 0.401366 0.139758 0.197170
Si Si4 0.127535 0.055538 0.765552
Si Si5 0.380298 0.789813 0.857532
Si Si6 0.628860 0.056908 0.334613
Si Si7 0.881602 0.122006 0.551207
O O1 0.529831 0.342115 0.141826
O O2 0.844647 0.336381 0.289756
O O3 0.667875 0.255990 0.239384
O O4 0.656649 0.329441 0.386817
O O5 0.188071 0.089486 0.887435
O O6 0.223618 0.187109 0.854816
O O7 0.245518 0.147729 0.064371
O O8 0.547893 0.168283 0.195572
O O9 0.457188 0.081966 0.239792
O O10 0.269523 0.051255 0.734640
O O11 0.969146 0.078542 0.652461
O O12 0.083711 0.000000 0.793708
O O13 0.500000 0.772850 0.000000
O O14 0.718249 0.095797 0.449508
O O15 0.602564 0.000000 0.373941
O O16 0.000000 0.140790 0.500000
#
# Coordination Sequence:
#
# PCOD8101607 Si02
#       7
#     8   8   8   8   8   8   8
#     4  11  22  37  61  84 115 155 195 238 292 339
#     4  10  20  36  58  88 122 153 189 233 280 349
#     4  11  22  36  57  91 123 148 191 238 286 346
#     4   9  17  33  61  88 111 149 196 238 282 340
#     4  10  20  37  61  87 117 156 194 230 280 347
#     4  10  20  37  61  84 115 154 194 240 288 337
#     4   9  20  39  61  84 112 147 201 243 282 341
#
# _framework density 20.626408999999999
#
# number of rings (size 3 to 8) (size 9 to 14) (size 15 to 20)
#    0.000    2.000    1.429    2.571    0.000    5.143 
#    0.000    6.429    0.000    4.286    0.000    0.000 
#    0.000    0.000    0.000    0.000    0.000    0.000 
#
# Total GULP energy -347088.740210 kJ/mol
# GULP energy per Si atom -12396.026436 kJ/mol
# Density = 2.057946 g / cm^3
# Si number density = 20.626409 Si / 1000 Ang^3
#
#
#
# Elastic Constant Matrix: (Units=GPa)
#
#
# Indices 1 2 3 4 5 6 
#
# 1 68.7196 27.3450 25.7909 0.0000 -5.6289 0.0000
# 2 27.3450 127.7359 41.2718 0.0000 -13.6684 0.0000
# 3 25.7909 41.2718 52.8726 0.0000 -12.9541 0.0000
# 4 0.0000 0.0000 0.0000 -0.0388 0.0000 -0.7876
# 5 -5.6289 -13.6684 -12.9541 0.0000 25.1145 0.0000
# 6 0.0000 0.0000 0.0000 -0.7876 0.0000 9.3755
#
#
#
# Elastic Compliance Matrix: (Units=1/GPa)
#
#
# Indices 1 2 3 4 5 6 
#
# 1 0.018001 -0.001389 -0.007891 0.000000 -0.000791 0.000000
# 2 -0.001389 0.010640 -0.007195 0.000000 0.001768 0.000000
# 3 -0.007891 -0.007195 0.030889 0.000000 0.010249 0.000000
# 4 0.000000 0.000000 0.000000 -9.529396 0.000000 -0.800546
# 5 -0.000791 0.001768 0.010249 0.000000 0.045889 0.000000
# 6 0.000000 0.000000 0.000000 -0.800546 0.000000 0.039409
#
#
# Mechanical properties :
#
#
# Convention : Reuss Voigt Hill
#
# Bulk Modulus (GPa) = 37.61904 48.68261 43.15083
# Shear Modulus (GPa) = -0.53517 17.21828 8.34155
#
# Velocity S-wave (km/s) = -0.50993 2.89237 2.01318
# Velocity P-wave (km/s) = 4.23452 5.89981 5.13512
#
# Compressibility (1/GPa) = 0.02658229
#
# Stress axis : x y z
#
# Youngs Moduli (GPa) = 55.55215 93.98711 32.37361
#
# Poissons Ratio (x) = 0.13053 0.25545
# Poissons Ratio (y) = 0.07715 0.23291
# Poissons Ratio (z) = 0.43834 0.67620
#
# Static dielectric constant tensor:
#      x y z
#    x 3.693290 0.000000 -0.036620 
#    y 0.000000 3.852180 0.000000 
#    z -0.036620 0.000000 3.630510 
# 
# 
# High freq. dielectric constant tensor:
#      x y z
#    x 1.804790 0.000000 -0.001580 
#    y 0.000000 1.803290 0.000000 
#    z -0.001580 0.000000 1.790640 
# 
# From -- ./inp_files/124351.got.cif
#   From: 2010.06.25/outbox.cif.g09.slc.cpg/sg12_63_cif.got.tgz:124351.got - 2010.06.28 00:19:55.
