data_PCOD8101751
_publ_section_title
;
Structure prediction by ZEFSAII (Michael W. Deem and Ramdas Pophale) SiO2 
 PCOD8101751
Probable space group: C 2/M
;
_chemical_formula_sum "Si O2"
_cell_formula_units_Z 56
_cell_length_a 14.423059
_cell_length_b 8.458300
_cell_length_c 30.033547
_cell_angle_alpha 90.000000
_cell_angle_beta 52.170995
_cell_angle_gamma 90.000000
_cell_volume 2893.934949
_symmetry_space_group_name_H-M "C 2/M"
_symmetry_group_IT_number 12
_symmetry_cell_setting 'monoclinic'
loop_
_space_group_symop_operation_xyz
x,y,z
-x,y,-z
-x,-y,-z
x,-y,z
1/2+x,1/2+y,z
1/2-x,1/2+y,-z
1/2-x,1/2-y,-z
1/2+x,1/2-y,z
loop_
_atom_site_type_symbol
_atom_site_label
_atom_site_fract_x
_atom_site_fract_y
_atom_site_fract_z
Si Si1 0.838868 0.185169 0.346308
Si Si2 0.789226 0.682588 0.268174
Si Si3 0.097857 0.180762 0.939472
Si Si4 0.941142 0.815722 0.146112
Si Si5 0.188404 0.318357 0.061513
Si Si6 0.921509 0.687174 0.562517
Si Si7 0.538549 0.184617 0.350189
O O1 0.856057 0.270645 0.293968
O O2 0.713835 0.240781 0.403854
O O3 0.943522 0.223732 0.348992
O O4 0.836574 0.000000 0.337235
O O5 0.754846 0.500000 0.279967
O O6 0.877798 0.713819 0.202112
O O7 0.670377 0.781314 0.294830
O O8 0.101195 0.253906 0.889119
O O9 0.225488 0.196044 0.922243
O O10 0.056837 0.000000 0.945236
O O11 0.000000 0.264525 0.000000
O O12 0.079893 0.788878 0.107686
O O13 0.911662 0.000000 0.161806
O O14 0.151928 0.500000 0.063792
O O15 0.250000 0.250000 0.000000
O O16 0.929591 0.500000 0.557932
O O17 0.971537 0.743588 0.595610
O O18 0.000000 0.763752 0.500000
O O19 0.512790 0.000000 0.353108
#
# Coordination Sequence:
#
# PCOD8101751 Si02
#       7
#     8   8   8   8   8   8   8
#     4  10  20  36  59  85 115 154 197 240 289 343
#     4  11  23  40  59  82 113 147 192 244 293 346
#     4   9  18  35  57  79 106 143 177 210 267 335
#     4  11  22  39  60  82 111 145 184 231 285 346
#     4  11  21  36  57  82 110 143 183 224 275 336
#     4   8  16  32  54  83 120 158 196 238 284 338
#     4  10  20  36  59  85 116 155 195 238 292 342
#
# _framework density 19.350815000000001
#
# number of rings (size 3 to 8) (size 9 to 14) (size 15 to 20)
#    0.000    2.000    1.429    3.857    0.000    1.714 
#    0.000    7.857    0.000   14.571    0.000    0.000 
#    0.000    0.000    0.000    0.000    0.000    0.000 
#
# Total GULP energy -347203.466279 kJ/mol
# GULP energy per Si atom -12400.123796 kJ/mol
# Density = 1.930677 g / cm^3
# Si number density = 19.350815 Si / 1000 Ang^3
#
#
#
# Elastic Constant Matrix: (Units=GPa)
#
#
# Indices 1 2 3 4 5 6 
#
# 1 118.5905 9.9383 54.9955 0.0000 10.5415 -0.0001
# 2 9.9383 50.9571 14.9252 -0.0001 4.3516 -0.0002
# 3 54.9955 14.9252 152.2373 0.0000 2.7341 0.0000
# 4 0.0000 -0.0001 0.0000 20.4773 0.0000 -0.9215
# 5 10.5415 4.3516 2.7341 0.0000 22.2604 -0.0001
# 6 -0.0001 -0.0002 0.0000 -0.9215 -0.0001 30.2199
#
#
#
# Elastic Compliance Matrix: (Units=1/GPa)
#
#
# Indices 1 2 3 4 5 6 
#
# 1 0.010587 -0.000606 -0.003685 0.000000 -0.004442 0.000000
# 2 -0.000606 0.020550 -0.001733 0.000000 -0.003518 0.000000
# 3 -0.003685 -0.001733 0.008050 0.000000 0.001095 0.000000
# 4 0.000000 0.000000 0.000000 0.048902 0.000000 0.001491
# 5 -0.004442 -0.003518 0.001095 0.000000 0.047580 0.000000
# 6 0.000000 0.000000 0.000000 0.001491 0.000000 0.033136
#
#
# Mechanical properties :
#
#
# Convention : Reuss Voigt Hill
#
# Bulk Modulus (GPa) = 36.84641 53.50031 45.17336
# Shear Modulus (GPa) = 26.32963 30.71991 28.52477
#
# Velocity S-wave (km/s) = 3.69270 3.98870 3.84355
# Velocity P-wave (km/s) = 6.10442 6.99432 6.56447
#
# Compressibility (1/GPa) = 0.02713968
#
# Stress axis : x y z
#
# Youngs Moduli (GPa) = 94.45436 48.66079 124.22011
#
# Poissons Ratio (x) = 0.02949 0.45780
# Poissons Ratio (y) = 0.05724 0.21523
# Poissons Ratio (z) = 0.34810 0.08431
#
# Static dielectric constant tensor:
#      x y z
#    x 3.483780 0.000000 0.111570 
#    y 0.000000 3.373660 0.000000 
#    z 0.111570 0.000000 3.688680 
# 
# 
# High freq. dielectric constant tensor:
#      x y z
#    x 1.757680 0.000000 0.003860 
#    y 0.000000 1.737960 0.000000 
#    z 0.003860 0.000000 1.756630 
# 
# From -- ./inp_files/359672.got.cif
#   From: 2010.06.25/outbox.cif.g09.slc.cpg/sg12_180_cif.got.tgz:359672.got - 2010.06.28 00:19:55.
