data_PCOD8101700
_publ_section_title
;
Structure prediction by ZEFSAII (Michael W. Deem and Ramdas Pophale) SiO2 
 PCOD8101700
Probable space group: C 2/M
;
_chemical_formula_sum "Si O2"
_cell_formula_units_Z 64
_cell_length_a 15.660601
_cell_length_b 9.954315
_cell_length_c 28.618477
_cell_angle_alpha 90.000000
_cell_angle_beta 43.248376
_cell_angle_gamma 90.000000
_cell_volume 3056.749217
_symmetry_space_group_name_H-M "C 2/M"
_symmetry_group_IT_number 12
_symmetry_cell_setting 'monoclinic'
loop_
_space_group_symop_operation_xyz
x,y,z
-x,y,-z
-x,-y,-z
x,-y,z
1/2+x,1/2+y,z
1/2-x,1/2+y,-z
1/2-x,1/2-y,-z
1/2+x,1/2-y,z
loop_
_atom_site_type_symbol
_atom_site_label
_atom_site_fract_x
_atom_site_fract_y
_atom_site_fract_z
Si Si1 0.749838 0.657288 0.241853
Si Si2 0.143880 0.155512 0.379632
Si Si3 0.472378 0.349099 0.734982
Si Si4 0.791585 0.756477 0.407360
Si Si5 0.884011 0.151594 0.012857
Si Si6 0.579593 0.851695 0.554974
Si Si7 0.373576 0.147432 0.846503
Si Si8 0.496372 0.850763 0.896580
O O1 0.774358 0.500000 0.231116
O O2 0.738048 0.702882 0.300721
O O3 0.622358 0.699396 0.267500
O O4 0.868158 0.719263 0.166923
O O5 0.211014 0.168838 0.402816
O O6 0.018099 0.242276 0.424973
O O7 0.104543 0.000000 0.388254
O O8 0.440939 0.500000 0.763877
O O9 0.612629 0.347515 0.659894
O O10 0.457051 0.250037 0.784307
O O11 0.699328 0.850030 0.473432
O O12 0.873035 0.667166 0.410720
O O13 0.908207 0.253585 0.961265
O O14 0.859388 0.000000 0.003365
O O15 0.767117 0.201330 0.090414
O O16 0.000000 0.153945 0.000000
O O17 0.518883 0.000000 0.575844
O O18 0.433056 0.131264 0.872684
O O19 0.373094 0.000000 0.822055
O O20 0.506763 0.000000 0.916107
#
# Coordination Sequence:
#
# PCOD8101700 Si02
#       8
#     8   8   8   8   8   8   8   8
#     4   9  19  37  59  86 118 154 199 254 305 360
#     4  11  23  43  68  92 125 170 215 258 314 382
#     4  11  22  39  63  89 119 158 204 254 308 368
#     4  11  24  41  66  93 127 167 210 260 318 383
#     4  10  21  37  56  82 119 157 194 244 307 363
#     4  11  25  43  64  95 130 164 209 265 321 376
#     4  10  22  38  57  85 120 157 198 249 306 367
#     4  10  20  36  59  84 114 153 201 250 297 359
#
# _framework density 20.937275
#
# number of rings (size 3 to 8) (size 9 to 14) (size 15 to 20)
#    0.000    1.625    1.250    3.000    0.000    7.750 
#    0.000    0.625    0.000    0.000    0.000    0.000 
#    0.000    0.000    0.000    0.000    0.000    0.000 
#
# Total GULP energy -396705.288939 kJ/mol
# GULP energy per Si atom -12397.040279 kJ/mol
# Density = 2.088962 g / cm^3
# Si number density = 20.937275 Si / 1000 Ang^3
#
#
#
# Elastic Constant Matrix: (Units=GPa)
#
#
# Indices 1 2 3 4 5 6 
#
# 1 93.2221 35.3868 25.8872 0.0000 -3.7273 0.0002
# 2 35.3868 108.3814 54.7803 0.0001 5.6236 -0.0001
# 3 25.8872 54.7803 115.6175 0.0000 -3.5548 -0.0001
# 4 0.0000 0.0001 0.0000 27.0085 0.0000 2.7474
# 5 -3.7273 5.6236 -3.5548 0.0000 37.9062 0.0001
# 6 0.0002 -0.0001 -0.0001 2.7474 0.0001 32.6581
#
#
#
# Elastic Compliance Matrix: (Units=1/GPa)
#
#
# Indices 1 2 3 4 5 6 
#
# 1 0.012458 -0.003643 -0.001012 0.000000 0.001670 0.000000
# 2 -0.003643 0.013409 -0.005626 0.000000 -0.002875 0.000000
# 3 -0.001012 -0.005626 0.011597 0.000000 0.001823 0.000000
# 4 0.000000 0.000000 0.000000 0.037345 0.000000 -0.003142
# 5 0.001670 -0.002875 0.001823 0.000000 0.027143 0.000000
# 6 0.000000 0.000000 0.000000 -0.003142 0.000000 0.030885
#
#
# Mechanical properties :
#
#
# Convention : Reuss Voigt Hill
#
# Bulk Modulus (GPa) = 59.16243 61.03663 60.09953
# Shear Modulus (GPa) = 31.44032 32.92566 32.18299
#
# Velocity S-wave (km/s) = 3.87931 3.96989 3.92486
# Velocity P-wave (km/s) = 6.95584 7.08722 7.02184
#
# Compressibility (1/GPa) = 0.01690262
#
# Stress axis : x y z
#
# Youngs Moduli (GPa) = 80.27215 74.57820 86.22572
#
# Poissons Ratio (x) = 0.27166 0.08727
# Poissons Ratio (y) = 0.29240 0.48510
# Poissons Ratio (z) = 0.08124 0.41957
#
# Static dielectric constant tensor:
#      x y z
#    x 3.787770 0.000000 -0.289070 
#    y 0.000000 3.691060 -0.000010 
#    z -0.289070 -0.000010 5.508640 
# 
# 
# High freq. dielectric constant tensor:
#      x y z
#    x 1.822570 0.000000 -0.009100 
#    y 0.000000 1.801130 0.000000 
#    z -0.009100 0.000000 1.830760 
# 
# From -- ./inp_files/361048.got.cif
#   From: 2010.06.25/outbox.cif.g09.slc.cpg/sg12_181_cif.got.tgz:361048.got - 2010.06.28 00:19:55.
