data_PCOD8101229
_publ_section_title
;
Structure prediction by ZEFSAII (Michael W. Deem and Ramdas Pophale) SiO2 
 PCOD8101229
Probable space group: C 2/M
;
_chemical_formula_sum "Si O2"
_cell_formula_units_Z 40
_cell_length_a 30.022426
_cell_length_b 9.247925
_cell_length_c 11.345613
_cell_angle_alpha 90.000000
_cell_angle_beta 138.346373
_cell_angle_gamma 90.000000
_cell_volume 2093.607511
_symmetry_space_group_name_H-M "C 2/M"
_symmetry_group_IT_number 12
_symmetry_cell_setting 'monoclinic'
loop_
_space_group_symop_operation_xyz
x,y,z
-x,y,-z
-x,-y,-z
x,-y,z
1/2+x,1/2+y,z
1/2-x,1/2+y,-z
1/2-x,1/2-y,-z
1/2+x,1/2-y,z
loop_
_atom_site_type_symbol
_atom_site_label
_atom_site_fract_x
_atom_site_fract_y
_atom_site_fract_z
Si Si1 0.882946 0.330254 0.539827
Si Si2 0.015152 0.330495 0.661214
Si Si3 0.263867 0.163312 0.142839
Si Si4 0.678359 0.671377 0.364568
Si Si5 0.869553 0.836536 0.983376
O O1 0.874592 0.500000 0.554570
O O2 0.832219 0.282854 0.336976
O O3 0.867808 0.233875 0.623312
O O4 0.956309 0.292981 0.636383
O O5 0.026797 0.500000 0.673600
O O6 0.000000 0.268136 0.500000
O O7 0.082649 0.265195 0.846989
O O8 0.205907 0.184429 0.122762
O O9 0.271628 0.000000 0.116760
O O10 0.250000 0.250000 0.000000
O O11 0.690907 0.500000 0.405138
O O12 0.750000 0.750000 0.500000
O O13 0.633683 0.703597 0.160651
O O14 0.894715 0.000000 0.051706
#
# Coordination Sequence:
#
# PCOD8101229 Si02
#       5
#     8   8   8   8   8
#     4  10  21  39  60  85 120 155 195 246 294 346
#     4  10  22  40  62  87 119 159 198 241 291 348
#     4  10  20  36  57  83 114 150 195 245 293 344
#     4  11  22  39  62  88 119 155 197 245 297 351
#     4  10  22  39  59  84 118 155 192 243 297 348
#
# _framework density 19.105777
#
# number of rings (size 3 to 8) (size 9 to 14) (size 15 to 20)
#    0.000    1.800    2.000    1.800    0.000    6.800 
#    0.000    4.000    0.000    0.000    0.000    0.000 
#    0.000    0.000    0.000    0.000    0.000    0.000 
#
# Total GULP energy -248030.765605 kJ/mol
# GULP energy per Si atom -12401.538280 kJ/mol
# Density = 1.906229 g / cm^3
# Si number density = 19.105777 Si / 1000 Ang^3
#
#
#
# Elastic Constant Matrix: (Units=GPa)
#
#
# Indices 1 2 3 4 5 6 
#
# 1 53.9501 30.9037 10.9439 0.0000 -24.1366 0.0000
# 2 30.9037 57.8329 36.7613 0.0000 -15.4413 0.0000
# 3 10.9439 36.7613 85.9461 0.0000 -7.1588 0.0000
# 4 0.0000 0.0000 0.0000 35.2519 0.0000 -3.1739
# 5 -24.1366 -15.4413 -7.1588 0.0000 31.7748 0.0000
# 6 0.0000 0.0000 0.0000 -3.1739 0.0000 36.4927
#
#
#
# Elastic Compliance Matrix: (Units=1/GPa)
#
#
# Indices 1 2 3 4 5 6 
#
# 1 0.036384 -0.016631 0.004188 0.000000 0.020499 0.000000
# 2 -0.016631 0.034488 -0.012525 0.000000 0.001305 0.000000
# 3 0.004188 -0.012525 0.016527 0.000000 0.000818 0.000000
# 4 0.000000 0.000000 0.000000 0.028591 0.000000 0.002487
# 5 0.020499 0.001305 0.000818 0.000000 0.047861 0.000000
# 6 0.000000 0.000000 0.000000 0.002487 0.000000 0.027619
#
#
# Mechanical properties :
#
#
# Convention : Reuss Voigt Hill
#
# Bulk Modulus (GPa) = 26.69291 39.43855 33.06573
# Shear Modulus (GPa) = 19.69327 28.64523 24.16925
#
# Velocity S-wave (km/s) = 3.21401 3.87628 3.56057
# Velocity P-wave (km/s) = 5.27016 6.38130 5.85216
#
# Compressibility (1/GPa) = 0.03746313
#
# Stress axis : x y z
#
# Youngs Moduli (GPa) = 27.48494 28.99559 60.50584
#
# Poissons Ratio (x) = 0.48222 -0.25340
# Poissons Ratio (y) = 0.45710 0.75784
# Poissons Ratio (z) = -0.11511 0.36317
#
# Static dielectric constant tensor:
#      x y z
#    x 3.021180 0.000000 0.302280 
#    y 0.000000 3.503220 0.000000 
#    z 0.302280 0.000000 3.299850 
# 
# 
# High freq. dielectric constant tensor:
#      x y z
#    x 1.754320 0.000000 -0.005220 
#    y 0.000000 1.737020 0.000000 
#    z -0.005220 0.000000 1.750220 
# 
# From -- ./inp_files/151629.got.cif
#   From: 2010.06.25/outbox.cif.g09.slc.cpg/sg12_76_cif.got.tgz:151629.got - 2010.06.28 00:19:55.
