data_PCOD8101911
_publ_section_title
;
Structure prediction by ZEFSAII (Michael W. Deem and Ramdas Pophale) SiO2 
 PCOD8101911
Probable space group: C 2/M
;
_chemical_formula_sum "Si O2"
_cell_formula_units_Z 56
_cell_length_a 14.900499
_cell_length_b 22.960159
_cell_length_c 8.800060
_cell_angle_alpha 90.000000
_cell_angle_beta 70.455738
_cell_angle_gamma 90.000000
_cell_volume 2837.193369
_symmetry_space_group_name_H-M "C 2/M"
_symmetry_group_IT_number 12
_symmetry_cell_setting 'monoclinic'
loop_
_space_group_symop_operation_xyz
x,y,z
-x,y,-z
-x,-y,-z
x,-y,z
1/2+x,1/2+y,z
1/2-x,1/2+y,-z
1/2-x,1/2-y,-z
1/2+x,1/2-y,z
loop_
_atom_site_type_symbol
_atom_site_label
_atom_site_fract_x
_atom_site_fract_y
_atom_site_fract_z
Si Si1 0.274327 0.629361 0.842012
Si Si2 0.842274 0.434728 0.318918
Si Si3 0.537960 0.174417 0.812292
Si Si4 0.102291 0.932786 0.994076
Si Si5 0.840438 0.328861 0.813778
Si Si6 0.277245 0.064863 0.685064
Si Si7 0.233636 0.734589 0.682832
O O1 0.223963 0.574221 0.791412
O O2 0.366402 0.606681 0.879914
O O3 0.295160 0.677651 0.699327
O O4 0.199678 0.661267 0.995076
O O5 0.885746 0.500000 0.287882
O O6 0.925326 0.386781 0.277571
O O7 0.775642 0.426864 0.505042
O O8 0.447834 0.196722 0.762801
O O9 0.620539 0.223027 0.766032
O O10 0.500000 0.161188 0.000000
O O11 0.097635 0.000000 0.048636
O O12 0.172006 0.923794 0.811755
O O13 0.000000 0.909671 0.000000
O O14 0.849660 0.390265 0.721381
O O15 0.766934 0.287942 0.767049
O O16 0.311943 0.000000 0.709307
O O17 0.250000 0.750000 0.500000
#
# Coordination Sequence:
#
# PCOD8101911 Si02
#       7
#     8   8   8   8   8   8   8
#     4  10  20  37  60  88 116 159 203 249 302 354
#     4  10  20  36  59  91 128 159 192 242 302 363
#     4  11  23  41  63  90 118 158 204 248 298 356
#     4   9  18  36  61  88 120 162 209 251 296 355
#     4  11  21  41  64  86 118 159 201 251 295 362
#     4   9  20  37  60  90 127 162 194 244 307 358
#     4  11  24  41  61  85 119 155 197 254 308 357
#
# _framework density 19.737814
#
# number of rings (size 3 to 8) (size 9 to 14) (size 15 to 20)
#    0.000    1.857    2.857    2.571    0.000    3.714 
#    5.143    2.143    6.286    3.429    0.000    0.000 
#    0.000    0.000    0.000    0.000    0.000    0.000 
#
# Total GULP energy -347073.549938 kJ/mol
# GULP energy per Si atom -12395.483926 kJ/mol
# Density = 1.969289 g / cm^3
# Si number density = 19.737814 Si / 1000 Ang^3
#
#
#
# Elastic Constant Matrix: (Units=GPa)
#
#
# Indices 1 2 3 4 5 6 
#
# 1 160.9646 62.9859 43.6459 0.0000 1.7308 0.0000
# 2 62.9859 108.2788 49.2914 0.0000 3.3078 0.0000
# 3 43.6459 49.2914 107.0227 0.0000 12.7594 0.0000
# 4 0.0000 0.0000 0.0000 35.6443 0.0000 6.9308
# 5 1.7308 3.3078 12.7594 0.0000 23.1521 0.0000
# 6 0.0000 0.0000 0.0000 6.9308 0.0000 31.3905
#
#
#
# Elastic Compliance Matrix: (Units=1/GPa)
#
#
# Indices 1 2 3 4 5 6 
#
# 1 0.008234 -0.004101 -0.001569 0.000000 0.000835 0.000000
# 2 -0.004101 0.013770 -0.004786 0.000000 0.000977 0.000000
# 3 -0.001569 -0.004786 0.012943 0.000000 -0.006332 0.000000
# 4 0.000000 0.000000 0.000000 0.029313 0.000000 -0.006472
# 5 0.000835 0.000977 -0.006332 0.000000 0.046480 0.000000
# 6 0.000000 0.000000 0.000000 -0.006472 0.000000 0.033286
#
#
# Mechanical properties :
#
#
# Convention : Reuss Voigt Hill
#
# Bulk Modulus (GPa) = 71.25002 76.45695 73.85348
# Shear Modulus (GPa) = 29.47856 32.72691 31.10274
#
# Velocity S-wave (km/s) = 3.86878 4.07637 3.97393
# Velocity P-wave (km/s) = 7.49221 7.80872 7.65210
#
# Compressibility (1/GPa) = 0.01403508
#
# Stress axis : x y z
#
# Youngs Moduli (GPa) = 121.45343 72.62269 77.26378
#
# Poissons Ratio (x) = 0.29782 0.12119
# Poissons Ratio (y) = 0.49807 0.36978
# Poissons Ratio (z) = 0.19051 0.34757
#
# Static dielectric constant tensor:
#      x y z
#    x 3.720660 0.000000 0.128040 
#    y 0.000000 3.691350 0.000000 
#    z 0.128040 0.000000 3.656640 
# 
# 
# High freq. dielectric constant tensor:
#      x y z
#    x 1.759590 0.000000 0.017100 
#    y 0.000000 1.771530 0.000000 
#    z 0.017100 0.000000 1.768330 
# 
# From -- ./inp_files/65766.got.cif
#   From: 2010.06.25/outbox.cif.g09.slc.cpg/sg12_33_cif.got.tgz:65766.got - 2010.06.28 00:19:55.
