data_PCOD8101547
_publ_section_title
;
Structure prediction by ZEFSAII (Michael W. Deem and Ramdas Pophale) SiO2 
 PCOD8101547
Probable space group: C 2/M
;
_chemical_formula_sum "Si O2"
_cell_formula_units_Z 64
_cell_length_a 12.144854
_cell_length_b 18.452013
_cell_length_c 14.007670
_cell_angle_alpha 90.000000
_cell_angle_beta 91.798563
_cell_angle_gamma 90.000000
_cell_volume 3137.530406
_symmetry_space_group_name_H-M "C 2/M"
_symmetry_group_IT_number 12
_symmetry_cell_setting 'monoclinic'
loop_
_space_group_symop_operation_xyz
x,y,z
-x,y,-z
-x,-y,-z
x,-y,z
1/2+x,1/2+y,z
1/2-x,1/2+y,-z
1/2-x,1/2-y,-z
1/2+x,1/2-y,z
loop_
_atom_site_type_symbol
_atom_site_label
_atom_site_fract_x
_atom_site_fract_y
_atom_site_fract_z
Si Si1 0.347262 0.919213 0.236969
Si Si2 0.497268 0.914951 0.602694
Si Si3 0.759164 0.675850 0.800479
Si Si4 0.145406 0.170868 0.250957
Si Si5 0.962348 0.797145 0.105218
Si Si6 0.020834 0.368165 0.106681
Si Si7 0.387795 0.584625 0.553543
Si Si8 0.250056 0.083099 0.630935
O O1 0.402989 0.882109 0.332397
O O2 0.242318 0.873690 0.201895
O O3 0.445110 0.922649 0.163713
O O4 0.306168 0.000000 0.257429
O O5 0.500000 0.876659 0.500000
O O6 0.379524 0.900957 0.646635
O O7 0.519691 0.000000 0.593184
O O8 0.814031 0.746024 0.751460
O O9 0.666984 0.690180 0.878715
O O10 0.851664 0.628170 0.857616
O O11 0.698061 0.631148 0.714119
O O12 0.036000 0.160192 0.184857
O O13 0.123987 0.138778 0.356664
O O14 0.978092 0.712612 0.119381
O O15 0.000000 0.821823 0.000000
O O16 0.000000 0.395351 0.000000
O O17 0.500000 0.600217 0.500000
O O18 0.381963 0.500000 0.586375
O O19 0.290142 0.603700 0.476450
O O20 0.218328 0.000000 0.649402
#
# Coordination Sequence:
#
# PCOD8101547 Si02
#       8
#     8   8   8   8   8   8   8   8
#     4  11  21  37  60  89 125 157 197 252 306 364
#     4   9  17  31  53  81 112 149 192 233 285 354
#     4  11  22  39  64  91 123 158 201 263 309 357
#     4  11  23  38  62  92 124 157 211 257 303 360
#     4  10  23  41  64  87 117 162 207 253 309 374
#     4  10  22  37  61  90 117 155 203 248 309 372
#     4  10  21  39  61  85 121 171 212 243 293 365
#     4  10  20  36  58  85 117 160 204 243 300 364
#
# _framework density 20.398208
#
# number of rings (size 3 to 8) (size 9 to 14) (size 15 to 20)
#    0.000    1.750    2.500    1.875    1.750    4.250 
#    0.000    1.250    0.000    1.875    0.000    0.000 
#    0.000    0.000    0.000    0.000    0.000    0.000 
#
# Total GULP energy -396607.572490 kJ/mol
# GULP energy per Si atom -12393.986640 kJ/mol
# Density = 2.035178 g / cm^3
# Si number density = 20.398208 Si / 1000 Ang^3
#
#
#
# Elastic Constant Matrix: (Units=GPa)
#
#
# Indices 1 2 3 4 5 6 
#
# 1 90.2879 17.8687 34.1491 0.0000 -0.2498 0.0000
# 2 17.8687 46.4476 39.3082 0.0000 3.9445 0.0000
# 3 34.1491 39.3082 133.0512 0.0000 0.0198 0.0000
# 4 0.0000 0.0000 0.0000 26.3833 0.0000 -1.9487
# 5 -0.2498 3.9445 0.0198 0.0000 36.0817 0.0000
# 6 0.0000 0.0000 0.0000 -1.9487 0.0000 22.1225
#
#
#
# Elastic Compliance Matrix: (Units=1/GPa)
#
#
# Indices 1 2 3 4 5 6 
#
# 1 0.012539 -0.002846 -0.002378 0.000000 0.000399 0.000000
# 2 -0.002846 0.029712 -0.008047 0.000000 -0.003263 0.000000
# 3 -0.002378 -0.008047 0.010503 0.000000 0.000857 0.000000
# 4 0.000000 0.000000 0.000000 0.038151 0.000000 0.003361
# 5 0.000399 -0.003263 0.000857 0.000000 0.028074 0.000000
# 6 0.000000 0.000000 0.000000 0.003361 0.000000 0.045499
#
#
# Mechanical properties :
#
#
# Convention : Reuss Voigt Hill
#
# Bulk Modulus (GPa) = 38.14817 50.27100 44.20958
# Shear Modulus (GPa) = 25.03045 28.81488 26.92266
#
# Velocity S-wave (km/s) = 3.50679 3.76256 3.63692
# Velocity P-wave (km/s) = 5.92782 6.60107 6.27348
#
# Compressibility (1/GPa) = 0.02621358
#
# Stress axis : x y z
#
# Youngs Moduli (GPa) = 79.74956 33.65685 95.20691
#
# Poissons Ratio (x) = 0.09577 0.22637
# Poissons Ratio (y) = 0.22694 0.76614
# Poissons Ratio (z) = 0.18962 0.27084
#
# Static dielectric constant tensor:
#      x y z
#    x 3.819380 0.000000 0.157570 
#    y 0.000000 3.388870 0.000000 
#    z 0.157570 0.000000 3.922100 
# 
# 
# High freq. dielectric constant tensor:
#      x y z
#    x 1.808450 0.000000 0.003020 
#    y 0.000000 1.767310 0.000000 
#    z 0.003020 0.000000 1.803030 
# 
# From -- ./inp_files/206706.got.cif
#   From: 2010.06.25/outbox.cif.g09.slc.cpg/sg12_104_cif.got.tgz:206706.got - 2010.06.28 00:19:55.
