data_PCOD8101314
_publ_section_title
;
Structure prediction by ZEFSAII (Michael W. Deem and Ramdas Pophale) SiO2 
 PCOD8101314
Probable space group: C 2/M
;
_chemical_formula_sum "Si O2"
_cell_formula_units_Z 64
_cell_length_a 15.378308
_cell_length_b 9.010731
_cell_length_c 27.762813
_cell_angle_alpha 90.000000
_cell_angle_beta 122.999787
_cell_angle_gamma 90.000000
_cell_volume 3226.446723
_symmetry_space_group_name_H-M "C 2/M"
_symmetry_group_IT_number 12
_symmetry_cell_setting 'monoclinic'
loop_
_space_group_symop_operation_xyz
x,y,z
-x,y,-z
-x,-y,-z
x,-y,z
1/2+x,1/2+y,z
1/2-x,1/2+y,-z
1/2-x,1/2-y,-z
1/2+x,1/2-y,z
loop_
_atom_site_type_symbol
_atom_site_label
_atom_site_fract_x
_atom_site_fract_y
_atom_site_fract_z
Si Si1 0.025093 0.175524 0.433930
Si Si2 0.823028 0.827051 0.669181
Si Si3 0.744893 0.171694 0.073645
Si Si4 0.408504 0.828274 0.060891
Si Si5 0.742004 0.827823 0.746279
Si Si6 0.373002 0.326597 0.878183
Si Si7 0.834492 0.175086 0.441498
Si Si8 0.969403 0.172835 0.313398
O O1 0.127804 0.230927 0.494001
O O2 0.921931 0.226753 0.430185
O O3 0.018122 0.238323 0.377748
O O4 0.030528 0.000000 0.435758
O O5 0.781193 0.760793 0.707042
O O6 0.771001 0.753006 0.606718
O O7 0.946667 0.797500 0.703268
O O8 0.799395 0.000000 0.658929
O O9 0.852375 0.241709 0.087330
O O10 0.710928 0.259687 0.110669
O O11 0.764702 0.000000 0.092356
O O12 0.656052 0.189951 0.007258
O O13 0.519344 0.757962 0.083683
O O14 0.420650 0.000000 0.078997
O O15 0.831938 0.799809 0.812004
O O16 0.637264 0.750907 0.732662
O O17 0.717533 0.000000 0.733408
O O18 0.388906 0.500000 0.894352
O O19 0.816839 0.000000 0.435080
O O20 0.945040 0.000000 0.312384
#
# Coordination Sequence:
#
# PCOD8101314 Si02
#       8
#     8   8   8   8   8   8   8   8
#     4   8  15  29  51  78 105 135 174 219 268 330
#     4  10  21  36  54  78 108 137 174 229 282 325
#     4  10  21  38  61  90 123 155 190 235 284 336
#     4  10  21  38  61  91 124 155 189 231 283 343
#     4  10  23  41  55  76 111 145 182 233 282 321
#     4  11  23  38  58  83 116 157 198 241 288 338
#     4   9  16  30  53  77 104 139 175 215 268 335
#     4  10  20  36  58  79 102 141 186 225 274 336
#
# _framework density 19.836062999999999
#
# number of rings (size 3 to 8) (size 9 to 14) (size 15 to 20)
#    0.000    2.250    1.250    2.250    0.000    6.000 
#    0.000    3.125    0.000    0.000    0.000    0.000 
#    0.000    0.000    0.000    0.000    0.000    0.000 
#
# Total GULP energy -396767.101010 kJ/mol
# GULP energy per Si atom -12398.971907 kJ/mol
# Density = 1.979091 g / cm^3
# Si number density = 19.836063 Si / 1000 Ang^3
#
#
#
# Elastic Constant Matrix: (Units=GPa)
#
#
# Indices 1 2 3 4 5 6 
#
# 1 79.4567 28.1124 18.5315 0.0000 4.8960 0.0000
# 2 28.1124 69.2046 28.7518 0.0000 2.5204 0.0000
# 3 18.5315 28.7518 44.0363 0.0000 -1.9219 0.0000
# 4 0.0000 0.0000 0.0000 29.9563 0.0000 4.4995
# 5 4.8960 2.5204 -1.9219 0.0000 19.0877 0.0000
# 6 0.0000 0.0000 0.0000 4.4995 0.0000 32.2576
#
#
#
# Elastic Compliance Matrix: (Units=1/GPa)
#
#
# Indices 1 2 3 4 5 6 
#
# 1 0.015270 -0.004573 -0.003600 0.000000 -0.003675 0.000000
# 2 -0.004573 0.021498 -0.012238 0.000000 -0.002898 0.000000
# 3 -0.003600 -0.012238 0.032467 0.000000 0.005809 0.000000
# 4 0.000000 0.000000 0.000000 0.034096 0.000000 -0.004756
# 5 -0.003675 -0.002898 0.005809 0.000000 0.054300 0.000000
# 6 0.000000 0.000000 0.000000 -0.004756 0.000000 0.031664
#
#
# Mechanical properties :
#
#
# Convention : Reuss Voigt Hill
#
# Bulk Modulus (GPa) = 35.19680 38.16544 36.68112
# Shear Modulus (GPa) = 20.86912 24.08045 22.47479
#
# Velocity S-wave (km/s) = 3.24710 3.48799 3.36970
# Velocity P-wave (km/s) = 5.64274 5.95849 5.80277
#
# Compressibility (1/GPa) = 0.02841167
#
# Stress axis : x y z
#
# Youngs Moduli (GPa) = 65.48923 46.51686 30.80011
#
# Poissons Ratio (x) = 0.21273 0.11089
# Poissons Ratio (y) = 0.29950 0.37693
# Poissons Ratio (z) = 0.23578 0.56927
#
# Static dielectric constant tensor:
#      x y z
#    x 3.665750 0.000000 -0.158800 
#    y 0.000000 3.437010 0.000000 
#    z -0.158800 0.000000 3.706820 
# 
# 
# High freq. dielectric constant tensor:
#      x y z
#    x 1.777370 0.000000 0.000010 
#    y 0.000000 1.757420 0.000000 
#    z 0.000010 0.000000 1.770760 
# 
# From -- ./inp_files/375599.got.cif
#   From: 2010.06.25/outbox.cif.g09.slc.cpg/sg12_188_cif.got.tgz:375599.got - 2010.06.28 00:19:55.
