data_PCOD8101431
_publ_section_title
;
Structure prediction by ZEFSAII (Michael W. Deem and Ramdas Pophale) SiO2 
 PCOD8101431
Probable space group: C 2/M
;
_chemical_formula_sum "Si O2"
_cell_formula_units_Z 48
_cell_length_a 15.079470
_cell_length_b 26.774490
_cell_length_c 12.119268
_cell_angle_alpha 90.000000
_cell_angle_beta 28.699014
_cell_angle_gamma 90.000000
_cell_volume 2349.705477
_symmetry_space_group_name_H-M "C 2/M"
_symmetry_group_IT_number 12
_symmetry_cell_setting 'monoclinic'
loop_
_space_group_symop_operation_xyz
x,y,z
-x,y,-z
-x,-y,-z
x,-y,z
1/2+x,1/2+y,z
1/2-x,1/2+y,-z
1/2-x,1/2-y,-z
1/2+x,1/2-y,z
loop_
_atom_site_type_symbol
_atom_site_label
_atom_site_fract_x
_atom_site_fract_y
_atom_site_fract_z
Si Si1 0.245633 0.337202 0.168470
Si Si2 0.075108 0.812506 0.658159
Si Si3 0.488222 0.584051 0.674562
Si Si4 0.304413 0.056039 0.174454
Si Si5 0.594947 0.795253 0.554358
Si Si6 0.363171 0.444902 0.047453
O O1 0.204544 0.304513 0.321067
O O2 0.230313 0.396969 0.208787
O O3 0.093564 0.326783 0.240180
O O4 0.442915 0.319318 0.908722
O O5 0.284739 0.812756 0.473285
O O6 0.038967 0.762644 0.627995
O O7 0.046981 0.858179 0.606369
O O8 0.652051 0.553963 0.437394
O O9 0.289784 0.581870 0.829225
O O10 0.474624 0.562398 0.812145
O O11 0.352309 0.000000 0.085559
O O12 0.500000 0.081481 0.000000
O O13 0.263638 0.500000 0.152946
O O14 0.500000 0.444277 0.000000
#
# Coordination Sequence:
#
# PCOD8101431 Si02
#       6
#     8   8   8   8   8   8
#     4  10  20  36  58  82 115 150 187 236 286 340
#     4  10  21  37  58  83 112 147 189 235 286 339
#     4  10  20  37  60  86 117 150 191 241 286 341
#     4  10  21  37  58  84 115 152 190 235 292 344
#     4  10  21  37  57  82 111 149 188 230 287 344
#     4  10  20  36  61  88 116 155 196 236 288 344
#
# _framework density 20.428090999999998
#
# number of rings (size 3 to 8) (size 9 to 14) (size 15 to 20)
#    0.000    2.000    0.000    5.000    0.000    5.333 
#    0.000    5.000    0.000    8.000    0.000    0.000 
#    0.000    0.000    0.000    0.000    0.000    0.000 
#
# Total GULP energy -297445.835653 kJ/mol
# GULP energy per Si atom -12393.576486 kJ/mol
# Density = 2.038160 g / cm^3
# Si number density = 20.428091 Si / 1000 Ang^3
#
#
#
# Elastic Constant Matrix: (Units=GPa)
#
#
# Indices 1 2 3 4 5 6 
#
# 1 128.8173 54.4986 31.4385 0.0012 -16.3808 -0.0006
# 2 54.4986 178.9125 17.9856 -0.0016 -11.3037 0.0001
# 3 31.4385 17.9856 46.0137 -0.0278 -7.7237 0.0129
# 4 0.0012 -0.0016 -0.0278 17.3998 0.0077 -0.3832
# 5 -16.3808 -11.3037 -7.7237 0.0077 43.8914 -0.0031
# 6 -0.0006 0.0001 0.0129 -0.3832 -0.0031 35.9145
#
#
#
# Elastic Compliance Matrix: (Units=1/GPa)
#
#
# Indices 1 2 3 4 5 6 
#
# 1 0.010524 -0.002475 -0.005843 -0.000011 0.002262 0.000002
# 2 -0.002475 0.006455 -0.000729 -0.000001 0.000610 0.000000
# 3 -0.005843 -0.000729 0.026392 0.000041 0.002276 -0.000009
# 4 -0.000011 -0.000001 0.000041 0.057485 -0.000007 0.000613
# 5 0.002262 0.000610 0.002276 -0.000007 0.024185 0.000001
# 6 0.000002 0.000000 -0.000009 0.000613 0.000001 0.027850
#
#
# Mechanical properties :
#
#
# Convention : Reuss Voigt Hill
#
# Bulk Modulus (GPa) = 39.56443 62.39876 50.98160
# Shear Modulus (GPa) = 27.86859 36.09586 31.98222
#
# Velocity S-wave (km/s) = 3.69755 4.20810 3.96106
# Velocity P-wave (km/s) = 6.13506 7.36360 6.77722
#
# Compressibility (1/GPa) = 0.02527523
#
# Stress axis : x y z
#
# Youngs Moduli (GPa) = 95.02207 154.91298 37.89017
#
# Poissons Ratio (x) = 0.38347 0.22140
# Poissons Ratio (y) = 0.23522 0.02764
# Poissons Ratio (z) = 0.55523 0.11300
#
# Static dielectric constant tensor:
#      x y z
#    x 3.813920 0.000000 -0.146800 
#    y 0.000000 3.986230 0.000000 
#    z -0.146800 0.000000 3.635500 
# 
# 
# High freq. dielectric constant tensor:
#      x y z
#    x 1.807430 0.000000 -0.003080 
#    y 0.000000 1.805730 0.000000 
#    z -0.003080 0.000000 1.778270 
# 
# From -- ./inp_files/149652.got.cif
#   From: 2010.06.25/outbox.cif.g09.slc.cpg/sg12_75_cif.got.tgz:149652.got - 2010.06.28 00:19:55.
