data_PCOD8101868
_publ_section_title
;
Structure prediction by ZEFSAII (Michael W. Deem and Ramdas Pophale) SiO2 
 PCOD8101868
Probable space group: C 2/M
;
_chemical_formula_sum "Si O2"
_cell_formula_units_Z 56
_cell_length_a 14.612259
_cell_length_b 14.975402
_cell_length_c 17.878397
_cell_angle_alpha 90.000000
_cell_angle_beta 48.977567
_cell_angle_gamma 90.000000
_cell_volume 2951.592644
_symmetry_space_group_name_H-M "C 2/M"
_symmetry_group_IT_number 12
_symmetry_cell_setting 'monoclinic'
loop_
_space_group_symop_operation_xyz
x,y,z
-x,y,-z
-x,-y,-z
x,-y,z
1/2+x,1/2+y,z
1/2-x,1/2+y,-z
1/2-x,1/2-y,-z
1/2+x,1/2-y,z
loop_
_atom_site_type_symbol
_atom_site_label
_atom_site_fract_x
_atom_site_fract_y
_atom_site_fract_z
Si Si1 0.181222 0.177450 0.585454
Si Si2 0.561317 0.399351 0.044251
Si Si3 0.520146 0.602351 0.404713
Si Si4 0.133301 0.397245 0.400818
Si Si5 0.295984 0.191181 0.908249
Si Si6 0.714429 0.742188 0.250137
Si Si7 0.454278 0.249091 0.203747
O O1 0.250000 0.250000 0.500000
O O2 0.275772 0.116105 0.579079
O O3 0.091464 0.229241 0.688979
O O4 0.105405 0.113254 0.572131
O O5 0.523835 0.500000 0.084054
O O6 0.511449 0.338774 0.137890
O O7 0.500000 0.367529 0.000000
O O8 0.708339 0.395261 0.955326
O O9 0.500000 0.634876 0.500000
O O10 0.562474 0.500000 0.379046
O O11 0.624497 0.661490 0.313060
O O12 0.138308 0.500000 0.370925
O O13 0.170536 0.334493 0.311777
O O14 0.000000 0.370557 0.500000
O O15 0.276074 0.245610 0.842895
O O16 0.440043 0.173297 0.844137
O O17 0.250000 0.250000 0.000000
O O18 0.845547 0.712289 0.211262
#
# Coordination Sequence:
#
# PCOD8101868 Si02
#       7
#     8   8   8   8   8   8   8
#     4  11  21  37  62  88 118 157 200 243 299 363
#     4  10  20  36  59  88 120 150 188 250 308 357
#     4  11  23  39  58  85 118 160 208 250 291 353
#     4  10  22  37  57  87 121 156 198 247 304 363
#     4  10  21  37  56  86 114 151 199 238 298 361
#     4  11  20  38  60  83 120 157 196 249 303 359
#     4  10  21  36  60  86 113 155 197 238 297 363
#
# _framework density 18.972807
#
# number of rings (size 3 to 8) (size 9 to 14) (size 15 to 20)
#    0.000    1.571    2.857    3.429    0.000    3.429 
#    0.000    0.714    0.000    0.000    0.000    4.000 
#    0.000    0.000    0.000    0.000    0.000    0.000 
#
# Total GULP energy -347169.318413 kJ/mol
# GULP energy per Si atom -12398.904229 kJ/mol
# Density = 1.892962 g / cm^3
# Si number density = 18.972807 Si / 1000 Ang^3
#
#
#
# Elastic Constant Matrix: (Units=GPa)
#
#
# Indices 1 2 3 4 5 6 
#
# 1 130.6000 22.7508 48.7673 0.0000 -7.5563 0.0000
# 2 22.7508 64.2506 32.8813 0.0000 -1.5560 0.0000
# 3 48.7673 32.8813 116.1684 0.0000 6.0795 0.0000
# 4 0.0000 0.0000 0.0000 18.9441 0.0000 -6.2063
# 5 -7.5563 -1.5560 6.0795 0.0000 43.3289 0.0000
# 6 0.0000 0.0000 0.0000 -6.2063 0.0000 26.0991
#
#
#
# Elastic Compliance Matrix: (Units=1/GPa)
#
#
# Indices 1 2 3 4 5 6 
#
# 1 0.009387 -0.001403 -0.003653 0.000000 0.002099 0.000000
# 2 -0.001403 0.018493 -0.004702 0.000000 0.001079 0.000000
# 3 -0.003653 -0.004702 0.011600 0.000000 -0.002434 0.000000
# 4 0.000000 0.000000 0.000000 0.057247 0.000000 0.013613
# 5 0.002099 0.001079 -0.002434 0.000000 0.023826 0.000000
# 6 0.000000 0.000000 0.000000 0.013613 0.000000 0.041553
#
#
# Mechanical properties :
#
#
# Convention : Reuss Voigt Hill
#
# Bulk Modulus (GPa) = 50.09177 57.75753 53.92465
# Shear Modulus (GPa) = 26.55663 31.44908 29.00285
#
# Velocity S-wave (km/s) = 3.74534 4.07576 3.91404
# Velocity P-wave (km/s) = 6.72032 7.25655 6.99357
#
# Compressibility (1/GPa) = 0.01996336
#
# Stress axis : x y z
#
# Youngs Moduli (GPa) = 106.52932 54.07338 86.20645
#
# Poissons Ratio (x) = 0.07589 0.31494
# Poissons Ratio (y) = 0.14951 0.40533
# Poissons Ratio (z) = 0.38918 0.25424
#
# Static dielectric constant tensor:
#      x y z
#    x 4.137710 0.000000 -0.138810 
#    y 0.000000 3.281590 0.000000 
#    z -0.138810 0.000000 3.712370 
# 
# 
# High freq. dielectric constant tensor:
#      x y z
#    x 1.759580 0.000000 -0.002780 
#    y 0.000000 1.706410 0.000000 
#    z -0.002780 0.000000 1.751400 
# 
# From -- ./inp_files/270212.got.cif
#   From: 2010.06.25/outbox.cif.g09.slc.cpg/sg12_136_cif.got.tgz:270212.got - 2010.06.28 00:19:55.
