data_PCOD8101960
_publ_section_title
;
Structure prediction by ZEFSAII (Michael W. Deem and Ramdas Pophale) SiO2 
 PCOD8101960
Probable space group: C 2/M
;
_chemical_formula_sum "Si O2"
_cell_formula_units_Z 64
_cell_length_a 24.455293
_cell_length_b 9.281226
_cell_length_c 27.982762
_cell_angle_alpha 90.000000
_cell_angle_beta 147.852368
_cell_angle_gamma 90.000000
_cell_volume 3379.591501
_symmetry_space_group_name_H-M "C 2/M"
_symmetry_group_IT_number 12
_symmetry_cell_setting 'monoclinic'
loop_
_space_group_symop_operation_xyz
x,y,z
-x,y,-z
-x,-y,-z
x,-y,z
1/2+x,1/2+y,z
1/2-x,1/2+y,-z
1/2-x,1/2-y,-z
1/2+x,1/2-y,z
loop_
_atom_site_type_symbol
_atom_site_label
_atom_site_fract_x
_atom_site_fract_y
_atom_site_fract_z
Si Si1 0.203284 0.833645 0.763334
Si Si2 0.564183 0.833396 0.835434
Si Si3 0.570813 0.831302 0.097146
Si Si4 0.436747 0.668510 0.068399
Si Si5 0.002702 0.167478 0.557001
Si Si6 0.653983 0.830997 0.490840
Si Si7 0.856250 0.665608 0.626086
Si Si8 0.283004 0.166127 0.133735
O O1 0.313124 0.778871 0.825637
O O2 0.172412 0.752039 0.788546
O O3 0.118192 0.803260 0.660373
O O4 0.211069 0.000000 0.782711
O O5 0.578987 0.731132 0.891060
O O6 0.456126 0.801783 0.730729
O O7 0.654893 0.787936 0.867074
O O8 0.573332 0.000000 0.857741
O O9 0.533468 0.745133 0.115713
O O10 0.564591 0.000000 0.104091
O O11 0.500000 0.789707 0.000000
O O12 0.458338 0.500000 0.088468
O O13 0.336391 0.701401 0.962489
O O14 0.923320 0.259016 0.529166
O O15 0.000000 0.217369 0.500000
O O16 0.972621 0.000000 0.539795
O O17 0.767267 0.765665 0.581647
O O18 0.617810 0.797907 0.409928
O O19 0.657973 0.000000 0.504636
O O20 0.820657 0.500000 0.604075
O O21 0.302581 0.000000 0.159553
#
# Coordination Sequence:
#
# PCOD8101960 Si02
#       8
#     8   8   8   8   8   8   8   8
#     4  10  21  37  60  85 107 145 194 235 279 331
#     4  10  21  37  56  79 112 153 191 226 276 339
#     4  10  20  37  59  81 109 146 192 237 275 331
#     4  11  23  36  54  83 116 149 185 233 288 333
#     4  10  22  39  57  81 115 150 187 231 280 336
#     4  10  20  36  60  86 113 144 184 231 282 336
#     4   9  19  36  58  83 111 147 187 230 280 334
#     4  10  21  37  57  82 114 148 184 231 286 337
#
# _framework density 18.937199
#
# number of rings (size 3 to 8) (size 9 to 14) (size 15 to 20)
#    0.000    2.000    1.250    1.875    0.000    5.500 
#    0.000    2.500    0.000    0.000    0.000    0.000 
#    0.000    0.000    0.000    0.000    0.000    0.000 
#
# Total GULP energy -396946.915826 kJ/mol
# GULP energy per Si atom -12404.591120 kJ/mol
# Density = 1.889410 g / cm^3
# Si number density = 18.937199 Si / 1000 Ang^3
#
#
#
# Elastic Constant Matrix: (Units=GPa)
#
#
# Indices 1 2 3 4 5 6 
#
# 1 136.5054 66.8222 56.7370 0.0000 7.7189 0.0000
# 2 66.8222 76.4634 46.0384 0.0000 2.6515 0.0003
# 3 56.7370 46.0384 70.9958 0.0000 3.1719 0.0000
# 4 0.0000 0.0000 0.0000 20.2039 -0.0001 -0.5790
# 5 7.7189 2.6515 3.1719 -0.0001 32.3643 0.0000
# 6 0.0000 0.0003 0.0000 -0.5790 0.0000 40.0927
#
#
#
# Elastic Compliance Matrix: (Units=1/GPa)
#
#
# Indices 1 2 3 4 5 6 
#
# 1 0.014065 -0.009035 -0.005287 0.000000 -0.002096 0.000000
# 2 -0.009035 0.027264 -0.010502 0.000000 0.000950 0.000000
# 3 -0.005287 -0.010502 0.025136 0.000000 -0.000342 0.000000
# 4 0.000000 0.000000 0.000000 0.049516 0.000000 0.000715
# 5 -0.002096 0.000950 -0.000342 0.000000 0.031354 0.000000
# 6 0.000000 0.000000 0.000000 0.000715 0.000000 0.024953
#
#
# Mechanical properties :
#
#
# Convention : Reuss Voigt Hill
#
# Bulk Modulus (GPa) = 59.46571 69.23996 64.35283
# Shear Modulus (GPa) = 21.97398 26.15664 24.06531
#
# Velocity S-wave (km/s) = 3.41010 3.72052 3.56869
# Velocity P-wave (km/s) = 6.85381 7.42285 7.14400
#
# Compressibility (1/GPa) = 0.01681642
#
# Stress axis : x y z
#
# Youngs Moduli (GPa) = 71.09965 36.67802 39.78324
#
# Poissons Ratio (x) = 0.33139 0.21035
# Poissons Ratio (y) = 0.64240 0.41780
# Poissons Ratio (z) = 0.37593 0.38519
#
# Static dielectric constant tensor:
#      x y z
#    x 3.450510 0.000000 0.097910 
#    y 0.000000 3.411600 0.000000 
#    z 0.097910 0.000000 3.572870 
# 
# 
# High freq. dielectric constant tensor:
#      x y z
#    x 1.741060 0.000000 0.005630 
#    y 0.000000 1.732960 0.000000 
#    z 0.005630 0.000000 1.740270 
# 
# From -- ./inp_files/382529.got.cif
#   From: 2010.06.25/outbox.cif.g09.slc.cpg/sg12_192_cif.got.tgz:382529.got - 2010.06.28 00:19:55.
