data_PCOD8101910
_publ_section_title
;
Structure prediction by ZEFSAII (Michael W. Deem and Ramdas Pophale) SiO2 
 PCOD8101910
Probable space group: C 2/M
;
_chemical_formula_sum "Si O2"
_cell_formula_units_Z 64
_cell_length_a 28.598009
_cell_length_b 8.657427
_cell_length_c 23.537667
_cell_angle_alpha 90.000000
_cell_angle_beta 147.869150
_cell_angle_gamma 90.000000
_cell_volume 3099.423979
_symmetry_space_group_name_H-M "C 2/M"
_symmetry_group_IT_number 12
_symmetry_cell_setting 'monoclinic'
loop_
_space_group_symop_operation_xyz
x,y,z
-x,y,-z
-x,-y,-z
x,-y,z
1/2+x,1/2+y,z
1/2-x,1/2+y,-z
1/2-x,1/2-y,-z
1/2+x,1/2-y,z
loop_
_atom_site_type_symbol
_atom_site_label
_atom_site_fract_x
_atom_site_fract_y
_atom_site_fract_z
Si Si1 0.103524 0.677730 0.610183
Si Si2 0.853991 0.320838 0.960714
Si Si3 0.675554 0.317657 0.302331
Si Si4 0.339691 0.322386 0.216432
Si Si5 0.992107 0.321093 0.308239
Si Si6 0.902067 0.182306 0.895775
Si Si7 0.647282 0.319462 0.537699
Si Si8 0.982935 0.318890 0.796591
O O1 0.127476 0.500000 0.647129
O O2 0.140099 0.783936 0.697574
O O3 0.148789 0.727103 0.598245
O O4 0.000000 0.703097 0.500000
O O5 0.866592 0.500000 0.960010
O O6 0.763516 0.291712 0.901682
O O7 0.847037 0.232169 0.893936
O O8 0.935246 0.258012 0.081636
O O9 0.689626 0.500000 0.318246
O O10 0.643191 0.255099 0.207849
O O11 0.767781 0.234309 0.410990
O O12 0.604995 0.271415 0.277228
O O13 0.364341 0.500000 0.230653
O O14 0.394469 0.215119 0.230144
O O15 0.013766 0.500000 0.341769
O O16 0.060691 0.217643 0.412927
O O17 0.995585 0.278356 0.245982
O O18 0.906775 0.000000 0.897851
O O19 0.000000 0.253510 0.000000
O O20 0.650140 0.500000 0.553352
O O21 0.967909 0.500000 0.790023
#
# Coordination Sequence:
#
# PCOD8101910 Si02
#       8
#     8   8   8   8   8   8   8   8
#     4  11  22  38  63  92 125 162 199 244 302 362
#     4  10  22  39  61  91 124 160 199 245 301 358
#     4  11  23  40  64  92 125 160 201 248 300 362
#     4  11  23  39  62  93 126 160 201 248 301 362
#     4  11  24  43  64  87 118 160 207 255 304 355
#     4  10  20  36  59  91 125 158 195 241 297 358
#     4  12  25  41  64  92 124 159 200 249 304 363
#     4  10  23  43  64  87 120 160 206 254 301 356
#
# _framework density 20.648997999999999
#
# number of rings (size 3 to 8) (size 9 to 14) (size 15 to 20)
#    0.000    1.250    2.500    3.375    0.000    6.750 
#    0.000    0.000    0.000    0.000    0.000    0.000 
#    0.000    0.000    0.000    0.000    0.000    0.000 
#
# Total GULP energy -397007.105887 kJ/mol
# GULP energy per Si atom -12406.472059 kJ/mol
# Density = 2.060200 g / cm^3
# Si number density = 20.648998 Si / 1000 Ang^3
#
#
#
# Elastic Constant Matrix: (Units=GPa)
#
#
# Indices 1 2 3 4 5 6 
#
# 1 117.2254 19.8303 43.0329 0.0000 5.7272 0.0000
# 2 19.8303 45.3555 18.0151 0.0000 6.0038 0.0000
# 3 43.0329 18.0151 42.1821 0.0000 16.6107 0.0000
# 4 0.0000 0.0000 0.0000 23.1154 0.0000 11.2347
# 5 5.7272 6.0038 16.6107 0.0000 37.6730 0.0000
# 6 0.0000 0.0000 0.0000 11.2347 0.0000 25.0484
#
#
#
# Elastic Compliance Matrix: (Units=1/GPa)
#
#
# Indices 1 2 3 4 5 6 
#
# 1 0.014440 -0.000406 -0.016601 0.000000 0.005189 0.000000
# 2 -0.000406 0.026591 -0.011251 0.000000 0.000785 0.000000
# 3 -0.016601 -0.011251 0.052939 0.000000 -0.019025 0.000000
# 4 0.000000 0.000000 0.000000 0.055321 0.000000 -0.024812
# 5 0.005189 0.000785 -0.019025 0.000000 0.034019 0.000000
# 6 0.000000 0.000000 0.000000 -0.024812 0.000000 0.051051
#
#
# Mechanical properties :
#
#
# Convention : Reuss Voigt Hill
#
# Bulk Modulus (GPa) = 26.69971 40.72441 33.71206
# Shear Modulus (GPa) = 16.48196 25.42635 20.95415
#
# Velocity S-wave (km/s) = 2.82830 3.51288 3.18901
# Velocity P-wave (km/s) = 4.86046 6.01821 5.47005
#
# Compressibility (1/GPa) = 0.03745359
#
# Stress axis : x y z
#
# Youngs Moduli (GPa) = 69.25211 37.60727 18.88951
#
# Poissons Ratio (x) = 0.01529 0.31359
# Poissons Ratio (y) = 0.02815 0.21252
# Poissons Ratio (z) = 1.14966 0.42311
#
# Static dielectric constant tensor:
#      x y z
#    x 3.751200 0.000000 0.134500 
#    y 0.000000 3.654360 0.000000 
#    z 0.134500 0.000000 3.858880 
# 
# 
# High freq. dielectric constant tensor:
#      x y z
#    x 1.812350 0.000000 0.014160 
#    y 0.000000 1.805580 0.000000 
#    z 0.014160 0.000000 1.810990 
# 
# From -- ./inp_files/353533.got.cif
#   From: 2010.06.25/outbox.cif.g09.slc.cpg/sg12_177_cif.got.tgz:353533.got - 2010.06.28 00:19:55.
