data_PCOD8101390
_publ_section_title
;
Structure prediction by ZEFSAII (Michael W. Deem and Ramdas Pophale) SiO2 
 PCOD8101390
Probable space group: C 2/M
;
_chemical_formula_sum "Si O2"
_cell_formula_units_Z 64
_cell_length_a 18.585122
_cell_length_b 9.091198
_cell_length_c 34.321931
_cell_angle_alpha 90.000000
_cell_angle_beta 144.723038
_cell_angle_gamma 90.000000
_cell_volume 3349.132716
_symmetry_space_group_name_H-M "C 2/M"
_symmetry_group_IT_number 12
_symmetry_cell_setting 'monoclinic'
loop_
_space_group_symop_operation_xyz
x,y,z
-x,y,-z
-x,-y,-z
x,-y,z
1/2+x,1/2+y,z
1/2-x,1/2+y,-z
1/2-x,1/2-y,-z
1/2+x,1/2-y,z
loop_
_atom_site_type_symbol
_atom_site_label
_atom_site_fract_x
_atom_site_fract_y
_atom_site_fract_z
Si Si1 0.884575 0.171790 0.368315
Si Si2 0.188447 0.828580 0.008682
Si Si3 0.402165 0.331797 0.891117
Si Si4 0.680876 0.828663 0.736525
Si Si5 0.243429 0.330370 0.110663
Si Si6 0.224178 0.671615 0.372121
Si Si7 0.829762 0.827070 0.502166
Si Si8 0.472258 0.670370 0.267768
O O1 0.810784 0.260877 0.302692
O O2 0.825024 0.209417 0.383680
O O3 0.027449 0.223871 0.431758
O O4 0.873065 0.000000 0.353813
O O5 0.042007 0.797031 0.940754
O O6 0.218935 0.000000 0.020988
O O7 0.250000 0.750000 0.000000
O O8 0.249084 0.762516 0.074063
O O9 0.385831 0.500000 0.897935
O O10 0.314032 0.298368 0.815366
O O11 0.369374 0.227002 0.912581
O O12 0.569970 0.752634 0.711660
O O13 0.649645 0.000000 0.720129
O O14 0.219509 0.500000 0.090247
O O15 0.373382 0.304968 0.189859
O O16 0.190095 0.500000 0.356839
O O17 0.280355 0.721377 0.438161
O O18 0.100608 0.763915 0.308853
O O19 0.750000 0.750000 0.500000
O O20 0.817488 0.000000 0.502579
O O21 0.488412 0.500000 0.285418
#
# Coordination Sequence:
#
# PCOD8101390 Si02
#       8
#     8   8   8   8   8   8   8   8
#     4  10  21  37  56  80 112 146 180 222 273 324
#     4  11  23  38  56  80 112 147 183 225 275 327
#     4   9  20  38  58  80 108 143 181 224 273 322
#     4  10  20  36  58  82 109 142 182 225 269 322
#     4  10  21  37  58  83 110 142 182 226 272 324
#     4  10  21  37  57  81 110 146 185 223 269 326
#     4  10  21  37  57  80 108 143 182 226 273 321
#     4  10  21  37  57  82 112 144 180 225 273 321
#
# _framework density 19.109425000000002
#
# number of rings (size 3 to 8) (size 9 to 14) (size 15 to 20)
#    0.000    2.000    0.000    3.000    0.000   10.500 
#    0.000    3.750    0.000    2.250    0.000    0.000 
#    0.000    0.000    0.000    0.000    0.000    0.000 
#
# Total GULP energy -396981.466439 kJ/mol
# GULP energy per Si atom -12405.670826 kJ/mol
# Density = 1.906593 g / cm^3
# Si number density = 19.109425 Si / 1000 Ang^3
#
#
#
# Elastic Constant Matrix: (Units=GPa)
#
#
# Indices 1 2 3 4 5 6 
#
# 1 149.1349 74.0452 72.2640 0.0000 -14.8246 0.0000
# 2 74.0452 101.0921 60.5880 0.0000 -8.9350 0.0002
# 3 72.2640 60.5880 96.0255 0.0000 -12.5073 0.0000
# 4 0.0000 0.0000 0.0000 32.3420 0.0000 -2.6701
# 5 -14.8246 -8.9350 -12.5073 0.0000 30.6557 0.0000
# 6 0.0000 0.0002 0.0000 -2.6701 0.0000 37.6496
#
#
#
# Elastic Compliance Matrix: (Units=1/GPa)
#
#
# Indices 1 2 3 4 5 6 
#
# 1 0.012340 -0.005550 -0.005511 0.000000 0.002101 0.000000
# 2 -0.005550 0.018413 -0.007490 0.000000 -0.000373 0.000000
# 3 -0.005511 -0.007490 0.019703 0.000000 0.003190 0.000000
# 4 0.000000 0.000000 0.000000 0.031102 0.000000 0.002206
# 5 0.002101 -0.000373 0.003190 0.000000 0.034830 0.000000
# 6 0.000000 0.000000 0.000000 0.002206 0.000000 0.026717
#
#
# Mechanical properties :
#
#
# Convention : Reuss Voigt Hill
#
# Bulk Modulus (GPa) = 74.88346 84.44964 79.66655
# Shear Modulus (GPa) = 27.07723 29.41983 28.24853
#
# Velocity S-wave (km/s) = 3.76833 3.92796 3.84897
# Velocity P-wave (km/s) = 7.62925 8.05360 7.84430
#
# Compressibility (1/GPa) = 0.01335408
#
# Stress axis : x y z
#
# Youngs Moduli (GPa) = 81.03614 54.30979 50.75458
#
# Poissons Ratio (x) = 0.30141 0.27972
# Poissons Ratio (y) = 0.44973 0.38014
# Poissons Ratio (z) = 0.44661 0.40677
#
# Static dielectric constant tensor:
#      x y z
#    x 2.401980 0.000000 0.875970 
#    y 0.000000 3.541970 0.000000 
#    z 0.875970 0.000000 2.901520 
# 
# 
# High freq. dielectric constant tensor:
#      x y z
#    x 1.743920 0.000000 -0.001000 
#    y 0.000000 1.746560 0.000000 
#    z -0.001000 0.000000 1.753980 
# 
# From -- ./inp_files/378334.got.cif
#   From: 2010.06.25/outbox.cif.g09.slc.cpg/sg12_190_cif.got.tgz:378334.got - 2010.06.28 00:19:55.
