data_PCOD8101764
_publ_section_title
;
Structure prediction by ZEFSAII (Michael W. Deem and Ramdas Pophale) SiO2 
 PCOD8101764
Probable space group: C 2/M
;
_chemical_formula_sum "Si O2"
_cell_formula_units_Z 56
_cell_length_a 28.349554
_cell_length_b 8.879482
_cell_length_c 19.549240
_cell_angle_alpha 90.000000
_cell_angle_beta 37.369231
_cell_angle_gamma 90.000000
_cell_volume 2986.868051
_symmetry_space_group_name_H-M "C 2/M"
_symmetry_group_IT_number 12
_symmetry_cell_setting 'monoclinic'
loop_
_space_group_symop_operation_xyz
x,y,z
-x,y,-z
-x,-y,-z
x,-y,z
1/2+x,1/2+y,z
1/2-x,1/2+y,-z
1/2-x,1/2-y,-z
1/2+x,1/2-y,z
loop_
_atom_site_type_symbol
_atom_site_label
_atom_site_fract_x
_atom_site_fract_y
_atom_site_fract_z
Si Si1 0.385334 0.176604 0.922913
Si Si2 0.446036 0.325512 0.424066
Si Si3 0.206109 0.824347 0.613493
Si Si4 0.459102 0.327584 0.252342
Si Si5 0.221098 0.178808 0.338952
Si Si6 0.249902 0.321476 0.163672
Si Si7 0.397020 0.823309 0.752756
O O1 0.470851 0.219535 0.852240
O O2 0.379347 0.227093 0.850706
O O3 0.370030 0.000000 0.951071
O O4 0.322988 0.273861 0.034814
O O5 0.459990 0.500000 0.420256
O O6 0.433372 0.287152 0.359058
O O7 0.368907 0.269750 0.552058
O O8 0.521474 0.243152 0.367636
O O9 0.250000 0.750000 0.500000
O O10 0.113859 0.798922 0.712533
O O11 0.229554 0.747645 0.656747
O O12 0.227263 0.000000 0.590124
O O13 0.487652 0.500000 0.215338
O O14 0.256891 0.240663 0.228096
O O15 0.228456 0.000000 0.334123
O O16 0.249844 0.500000 0.173605
O O17 0.171995 0.263954 0.215736
O O18 0.404448 0.000000 0.740144
#
# Coordination Sequence:
#
# PCOD8101764 Si02
#       7
#     8   8   8   8   8   8   8
#     4  10  20  36  59  86 111 144 189 236 280 329
#     4   9  18  34  55  81 113 147 184 228 281 332
#     4  11  21  36  60  88 117 149 187 229 279 335
#     4   9  18  35  57  84 114 145 182 228 278 331
#     4  11  23  39  56  82 117 151 191 234 280 338
#     4  11  23  39  56  79 113 154 190 231 285 337
#     4   9  20  36  57  84 112 144 190 235 279 334
#
# _framework density 18.748735
#
# number of rings (size 3 to 8) (size 9 to 14) (size 15 to 20)
#    0.000    2.000    1.429    2.143    0.000    4.571 
#    0.000    3.571    0.000    4.286    0.000    0.000 
#    0.000    0.000    0.000    0.000    0.000    0.000 
#
# Total GULP energy -347291.082886 kJ/mol
# GULP energy per Si atom -12403.252960 kJ/mol
# Density = 1.870606 g / cm^3
# Si number density = 18.748735 Si / 1000 Ang^3
#
#
#
# Elastic Constant Matrix: (Units=GPa)
#
#
# Indices 1 2 3 4 5 6 
#
# 1 110.4101 45.6426 37.8484 0.0092 -1.5158 0.0000
# 2 45.6426 66.8477 27.8998 0.0263 -2.7504 -0.0292
# 3 37.8484 27.8998 35.6976 0.0139 -4.3419 0.0004
# 4 0.0092 0.0263 0.0139 33.9623 -0.0103 -4.2467
# 5 -1.5158 -2.7504 -4.3419 -0.0103 23.3600 0.0103
# 6 0.0000 -0.0292 0.0004 -4.2467 0.0103 30.2006
#
#
#
# Elastic Compliance Matrix: (Units=1/GPa)
#
#
# Indices 1 2 3 4 5 6 
#
# 1 0.015577 -0.005527 -0.012434 0.000004 -0.001951 -0.000004
# 2 -0.005527 0.024171 -0.013023 -0.000009 0.000067 0.000022
# 3 -0.012434 -0.013023 0.052271 -0.000008 0.007375 -0.000017
# 4 0.000004 -0.000009 -0.000008 0.029971 0.000009 0.004214
# 5 -0.001951 0.000067 0.007375 0.000009 0.044060 -0.000014
# 6 -0.000004 0.000022 -0.000017 0.004214 -0.000014 0.033705
#
#
# Mechanical properties :
#
#
# Convention : Reuss Voigt Hill
#
# Bulk Modulus (GPa) = 33.27521 48.41524 40.84523
# Shear Modulus (GPa) = 18.39988 24.27555 21.33772
#
# Velocity S-wave (km/s) = 3.13612 3.60221 3.37722
# Velocity P-wave (km/s) = 5.55879 6.57119 6.08608
#
# Compressibility (1/GPa) = 0.03005240
#
# Stress axis : x y z
#
# Youngs Moduli (GPa) = 64.19580 41.37143 19.13101
#
# Poissons Ratio (x) = 0.22866 0.23787
# Poissons Ratio (y) = 0.35481 0.24915
# Poissons Ratio (z) = 0.79818 0.53879
#
# Static dielectric constant tensor:
#      x y z
#    x 3.490790 -0.000010 -0.162280 
#    y -0.000010 3.441770 0.000010 
#    z -0.162280 0.000010 3.390390 
# 
# 
# High freq. dielectric constant tensor:
#      x y z
#    x 1.727120 0.000000 -0.012530 
#    y 0.000000 1.732810 0.000000 
#    z -0.012530 0.000000 1.723310 
# 
# From -- ./inp_files/238430.got.cif
#   From: 2010.06.25/outbox.cif.g09.slc.cpg/sg12_120_cif.got.tgz:238430.got - 2010.06.28 00:19:55.
