data_PCOD8101332
_publ_section_title
;
Structure prediction by ZEFSAII (Michael W. Deem and Ramdas Pophale) SiO2 
 PCOD8101332
Probable space group: C 2/M
;
_chemical_formula_sum "Si O2"
_cell_formula_units_Z 56
_cell_length_a 24.844008
_cell_length_b 8.922442
_cell_length_c 13.834315
_cell_angle_alpha 90.000000
_cell_angle_beta 75.422647
_cell_angle_gamma 90.000000
_cell_volume 2967.922723
_symmetry_space_group_name_H-M "C 2/M"
_symmetry_group_IT_number 12
_symmetry_cell_setting 'monoclinic'
loop_
_space_group_symop_operation_xyz
x,y,z
-x,y,-z
-x,-y,-z
x,-y,z
1/2+x,1/2+y,z
1/2-x,1/2+y,-z
1/2-x,1/2-y,-z
1/2+x,1/2-y,z
loop_
_atom_site_type_symbol
_atom_site_label
_atom_site_fract_x
_atom_site_fract_y
_atom_site_fract_z
Si Si1 0.871740 0.821827 0.729534
Si Si2 0.689074 0.173793 0.416112
Si Si3 0.584795 0.671325 0.004236
Si Si4 0.695664 0.669194 0.058518
Si Si5 0.530776 0.176820 0.207712
Si Si6 0.078325 0.824874 0.786788
Si Si7 0.314752 0.673203 0.381951
O O1 0.849822 0.770054 0.636234
O O2 0.828809 0.763262 0.830856
O O3 0.931733 0.750693 0.725451
O O4 0.878294 0.000000 0.730298
O O5 0.674521 0.222070 0.531125
O O6 0.754008 0.206498 0.364180
O O7 0.674673 0.000000 0.408916
O O8 0.564803 0.500000 0.028983
O O9 0.575074 0.725458 0.899766
O O10 0.650269 0.684419 0.994815
O O11 0.549912 0.774674 0.091985
O O12 0.712976 0.500000 0.069824
O O13 0.750000 0.750000 0.000000
O O14 0.467611 0.232322 0.252168
O O15 0.534242 0.000000 0.216489
O O16 0.139406 0.786184 0.718785
O O17 0.065674 0.000000 0.781270
O O18 0.318352 0.500000 0.413186
#
# Coordination Sequence:
#
# PCOD8101332 Si02
#       7
#     8   8   8   8   8   8   8
#     4  10  21  38  58  78 106 148 187 220 271 335
#     4  10  20  36  60  86 113 142 178 228 278 323
#     4   9  19  35  54  76 108 150 189 221 265 326
#     4   9  19  32  49  76 109 142 179 222 265 317
#     4  11  22  36  54  81 113 144 183 233 278 321
#     4  10  20  36  58  80 108 149 190 225 266 325
#     4   9  20  37  58  84 113 146 182 221 271 332
#
# _framework density 18.868416
#
# number of rings (size 3 to 8) (size 9 to 14) (size 15 to 20)
#    0.000    2.286    0.000    3.429    2.000    6.286 
#    0.000    0.714    0.000    4.286    0.000    0.000 
#    0.000    0.000    0.000    0.000    0.000    0.000 
#
# Total GULP energy -347245.913977 kJ/mol
# GULP energy per Si atom -12401.639785 kJ/mol
# Density = 1.882547 g / cm^3
# Si number density = 18.868416 Si / 1000 Ang^3
#
#
#
# Elastic Constant Matrix: (Units=GPa)
#
#
# Indices 1 2 3 4 5 6 
#
# 1 94.5778 39.1496 40.3199 0.0000 8.4011 0.0000
# 2 39.1496 80.7691 31.2332 0.0000 5.6399 0.0000
# 3 40.3199 31.2332 64.3229 0.0000 15.9044 0.0000
# 4 0.0000 0.0000 0.0000 28.7050 0.0000 -0.1310
# 5 8.4011 5.6399 15.9044 0.0000 27.6467 0.0000
# 6 0.0000 0.0000 0.0000 -0.1310 0.0000 31.2459
#
#
#
# Elastic Compliance Matrix: (Units=1/GPa)
#
#
# Indices 1 2 3 4 5 6 
#
# 1 0.015766 -0.004684 -0.007765 0.000000 0.000631 0.000000
# 2 -0.004684 0.016677 -0.005448 0.000000 0.001155 0.000000
# 3 -0.007765 -0.005448 0.025882 0.000000 -0.011419 0.000000
# 4 0.000000 0.000000 0.000000 0.034838 0.000000 0.000146
# 5 0.000631 0.001155 -0.011419 0.000000 0.042312 0.000000
# 6 0.000000 0.000000 0.000000 0.000146 0.000000 0.032005
#
#
# Mechanical properties :
#
#
# Convention : Reuss Voigt Hill
#
# Bulk Modulus (GPa) = 44.37786 51.23057 47.80421
# Shear Modulus (GPa) = 23.72107 26.11733 24.91920
#
# Velocity S-wave (km/s) = 3.54953 3.72450 3.63806
# Velocity P-wave (km/s) = 6.35370 6.76064 6.56033
#
# Compressibility (1/GPa) = 0.02253376
#
# Stress axis : x y z
#
# Youngs Moduli (GPa) = 63.42704 59.96261 38.63643
#
# Poissons Ratio (x) = 0.28084 0.30000
# Poissons Ratio (y) = 0.29706 0.21048
# Poissons Ratio (z) = 0.49249 0.32665
#
# Static dielectric constant tensor:
#      x y z
#    x 3.569380 0.000000 0.091130 
#    y 0.000000 3.386170 0.000000 
#    z 0.091130 0.000000 3.496490 
# 
# 
# High freq. dielectric constant tensor:
#      x y z
#    x 1.741630 0.000000 0.006920 
#    y 0.000000 1.728550 0.000000 
#    z 0.006920 0.000000 1.717470 
# 
# From -- ./inp_files/230845.got.cif
#   From: 2010.06.25/outbox.cif.g09.slc.cpg/sg12_116_cif.got.tgz:230845.got - 2010.06.28 00:19:55.
