data_PCOD8101509
_publ_section_title
;
Structure prediction by ZEFSAII (Michael W. Deem and Ramdas Pophale) SiO2 
 PCOD8101509
Probable space group: C 2/M
;
_chemical_formula_sum "Si O2"
_cell_formula_units_Z 40
_cell_length_a 15.522872
_cell_length_b 8.410675
_cell_length_c 15.390880
_cell_angle_alpha 90.000000
_cell_angle_beta 104.372585
_cell_angle_gamma 90.000000
_cell_volume 1946.509807
_symmetry_space_group_name_H-M "C 2/M"
_symmetry_group_IT_number 12
_symmetry_cell_setting 'monoclinic'
loop_
_space_group_symop_operation_xyz
x,y,z
-x,y,-z
-x,-y,-z
x,-y,z
1/2+x,1/2+y,z
1/2-x,1/2+y,-z
1/2-x,1/2-y,-z
1/2+x,1/2-y,z
loop_
_atom_site_type_symbol
_atom_site_label
_atom_site_fract_x
_atom_site_fract_y
_atom_site_fract_z
Si Si1 0.752289 0.679899 0.405359
Si Si2 0.025954 0.311111 0.100453
Si Si3 0.069478 0.182426 0.592189
Si Si4 0.594597 0.187267 0.772101
Si Si5 0.787560 0.313656 0.779677
O O1 0.717425 0.500000 0.398676
O O2 0.750000 0.750000 0.500000
O O3 0.853775 0.689048 0.401471
O O4 0.696667 0.776482 0.319081
O O5 0.028541 0.500000 0.098754
O O6 0.950663 0.254351 0.149756
O O7 0.124741 0.248930 0.149508
O O8 0.000000 0.240565 0.000000
O O9 0.037816 0.221154 0.682209
O O10 0.000000 0.217757 0.500000
O O11 0.103132 0.000000 0.594326
O O12 0.699612 0.229942 0.796761
O O13 0.582764 0.000000 0.757322
O O14 0.774754 0.500000 0.789091
#
# Coordination Sequence:
#
# PCOD8101509 Si02
#       5
#     8   8   8   8   8
#     4  11  22  36  55  81 114 151 191 234 284 343
#     4   9  20  38  60  86 115 151 195 238 290 352
#     4  10  21  36  54  81 114 150 188 234 287 340
#     4  10  20  36  58  84 114 152 193 239 288 344
#     4  10  20  37  59  84 115 153 192 238 291 343
#
# _framework density 20.549600000000002
#
# number of rings (size 3 to 8) (size 9 to 14) (size 15 to 20)
#    0.000    2.000    0.000    6.000    2.800    2.400 
#    0.000    3.000    0.000    8.400    0.000    0.000 
#    0.000    0.000    0.000    0.000    0.000    0.000 
#
# Total GULP energy -247858.480406 kJ/mol
# GULP energy per Si atom -12392.924020 kJ/mol
# Density = 2.050283 g / cm^3
# Si number density = 20.549600 Si / 1000 Ang^3
#
#
#
# Elastic Constant Matrix: (Units=GPa)
#
#
# Indices 1 2 3 4 5 6 
#
# 1 103.2860 14.8977 85.9617 0.0000 -6.5485 0.0000
# 2 14.8977 57.5823 21.6717 0.0000 1.3219 0.0000
# 3 85.9617 21.6717 204.9386 0.0000 -3.1558 0.0000
# 4 0.0000 0.0000 0.0000 20.5517 0.0000 2.9454
# 5 -6.5485 1.3219 -3.1558 0.0000 38.6756 0.0000
# 6 0.0000 0.0000 0.0000 2.9454 0.0000 24.1885
#
#
#
# Elastic Compliance Matrix: (Units=1/GPa)
#
#
# Indices 1 2 3 4 5 6 
#
# 1 0.015183 -0.001658 -0.006160 0.000000 0.002125 0.000000
# 2 -0.001658 0.018291 -0.001254 0.000000 -0.001008 0.000000
# 3 -0.006160 -0.001254 0.007590 0.000000 -0.000381 0.000000
# 4 0.000000 0.000000 0.000000 0.049522 0.000000 -0.006030
# 5 0.002125 -0.001008 -0.000381 0.000000 0.026219 0.000000
# 6 0.000000 0.000000 0.000000 -0.006030 0.000000 0.042076
#
#
# Mechanical properties :
#
#
# Convention : Reuss Voigt Hill
#
# Bulk Modulus (GPa) = 43.63375 67.87435 55.75405
# Shear Modulus (GPa) = 27.07586 32.90154 29.98870
#
# Velocity S-wave (km/s) = 3.63379 4.00569 3.82427
# Velocity P-wave (km/s) = 6.23582 7.38209 6.83303
#
# Compressibility (1/GPa) = 0.02291804
#
# Stress axis : x y z
#
# Youngs Moduli (GPa) = 65.86376 54.67276 131.74813
#
# Poissons Ratio (x) = 0.09067 0.81162
# Poissons Ratio (y) = 0.10923 0.16523
# Poissons Ratio (z) = 0.40575 0.06857
#
# Static dielectric constant tensor:
#      x y z
#    x 3.375520 0.000000 0.470040 
#    y 0.000000 3.760890 0.000000 
#    z 0.470040 0.000000 3.351190 
# 
# 
# High freq. dielectric constant tensor:
#      x y z
#    x 1.795670 0.000000 -0.005150 
#    y 0.000000 1.790820 0.000000 
#    z -0.005150 0.000000 1.813710 
# 
# From -- ./inp_files/267372.got.cif
#   From: 2010.06.25/outbox.cif.g09.slc.cpg/sg12_134_cif.got.tgz:267372.got - 2010.06.28 00:19:55.
