data_PCOD8101939
_publ_section_title
;
Structure prediction by ZEFSAII (Michael W. Deem and Ramdas Pophale) SiO2 
 PCOD8101939
Probable space group: C 2/M
;
_chemical_formula_sum "Si O2"
_cell_formula_units_Z 56
_cell_length_a 18.187961
_cell_length_b 13.078196
_cell_length_c 14.254062
_cell_angle_alpha 90.000000
_cell_angle_beta 125.103508
_cell_angle_gamma 90.000000
_cell_volume 2773.860365
_symmetry_space_group_name_H-M "C 2/M"
_symmetry_group_IT_number 12
_symmetry_cell_setting 'monoclinic'
loop_
_space_group_symop_operation_xyz
x,y,z
-x,y,-z
-x,-y,-z
x,-y,z
1/2+x,1/2+y,z
1/2-x,1/2+y,-z
1/2-x,1/2-y,-z
1/2+x,1/2-y,z
loop_
_atom_site_type_symbol
_atom_site_label
_atom_site_fract_x
_atom_site_fract_y
_atom_site_fract_z
Si Si1 0.706359 0.881200 0.708919
Si Si2 0.133225 0.384429 0.252013
Si Si3 0.611057 0.619884 0.817997
Si Si4 0.972118 0.272743 0.379428
Si Si5 0.030820 0.759148 0.923236
Si Si6 0.789873 0.697783 0.869652
Si Si7 0.851584 0.616753 0.532666
O O1 0.605813 0.857924 0.670428
O O2 0.774597 0.814242 0.821466
O O3 0.712532 0.848920 0.601652
O O4 0.730356 0.000000 0.742519
O O5 0.095182 0.500000 0.221679
O O6 0.204943 0.370816 0.220791
O O7 0.188214 0.367806 0.391253
O O8 0.048738 0.307708 0.180211
O O9 0.606305 0.500000 0.802647
O O10 0.556638 0.671425 0.694873
O O11 0.563835 0.649837 0.880799
O O12 0.713912 0.658486 0.885463
O O13 0.000000 0.230428 0.500000
O O14 0.055321 0.324040 0.389901
O O15 0.117296 0.687210 0.005467
O O16 0.000000 0.807345 0.000000
O O17 0.875177 0.500000 0.527534
#
# Coordination Sequence:
#
# PCOD8101939 Si02
#       7
#     8   8   8   8   8   8   8
#     4   9  18  32  53  83 115 148 182 226 278 328
#     4  10  20  36  60  85 110 145 188 234 279 324
#     4  11  22  37  56  80 113 149 184 226 281 337
#     4   9  17  32  55  82 113 144 180 232 275 326
#     4  10  22  40  59  81 107 144 194 236 274 322
#     4  10  22  37  55  82 116 147 182 228 277 340
#     4   9  16  30  56  84 110 142 185 231 278 323
#
# _framework density 20.188472000000001
#
# number of rings (size 3 to 8) (size 9 to 14) (size 15 to 20)
#    0.000    2.286    1.429    1.286    0.000    6.571 
#    0.000    2.143    0.000    0.000    0.000    0.000 
#    0.000    0.000    0.000    0.000    0.000    0.000 
#
# Total GULP energy -346973.273311 kJ/mol
# GULP energy per Si atom -12391.902618 kJ/mol
# Density = 2.014252 g / cm^3
# Si number density = 20.188472 Si / 1000 Ang^3
#
#
#
# Elastic Constant Matrix: (Units=GPa)
#
#
# Indices 1 2 3 4 5 6 
#
# 1 79.7736 20.0957 13.4586 0.0000 -13.8709 0.0000
# 2 20.0957 84.6050 12.9602 0.0000 -11.9515 0.0000
# 3 13.4586 12.9602 46.6728 0.0000 -16.0933 0.0000
# 4 0.0000 0.0000 0.0000 17.8569 0.0000 -6.9870
# 5 -13.8709 -11.9515 -16.0933 0.0000 28.0246 0.0000
# 6 0.0000 0.0000 0.0000 -6.9870 0.0000 23.8706
#
#
#
# Elastic Compliance Matrix: (Units=1/GPa)
#
#
# Indices 1 2 3 4 5 6 
#
# 1 0.014316 -0.002422 -0.001706 0.000000 0.005073 0.000000
# 2 -0.002422 0.013146 -0.001786 0.000000 0.003382 0.000000
# 3 -0.001706 -0.001786 0.027257 0.000000 0.014046 0.000000
# 4 0.000000 0.000000 0.000000 0.063244 0.000000 0.018512
# 5 0.005073 0.003382 0.014046 0.000000 0.047702 0.000000
# 6 0.000000 0.000000 0.000000 0.018512 0.000000 0.047311
#
#
# Mechanical properties :
#
#
# Convention : Reuss Voigt Hill
#
# Bulk Modulus (GPa) = 23.31551 33.78671 28.55111
# Shear Modulus (GPa) = 20.91163 24.91955 22.91559
#
# Velocity S-wave (km/s) = 3.22191 3.51714 3.37275
# Velocity P-wave (km/s) = 5.04132 5.76764 5.41667
#
# Compressibility (1/GPa) = 0.04288991
#
# Stress axis : x y z
#
# Youngs Moduli (GPa) = 69.85401 76.06703 36.68783
#
# Poissons Ratio (x) = 0.18426 0.06260
# Poissons Ratio (y) = 0.16921 0.06552
# Poissons Ratio (z) = 0.11919 0.13585
#
# Static dielectric constant tensor:
#      x y z
#    x 3.779510 0.000000 -0.254120 
#    y 0.000000 3.391430 0.000000 
#    z -0.254120 0.000000 3.831540 
# 
# 
# High freq. dielectric constant tensor:
#      x y z
#    x 1.783730 0.000000 -0.019030 
#    y 0.000000 1.769650 0.000000 
#    z -0.019030 0.000000 1.795090 
# 
# From -- ./inp_files/223711.got.cif
#   From: 2010.06.25/outbox.cif.g09.slc.cpg/sg12_112_cif.got.tgz:223711.got - 2010.06.28 00:19:55.
