data_PCOD8101365
_publ_section_title
;
Structure prediction by ZEFSAII (Michael W. Deem and Ramdas Pophale) SiO2 
 PCOD8101365
Probable space group: C 2/M
;
_chemical_formula_sum "Si O2"
_cell_formula_units_Z 56
_cell_length_a 18.071989
_cell_length_b 8.948830
_cell_length_c 29.007307
_cell_angle_alpha 90.000000
_cell_angle_beta 141.768126
_cell_angle_gamma 90.000000
_cell_volume 2903.098984
_symmetry_space_group_name_H-M "C 2/M"
_symmetry_group_IT_number 12
_symmetry_cell_setting 'monoclinic'
loop_
_space_group_symop_operation_xyz
x,y,z
-x,y,-z
-x,-y,-z
x,-y,z
1/2+x,1/2+y,z
1/2-x,1/2+y,-z
1/2-x,1/2-y,-z
1/2+x,1/2-y,z
loop_
_atom_site_type_symbol
_atom_site_label
_atom_site_fract_x
_atom_site_fract_y
_atom_site_fract_z
Si Si1 0.383989 0.176903 0.843416
Si Si2 0.730379 0.175731 0.846959
Si Si3 0.904500 0.664271 0.993567
Si Si4 0.305649 0.327284 0.713443
Si Si5 0.516897 0.326864 0.282411
Si Si6 0.876376 0.175031 0.568691
Si Si7 0.443082 0.326835 0.422904
O O1 0.285556 0.249502 0.828552
O O2 0.520039 0.220362 0.925018
O O3 0.367379 0.233081 0.783795
O O4 0.364933 0.000000 0.836864
O O5 0.594938 0.227106 0.786917
O O6 0.737770 0.000000 0.844680
O O7 0.800628 0.221545 0.928180
O O8 0.847761 0.500000 0.974837
O O9 0.000000 0.650875 0.000000
O O10 0.305439 0.500000 0.727714
O O11 0.378101 0.298784 0.702377
O O12 0.171666 0.275115 0.639409
O O13 0.477893 0.500000 0.265127
O O14 0.563805 0.270258 0.354672
O O15 0.750000 0.250000 0.500000
O O16 0.962148 0.222437 0.569082
O O17 0.853994 0.000000 0.558940
O O18 0.500000 0.293850 0.500000
O O19 0.406495 0.500000 0.399497
#
# Coordination Sequence:
#
# PCOD8101365 Si02
#       7
#     8   8   8   8   8   8   8
#     4  10  20  36  58  81 110 148 185 226 282 341
#     4  11  21  33  56  87 113 142 185 233 276 325
#     4   8  16  32  54  79 108 145 183 222 277 338
#     4  11  23  37  56  82 110 145 191 239 281 324
#     4  10  22  39  55  76 112 153 188 226 278 334
#     4  10  21  37  58  82 109 144 181 222 275 329
#     4  10  21  37  58  84 113 147 186 227 277 338
#
# _framework density 19.289732999999998
#
# number of rings (size 3 to 8) (size 9 to 14) (size 15 to 20)
#    0.000    2.000    0.000    4.714    0.000    6.857 
#    0.000    0.714    0.000    0.000    0.000    0.000 
#    0.000    0.000    0.000    0.000    0.000    0.000 
#
# Total GULP energy -347262.507387 kJ/mol
# GULP energy per Si atom -12402.232407 kJ/mol
# Density = 1.924583 g / cm^3
# Si number density = 19.289733 Si / 1000 Ang^3
#
#
#
# Elastic Constant Matrix: (Units=GPa)
#
#
# Indices 1 2 3 4 5 6 
#
# 1 103.6007 48.0612 67.8623 0.0000 1.2021 0.0000
# 2 48.0612 95.6701 61.9921 0.0000 8.3700 -0.0001
# 3 67.8623 61.9921 150.0697 0.0000 4.5221 0.0000
# 4 0.0000 0.0000 0.0000 34.8430 0.0000 2.9870
# 5 1.2021 8.3700 4.5221 0.0000 30.4280 0.0000
# 6 0.0000 -0.0001 0.0000 2.9870 0.0000 25.5006
#
#
#
# Elastic Compliance Matrix: (Units=1/GPa)
#
#
# Indices 1 2 3 4 5 6 
#
# 1 0.014938 -0.004396 -0.004980 0.000000 0.001359 0.000000
# 2 -0.004396 0.015857 -0.004456 0.000000 -0.003526 0.000000
# 3 -0.004980 -0.004456 0.010762 0.000000 -0.000177 0.000000
# 4 0.000000 0.000000 0.000000 0.028991 0.000000 -0.003396
# 5 0.001359 -0.003526 -0.000177 0.000000 0.033807 0.000000
# 6 0.000000 0.000000 0.000000 -0.003396 0.000000 0.039613
#
#
# Mechanical properties :
#
#
# Convention : Reuss Voigt Hill
#
# Bulk Modulus (GPa) = 71.98373 78.35239 75.16806
# Shear Modulus (GPa) = 28.36662 29.58265 28.97463
#
# Velocity S-wave (km/s) = 3.83894 3.92036 3.87987
# Velocity P-wave (km/s) = 7.55302 7.82299 7.68919
#
# Compressibility (1/GPa) = 0.01389203
#
# Stress axis : x y z
#
# Youngs Moduli (GPa) = 66.94189 63.06322 92.92267
#
# Poissons Ratio (x) = 0.27725 0.46276
# Poissons Ratio (y) = 0.29431 0.41407
# Poissons Ratio (z) = 0.33337 0.28101
#
# Static dielectric constant tensor:
#      x y z
#    x 3.410140 0.000000 -0.185190 
#    y 0.000000 3.517630 0.000000 
#    z -0.185190 0.000000 4.007290 
# 
# 
# High freq. dielectric constant tensor:
#      x y z
#    x 1.737060 0.000000 -0.002190 
#    y 0.000000 1.748380 0.000000 
#    z -0.002190 0.000000 1.769720 
# 
# From -- ./inp_files/275482.got.cif
#   From: 2010.06.25/outbox.cif.g09.slc.cpg/sg12_138_cif.got.tgz:275482.got - 2010.06.28 00:19:55.
