data_PCOD8101123
_publ_section_title
;
Structure prediction by ZEFSAII (Michael W. Deem and Ramdas Pophale) SiO2 
 PCOD8101123
Probable space group: C 2/M
;
_chemical_formula_sum "Si O2"
_cell_formula_units_Z 64
_cell_length_a 19.800564
_cell_length_b 9.299509
_cell_length_c 23.954194
_cell_angle_alpha 90.000000
_cell_angle_beta 51.194598
_cell_angle_gamma 90.000000
_cell_volume 3437.257360
_symmetry_space_group_name_H-M "C 2/M"
_symmetry_group_IT_number 12
_symmetry_cell_setting 'monoclinic'
loop_
_space_group_symop_operation_xyz
x,y,z
-x,y,-z
-x,-y,-z
x,-y,z
1/2+x,1/2+y,z
1/2-x,1/2+y,-z
1/2-x,1/2-y,-z
1/2+x,1/2-y,z
loop_
_atom_site_type_symbol
_atom_site_label
_atom_site_fract_x
_atom_site_fract_y
_atom_site_fract_z
Si Si1 0.772240 0.332766 0.698829
Si Si2 0.552876 0.833461 0.096533
Si Si3 0.640691 0.833754 0.840343
Si Si4 0.254631 0.167889 0.581715
Si Si5 0.687142 0.832163 0.937150
Si Si6 0.573629 0.166866 0.299847
Si Si7 0.615138 0.331366 0.166533
Si Si8 0.876797 0.333226 0.418878
O O1 0.750524 0.500000 0.715364
O O2 0.691637 0.248453 0.765983
O O3 0.782575 0.285626 0.629208
O O4 0.861610 0.294489 0.683476
O O5 0.461008 0.812863 0.115036
O O6 0.553663 0.743602 0.153174
O O7 0.571237 0.000000 0.101401
O O8 0.624959 0.767633 0.017153
O O9 0.665544 0.765767 0.887605
O O10 0.668161 0.000000 0.822753
O O11 0.166436 0.248003 0.609931
O O12 0.332997 0.212582 0.500052
O O13 0.234778 0.000000 0.588470
O O14 0.785873 0.799282 0.902061
O O15 0.666600 0.000000 0.943888
O O16 0.597024 0.266404 0.236085
O O17 0.477778 0.204909 0.370785
O O18 0.581395 0.000000 0.278144
O O19 0.595158 0.500000 0.178822
O O20 0.862064 0.500000 0.414009
#
# Coordination Sequence:
#
# PCOD8101123 Si02
#       8
#     8   8   8   8   8   8   8   8
#     4  10  21  36  55  80 111 144 178 223 273 317
#     4  10  21  36  57  81 106 140 183 227 270 323
#     4  10  20  36  57  80 107 142 183 224 266 319
#     4   9  19  36  57  83 112 142 175 219 271 315
#     4   9  18  36  58  79 104 140 183 224 270 321
#     4  10  21  37  56  79 108 145 185 223 265 318
#     4  11  22  36  55  80 111 143 178 225 274 323
#     4   9  19  36  58  82 109 142 182 220 259 316
#
# _framework density 18.619496000000002
#
# number of rings (size 3 to 8) (size 9 to 14) (size 15 to 20)
#    0.000    2.250    1.250    1.125    1.750    3.500 
#    0.000    3.750    0.000    1.500    0.000    5.250 
#    0.000    0.000    0.000    0.000    0.000    0.000 
#
# Total GULP energy -396896.943457 kJ/mol
# GULP energy per Si atom -12403.029483 kJ/mol
# Density = 1.857712 g / cm^3
# Si number density = 18.619496 Si / 1000 Ang^3
#
#
#
# Elastic Constant Matrix: (Units=GPa)
#
#
# Indices 1 2 3 4 5 6 
#
# 1 81.4405 34.6949 42.8139 -0.0001 13.9374 -0.0002
# 2 34.6949 50.1019 38.9168 -0.0003 5.0397 -0.0004
# 3 42.8139 38.9168 99.7969 0.0000 5.3145 -0.0001
# 4 -0.0001 -0.0003 0.0000 27.5781 0.0000 -1.7435
# 5 13.9374 5.0397 5.3145 0.0000 37.7877 0.0000
# 6 -0.0002 -0.0004 -0.0001 -1.7435 0.0000 23.8482
#
#
#
# Elastic Compliance Matrix: (Units=1/GPa)
#
#
# Indices 1 2 3 4 5 6 
#
# 1 0.019591 -0.009644 -0.004360 0.000000 -0.005326 0.000000
# 2 -0.009644 0.033573 -0.008973 0.000000 0.000341 0.000000
# 3 -0.004360 -0.008973 0.015356 0.000000 0.000645 0.000000
# 4 0.000000 0.000000 0.000000 0.036429 0.000000 0.002663
# 5 -0.005326 0.000341 0.000645 0.000000 0.028292 0.000000
# 6 0.000000 0.000000 0.000000 0.002663 0.000000 0.042127
#
#
# Mechanical properties :
#
#
# Convention : Reuss Voigt Hill
#
# Bulk Modulus (GPa) = 44.31565 51.57671 47.94618
# Shear Modulus (GPa) = 21.84894 25.50373 23.67633
#
# Velocity S-wave (km/s) = 3.42927 3.70500 3.56980
# Velocity P-wave (km/s) = 6.28747 6.78699 6.54200
#
# Compressibility (1/GPa) = 0.02256539
#
# Stress axis : x y z
#
# Youngs Moduli (GPa) = 51.04327 29.78575 65.12208
#
# Poissons Ratio (x) = 0.28725 0.28396
# Poissons Ratio (y) = 0.49226 0.58434
# Poissons Ratio (z) = 0.22257 0.26727
#
# Static dielectric constant tensor:
#      x y z
#    x 3.503680 0.000000 0.029780 
#    y 0.000000 3.276320 0.000000 
#    z 0.029780 0.000000 3.546220 
# 
# 
# High freq. dielectric constant tensor:
#      x y z
#    x 1.731660 0.000000 0.001370 
#    y 0.000000 1.704360 0.000000 
#    z 0.001370 0.000000 1.728780 
# 
# From -- ./inp_files/346027.got.cif
#   From: 2010.06.25/outbox.cif.g09.slc.cpg/sg12_174_cif.got.tgz:346027.got - 2010.06.28 00:19:55.
