data_PCOD8101372
_publ_section_title
;
Structure prediction by ZEFSAII (Michael W. Deem and Ramdas Pophale) SiO2 
 PCOD8101372
Probable space group: C 2/M
;
_chemical_formula_sum "Si O2"
_cell_formula_units_Z 40
_cell_length_a 20.319797
_cell_length_b 13.146962
_cell_length_c 14.870654
_cell_angle_alpha 90.000000
_cell_angle_beta 149.449374
_cell_angle_gamma 90.000000
_cell_volume 2019.270577
_symmetry_space_group_name_H-M "C 2/M"
_symmetry_group_IT_number 12
_symmetry_cell_setting 'monoclinic'
loop_
_space_group_symop_operation_xyz
x,y,z
-x,y,-z
-x,-y,-z
x,-y,z
1/2+x,1/2+y,z
1/2-x,1/2+y,-z
1/2-x,1/2-y,-z
1/2+x,1/2-y,z
loop_
_atom_site_type_symbol
_atom_site_label
_atom_site_fract_x
_atom_site_fract_y
_atom_site_fract_z
Si Si1 0.540004 0.690862 0.405721
Si Si2 0.525794 0.184079 0.929168
Si Si3 0.568986 0.613631 0.244916
Si Si4 0.811759 0.119021 0.253577
Si Si5 0.369741 0.884962 0.580406
O O1 0.544329 0.623031 0.321868
O O2 0.400480 0.679725 0.287641
O O3 0.654067 0.653002 0.605223
O O4 0.559206 0.809851 0.405300
O O5 0.518931 0.306888 0.913828
O O6 0.418064 0.133833 0.738833
O O7 0.500000 0.147242 0.000000
O O8 0.664572 0.146072 0.058832
O O9 0.530891 0.500000 0.169338
O O10 0.717916 0.638040 0.399377
O O11 0.838502 0.000000 0.273204
O O12 0.400592 0.000000 0.587059
#
# Coordination Sequence:
#
# PCOD8101372 Si02
#       5
#     8   8   8   8   8
#     4  10  20  38  57  80 111 145 185 223 269 326
#     4  11  22  36  55  84 112 140 184 233 272 316
#     4  10  20  36  58  81 111 150 183 218 271 328
#     4  11  22  36  58  84 110 142 182 229 274 320
#     4  10  21  37  58  82 111 147 183 222 270 325
#
# _framework density 19.809134
#
# number of rings (size 3 to 8) (size 9 to 14) (size 15 to 20)
#    0.000    1.600    0.000    7.800    0.000    6.800 
#    0.000    6.000    0.000    0.000    0.000    0.000 
#    0.000    0.000    0.000    0.000    0.000    0.000 
#
# Total GULP energy -248080.376409 kJ/mol
# GULP energy per Si atom -12404.018820 kJ/mol
# Density = 1.976405 g / cm^3
# Si number density = 19.809134 Si / 1000 Ang^3
#
#
#
# Elastic Constant Matrix: (Units=GPa)
#
#
# Indices 1 2 3 4 5 6 
#
# 1 96.5601 42.7978 22.1506 0.0000 6.1625 0.0000
# 2 42.7978 123.0878 32.9442 0.0000 6.9812 0.0000
# 3 22.1506 32.9442 46.7051 0.0000 5.5308 0.0000
# 4 0.0000 0.0000 0.0000 30.9091 0.0000 8.9976
# 5 6.1625 6.9812 5.5308 0.0000 22.8019 0.0000
# 6 0.0000 0.0000 0.0000 8.9976 0.0000 22.7054
#
#
#
# Elastic Compliance Matrix: (Units=1/GPa)
#
#
# Indices 1 2 3 4 5 6 
#
# 1 0.012767 -0.003426 -0.003453 0.000000 -0.001564 0.000000
# 2 -0.003426 0.010978 -0.006002 0.000000 -0.000979 0.000000
# 3 -0.003453 -0.006002 0.027751 0.000000 -0.003960 0.000000
# 4 0.000000 0.000000 0.000000 0.036572 0.000000 -0.014492
# 5 -0.001564 -0.000979 -0.003960 0.000000 0.045539 0.000000
# 6 0.000000 0.000000 0.000000 -0.014492 0.000000 0.049785
#
#
# Mechanical properties :
#
#
# Convention : Reuss Voigt Hill
#
# Bulk Modulus (GPa) = 38.86091 51.34867 45.10479
# Shear Modulus (GPa) = 22.96402 26.51400 24.73901
#
# Velocity S-wave (km/s) = 3.40849 3.66248 3.53777
# Velocity P-wave (km/s) = 5.92880 6.62292 6.28545
#
# Compressibility (1/GPa) = 0.02573280
#
# Stress axis : x y z
#
# Youngs Moduli (GPa) = 78.32888 91.09452 36.03425
#
# Poissons Ratio (x) = 0.31210 0.12442
# Poissons Ratio (y) = 0.26836 0.21629
# Poissons Ratio (z) = 0.27046 0.54679
#
# Static dielectric constant tensor:
#      x y z
#    x 3.458170 0.000000 -0.008380 
#    y 0.000000 3.748270 0.000000 
#    z -0.008380 0.000000 3.535910 
# 
# 
# High freq. dielectric constant tensor:
#      x y z
#    x 1.766830 0.000000 0.002670 
#    y 0.000000 1.783410 0.000000 
#    z 0.002670 0.000000 1.768920 
# 
# From -- ./inp_files/214578.got.cif
#   From: 2010.06.25/outbox.cif.g09.slc.cpg/sg12_108_cif.got.tgz:214578.got - 2010.06.28 00:19:55.
