data_PCOD8101931
_publ_section_title
;
Structure prediction by ZEFSAII (Michael W. Deem and Ramdas Pophale) SiO2 
 PCOD8101931
Probable space group: C 2/M
;
_chemical_formula_sum "Si O2"
_cell_formula_units_Z 56
_cell_length_a 10.369904
_cell_length_b 14.503180
_cell_length_c 33.433165
_cell_angle_alpha 90.000000
_cell_angle_beta 147.653408
_cell_angle_gamma 90.000000
_cell_volume 2690.303838
_symmetry_space_group_name_H-M "C 2/M"
_symmetry_group_IT_number 12
_symmetry_cell_setting 'monoclinic'
loop_
_space_group_symop_operation_xyz
x,y,z
-x,y,-z
-x,-y,-z
x,-y,z
1/2+x,1/2+y,z
1/2-x,1/2+y,-z
1/2-x,1/2-y,-z
1/2+x,1/2-y,z
loop_
_atom_site_type_symbol
_atom_site_label
_atom_site_fract_x
_atom_site_fract_y
_atom_site_fract_z
Si Si1 0.598751 0.609809 0.086570
Si Si2 0.925615 0.108554 0.330165
Si Si3 0.258695 0.758424 0.549533
Si Si4 0.120120 0.891092 0.773417
Si Si5 0.068701 0.391092 0.757883
Si Si6 0.131969 0.609933 0.684821
Si Si7 0.360028 0.890266 0.075718
O O1 0.612881 0.500000 0.091225
O O2 0.713996 0.649499 0.157729
O O3 0.755796 0.646226 0.090471
O O4 0.318842 0.641632 0.007306
O O5 0.896478 0.140374 0.276824
O O6 0.687117 0.139438 0.291414
O O7 0.149228 0.162372 0.407779
O O8 0.976963 0.000000 0.347485
O O9 0.250000 0.750000 0.500000
O O10 0.430075 0.844441 0.604466
O O11 0.000000 0.781420 0.500000
O O12 0.367477 0.852122 0.858282
O O13 0.892565 0.853726 0.738464
O O14 0.122796 0.000000 0.776018
O O15 0.086236 0.500000 0.761677
O O16 0.098492 0.352580 0.721085
O O17 0.106076 0.500000 0.674466
O O18 0.365998 0.000000 0.078742
#
# Coordination Sequence:
#
# PCOD8101931 Si02
#       7
#     8   8   8   8   8   8   8
#     4   8  12  20  40  74 111 142 180 229 267 299
#     4  10  20  36  60  84 106 136 177 224 270 320
#     4  12  26  42  60  84 109 136 175 222 278 338
#     4   9  16  30  51  78 109 143 183 223 267 315
#     4   9  16  30  51  78 109 145 185 219 260 319
#     4  10  22  38  56  78 110 148 181 218 266 325
#     4   8  12  20  40  74 111 142 179 230 270 297
#
# _framework density 20.815491000000002
#
# number of rings (size 3 to 8) (size 9 to 14) (size 15 to 20)
#    0.000    2.571    1.429    2.571    0.000    1.143 
#    0.000    0.714    0.000    4.286    0.000    6.000 
#    0.000    0.000    0.000    0.000    0.000    0.000 
#
# Total GULP energy -347050.610865 kJ/mol
# GULP energy per Si atom -12394.664674 kJ/mol
# Density = 2.076811 g / cm^3
# Si number density = 20.815491 Si / 1000 Ang^3
#
#
#
# Elastic Constant Matrix: (Units=GPa)
#
#
# Indices 1 2 3 4 5 6 
#
# 1 142.7675 4.9741 64.2776 -0.0002 13.6869 0.0000
# 2 4.9741 45.3600 18.4680 0.0000 8.2793 0.0000
# 3 64.2776 18.4680 160.7892 0.0007 16.7078 0.0003
# 4 -0.0002 0.0000 0.0007 -15.0174 0.0003 2.8240
# 5 13.6869 8.2793 16.7078 0.0003 36.3575 0.0002
# 6 0.0000 0.0000 0.0003 2.8240 0.0002 4.7863
#
#
#
# Elastic Compliance Matrix: (Units=1/GPa)
#
#
# Indices 1 2 3 4 5 6 
#
# 1 0.008671 0.000762 -0.003357 0.000000 -0.001895 0.000000
# 2 0.000762 0.023837 -0.002571 0.000000 -0.004533 0.000000
# 3 -0.003357 -0.002571 0.008049 0.000000 -0.001850 -0.000001
# 4 0.000000 0.000000 0.000000 -0.059939 0.000000 0.035365
# 5 -0.001895 -0.004533 -0.001850 0.000000 0.030100 -0.000001
# 6 0.000000 0.000000 -0.000001 0.035365 -0.000001 0.188063
#
#
# Mechanical properties :
#
#
# Convention : Reuss Voigt Hill
#
# Bulk Modulus (GPa) = 33.08684 58.26178 45.67431
# Shear Modulus (GPa) = 22.81150 22.63843 22.72497
#
# Velocity S-wave (km/s) = 3.31402 3.30142 3.30772
# Velocity P-wave (km/s) = 5.52932 6.52556 6.04799
#
# Compressibility (1/GPa) = 0.03022350
#
# Stress axis : x y z
#
# Youngs Moduli (GPa) = 115.32852 41.95220 124.24208
#
# Poissons Ratio (x) = -0.03196 0.41707
# Poissons Ratio (y) = -0.08785 0.31947
# Poissons Ratio (z) = 0.38714 0.10787
#
# Static dielectric constant tensor:
#      x y z
#    x 4.056610 0.000000 0.066360 
#    y 0.000000 3.287170 0.000000 
#    z 0.066360 0.000000 4.153090 
# 
# 
# High freq. dielectric constant tensor:
#      x y z
#    x 1.808640 0.000000 0.003750 
#    y 0.000000 1.788890 0.000000 
#    z 0.003750 0.000000 1.827000 
# 
# From -- ./inp_files/372805.got.cif
#   From: 2010.06.25/outbox.cif.g09.slc.cpg/sg12_187_cif.got.tgz:372805.got - 2010.06.28 00:19:55.
