data_PCOD8101982
_publ_section_title
;
Structure prediction by ZEFSAII (Michael W. Deem and Ramdas Pophale) SiO2 
 PCOD8101982
Probable space group: C 2/M
;
_chemical_formula_sum "Si O2"
_cell_formula_units_Z 56
_cell_length_a 14.635718
_cell_length_b 13.753047
_cell_length_c 27.878206
_cell_angle_alpha 90.000000
_cell_angle_beta 30.588722
_cell_angle_gamma 90.000000
_cell_volume 2855.527323
_symmetry_space_group_name_H-M "C 2/M"
_symmetry_group_IT_number 12
_symmetry_cell_setting 'monoclinic'
loop_
_space_group_symop_operation_xyz
x,y,z
-x,y,-z
-x,-y,-z
x,-y,z
1/2+x,1/2+y,z
1/2-x,1/2+y,-z
1/2-x,1/2-y,-z
1/2+x,1/2-y,z
loop_
_atom_site_type_symbol
_atom_site_label
_atom_site_fract_x
_atom_site_fract_y
_atom_site_fract_z
Si Si1 0.394567 0.891340 0.183959
Si Si2 0.059389 0.774482 0.162279
Si Si3 0.512590 0.772582 0.289942
Si Si4 0.335790 0.386507 0.544259
Si Si5 0.978957 0.108389 0.376929
Si Si6 0.456374 0.765516 0.964599
Si Si7 0.646509 0.616371 0.821624
O O1 0.508510 0.836090 0.172575
O O2 0.189650 0.888960 0.293427
O O3 0.415784 0.839099 0.122707
O O4 0.469369 0.000000 0.145960
O O5 0.080099 0.778156 0.210278
O O6 0.913306 0.849413 0.205244
O O7 0.249800 0.795929 0.050840
O O8 0.348635 0.843215 0.352711
O O9 0.431290 0.685349 0.357917
O O10 0.665007 0.833488 0.249087
O O11 0.500000 0.340312 0.500000
O O12 0.325687 0.500000 0.559125
O O13 0.365064 0.363550 0.475154
O O14 0.925502 0.000000 0.383474
O O15 0.496522 0.656307 0.926747
O O16 0.500000 0.772271 0.000000
O O17 0.661881 0.500000 0.817040
#
# Coordination Sequence:
#
# PCOD8101982 Si02
#       7
#     8   8   8   8   8   8   8
#     4  10  20  36  60  86 116 157 203 251 304 361
#     4  11  23  39  61  86 127 163 207 259 308 368
#     4  12  22  41  65  89 125 166 204 252 316 369
#     4  10  22  38  62  95 122 153 204 254 304 371
#     4  10  20  38  61  88 120 154 200 253 303 363
#     4  11  21  40  58  87 126 162 208 260 301 369
#     4  11  24  41  62  91 125 164 209 259 314 369
#
# _framework density 19.611087999999999
#
# number of rings (size 3 to 8) (size 9 to 14) (size 15 to 20)
#    0.000    1.286    4.286    3.429    0.000    5.714 
#    0.000    0.000    0.000    0.429    0.000    0.000 
#    0.000    0.000    0.000    0.000    0.000    0.000 
#
# Total GULP energy -347127.281151 kJ/mol
# GULP energy per Si atom -12397.402898 kJ/mol
# Density = 1.956645 g / cm^3
# Si number density = 19.611088 Si / 1000 Ang^3
#
#
#
# Elastic Constant Matrix: (Units=GPa)
#
#
# Indices 1 2 3 4 5 6 
#
# 1 79.0258 29.8579 10.6460 0.0004 -11.6419 -0.0002
# 2 29.8579 97.9346 12.5553 -0.0032 1.3070 -0.0004
# 3 10.6460 12.5553 76.5089 -0.0058 -11.4692 -0.0007
# 4 0.0004 -0.0032 -0.0058 22.6454 -0.0002 -4.1328
# 5 -11.6419 1.3070 -11.4692 -0.0002 27.2842 0.0001
# 6 -0.0002 -0.0004 -0.0007 -4.1328 0.0001 20.0751
#
#
#
# Elastic Compliance Matrix: (Units=1/GPa)
#
#
# Indices 1 2 3 4 5 6 
#
# 1 0.015488 -0.004763 -0.000372 -0.000001 0.006680 0.000000
# 2 -0.004763 0.011939 -0.001800 0.000001 -0.003361 0.000000
# 3 -0.000372 -0.001800 0.014308 0.000004 0.005942 0.000001
# 4 -0.000001 0.000001 0.000004 0.045883 0.000001 0.009446
# 5 0.006680 -0.003361 0.005942 0.000001 0.042161 0.000000
# 6 0.000000 0.000000 0.000001 0.009446 0.000000 0.051758
#
#
# Mechanical properties :
#
#
# Convention : Reuss Voigt Hill
#
# Bulk Modulus (GPa) = 35.88867 39.95419 37.92143
# Shear Modulus (GPa) = 24.42652 27.36162 25.89407
#
# Velocity S-wave (km/s) = 3.53306 3.73931 3.63764
# Velocity P-wave (km/s) = 5.91466 6.24986 6.08457
#
# Compressibility (1/GPa) = 0.02786395
#
# Stress axis : x y z
#
# Youngs Moduli (GPa) = 64.56573 83.76047 69.88938
#
# Poissons Ratio (x) = 0.39899 0.02600
# Poissons Ratio (y) = 0.30755 0.12582
# Poissons Ratio (z) = 0.02402 0.15079
#
# Static dielectric constant tensor:
#      x y z
#    x 3.524520 0.000000 -0.073870 
#    y 0.000000 3.577350 0.000000 
#    z -0.073870 0.000000 3.761260 
# 
# 
# High freq. dielectric constant tensor:
#      x y z
#    x 1.765570 0.000000 0.000000 
#    y 0.000000 1.753670 0.000000 
#    z 0.000000 0.000000 1.769880 
# 
# From -- ./inp_files/361405.got.cif
#   From: 2010.06.25/outbox.cif.g09.slc.cpg/sg12_181_cif.got.tgz:361405.got - 2010.06.28 00:19:55.
