data_PCOD8101531
_publ_section_title
;
Structure prediction by ZEFSAII (Michael W. Deem and Ramdas Pophale) SiO2 
 PCOD8101531
Probable space group: C 2/M
;
_chemical_formula_sum "Si O2"
_cell_formula_units_Z 56
_cell_length_a 30.229969
_cell_length_b 8.704190
_cell_length_c 14.999234
_cell_angle_alpha 90.000000
_cell_angle_beta 136.863999
_cell_angle_gamma 90.000000
_cell_volume 2698.493160
_symmetry_space_group_name_H-M "C 2/M"
_symmetry_group_IT_number 12
_symmetry_cell_setting 'monoclinic'
loop_
_space_group_symop_operation_xyz
x,y,z
-x,y,-z
-x,-y,-z
x,-y,z
1/2+x,1/2+y,z
1/2-x,1/2+y,-z
1/2-x,1/2-y,-z
1/2+x,1/2-y,z
loop_
_atom_site_type_symbol
_atom_site_label
_atom_site_fract_x
_atom_site_fract_y
_atom_site_fract_z
Si Si1 0.657529 0.176474 0.927916
Si Si2 0.804373 0.177100 0.187525
Si Si3 0.959892 0.319294 0.851723
Si Si4 0.042808 0.178097 0.817935
Si Si5 0.854490 0.177701 0.448716
Si Si6 0.480885 0.822589 0.570597
Si Si7 0.680145 0.821351 0.418446
O O1 0.650038 0.227085 0.812762
O O2 0.618334 0.280797 0.943735
O O3 0.638061 0.000000 0.910297
O O4 0.730505 0.209865 0.060507
O O5 0.814031 0.230356 0.303435
O O6 0.823978 0.000000 0.204741
O O7 0.965755 0.500000 0.841652
O O8 0.882808 0.271215 0.736266
O O9 0.994904 0.227588 0.825102
O O10 0.000000 0.274641 0.000000
O O11 0.038326 0.288432 0.723519
O O12 0.031393 0.000000 0.781617
O O13 0.928429 0.206143 0.532904
O O14 0.835181 0.283687 0.502417
O O15 0.843530 0.000000 0.458322
O O16 0.500000 0.771688 0.500000
O O17 0.458667 0.000000 0.540521
O O18 0.750000 0.750000 0.500000
O O19 0.689607 0.000000 0.419211
#
# Coordination Sequence:
#
# PCOD8101531 Si02
#       7
#     8   8   8   8   8   8   8
#     4  10  20  36  58  84 121 166 209 254 303 368
#     4   9  20  37  57  85 122 164 207 252 306 371
#     4  10  23  45  70  93 122 164 213 267 326 389
#     4  12  24  38  60  89 123 160 202 257 313 372
#     4  11  22  38  61  89 123 159 201 253 312 375
#     4  11  23  38  59  89 124 163 206 250 305 372
#     4  11  24  43  68  94 126 164 210 267 326 391
#
# _framework density 20.752321999999999
#
# number of rings (size 3 to 8) (size 9 to 14) (size 15 to 20)
#    0.000    1.429    1.429    3.857    0.000    7.143 
#    0.000    5.714    0.000    0.000    0.000    0.000 
#    0.000    0.000    0.000    0.000    0.000    0.000 
#
# Total GULP energy -346987.886439 kJ/mol
# GULP energy per Si atom -12392.424516 kJ/mol
# Density = 2.070509 g / cm^3
# Si number density = 20.752322 Si / 1000 Ang^3
#
#
#
# Elastic Constant Matrix: (Units=GPa)
#
#
# Indices 1 2 3 4 5 6 
#
# 1 131.3501 49.3221 59.7647 0.0000 8.5437 0.0000
# 2 49.3221 53.0109 35.4439 0.0000 11.9002 0.0000
# 3 59.7647 35.4439 103.2552 0.0000 3.0683 0.0000
# 4 0.0000 0.0000 0.0000 25.7482 0.0000 2.9106
# 5 8.5437 11.9002 3.0683 0.0000 22.0731 0.0000
# 6 0.0000 0.0000 0.0000 2.9106 0.0000 39.4089
#
#
#
# Elastic Compliance Matrix: (Units=1/GPa)
#
#
# Indices 1 2 3 4 5 6 
#
# 1 0.013089 -0.009392 -0.004370 0.000000 0.000605 0.000000
# 2 -0.009392 0.034915 -0.006123 0.000000 -0.014337 0.000000
# 3 -0.004370 -0.006123 0.014226 0.000000 0.003015 0.000000
# 4 0.000000 0.000000 0.000000 0.039165 0.000000 -0.002893
# 5 0.000605 -0.014337 0.003015 0.000000 0.052380 0.000000
# 6 0.000000 0.000000 0.000000 -0.002893 0.000000 0.025589
#
#
# Mechanical properties :
#
#
# Convention : Reuss Voigt Hill
#
# Bulk Modulus (GPa) = 44.52286 64.07531 54.29908
# Shear Modulus (GPa) = 22.06329 26.98506 24.52418
#
# Velocity S-wave (km/s) = 3.26417 3.60993 3.44140
# Velocity P-wave (km/s) = 5.97557 6.95117 6.48175
#
# Compressibility (1/GPa) = 0.02246037
#
# Stress axis : x y z
#
# Youngs Moduli (GPa) = 76.39992 28.64101 70.29247
#
# Poissons Ratio (x) = 0.26900 0.30718
# Poissons Ratio (y) = 0.71756 0.43039
# Poissons Ratio (z) = 0.33387 0.17536
#
# Static dielectric constant tensor:
#      x y z
#    x 2.250220 0.000000 1.214940 
#    y 0.000000 3.642310 0.000000 
#    z 1.214940 0.000000 3.438110 
# 
# 
# High freq. dielectric constant tensor:
#      x y z
#    x 1.816250 0.000000 0.015060 
#    y 0.000000 1.810210 0.000000 
#    z 0.015060 0.000000 1.820760 
# 
# From -- ./inp_files/249276.got.cif
#   From: 2010.06.25/outbox.cif.g09.slc.cpg/sg12_125_cif.got.tgz:249276.got - 2010.06.28 00:19:55.
