data_PCOD8101810
_publ_section_title
;
Structure prediction by ZEFSAII (Michael W. Deem and Ramdas Pophale) SiO2 
 PCOD8101810
Probable space group: C 2/M
;
_chemical_formula_sum "Si O2"
_cell_formula_units_Z 56
_cell_length_a 18.585195
_cell_length_b 8.401451
_cell_length_c 27.018955
_cell_angle_alpha 90.000000
_cell_angle_beta 38.773738
_cell_angle_gamma 90.000000
_cell_volume 2642.015134
_symmetry_space_group_name_H-M "C 2/M"
_symmetry_group_IT_number 12
_symmetry_cell_setting 'monoclinic'
loop_
_space_group_symop_operation_xyz
x,y,z
-x,y,-z
-x,-y,-z
x,-y,z
1/2+x,1/2+y,z
1/2-x,1/2+y,-z
1/2-x,1/2-y,-z
1/2+x,1/2-y,z
loop_
_atom_site_type_symbol
_atom_site_label
_atom_site_fract_x
_atom_site_fract_y
_atom_site_fract_z
Si Si1 0.890083 0.183435 0.534893
Si Si2 0.874113 0.180117 0.432045
Si Si3 0.649671 0.814185 0.018469
Si Si4 0.601729 0.313726 0.838897
Si Si5 0.528749 0.687334 0.262205
Si Si6 0.720659 0.314669 0.876826
Si Si7 0.843009 0.313121 0.292716
O O1 0.922672 0.202127 0.460404
O O2 0.768297 0.256803 0.617900
O O3 0.000000 0.270247 0.500000
O O4 0.884223 0.000000 0.554726
O O5 0.750000 0.250000 0.500000
O O6 0.957840 0.259225 0.346928
O O7 0.862021 0.000000 0.421690
O O8 0.676999 0.787464 0.946361
O O9 0.633392 0.000000 0.037647
O O10 0.750000 0.750000 0.000000
O O11 0.532472 0.724330 0.093999
O O12 0.622361 0.500000 0.821367
O O13 0.653292 0.255963 0.863852
O O14 0.670166 0.223343 0.758476
O O15 0.556985 0.500000 0.250906
O O16 0.644522 0.787398 0.200867
O O17 0.455907 0.721944 0.251848
O O18 0.695313 0.500000 0.900541
O O19 0.858351 0.500000 0.293858
#
# Coordination Sequence:
#
# PCOD8101810 Si02
#       7
#     8   8   8   8   8   8   8
#     4   9  19  35  57  85 118 157 203 257 311 364
#     4  10  20  36  59  86 118 158 204 257 312 366
#     4  12  25  44  71  99 128 162 205 250 298 363
#     4  11  25  44  65  92 130 165 201 252 309 365
#     4  11  23  38  61  90 125 163 209 262 308 366
#     4  11  25  44  66  93 128 166 203 250 309 366
#     4  11  22  38  63  89 122 165 211 257 308 371
#
# _framework density 21.195941999999999
#
# number of rings (size 3 to 8) (size 9 to 14) (size 15 to 20)
#    0.000    1.286    1.429    4.286    2.000    4.571 
#    0.000    0.000    0.000    2.143    0.000    0.000 
#    0.000    0.000    0.000    0.000    0.000    0.000 
#
# Total GULP energy -347224.403429 kJ/mol
# GULP energy per Si atom -12400.871551 kJ/mol
# Density = 2.114770 g / cm^3
# Si number density = 21.195942 Si / 1000 Ang^3
#
#
#
# Elastic Constant Matrix: (Units=GPa)
#
#
# Indices 1 2 3 4 5 6 
#
# 1 114.3370 18.8994 25.0825 -0.0002 -4.0112 0.0053
# 2 18.8994 41.5629 6.2531 -0.0004 3.1720 0.0100
# 3 25.0825 6.2531 99.6887 0.0004 9.3915 0.0000
# 4 -0.0002 -0.0004 0.0004 23.5158 -0.0005 2.7152
# 5 -4.0112 3.1720 9.3915 -0.0005 41.1780 -0.0007
# 6 0.0053 0.0100 0.0000 2.7152 -0.0007 29.0321
#
#
#
# Elastic Compliance Matrix: (Units=1/GPa)
#
#
# Indices 1 2 3 4 5 6 
#
# 1 0.010066 -0.004353 -0.002436 0.000000 0.001871 0.000000
# 2 -0.004353 0.026270 -0.000329 0.000001 -0.002373 -0.000008
# 3 -0.002436 -0.000329 0.010919 0.000000 -0.002702 0.000001
# 4 0.000000 0.000001 0.000000 0.042989 0.000000 -0.004020
# 5 0.001871 -0.002373 -0.002702 0.000000 0.025266 0.000001
# 6 0.000000 -0.000008 0.000001 -0.004020 0.000001 0.034821
#
#
# Mechanical properties :
#
#
# Convention : Reuss Voigt Hill
#
# Bulk Modulus (GPa) = 30.28586 39.56205 34.92395
# Shear Modulus (GPa) = 28.47813 32.43542 30.45678
#
# Velocity S-wave (km/s) = 3.66944 3.91610 3.79478
# Velocity P-wave (km/s) = 5.68090 6.25726 5.97603
#
# Compressibility (1/GPa) = 0.03301871
#
# Stress axis : x y z
#
# Youngs Moduli (GPa) = 99.34745 38.06611 91.58079
#
# Poissons Ratio (x) = 0.16572 0.22308
# Poissons Ratio (y) = 0.43250 0.03013
# Poissons Ratio (z) = 0.24199 0.01252
#
# Static dielectric constant tensor:
#      x y z
#    x 3.517600 -0.000010 -0.262680 
#    y -0.000010 3.561240 0.000000 
#    z -0.262680 0.000000 3.863370 
# 
# 
# High freq. dielectric constant tensor:
#      x y z
#    x 1.842890 0.000000 0.004360 
#    y 0.000000 1.814930 0.000000 
#    z 0.004360 0.000000 1.846380 
# 
# From -- ./inp_files/362952.got.cif
#   From: 2010.06.25/outbox.cif.g09.slc.cpg/sg12_182_cif.got.tgz:362952.got - 2010.06.28 00:19:55.
