data_PCOD8101258
_publ_section_title
;
Structure prediction by ZEFSAII (Michael W. Deem and Ramdas Pophale) SiO2 
 PCOD8101258
Probable space group: C 2/M
;
_chemical_formula_sum "Si O2"
_cell_formula_units_Z 56
_cell_length_a 18.562354
_cell_length_b 8.744418
_cell_length_c 18.396212
_cell_angle_alpha 90.000000
_cell_angle_beta 111.953751
_cell_angle_gamma 90.000000
_cell_volume 2769.489341
_symmetry_space_group_name_H-M "C 2/M"
_symmetry_group_IT_number 12
_symmetry_cell_setting 'monoclinic'
loop_
_space_group_symop_operation_xyz
x,y,z
-x,y,-z
-x,-y,-z
x,-y,z
1/2+x,1/2+y,z
1/2-x,1/2+y,-z
1/2-x,1/2-y,-z
1/2+x,1/2-y,z
loop_
_atom_site_type_symbol
_atom_site_label
_atom_site_fract_x
_atom_site_fract_y
_atom_site_fract_z
Si Si1 0.823512 0.181154 0.985506
Si Si2 0.228562 0.680784 0.709045
Si Si3 0.858352 0.319823 0.847033
Si Si4 0.075345 0.319422 0.732952
Si Si5 0.476180 0.174572 0.565985
Si Si6 0.803798 0.671490 0.463963
Si Si7 0.534722 0.181413 0.876639
O O1 0.821437 0.230646 0.900919
O O2 0.817944 0.000000 0.989162
O O3 0.750000 0.250000 0.000000
O O4 0.905368 0.239675 0.046654
O O5 0.243940 0.500000 0.715912
O O6 0.307449 0.770593 0.758044
O O7 0.162670 0.724804 0.743172
O O8 0.198926 0.740360 0.618723
O O9 0.852065 0.500000 0.857985
O O10 0.947546 0.272046 0.866363
O O11 0.063906 0.500000 0.732247
O O12 0.053908 0.252727 0.803693
O O13 0.015498 0.247612 0.651179
O O14 0.500000 0.258826 0.500000
O O15 0.384730 0.183264 0.536031
O O16 0.508199 0.000000 0.574658
O O17 0.775414 0.500000 0.444362
O O18 0.750000 0.750000 0.500000
O O19 0.546518 0.000000 0.885933
#
# Coordination Sequence:
#
# PCOD8101258 Si02
#       7
#     8   8   8   8   8   8   8
#     4  12  25  43  68  93 121 158 198 242 294 355
#     4  10  20  36  57  84 116 155 202 252 303 360
#     4  11  24  40  61  91 126 160 197 244 295 357
#     4   9  17  32  56  83 111 148 196 248 296 345
#     4   9  15  29  54  82 109 144 198 250 289 341
#     4  10  21  34  54  82 115 153 198 251 305 362
#     4  10  22  39  61  91 123 156 199 248 296 354
#
# _framework density 20.220334000000001
#
# number of rings (size 3 to 8) (size 9 to 14) (size 15 to 20)
#    0.000    1.857    1.429    3.000    2.000    4.571 
#    0.000    0.000    0.000    1.286    0.000    0.000 
#    0.000    0.000    0.000    0.000    0.000    0.000 
#
# Total GULP energy -347124.331139 kJ/mol
# GULP energy per Si atom -12397.297541 kJ/mol
# Density = 2.017431 g / cm^3
# Si number density = 20.220334 Si / 1000 Ang^3
#
#
#
# Elastic Constant Matrix: (Units=GPa)
#
#
# Indices 1 2 3 4 5 6 
#
# 1 119.2024 41.8074 36.0619 0.0000 -3.7607 0.0000
# 2 41.8074 53.1667 21.9428 0.0000 5.5035 0.0000
# 3 36.0619 21.9428 102.3596 0.0000 9.1481 0.0000
# 4 0.0000 0.0000 0.0000 24.7648 0.0000 0.0304
# 5 -3.7607 5.5035 9.1481 0.0000 42.8598 0.0000
# 6 0.0000 0.0000 0.0000 0.0304 0.0000 27.9466
#
#
#
# Elastic Compliance Matrix: (Units=1/GPa)
#
#
# Indices 1 2 3 4 5 6 
#
# 1 0.012440 -0.008953 -0.002715 0.000000 0.002821 0.000000
# 2 -0.008953 0.027206 -0.002340 0.000000 -0.003780 0.000000
# 3 -0.002715 -0.002340 0.011440 0.000000 -0.002380 0.000000
# 4 0.000000 0.000000 0.000000 0.040380 0.000000 -0.000044
# 5 0.002821 -0.003780 -0.002380 0.000000 0.024573 0.000000
# 6 0.000000 0.000000 0.000000 -0.000044 0.000000 0.035783
#
#
# Mechanical properties :
#
#
# Convention : Reuss Voigt Hill
#
# Bulk Modulus (GPa) = 43.34849 52.70589 48.02719
# Shear Modulus (GPa) = 26.66266 30.77536 28.71901
#
# Velocity S-wave (km/s) = 3.63520 3.90552 3.77278
# Velocity P-wave (km/s) = 6.25333 6.81614 6.54079
#
# Compressibility (1/GPa) = 0.02306886
#
# Stress axis : x y z
#
# Youngs Moduli (GPa) = 80.38802 36.75652 87.40917
#
# Poissons Ratio (x) = 0.32909 0.23735
# Poissons Ratio (y) = 0.71973 0.20455
# Poissons Ratio (z) = 0.21828 0.08601
#
# Static dielectric constant tensor:
#      x y z
#    x 3.632420 0.000000 -0.140860 
#    y 0.000000 3.285480 0.000000 
#    z -0.140860 0.000000 3.858120 
# 
# 
# High freq. dielectric constant tensor:
#      x y z
#    x 1.800260 0.000000 0.001760 
#    y 0.000000 1.745780 0.000000 
#    z 0.001760 0.000000 1.811460 
# 
# From -- ./inp_files/275613.got.cif
#   From: 2010.06.25/outbox.cif.g09.slc.cpg/sg12_138_cif.got.tgz:275613.got - 2010.06.28 00:19:55.
