data_PCOD8101768
_publ_section_title
;
Structure prediction by ZEFSAII (Michael W. Deem and Ramdas Pophale) SiO2 
 PCOD8101768
Probable space group: C 2/M
;
_chemical_formula_sum "Si O2"
_cell_formula_units_Z 48
_cell_length_a 23.895928
_cell_length_b 8.545870
_cell_length_c 12.070109
_cell_angle_alpha 90.000000
_cell_angle_beta 101.939240
_cell_angle_gamma 90.000000
_cell_volume 2411.534100
_symmetry_space_group_name_H-M "C 2/M"
_symmetry_group_IT_number 12
_symmetry_cell_setting 'monoclinic'
loop_
_space_group_symop_operation_xyz
x,y,z
-x,y,-z
-x,-y,-z
x,-y,z
1/2+x,1/2+y,z
1/2-x,1/2+y,-z
1/2-x,1/2-y,-z
1/2+x,1/2-y,z
loop_
_atom_site_type_symbol
_atom_site_label
_atom_site_fract_x
_atom_site_fract_y
_atom_site_fract_z
Si Si1 0.784571 0.682622 0.231313
Si Si2 0.153958 0.183234 0.163799
Si Si3 0.631100 0.317320 0.903394
Si Si4 0.413186 0.817657 0.666045
Si Si5 0.956226 0.683147 0.294434
Si Si6 0.371340 0.318005 0.429027
O O1 0.790929 0.500000 0.207593
O O2 0.718868 0.731142 0.217583
O O3 0.811289 0.777210 0.139724
O O4 0.817407 0.723803 0.358063
O O5 0.112357 0.281549 0.224616
O O6 0.143830 0.000000 0.179203
O O7 0.139125 0.233000 0.033066
O O8 0.618429 0.500000 0.886330
O O9 0.577373 0.223444 0.831935
O O10 0.478766 0.761547 0.692037
O O11 0.377528 0.722754 0.560222
O O12 0.408521 0.000000 0.637278
O O13 0.951556 0.500000 0.316805
O O14 0.929158 0.772917 0.387733
O O15 0.358841 0.500000 0.409289
#
# Coordination Sequence:
#
# PCOD8101768 Si02
#       6
#     8   8   8   8   8   8
#     4  10  20  37  60  84 112 146 185 229 275 325
#     4  10  23  39  56  82 115 150 186 226 274 329
#     4  10  20  36  59  86 113 144 185 230 276 324
#     4  11  24  39  57  81 112 150 187 227 276 330
#     4  10  21  38  59  84 112 144 186 230 274 327
#     4  11  22  37  60  86 111 143 184 230 279 329
#
# _framework density 19.904340999999999
#
# number of rings (size 3 to 8) (size 9 to 14) (size 15 to 20)
#    0.000    1.667    0.000    6.500    0.000    8.667 
#    0.000    3.333    0.000    0.000    0.000    0.000 
#    0.000    0.000    0.000    0.000    0.000    0.000 
#
# Total GULP energy -297741.419792 kJ/mol
# GULP energy per Si atom -12405.892491 kJ/mol
# Density = 1.985904 g / cm^3
# Si number density = 19.904341 Si / 1000 Ang^3
#
#
#
# Elastic Constant Matrix: (Units=GPa)
#
#
# Indices 1 2 3 4 5 6 
#
# 1 60.8675 8.3507 32.9087 0.0000 3.1692 0.0000
# 2 8.3507 45.4343 14.0936 0.0000 -0.7061 0.0000
# 3 32.9087 14.0936 87.0969 0.0000 5.3187 0.0000
# 4 0.0000 0.0000 0.0000 33.5459 0.0000 -2.6777
# 5 3.1692 -0.7061 5.3187 0.0000 19.3693 0.0000
# 6 0.0000 0.0000 0.0000 -2.6777 0.0000 28.2301
#
#
#
# Elastic Compliance Matrix: (Units=1/GPa)
#
#
# Indices 1 2 3 4 5 6 
#
# 1 0.020774 -0.001507 -0.007521 0.000000 -0.001389 0.000000
# 2 -0.001507 0.023352 -0.003332 0.000000 0.002013 0.000000
# 3 -0.007521 -0.003332 0.015047 0.000000 -0.003023 0.000000
# 4 0.000000 0.000000 0.000000 0.030037 0.000000 0.002849
# 5 -0.001389 0.002013 -0.003023 0.000000 0.052759 0.000000
# 6 0.000000 0.000000 0.000000 0.002849 0.000000 0.035693
#
#
# Mechanical properties :
#
#
# Convention : Reuss Voigt Hill
#
# Bulk Modulus (GPa) = 29.02487 33.78941 31.40714
# Shear Modulus (GPa) = 23.37905 25.43209 24.40557
#
# Velocity S-wave (km/s) = 3.43092 3.57839 3.50543
# Velocity P-wave (km/s) = 5.50534 5.83832 5.67427
#
# Compressibility (1/GPa) = 0.03445321
#
# Stress axis : x y z
#
# Youngs Moduli (GPa) = 48.13623 42.82349 66.45892
#
# Poissons Ratio (x) = 0.06453 0.49982
# Poissons Ratio (y) = 0.07254 0.22145
# Poissons Ratio (z) = 0.36202 0.14270
#
# Static dielectric constant tensor:
#      x y z
#    x 3.662450 0.000000 0.133950 
#    y 0.000000 3.631460 0.000000 
#    z 0.133950 0.000000 3.615230 
# 
# 
# High freq. dielectric constant tensor:
#      x y z
#    x 1.776110 0.000000 0.009480 
#    y 0.000000 1.783040 0.000000 
#    z 0.009480 0.000000 1.781090 
# 
# From -- ./inp_files/172311.got.cif
#   From: 2010.06.25/outbox.cif.g09.slc.cpg/sg12_87_cif.got.tgz:172311.got - 2010.06.28 00:19:55.
