data_PCOD8101066
_publ_section_title
;
Structure prediction by ZEFSAII (Michael W. Deem and Ramdas Pophale) SiO2 
 PCOD8101066
Probable space group: C 2/M
;
_chemical_formula_sum "Si O2"
_cell_formula_units_Z 56
_cell_length_a 20.870309
_cell_length_b 13.631156
_cell_length_c 18.612271
_cell_angle_alpha 90.000000
_cell_angle_beta 34.009399
_cell_angle_gamma 90.000000
_cell_volume 2961.612194
_symmetry_space_group_name_H-M "C 2/M"
_symmetry_group_IT_number 12
_symmetry_cell_setting 'monoclinic'
loop_
_space_group_symop_operation_xyz
x,y,z
-x,y,-z
-x,-y,-z
x,-y,z
1/2+x,1/2+y,z
1/2-x,1/2+y,-z
1/2-x,1/2-y,-z
1/2+x,1/2-y,z
loop_
_atom_site_type_symbol
_atom_site_label
_atom_site_fract_x
_atom_site_fract_y
_atom_site_fract_z
Si Si1 0.549810 0.692052 0.296557
Si Si2 0.431720 0.110143 0.232966
Si Si3 0.104229 0.608797 0.201174
Si Si4 0.732515 0.612419 0.228394
Si Si5 0.137503 0.887558 0.067420
Si Si6 0.319591 0.612306 0.560419
Si Si7 0.936431 0.249543 0.989274
O O1 0.585879 0.806019 0.277353
O O2 0.619781 0.621471 0.284066
O O3 0.575528 0.668209 0.189602
O O4 0.415427 0.680708 0.436008
O O5 0.504063 0.124589 0.237155
O O6 0.297907 0.129558 0.374329
O O7 0.446287 0.000000 0.188910
O O8 0.469828 0.183417 0.135982
O O9 0.096666 0.500000 0.243763
O O10 0.225870 0.620899 0.048048
O O11 0.775898 0.500000 0.184851
O O12 0.699232 0.642969 0.339586
O O13 0.828398 0.683816 0.108815
O O14 0.097083 0.000000 0.104054
O O15 0.102924 0.840209 0.023725
O O16 0.360848 0.500000 0.516726
O O17 0.000000 0.205389 0.000000
#
# Coordination Sequence:
#
# PCOD8101066 Si02
#       7
#     8   8   8   8   8   8   8
#     4  12  21  38  62  85 118 157 192 232 290 347
#     4  10  20  36  56  86 119 150 188 234 288 344
#     4  10  21  38  61  86 114 146 193 245 287 335
#     4  11  22  36  59  91 119 150 192 239 291 345
#     4  11  23  40  60  86 115 149 197 244 285 340
#     4  10  22  37  56  88 124 154 186 232 289 348
#     4  12  22  37  61  86 115 152 193 239 297 339
#
# _framework density 18.908619999999999
#
# number of rings (size 3 to 8) (size 9 to 14) (size 15 to 20)
#    0.000    1.143    4.286    3.429    0.000    3.714 
#    0.000    0.000    0.000    2.571    0.000    0.000 
#    0.000    0.000    0.000    0.000    0.000    0.000 
#
# Total GULP energy -347265.173658 kJ/mol
# GULP energy per Si atom -12402.327631 kJ/mol
# Density = 1.886558 g / cm^3
# Si number density = 18.908620 Si / 1000 Ang^3
#
#
#
# Elastic Constant Matrix: (Units=GPa)
#
#
# Indices 1 2 3 4 5 6 
#
# 1 94.1136 19.6649 21.5126 0.0000 -11.7582 0.0000
# 2 19.6649 107.7534 46.4530 0.0000 0.7899 0.0000
# 3 21.5126 46.4530 95.7492 0.0001 -13.2639 -0.0001
# 4 0.0000 0.0000 0.0001 25.4072 -0.0001 -1.7829
# 5 -11.7582 0.7899 -13.2639 -0.0001 22.5931 0.0000
# 6 0.0000 0.0000 -0.0001 -1.7829 0.0000 24.5876
#
#
#
# Elastic Compliance Matrix: (Units=1/GPa)
#
#
# Indices 1 2 3 4 5 6 
#
# 1 0.011941 -0.001774 -0.001037 0.000000 0.005668 0.000000
# 2 -0.001774 0.012355 -0.006295 0.000000 -0.005051 0.000000
# 3 -0.001037 -0.006295 0.014899 0.000000 0.008427 0.000000
# 4 0.000000 0.000000 0.000000 0.039560 0.000000 0.002869
# 5 0.005668 -0.005051 0.008427 0.000000 0.052335 0.000000
# 6 0.000000 0.000000 0.000000 0.002869 0.000000 0.040879
#
#
# Mechanical properties :
#
#
# Convention : Reuss Voigt Hill
#
# Bulk Modulus (GPa) = 47.65894 52.54189 50.10042
# Shear Modulus (GPa) = 25.35814 28.51663 26.93739
#
# Velocity S-wave (km/s) = 3.66606 3.88768 3.77849
# Velocity P-wave (km/s) = 6.57112 6.92818 6.75201
#
# Compressibility (1/GPa) = 0.02098242
#
# Stress axis : x y z
#
# Youngs Moduli (GPa) = 83.74330 80.93832 67.12064
#
# Poissons Ratio (x) = 0.14355 0.06963
# Poissons Ratio (y) = 0.14853 0.42254
# Poissons Ratio (z) = 0.08687 0.50953
#
# Static dielectric constant tensor:
#      x y z
#    x 3.506380 0.000000 -0.164840 
#    y 0.000000 3.582030 0.000000 
#    z -0.164840 0.000000 3.361110 
# 
# 
# High freq. dielectric constant tensor:
#      x y z
#    x 1.733880 0.000000 -0.018830 
#    y 0.000000 1.734240 0.000000 
#    z -0.018830 0.000000 1.726450 
# 
# From -- ./inp_files/156703.got.cif
#   From: 2010.06.25/outbox.cif.g09.slc.cpg/sg12_79_cif.got.tgz:156703.got - 2010.06.28 00:19:55.
