data_PCOD8101619
_publ_section_title
;
Structure prediction by ZEFSAII (Michael W. Deem and Ramdas Pophale) SiO2 
 PCOD8101619
Probable space group: C 2/M
;
_chemical_formula_sum "Si O2"
_cell_formula_units_Z 64
_cell_length_a 9.081128
_cell_length_b 26.943448
_cell_length_c 18.725282
_cell_angle_alpha 90.000000
_cell_angle_beta 42.323494
_cell_angle_gamma 90.000000
_cell_volume 3084.892992
_symmetry_space_group_name_H-M "C 2/M"
_symmetry_group_IT_number 12
_symmetry_cell_setting 'monoclinic'
loop_
_space_group_symop_operation_xyz
x,y,z
-x,y,-z
-x,-y,-z
x,-y,z
1/2+x,1/2+y,z
1/2-x,1/2+y,-z
1/2-x,1/2-y,-z
1/2+x,1/2-y,z
loop_
_atom_site_type_symbol
_atom_site_label
_atom_site_fract_x
_atom_site_fract_y
_atom_site_fract_z
Si Si1 0.322993 0.871673 0.873523
Si Si2 0.266977 0.945347 0.699001
Si Si3 0.037268 0.885368 0.102134
Si Si4 0.970673 0.729829 0.882676
Si Si5 0.432432 0.612134 0.350735
Si Si6 0.890860 0.192216 0.805380
Si Si7 0.768240 0.944610 0.537516
Si Si8 0.798929 0.443625 0.281823
O O1 0.146878 0.854914 0.876818
O O2 0.440733 0.822516 0.856317
O O3 0.489871 0.910528 0.779934
O O4 0.221772 0.899931 0.978870
O O5 0.082968 0.933967 0.824602
O O6 0.244585 0.906918 0.642209
O O7 0.508100 0.941526 0.644565
O O8 0.220255 0.000000 0.685816
O O9 0.146930 0.853526 0.126368
O O10 0.041210 0.768380 0.794661
O O11 0.167130 0.721661 0.868265
O O12 0.750000 0.750000 0.000000
O O13 0.492250 0.669497 0.308156
O O14 0.329823 0.602829 0.465923
O O15 0.656275 0.579424 0.268396
O O16 0.853816 0.940925 0.590292
O O17 0.822570 0.000000 0.485084
O O18 0.866524 0.500000 0.240348
#
# Coordination Sequence:
#
# PCOD8101619 Si02
#       8
#     8   8   8   8   8   8   8   8
#     4  11  22  39  60  92 124 167 205 255 318 377
#     4  10  20  36  58  89 125 163 214 260 300 367
#     4  10  22  37  58  88 126 161 205 254 315 373
#     4  12  23  39  66  89 120 158 204 262 311 371
#     4  11  22  38  60  92 125 162 207 262 318 366
#     4  11  24  40  62  96 121 154 203 268 317 371
#     4  10  20  37  63  92 122 167 222 261 302 364
#     4  11  22  38  60  94 134 169 210 258 307 377
#
# _framework density 20.746262999999999
#
# number of rings (size 3 to 8) (size 9 to 14) (size 15 to 20)
#    0.000    1.250    3.750    3.000    1.750    2.500 
#    0.000    1.250    0.000    3.000    3.250    0.000 
#    0.000    0.000    0.000    0.000    0.000    0.000 
#
# Total GULP energy -396549.951132 kJ/mol
# GULP energy per Si atom -12392.185973 kJ/mol
# Density = 2.069904 g / cm^3
# Si number density = 20.746263 Si / 1000 Ang^3
#
#
#
# Elastic Constant Matrix: (Units=GPa)
#
#
# Indices 1 2 3 4 5 6 
#
# 1 87.5105 28.8836 17.8478 0.0000 8.3682 0.0000
# 2 28.8836 102.0142 48.3877 0.0000 -0.0750 0.0000
# 3 17.8478 48.3877 88.4809 0.0000 8.1548 0.0000
# 4 0.0000 0.0000 0.0000 36.1933 0.0000 2.9606
# 5 8.3682 -0.0750 8.1548 0.0000 20.6913 0.0000
# 6 0.0000 0.0000 0.0000 2.9606 0.0000 37.0785
#
#
#
# Elastic Compliance Matrix: (Units=1/GPa)
#
#
# Indices 1 2 3 4 5 6 
#
# 1 0.013172 -0.003650 -0.000175 0.000000 -0.005271 0.000000
# 2 -0.003650 0.014431 -0.007571 0.000000 0.004513 0.000000
# 3 -0.000175 -0.007571 0.016057 0.000000 -0.006285 0.000000
# 4 0.000000 0.000000 0.000000 0.027811 0.000000 -0.002221
# 5 -0.005271 0.004513 -0.006285 0.000000 0.052955 0.000000
# 6 0.000000 0.000000 0.000000 -0.002221 0.000000 0.027147
#
#
# Mechanical properties :
#
#
# Convention : Reuss Voigt Hill
#
# Bulk Modulus (GPa) = 47.92384 52.02709 49.97546
# Shear Modulus (GPa) = 27.57547 30.98506 29.28026
#
# Velocity S-wave (km/s) = 3.64974 3.86881 3.76087
# Velocity P-wave (km/s) = 6.39617 6.71485 6.55744
#
# Compressibility (1/GPa) = 0.02086644
#
# Stress axis : x y z
#
# Youngs Moduli (GPa) = 75.92002 69.29699 62.27845
#
# Poissons Ratio (x) = 0.25296 0.01089
# Poissons Ratio (y) = 0.27713 0.47153
# Poissons Ratio (z) = 0.01327 0.52467
#
# Static dielectric constant tensor:
#      x y z
#    x 4.041080 0.000000 0.011680 
#    y 0.000000 3.691360 0.000000 
#    z 0.011680 0.000000 3.736330 
# 
# 
# High freq. dielectric constant tensor:
#      x y z
#    x 1.841600 0.000000 -0.000740 
#    y 0.000000 1.788000 0.000000 
#    z -0.000740 0.000000 1.794140 
# 
# From -- ./inp_files/260337.got.cif
#   From: 2010.06.25/outbox.cif.g09.slc.cpg/sg12_131_cif.got.tgz:260337.got - 2010.06.28 00:19:55.
