data_PCOD8101819
_publ_section_title
;
Structure prediction by ZEFSAII (Michael W. Deem and Ramdas Pophale) SiO2 
 PCOD8101819
Probable space group: C 2/M
;
_chemical_formula_sum "Si O2"
_cell_formula_units_Z 56
_cell_length_a 9.851758
_cell_length_b 13.948323
_cell_length_c 23.642766
_cell_angle_alpha 90.000000
_cell_angle_beta 62.131517
_cell_angle_gamma 90.000000
_cell_volume 2872.086573
_symmetry_space_group_name_H-M "C 2/M"
_symmetry_group_IT_number 12
_symmetry_cell_setting 'monoclinic'
loop_
_space_group_symop_operation_xyz
x,y,z
-x,y,-z
-x,-y,-z
x,-y,z
1/2+x,1/2+y,z
1/2-x,1/2+y,-z
1/2-x,1/2-y,-z
1/2+x,1/2-y,z
loop_
_atom_site_type_symbol
_atom_site_label
_atom_site_fract_x
_atom_site_fract_y
_atom_site_fract_z
Si Si1 0.630130 0.889260 0.351495
Si Si2 0.499432 0.605536 0.083691
Si Si3 0.843880 0.752904 0.756154
Si Si4 0.947329 0.109184 0.350990
Si Si5 0.427085 0.253164 0.454219
Si Si6 0.762746 0.838203 0.039734
Si Si7 0.498750 0.778139 0.840953
O O1 0.670606 0.832257 0.286566
O O2 0.483313 0.843962 0.411987
O O3 0.771388 0.879956 0.366853
O O4 0.594526 0.000000 0.343673
O O5 0.433477 0.500000 0.112802
O O6 0.377419 0.669851 0.071601
O O7 0.532133 0.667649 0.133511
O O8 0.656080 0.583571 0.016742
O O9 0.945230 0.840941 0.715701
O O10 0.679088 0.798739 0.803460
O O11 0.924189 0.706202 0.794491
O O12 0.971859 0.156395 0.407144
O O13 0.999356 0.000000 0.345402
O O14 0.500000 0.269620 0.500000
O O15 0.250000 0.250000 0.500000
O O16 0.590269 0.852354 0.098706
O O17 0.750000 0.750000 0.000000
#
# Coordination Sequence:
#
# PCOD8101819 Si02
#       7
#     8   8   8   8   8   8   8
#     4  10  22  40  64  89 119 162 203 241 291 358
#     4  10  20  36  59  87 114 151 202 248 294 367
#     4  11  22  40  60  89 119 159 197 255 294 354
#     4  10  22  40  62  88 123 162 198 243 298 350
#     4  11  22  39  63  94 124 155 196 247 294 346
#     4   9  18  33  55  85 113 147 186 244 298 349
#     4  11  21  37  60  85 116 154 199 239 306 356
#
# _framework density 19.498018999999999
#
# number of rings (size 3 to 8) (size 9 to 14) (size 15 to 20)
#    0.000    1.714    4.286    0.857    0.000    2.286 
#    0.000    3.571    0.000    0.857    0.000    0.000 
#    0.000    0.000    0.000    0.000    0.000    0.000 
#
# Total GULP energy -346890.135041 kJ/mol
# GULP energy per Si atom -12388.933394 kJ/mol
# Density = 1.945364 g / cm^3
# Si number density = 19.498019 Si / 1000 Ang^3
#
#
#
# Elastic Constant Matrix: (Units=GPa)
#
#
# Indices 1 2 3 4 5 6 
#
# 1 76.8680 22.5797 28.2145 0.0000 -9.2136 0.0000
# 2 22.5797 101.4576 26.7693 0.0000 -2.7855 0.0000
# 3 28.2145 26.7693 103.1143 0.0000 -20.9658 0.0000
# 4 0.0000 0.0000 0.0000 15.9613 0.0000 -1.5643
# 5 -9.2136 -2.7855 -20.9658 0.0000 51.3049 0.0000
# 6 0.0000 0.0000 0.0000 -1.5643 0.0000 21.7322
#
#
#
# Elastic Compliance Matrix: (Units=1/GPa)
#
#
# Indices 1 2 3 4 5 6 
#
# 1 0.015069 -0.002468 -0.003228 0.000000 0.001253 0.000000
# 2 -0.002468 0.011002 -0.002344 0.000000 -0.000804 0.000000
# 3 -0.003228 -0.002344 0.012047 0.000000 0.004216 0.000000
# 4 0.000000 0.000000 0.000000 0.063097 0.000000 0.004542
# 5 0.001253 -0.000804 0.004216 0.000000 0.021396 0.000000
# 6 0.000000 0.000000 0.000000 0.004542 0.000000 0.046342
#
#
# Mechanical properties :
#
#
# Convention : Reuss Voigt Hill
#
# Bulk Modulus (GPa) = 45.37544 48.50745 46.94144
# Shear Modulus (GPa) = 25.99049 31.39145 28.69097
#
# Velocity S-wave (km/s) = 3.65496 4.01681 3.84015
# Velocity P-wave (km/s) = 6.41358 6.81507 6.61737
#
# Compressibility (1/GPa) = 0.02203835
#
# Stress axis : x y z
#
# Youngs Moduli (GPa) = 66.36067 90.89244 83.00766
#
# Poissons Ratio (x) = 0.22429 0.26794
# Poissons Ratio (y) = 0.16375 0.19461
# Poissons Ratio (z) = 0.21420 0.21309
#
# Static dielectric constant tensor:
#      x y z
#    x 3.618610 0.000000 -0.154190 
#    y 0.000000 3.421370 0.000000 
#    z -0.154190 0.000000 4.055220 
# 
# 
# High freq. dielectric constant tensor:
#      x y z
#    x 1.756450 0.000000 -0.001160 
#    y 0.000000 1.733940 0.000000 
#    z -0.001160 0.000000 1.782670 
# 
# From -- ./inp_files/300154.got.cif
#   From: 2010.06.25/outbox.cif.g09.slc.cpg/sg12_151_cif.got.tgz:300154.got - 2010.06.28 00:19:55.
