data_PCOD8101104
_publ_section_title
;
Structure prediction by ZEFSAII (Michael W. Deem and Ramdas Pophale) SiO2 
 PCOD8101104
Probable space group: C 2/M
;
_chemical_formula_sum "Si O2"
_cell_formula_units_Z 64
_cell_length_a 24.247952
_cell_length_b 9.437982
_cell_length_c 19.754429
_cell_angle_alpha 90.000000
_cell_angle_beta 130.674571
_cell_angle_gamma 90.000000
_cell_volume 3428.708556
_symmetry_space_group_name_H-M "C 2/M"
_symmetry_group_IT_number 12
_symmetry_cell_setting 'monoclinic'
loop_
_space_group_symop_operation_xyz
x,y,z
-x,y,-z
-x,-y,-z
x,-y,z
1/2+x,1/2+y,z
1/2-x,1/2+y,-z
1/2-x,1/2-y,-z
1/2+x,1/2-y,z
loop_
_atom_site_type_symbol
_atom_site_label
_atom_site_fract_x
_atom_site_fract_y
_atom_site_fract_z
Si Si1 0.329499 0.663504 0.748501
Si Si2 0.835541 0.661176 0.371268
Si Si3 0.672063 0.163688 0.870632
Si Si4 0.687785 0.834843 0.036673
Si Si5 0.583425 0.833406 0.074088
Si Si6 0.061284 0.337816 0.670651
Si Si7 0.417128 0.662845 0.545749
Si Si8 0.685459 0.662069 0.416116
O O1 0.352837 0.500000 0.773170
O O2 0.248683 0.688420 0.712593
O O3 0.385409 0.756576 0.835369
O O4 0.333095 0.716450 0.673759
O O5 0.847743 0.500000 0.406052
O O6 0.878812 0.692920 0.337908
O O7 0.860072 0.765660 0.449831
O O8 0.737417 0.252720 0.890221
O O9 0.597339 0.198348 0.771784
O O10 0.693365 0.000000 0.877996
O O11 0.658440 0.202193 0.938141
O O12 0.626984 0.785843 0.041621
O O13 0.705030 0.000000 0.057912
O O14 0.590549 0.000000 0.091882
O O15 0.500000 0.786958 0.000000
O O16 0.034085 0.500000 0.646151
O O17 0.994519 0.236669 0.602573
O O18 0.426340 0.500000 0.531805
O O19 0.387311 0.677953 0.597898
O O20 0.712405 0.500000 0.434417
O O21 0.750000 0.750000 0.500000
#
# Coordination Sequence:
#
# PCOD8101104 Si02
#       8
#     8   8   8   8   8   8   8   8
#     4  10  21  38  61  85 108 141 187 235 276 323
#     4  10  20  36  57  79 107 144 185 225 268 324
#     4   9  18  34  56  80 105 140 184 224 267 324
#     4   9  18  34  56  80 108 140 178 225 274 322
#     4  10  22  38  55  81 116 148 181 225 277 334
#     4  10  21  35  53  79 110 145 184 221 266 326
#     4  11  23  36  53  80 111 143 179 224 276 326
#     4  10  21  38  59  82 109 141 184 231 275 327
#
# _framework density 18.66592
#
# number of rings (size 3 to 8) (size 9 to 14) (size 15 to 20)
#    0.000    2.125    1.250    1.500    0.000    6.750 
#    0.000    1.250    0.000    0.000    0.000    0.000 
#    0.000    0.000    0.000    0.000    0.000    0.000 
#
# Total GULP energy -396909.238620 kJ/mol
# GULP energy per Si atom -12403.413707 kJ/mol
# Density = 1.862344 g / cm^3
# Si number density = 18.665920 Si / 1000 Ang^3
#
#
#
# Elastic Constant Matrix: (Units=GPa)
#
#
# Indices 1 2 3 4 5 6 
#
# 1 86.4393 41.5943 53.9330 0.0000 -4.1388 0.0000
# 2 41.5943 70.5187 56.8620 0.0000 1.1536 0.0000
# 3 53.9330 56.8620 124.9918 0.0000 -1.1248 0.0000
# 4 0.0000 0.0000 0.0000 34.0898 0.0000 1.0276
# 5 -4.1388 1.1536 -1.1248 0.0000 27.2010 0.0000
# 6 0.0000 0.0000 0.0000 1.0276 0.0000 27.5066
#
#
#
# Elastic Compliance Matrix: (Units=1/GPa)
#
#
# Indices 1 2 3 4 5 6 
#
# 1 0.017866 -0.006931 -0.004531 0.000000 0.002825 0.000000
# 2 -0.006931 0.025136 -0.008467 0.000000 -0.002471 0.000000
# 3 -0.004531 -0.008467 0.013809 0.000000 0.000241 0.000000
# 4 0.000000 0.000000 0.000000 0.029367 0.000000 -0.001097
# 5 0.002825 -0.002471 0.000241 0.000000 0.037308 0.000000
# 6 0.000000 0.000000 0.000000 -0.001097 0.000000 0.036396
#
#
# Mechanical properties :
#
#
# Convention : Reuss Voigt Hill
#
# Bulk Modulus (GPa) = 58.97942 65.19205 62.08573
# Shear Modulus (GPa) = 24.34381 26.39684 25.37032
#
# Velocity S-wave (km/s) = 3.61527 3.76463 3.69070
# Velocity P-wave (km/s) = 7.00663 7.34153 7.17604
#
# Compressibility (1/GPa) = 0.01695507
#
# Stress axis : x y z
#
# Youngs Moduli (GPa) = 55.97198 39.78318 72.41517
#
# Poissons Ratio (x) = 0.27574 0.32808
# Poissons Ratio (y) = 0.38795 0.61311
# Poissons Ratio (z) = 0.25358 0.33683
#
# Static dielectric constant tensor:
#      x y z
#    x 3.582400 0.000000 -0.144780 
#    y 0.000000 3.414400 0.000000 
#    z -0.144780 0.000000 3.411210 
# 
# 
# High freq. dielectric constant tensor:
#      x y z
#    x 1.731560 0.000000 -0.008570 
#    y 0.000000 1.720760 0.000000 
#    z -0.008570 0.000000 1.724880 
# 
# From -- ./inp_files/324230.got.cif
#   From: 2010.06.25/outbox.cif.g09.slc.cpg/sg12_163_cif.got.tgz:324230.got - 2010.06.28 00:19:55.
