data_PCOD8101203
_publ_section_title
;
Structure prediction by ZEFSAII (Michael W. Deem and Ramdas Pophale) SiO2 
 PCOD8101203
Probable space group: C 2/M
;
_chemical_formula_sum "Si O2"
_cell_formula_units_Z 48
_cell_length_a 18.713224
_cell_length_b 9.241588
_cell_length_c 14.823294
_cell_angle_alpha 90.000000
_cell_angle_beta 98.627781
_cell_angle_gamma 90.000000
_cell_volume 2534.529452
_symmetry_space_group_name_H-M "C 2/M"
_symmetry_group_IT_number 12
_symmetry_cell_setting 'monoclinic'
loop_
_space_group_symop_operation_xyz
x,y,z
-x,y,-z
-x,-y,-z
x,-y,z
1/2+x,1/2+y,z
1/2-x,1/2+y,-z
1/2-x,1/2-y,-z
1/2+x,1/2-y,z
loop_
_atom_site_type_symbol
_atom_site_label
_atom_site_fract_x
_atom_site_fract_y
_atom_site_fract_z
Si Si1 0.966364 0.171597 0.586689
Si Si2 0.237783 0.831071 0.736907
Si Si3 0.800485 0.172394 0.580999
Si Si4 0.057944 0.663316 0.943479
Si Si5 0.424818 0.669107 0.239571
Si Si6 0.708324 0.159396 0.063156
O O1 0.883463 0.222004 0.581477
O O2 0.000000 0.234662 0.500000
O O3 0.013807 0.228411 0.680382
O O4 0.971307 0.000000 0.585240
O O5 0.273141 0.725196 0.671855
O O6 0.152672 0.798505 0.730286
O O7 0.279818 0.781042 0.834445
O O8 0.250580 0.000000 0.714445
O O9 0.750000 0.250000 0.500000
O O10 0.793009 0.000000 0.570856
O O11 0.036029 0.500000 0.910913
O O12 0.068497 0.753769 0.855137
O O13 0.126009 0.660419 0.021277
O O14 0.000000 0.734985 0.000000
O O15 0.434520 0.500000 0.222933
O O16 0.742809 0.000000 0.067394
O O17 0.750000 0.250000 0.000000
#
# Coordination Sequence:
#
# PCOD8101203 Si02
#       6
#     8   8   8   8   8   8
#     4   9  19  37  60  83 110 144 182 227 276 330
#     4  10  21  37  59  85 114 149 189 235 282 331
#     4  11  23  39  61  88 114 145 184 230 283 337
#     4  10  22  37  54  80 117 156 188 230 287 336
#     4  10  20  37  60  84 109 147 194 234 278 329
#     4  10  20  36  57  82 113 153 195 233 278 329
#
# _framework density 18.938427999999998
#
# number of rings (size 3 to 8) (size 9 to 14) (size 15 to 20)
#    0.000    2.000    1.667    1.500    2.333    4.333 
#    0.000    0.833    0.000    3.500    0.000    0.000 
#    0.000    0.000    0.000    0.000    0.000    0.000 
#
# Total GULP energy -297537.455045 kJ/mol
# GULP energy per Si atom -12397.393960 kJ/mol
# Density = 1.889532 g / cm^3
# Si number density = 18.938428 Si / 1000 Ang^3
#
#
#
# Elastic Constant Matrix: (Units=GPa)
#
#
# Indices 1 2 3 4 5 6 
#
# 1 132.5722 44.3379 77.5402 0.0000 -3.2642 0.0000
# 2 44.3379 58.0607 53.1656 0.0000 -6.5362 0.0000
# 3 77.5402 53.1656 159.1646 0.0000 4.6313 0.0000
# 4 0.0000 0.0000 0.0000 34.2270 0.0000 -0.6830
# 5 -3.2642 -6.5362 4.6313 0.0000 41.1683 0.0000
# 6 0.0000 0.0000 0.0000 -0.6830 0.0000 22.9169
#
#
#
# Elastic Compliance Matrix: (Units=1/GPa)
#
#
# Indices 1 2 3 4 5 6 
#
# 1 0.011590 -0.005195 -0.003927 0.000000 0.000536 0.000000
# 2 -0.005195 0.028162 -0.007017 0.000000 0.004849 0.000000
# 3 -0.003927 -0.007017 0.010616 0.000000 -0.002620 0.000000
# 4 0.000000 0.000000 0.000000 0.029234 0.000000 0.000871
# 5 0.000536 0.004849 -0.002620 0.000000 0.025398 0.000000
# 6 0.000000 0.000000 0.000000 0.000871 0.000000 0.043662
#
#
# Mechanical properties :
#
#
# Convention : Reuss Voigt Hill
#
# Bulk Modulus (GPa) = 55.27779 77.76499 66.52139
# Shear Modulus (GPa) = 26.74228 31.31268 29.02748
#
# Velocity S-wave (km/s) = 3.76182 4.07061 3.91926
# Velocity P-wave (km/s) = 6.93685 7.95263 7.46204
#
# Compressibility (1/GPa) = 0.01809045
#
# Stress axis : x y z
#
# Youngs Moduli (GPa) = 86.27800 35.50910 94.19727
#
# Poissons Ratio (x) = 0.18447 0.36990
# Poissons Ratio (y) = 0.44820 0.66100
# Poissons Ratio (z) = 0.33880 0.24917
#
# Static dielectric constant tensor:
#      x y z
#    x 3.473010 0.000000 -0.035200 
#    y 0.000000 3.317090 0.000000 
#    z -0.035200 0.000000 3.455420 
# 
# 
# High freq. dielectric constant tensor:
#      x y z
#    x 1.749630 0.000000 0.005980 
#    y 0.000000 1.712400 0.000000 
#    z 0.005980 0.000000 1.752930 
# 
# From -- ./inp_files/221692.got.cif
#   From: 2010.06.25/outbox.cif.g09.slc.cpg/sg12_111_cif.got.tgz:221692.got - 2010.06.28 00:19:55.
