data_PCOD8101968
_publ_section_title
;
Structure prediction by ZEFSAII (Michael W. Deem and Ramdas Pophale) SiO2 
 PCOD8101968
Probable space group: C 2/M
;
_chemical_formula_sum "Si O2"
_cell_formula_units_Z 56
_cell_length_a 26.851322
_cell_length_b 13.398144
_cell_length_c 10.856764
_cell_angle_alpha 90.000000
_cell_angle_beta 137.409262
_cell_angle_gamma 90.000000
_cell_volume 2643.281692
_symmetry_space_group_name_H-M "C 2/M"
_symmetry_group_IT_number 12
_symmetry_cell_setting 'monoclinic'
loop_
_space_group_symop_operation_xyz
x,y,z
-x,y,-z
-x,-y,-z
x,-y,z
1/2+x,1/2+y,z
1/2-x,1/2+y,-z
1/2-x,1/2-y,-z
1/2+x,1/2-y,z
loop_
_atom_site_type_symbol
_atom_site_label
_atom_site_fract_x
_atom_site_fract_y
_atom_site_fract_z
Si Si1 0.454779 0.388417 0.805112
Si Si2 0.291247 0.113007 0.041522
Si Si3 0.993012 0.798888 0.348420
Si Si4 0.410152 0.112993 0.469968
Si Si5 0.289006 0.611055 0.491922
Si Si6 0.282984 0.822821 0.398953
Si Si7 0.675147 0.307894 0.002842
O O1 0.485985 0.500000 0.848684
O O2 0.457475 0.342979 0.671558
O O3 0.370786 0.386538 0.697063
O O4 0.500000 0.334345 0.000000
O O5 0.355375 0.134259 0.257362
O O6 0.210288 0.139633 0.946578
O O7 0.292247 0.000000 0.994672
O O8 0.307686 0.189069 0.961316
O O9 0.000000 0.846590 0.500000
O O10 0.017773 0.682990 0.405679
O O11 0.911574 0.820832 0.151974
O O12 0.361854 0.133425 0.503645
O O13 0.439906 0.000000 0.524363
O O14 0.273395 0.500000 0.406191
O O15 0.283603 0.701999 0.386189
O O16 0.229225 0.634315 0.487954
O O17 0.214742 0.860468 0.190888
#
# Coordination Sequence:
#
# PCOD8101968 Si02
#       7
#     8   8   8   8   8   8   8
#     4  10  22  40  62  89 123 165 207 248 307 376
#     4   9  19  36  57  80 110 153 202 245 293 357
#     4  12  23  38  60  92 130 165 201 256 311 366
#     4  10  20  37  60  86 118 160 206 248 303 368
#     4  10  20  36  60  86 113 152 206 256 305 362
#     4  10  20  37  60  86 115 159 202 260 305 359
#     4  10  21  35  55  84 119 153 198 248 304 359
#
# _framework density 21.185787000000001
#
# number of rings (size 3 to 8) (size 9 to 14) (size 15 to 20)
#    0.000    1.857    2.857    1.286    0.000    2.857 
#    0.000    1.429    0.000    0.429    0.000    0.000 
#    0.000    0.000    0.000    0.000    0.000    0.000 
#
# Total GULP energy -346909.357131 kJ/mol
# GULP energy per Si atom -12389.619898 kJ/mol
# Density = 2.113757 g / cm^3
# Si number density = 21.185787 Si / 1000 Ang^3
#
#
#
# Elastic Constant Matrix: (Units=GPa)
#
#
# Indices 1 2 3 4 5 6 
#
# 1 46.0947 -11.1507 12.5649 0.0000 -6.0510 0.0000
# 2 -11.1507 68.1805 -1.9888 0.0000 -8.2218 0.0000
# 3 12.5649 -1.9888 60.6247 0.0000 5.3197 0.0000
# 4 0.0000 0.0000 0.0000 23.7810 0.0000 1.9917
# 5 -6.0510 -8.2218 5.3197 0.0000 36.8902 0.0000
# 6 0.0000 0.0000 0.0000 1.9917 0.0000 20.6769
#
#
#
# Elastic Compliance Matrix: (Units=1/GPa)
#
#
# Indices 1 2 3 4 5 6 
#
# 1 0.025127 0.004666 -0.005578 0.000000 0.005966 0.000000
# 2 0.004666 0.015941 -0.000834 0.000000 0.004438 0.000000
# 3 -0.005578 -0.000834 0.017947 0.000000 -0.003689 0.000000
# 4 0.000000 0.000000 0.000000 0.042392 0.000000 -0.004083
# 5 0.005966 0.004438 -0.003689 0.000000 0.029607 0.000000
# 6 0.000000 0.000000 0.000000 -0.004083 0.000000 0.048756
#
#
# Mechanical properties :
#
#
# Convention : Reuss Voigt Hill
#
# Bulk Modulus (GPa) = 18.01024 19.30566 18.65795
# Shear Modulus (GPa) = 24.78062 27.96792 26.37427
#
# Velocity S-wave (km/s) = 3.42377 3.63730 3.53215
# Velocity P-wave (km/s) = 4.91418 5.17419 5.04586
#
# Compressibility (1/GPa) = 0.05552396
#
# Stress axis : x y z
#
# Youngs Moduli (GPa) = 39.79797 62.73141 55.71847
#
# Poissons Ratio (x) = -0.29271 0.31081
# Poissons Ratio (y) = -0.18570 0.04645
# Poissons Ratio (z) = 0.22200 0.05229
#
# Static dielectric constant tensor:
#      x y z
#    x 3.743420 0.000000 0.022590 
#    y 0.000000 3.883850 0.000000 
#    z 0.022590 0.000000 3.597820 
# 
# 
# High freq. dielectric constant tensor:
#      x y z
#    x 1.832800 0.000000 0.006940 
#    y 0.000000 1.822440 0.000000 
#    z 0.006940 0.000000 1.810260 
# 
# From -- ./inp_files/189245.got.cif
#   From: 2010.06.25/outbox.cif.g09.slc.cpg/sg12_95_cif.got.tgz:189245.got - 2010.06.28 00:19:55.
