data_PCOD8101333
_publ_section_title
;
Structure prediction by ZEFSAII (Michael W. Deem and Ramdas Pophale) SiO2 
 PCOD8101333
Probable space group: C 2/M
;
_chemical_formula_sum "Si O2"
_cell_formula_units_Z 52
_cell_length_a 5.214345
_cell_length_b 14.161137
_cell_length_c 34.164844
_cell_angle_alpha 90.000000
_cell_angle_beta 67.569861
_cell_angle_gamma 90.000000
_cell_volume 2331.909211
_symmetry_space_group_name_H-M "C 2/M"
_symmetry_group_IT_number 12
_symmetry_cell_setting 'monoclinic'
loop_
_space_group_symop_operation_xyz
x,y,z
-x,y,-z
-x,-y,-z
x,-y,z
1/2+x,1/2+y,z
1/2-x,1/2+y,-z
1/2-x,1/2-y,-z
1/2+x,1/2-y,z
loop_
_atom_site_type_symbol
_atom_site_label
_atom_site_fract_x
_atom_site_fract_y
_atom_site_fract_z
Si Si1 0.266081 0.890864 0.593568
Si Si2 0.461111 0.312734 0.315556
Si Si3 0.043160 0.189271 0.082736
Si Si4 0.308732 0.386871 0.176508
Si Si5 0.620250 0.387137 0.451899
Si Si6 0.821140 0.000000 0.971544
Si Si7 0.310078 0.609197 0.775968
O O1 0.571463 0.844971 0.572382
O O2 0.140208 0.880045 0.643917
O O3 0.066631 0.844971 0.572382
O O4 0.294725 0.000000 0.582110
O O5 0.209560 0.250000 0.316176
O O6 0.564734 0.376801 0.274106
O O7 0.323108 0.250001 0.070756
O O8 0.107515 0.092777 0.056994
O O9 0.920566 0.163684 0.131773
O O10 0.322215 0.500000 0.171115
O O11 0.489175 0.348368 0.202484
O O12 0.998410 0.348368 0.202484
O O13 0.500000 0.350685 0.500000
O O14 0.624525 0.500000 0.450189
O O15 0.500000 0.000000 0.000000
O O16 0.000000 0.000000 0.000000
O O17 0.285136 0.500000 0.785946
#
# Coordination Sequence:
#
# PCOD8101333 Si02
#       7
#     8   8   8   8   8   4   8
#     4  10  20  36  58  80 109 147 187 232 290 363
#     4  12  25  39  56  81 119 157 198 248 297 358
#     4  12  26  44  73 106 140 185 234 284 346 415
#     4  10  21  41  65  95 133 168 210 268 330 385
#     4   9  17  31  56  87 108 131 180 244 295 344
#     4  12  28  50  74 102 146 188 234 298 346 404
#     4  10  22  39  64  90 123 167 210 258 310 375
#
# _framework density 22.299323999999999
#
# number of rings (size 3 to 8) (size 9 to 14) (size 15 to 20)
#    0.000    1.385    0.769    4.615    0.000    7.385 
#    0.000    6.154    0.000    9.231    0.000    0.000 
#    0.000    0.000    0.000    0.000    0.000    0.000 
#
# Total GULP energy -322474.905494 kJ/mol
# GULP energy per Si atom -12402.880981 kJ/mol
# Density = 2.224857 g / cm^3
# Si number density = 22.299324 Si / 1000 Ang^3
#
#
#
# Elastic Constant Matrix: (Units=GPa)
#
#
# Indices 1 2 3 4 5 6 
#
# 1 242.1666 42.0077 87.6968 0.0001 5.7421 0.0002
# 2 42.0077 74.4270 43.5469 0.0000 -0.1147 0.0001
# 3 87.6968 43.5469 177.5995 0.0001 -0.9764 0.0000
# 4 0.0001 0.0000 0.0001 1.4398 -0.0001 0.5738
# 5 5.7421 -0.1147 -0.9764 -0.0001 38.8427 -0.0001
# 6 0.0002 0.0001 0.0000 0.5738 -0.0001 9.2100
#
#
#
# Elastic Compliance Matrix: (Units=1/GPa)
#
#
# Indices 1 2 3 4 5 6 
#
# 1 0.005228 -0.001680 -0.002174 0.000000 -0.000832 0.000000
# 2 -0.001680 0.016226 -0.003148 0.000000 0.000217 0.000000
# 3 -0.002174 -0.003148 0.007479 0.000000 0.000500 0.000000
# 4 0.000000 0.000000 0.000000 0.712210 0.000001 -0.044369
# 5 -0.000832 0.000217 0.000500 0.000001 0.025881 0.000000
# 6 0.000000 0.000000 0.000000 -0.044369 0.000000 0.111342
#
#
# Mechanical properties :
#
#
# Convention : Reuss Voigt Hill
#
# Bulk Modulus (GPa) = 66.98335 93.41065 80.19700
# Shear Modulus (GPa) = 5.57198 31.29461 18.43330
#
# Velocity S-wave (km/s) = 1.58245 3.75025 2.87824
# Velocity P-wave (km/s) = 5.78294 7.79313 6.86204
#
# Compressibility (1/GPa) = 0.01492908
#
# Stress axis : x y z
#
# Youngs Moduli (GPa) = 191.28287 61.62824 133.71076
#
# Poissons Ratio (x) = 0.10353 0.29071
# Poissons Ratio (y) = 0.32133 0.42091
# Poissons Ratio (z) = 0.41588 0.19400
#
# Static dielectric constant tensor:
#      x y z
#    x 4.659040 0.000000 0.037810 
#    y 0.000000 4.564860 0.000000 
#    z 0.037810 0.000000 4.146990 
# 
# 
# High freq. dielectric constant tensor:
#      x y z
#    x 1.900460 0.000000 0.001040 
#    y 0.000000 1.880940 0.000000 
#    z 0.001040 0.000000 1.886350 
# 
# From -- ./inp_files/371470.got.cif
#   From: 2010.06.25/outbox.cif.g09.slc.cpg/sg12_186_cif.got.tgz:371470.got - 2010.06.28 00:19:55.
