data_PCOD8101566
_publ_section_title
;
Structure prediction by ZEFSAII (Michael W. Deem and Ramdas Pophale) SiO2 
 PCOD8101566
Probable space group: C 2/M
;
_chemical_formula_sum "Si O2"
_cell_formula_units_Z 64
_cell_length_a 18.759037
_cell_length_b 8.750266
_cell_length_c 32.234163
_cell_angle_alpha 90.000000
_cell_angle_beta 141.797977
_cell_angle_gamma 90.000000
_cell_volume 3272.224224
_symmetry_space_group_name_H-M "C 2/M"
_symmetry_group_IT_number 12
_symmetry_cell_setting 'monoclinic'
loop_
_space_group_symop_operation_xyz
x,y,z
-x,y,-z
-x,-y,-z
x,-y,z
1/2+x,1/2+y,z
1/2-x,1/2+y,-z
1/2-x,1/2-y,-z
1/2+x,1/2-y,z
loop_
_atom_site_type_symbol
_atom_site_label
_atom_site_fract_x
_atom_site_fract_y
_atom_site_fract_z
Si Si1 0.594548 0.672701 0.279109
Si Si2 0.446077 0.319272 0.519724
Si Si3 0.709589 0.680746 0.772291
Si Si4 0.303366 0.318398 0.588288
Si Si5 0.997625 0.681113 0.372543
Si Si6 0.412854 0.179467 0.807602
Si Si7 0.829548 0.320934 0.071031
Si Si8 0.824133 0.172106 0.151953
O O1 0.634873 0.500000 0.289950
O O2 0.651528 0.739139 0.346496
O O3 0.637638 0.770179 0.259780
O O4 0.458794 0.685845 0.222121
O O5 0.500000 0.271895 0.500000
O O6 0.426258 0.500000 0.512787
O O7 0.328365 0.230032 0.474476
O O8 0.528621 0.262517 0.595019
O O9 0.685998 0.500000 0.756309
O O10 0.599944 0.769861 0.704597
O O11 0.824979 0.737119 0.802215
O O12 0.733960 0.722923 0.831422
O O13 0.317280 0.500000 0.589192
O O14 0.377314 0.234839 0.586657
O O15 0.996932 0.500000 0.377915
O O16 0.540742 0.247866 0.874328
O O17 0.423143 0.000000 0.812462
O O18 0.827953 0.500000 0.064368
O O19 0.782360 0.279680 0.095312
O O20 0.750000 0.250000 0.000000
O O21 0.788804 0.000000 0.123781
#
# Coordination Sequence:
#
# PCOD8101566 Si02
#       8
#     8   8   8   8   8   8   8   8
#     4   9  18  33  55  83 112 146 184 229 283 338
#     4  11  26  45  62  83 114 153 196 245 300 357
#     4  10  20  38  60  85 118 153 189 238 295 345
#     4  11  22  40  63  86 116 151 194 243 294 353
#     4  12  25  40  61  87 116 154 197 241 292 354
#     4   9  20  35  56  84 116 150 190 236 282 335
#     4  10  20  36  58  86 116 153 195 234 278 335
#     4   9  17  34  58  83 112 148 187 228 278 336
#
# _framework density 19.558562999999999
#
# number of rings (size 3 to 8) (size 9 to 14) (size 15 to 20)
#    0.000    1.875    1.250    2.625    1.750    3.500 
#    0.000    0.625    0.000    3.750    0.000    0.000 
#    0.000    0.000    0.000    0.000    0.000    0.000 
#
# Total GULP energy -396830.695357 kJ/mol
# GULP energy per Si atom -12400.959230 kJ/mol
# Density = 1.951405 g / cm^3
# Si number density = 19.558563 Si / 1000 Ang^3
#
#
#
# Elastic Constant Matrix: (Units=GPa)
#
#
# Indices 1 2 3 4 5 6 
#
# 1 134.5913 32.8396 35.5495 -0.0001 -16.8518 0.0001
# 2 32.8396 50.4978 22.4688 -0.0002 -3.4647 -0.0001
# 3 35.5495 22.4688 81.6947 -0.0001 -20.0236 0.0001
# 4 -0.0001 -0.0002 -0.0001 31.3668 0.0000 -5.4921
# 5 -16.8518 -3.4647 -20.0236 0.0000 25.5512 0.0000
# 6 0.0001 -0.0001 0.0001 -5.4921 0.0000 28.4304
#
#
#
# Elastic Compliance Matrix: (Units=1/GPa)
#
#
# Indices 1 2 3 4 5 6 
#
# 1 0.009709 -0.005253 -0.001715 0.000000 0.004347 0.000000
# 2 -0.005253 0.025509 -0.005856 0.000000 -0.004595 0.000000
# 3 -0.001715 -0.005856 0.017484 0.000000 0.011777 0.000000
# 4 0.000000 0.000000 0.000000 0.032997 0.000000 0.006374
# 5 0.004347 -0.004595 0.011777 0.000000 0.050610 0.000000
# 6 0.000000 0.000000 0.000000 0.006374 0.000000 0.036405
#
#
# Mechanical properties :
#
#
# Convention : Reuss Voigt Hill
#
# Bulk Modulus (GPa) = 36.96200 49.83329 43.39764
# Shear Modulus (GPa) = 24.11041 28.79806 26.45423
#
# Velocity S-wave (km/s) = 3.51483 3.84135 3.68171
# Velocity P-wave (km/s) = 5.95073 6.72376 6.34902
#
# Compressibility (1/GPa) = 0.02705481
#
# Stress axis : x y z
#
# Youngs Moduli (GPa) = 103.00063 39.20158 57.19522
#
# Poissons Ratio (x) = 0.20591 0.09807
# Poissons Ratio (y) = 0.54102 0.33496
# Poissons Ratio (z) = 0.17660 0.22958
#
# Static dielectric constant tensor:
#      x y z
#    x 3.890790 0.000000 -0.118120 
#    y 0.000000 3.499510 0.000000 
#    z -0.118120 0.000000 3.594080 
# 
# 
# High freq. dielectric constant tensor:
#      x y z
#    x 1.767090 0.000000 -0.016640 
#    y 0.000000 1.755960 0.000000 
#    z -0.016640 0.000000 1.754840 
# 
# From -- ./inp_files/378298.got.cif
#   From: 2010.06.25/outbox.cif.g09.slc.cpg/sg12_190_cif.got.tgz:378298.got - 2010.06.28 00:19:55.
