data_PCOD8101520
_publ_section_title
;
Structure prediction by ZEFSAII (Michael W. Deem and Ramdas Pophale) SiO2 
 PCOD8101520
Probable space group: C 2/M
;
_chemical_formula_sum "Si O2"
_cell_formula_units_Z 56
_cell_length_a 29.590486
_cell_length_b 12.453614
_cell_length_c 8.359608
_cell_angle_alpha 90.000000
_cell_angle_beta 62.111816
_cell_angle_gamma 90.000000
_cell_volume 2722.813713
_symmetry_space_group_name_H-M "C 2/M"
_symmetry_group_IT_number 12
_symmetry_cell_setting 'monoclinic'
loop_
_space_group_symop_operation_xyz
x,y,z
-x,y,-z
-x,-y,-z
x,-y,z
1/2+x,1/2+y,z
1/2-x,1/2+y,-z
1/2-x,1/2-y,-z
1/2+x,1/2-y,z
loop_
_atom_site_type_symbol
_atom_site_label
_atom_site_fract_x
_atom_site_fract_y
_atom_site_fract_z
Si Si1 0.040795 0.695022 0.558105
Si Si2 0.988372 0.876093 0.833110
Si Si3 0.639616 0.871063 0.217969
Si Si4 0.408705 0.885887 0.237570
Si Si5 0.115657 0.224389 0.974996
Si Si6 0.305714 0.175620 0.573629
Si Si7 0.697909 0.379961 0.618245
O O1 0.094491 0.694217 0.379188
O O2 0.046582 0.618861 0.702925
O O3 0.000000 0.648170 0.500000
O O4 0.025805 0.812512 0.650044
O O5 0.998722 0.000000 0.780494
O O6 0.929632 0.848624 0.877588
O O7 0.000000 0.850467 0.000000
O O8 0.689726 0.845949 0.242947
O O9 0.630863 0.000000 0.212172
O O10 0.644688 0.810188 0.040696
O O11 0.416556 0.791764 0.100342
O O12 0.352826 0.882139 0.409938
O O13 0.414121 0.000000 0.140410
O O14 0.158616 0.151733 0.822882
O O15 0.306217 0.302384 0.528750
O O16 0.254192 0.121498 0.598506
O O17 0.685050 0.500000 0.580473
#
# Coordination Sequence:
#
# PCOD8101520 Si02
#       7
#     8   8   8   8   8   8   8
#     4  11  21  38  58  84 113 145 196 236 279 349
#     4  11  23  42  60  78 114 158 191 240 294 338
#     4  11  23  40  60  85 122 155 187 241 298 342
#     4  10  20  36  58  84 116 151 189 236 288 343
#     4  11  22  39  57  87 116 151 202 235 280 352
#     4   9  20  38  61  88 119 150 195 237 290 354
#     4  10  20  38  64  88 117 155 193 242 288 337
#
# _framework density 20.566960000000002
#
# number of rings (size 3 to 8) (size 9 to 14) (size 15 to 20)
#    0.000    1.571    2.857    3.429    0.000    2.000 
#    0.000    2.857    0.000    0.000    0.000    0.000 
#    0.000    0.000    0.000    0.000    0.000    0.000 
#
# Total GULP energy -346992.974543 kJ/mol
# GULP energy per Si atom -12392.606234 kJ/mol
# Density = 2.052015 g / cm^3
# Si number density = 20.566960 Si / 1000 Ang^3
#
#
#
# Elastic Constant Matrix: (Units=GPa)
#
#
# Indices 1 2 3 4 5 6 
#
# 1 97.3108 39.0311 14.8955 0.0000 10.8738 0.0000
# 2 39.0311 143.8477 37.4230 0.0000 -4.6749 0.0000
# 3 14.8955 37.4230 40.1361 0.0000 3.4875 0.0000
# 4 0.0000 0.0000 0.0000 16.7672 0.0000 0.6186
# 5 10.8738 -4.6749 3.4875 0.0000 28.7859 0.0000
# 6 0.0000 0.0000 0.0000 0.6186 0.0000 20.2168
#
#
#
# Elastic Compliance Matrix: (Units=1/GPa)
#
#
# Indices 1 2 3 4 5 6 
#
# 1 0.012298 -0.003204 -0.001140 0.000000 -0.005028 0.000000
# 2 -0.003204 0.010202 -0.008664 0.000000 0.003917 0.000000
# 3 -0.001140 -0.008664 0.033858 0.000000 -0.005078 0.000000
# 4 0.000000 0.000000 0.000000 0.059707 0.000000 -0.001827
# 5 -0.005028 0.003917 -0.005078 0.000000 0.037890 0.000000
# 6 0.000000 0.000000 0.000000 -0.001827 0.000000 0.049520
#
#
# Mechanical properties :
#
#
# Convention : Reuss Voigt Hill
#
# Bulk Modulus (GPa) = 32.95711 51.55489 42.25600
# Shear Modulus (GPa) = 20.86773 25.81700 23.34236
#
# Velocity S-wave (km/s) = 3.18877 3.54682 3.37255
# Velocity P-wave (km/s) = 5.44213 6.47259 5.97960
#
# Compressibility (1/GPa) = 0.03034247
#
# Stress axis : x y z
#
# Youngs Moduli (GPa) = 81.31667 98.01648 29.53509
#
# Poissons Ratio (x) = 0.31400 0.03367
# Poissons Ratio (y) = 0.26050 0.25590
# Poissons Ratio (z) = 0.09271 0.84923
#
# Static dielectric constant tensor:
#      x y z
#    x 4.057780 0.000000 0.233850 
#    y 0.000000 3.708590 0.000000 
#    z 0.233850 0.000000 3.655830 
# 
# 
# High freq. dielectric constant tensor:
#      x y z
#    x 1.811940 0.000000 0.004290 
#    y 0.000000 1.806380 0.000000 
#    z 0.004290 0.000000 1.782900 
# 
# From -- ./inp_files/110336.got.cif
#   From: 2010.06.25/outbox.cif.g09.slc.cpg/sg12_56_cif.got.tgz:110336.got - 2010.06.28 00:19:55.
