data_PCOD8101030
_publ_section_title
;
Structure prediction by ZEFSAII (Michael W. Deem and Ramdas Pophale) SiO2 
 PCOD8101030
Probable space group: C 2/M
;
_chemical_formula_sum "Si O2"
_cell_formula_units_Z 64
_cell_length_a 29.939640
_cell_length_b 9.194534
_cell_length_c 11.771909
_cell_angle_alpha 90.000000
_cell_angle_beta 91.403214
_cell_angle_gamma 90.000000
_cell_volume 3239.611534
_symmetry_space_group_name_H-M "C 2/M"
_symmetry_group_IT_number 12
_symmetry_cell_setting 'monoclinic'
loop_
_space_group_symop_operation_xyz
x,y,z
-x,y,-z
-x,-y,-z
x,-y,z
1/2+x,1/2+y,z
1/2-x,1/2+y,-z
1/2-x,1/2-y,-z
1/2+x,1/2-y,z
loop_
_atom_site_type_symbol
_atom_site_label
_atom_site_fract_x
_atom_site_fract_y
_atom_site_fract_z
Si Si1 0.566675 0.166162 0.558816
Si Si2 0.460891 0.328000 0.912690
Si Si3 0.686790 0.829307 0.820330
Si Si4 0.974472 0.334299 0.678927
Si Si5 0.363415 0.672745 0.993951
Si Si6 0.151466 0.164537 0.616443
Si Si7 0.213285 0.170469 0.174894
Si Si8 0.785183 0.164512 0.574988
O O1 0.557477 0.212123 0.427600
O O2 0.524303 0.183300 0.636737
O O3 0.601898 0.273523 0.616946
O O4 0.583818 0.000000 0.562294
O O5 0.463314 0.500000 0.901107
O O6 0.466691 0.265043 0.787530
O O7 0.500000 0.271810 0.000000
O O8 0.412763 0.278920 0.958449
O O9 0.648075 0.748872 0.888136
O O10 0.684340 0.764679 0.693436
O O11 0.736910 0.796269 0.870385
O O12 0.676871 0.000000 0.817947
O O13 0.964997 0.500000 0.714156
O O14 0.360218 0.500000 0.008610
O O15 0.325906 0.736530 0.905279
O O16 0.167754 0.168545 0.487340
O O17 0.151523 0.000000 0.664185
O O18 0.208274 0.237203 0.300978
O O19 0.204690 0.000000 0.180926
O O20 0.750000 0.250000 0.500000
O O21 0.767357 0.000000 0.588410
#
# Coordination Sequence:
#
# PCOD8101030 Si02
#       8
#     8   8   8   8   8   8   8   8
#     4   9  20  39  61  87 119 152 188 236 292 342
#     4  10  23  40  59  86 120 156 193 241 294 346
#     4  11  22  38  60  84 116 154 199 245 291 345
#     4   9  20  40  63  86 115 152 192 237 290 347
#     4  10  22  40  61  83 115 154 196 246 296 343
#     4  11  23  35  57  89 119 153 193 234 286 349
#     4   9  19  37  60  83 113 154 192 240 295 342
#     4  10  20  36  56  82 116 151 189 229 284 343
#
# _framework density 19.755455999999999
#
# number of rings (size 3 to 8) (size 9 to 14) (size 15 to 20)
#    0.000    2.125    1.250    1.875    3.500    2.250 
#    0.000    2.500    0.000    0.000    0.000    0.000 
#    0.000    0.000    0.000    0.000    0.000    0.000 
#
# Total GULP energy -396748.060990 kJ/mol
# GULP energy per Si atom -12398.376906 kJ/mol
# Density = 1.971049 g / cm^3
# Si number density = 19.755456 Si / 1000 Ang^3
#
#
#
# Elastic Constant Matrix: (Units=GPa)
#
#
# Indices 1 2 3 4 5 6 
#
# 1 112.0772 39.0121 38.5897 0.0000 4.5567 0.0000
# 2 39.0121 56.8373 29.9812 0.0000 -2.3118 0.0000
# 3 38.5897 29.9812 98.2183 0.0000 -12.4002 0.0000
# 4 0.0000 0.0000 0.0000 34.0404 0.0000 -0.3334
# 5 4.5567 -2.3118 -12.4002 0.0000 29.2207 0.0000
# 6 0.0000 0.0000 0.0000 -0.3334 0.0000 24.1962
#
#
#
# Elastic Compliance Matrix: (Units=1/GPa)
#
#
# Indices 1 2 3 4 5 6 
#
# 1 0.012708 -0.007135 -0.003314 0.000000 -0.003952 0.000000
# 2 -0.007135 0.025011 -0.004693 0.000000 0.001100 0.000000
# 3 -0.003314 -0.004693 0.013666 0.000000 0.005945 0.000000
# 4 0.000000 0.000000 0.000000 0.029381 0.000000 0.000405
# 5 -0.003952 0.001100 0.005945 0.000000 0.037449 0.000000
# 6 0.000000 0.000000 0.000000 0.000405 0.000000 0.041334
#
#
# Mechanical properties :
#
#
# Convention : Reuss Voigt Hill
#
# Bulk Modulus (GPa) = 47.38735 53.58874 50.48805
# Shear Modulus (GPa) = 25.39794 28.12811 26.76302
#
# Velocity S-wave (km/s) = 3.58944 3.77744 3.68464
# Velocity P-wave (km/s) = 6.42011 6.79782 6.61166
#
# Compressibility (1/GPa) = 0.02110268
#
# Stress axis : x y z
#
# Youngs Moduli (GPa) = 78.69243 39.98169 73.17242
#
# Poissons Ratio (x) = 0.28527 0.24248
# Poissons Ratio (y) = 0.56148 0.34336
# Poissons Ratio (z) = 0.26077 0.18761
#
# Static dielectric constant tensor:
#      x y z
#    x 3.649770 0.000000 0.024010 
#    y 0.000000 3.440200 0.000000 
#    z 0.024010 0.000000 3.804450 
# 
# 
# High freq. dielectric constant tensor:
#      x y z
#    x 1.774000 0.000000 -0.001690 
#    y 0.000000 1.751740 0.000000 
#    z -0.001690 0.000000 1.777920 
# 
# From -- ./inp_files/187419.got.cif
#   From: 2010.06.25/outbox.cif.g09.slc.cpg/sg12_94_cif.got.tgz:187419.got - 2010.06.28 00:19:55.
