data_PCOD8101144
_publ_section_title
;
Structure prediction by ZEFSAII (Michael W. Deem and Ramdas Pophale) SiO2 
 PCOD8101144
Probable space group: C 2/M
;
_chemical_formula_sum "Si O2"
_cell_formula_units_Z 40
_cell_length_a 14.559268
_cell_length_b 8.539030
_cell_length_c 19.935193
_cell_angle_alpha 90.000000
_cell_angle_beta 124.009380
_cell_angle_gamma 90.000000
_cell_volume 2054.446198
_symmetry_space_group_name_H-M "C 2/M"
_symmetry_group_IT_number 12
_symmetry_cell_setting 'monoclinic'
loop_
_space_group_symop_operation_xyz
x,y,z
-x,y,-z
-x,-y,-z
x,-y,z
1/2+x,1/2+y,z
1/2-x,1/2+y,-z
1/2-x,1/2-y,-z
1/2+x,1/2-y,z
loop_
_atom_site_type_symbol
_atom_site_label
_atom_site_fract_x
_atom_site_fract_y
_atom_site_fract_z
Si Si1 0.591367 0.316581 0.117107
Si Si2 0.163872 0.678859 0.413765
Si Si3 0.780192 0.317591 0.708113
Si Si4 0.950106 0.319630 0.408869
Si Si5 0.354584 0.814471 0.001920
O O1 0.583232 0.500000 0.099451
O O2 0.665531 0.284885 0.211873
O O3 0.651120 0.236136 0.078068
O O4 0.468460 0.250084 0.080158
O O5 0.198387 0.500000 0.422502
O O6 0.250000 0.750000 0.500000
O O7 0.172602 0.750280 0.342866
O O8 0.039797 0.702905 0.387659
O O9 0.807575 0.500000 0.730950
O O10 0.648861 0.291999 0.653776
O O11 0.910794 0.500000 0.398797
O O12 0.000000 0.262824 0.500000
O O13 0.354516 0.000000 0.006984
O O14 0.250000 0.750000 0.000000
#
# Coordination Sequence:
#
# PCOD8101144 Si02
#       5
#     8   8   8   8   8
#     4  11  23  41  63  91 125 163 205 252 304 359
#     4  10  21  36  56  80 110 149 195 245 299 355
#     4  11  23  38  57  85 120 156 199 253 305 362
#     4  10  20  36  57  80 110 151 198 248 302 362
#     4  11  22  41  68  96 127 161 198 244 300 367
#
# _framework density 19.469968999999999
#
# number of rings (size 3 to 8) (size 9 to 14) (size 15 to 20)
#    0.000    1.400    2.000    5.400    0.000    3.600 
#    0.000    6.000    0.000    0.000    0.000    0.000 
#    0.000    0.000    0.000    0.000    0.000    0.000 
#
# Total GULP energy -248061.068295 kJ/mol
# GULP energy per Si atom -12403.053415 kJ/mol
# Density = 1.942565 g / cm^3
# Si number density = 19.469969 Si / 1000 Ang^3
#
#
#
# Elastic Constant Matrix: (Units=GPa)
#
#
# Indices 1 2 3 4 5 6 
#
# 1 121.6679 20.6968 47.9543 0.0000 3.9753 0.0000
# 2 20.6968 69.1644 19.9866 0.0000 9.0113 0.0000
# 3 47.9543 19.9866 132.5383 0.0000 -2.8635 0.0000
# 4 0.0000 0.0000 0.0000 34.2557 0.0000 3.5045
# 5 3.9753 9.0113 -2.8635 0.0000 22.1082 0.0000
# 6 0.0000 0.0000 0.0000 3.5045 0.0000 32.3360
#
#
#
# Elastic Compliance Matrix: (Units=1/GPa)
#
#
# Indices 1 2 3 4 5 6 
#
# 1 0.009890 -0.001802 -0.003338 0.000000 -0.001476 0.000000
# 2 -0.001802 0.016430 -0.001969 0.000000 -0.006628 0.000000
# 3 -0.003338 -0.001969 0.009106 0.000000 0.002582 0.000000
# 4 0.000000 0.000000 0.000000 0.029520 0.000000 -0.003199
# 5 -0.001476 -0.006628 0.002582 0.000000 0.048533 0.000000
# 6 0.000000 0.000000 0.000000 -0.003199 0.000000 0.031272
#
#
# Mechanical properties :
#
#
# Convention : Reuss Voigt Hill
#
# Bulk Modulus (GPa) = 47.15551 55.62733 51.39142
# Shear Modulus (GPa) = 30.11361 33.38885 31.75123
#
# Velocity S-wave (km/s) = 3.93704 4.14562 4.04267
# Velocity P-wave (km/s) = 6.70367 7.17967 6.94575
#
# Compressibility (1/GPa) = 0.02120643
#
# Stress axis : x y z
#
# Youngs Moduli (GPa) = 101.11539 60.86404 109.82364
#
# Poissons Ratio (x) = 0.10970 0.36663
# Poissons Ratio (y) = 0.18225 0.21621
# Poissons Ratio (z) = 0.33756 0.11982
#
# Static dielectric constant tensor:
#      x y z
#    x 4.407750 0.000000 -0.010640 
#    y 0.000000 3.602910 0.000000 
#    z -0.010640 0.000000 3.471490 
# 
# 
# High freq. dielectric constant tensor:
#      x y z
#    x 1.768850 0.000000 -0.004160 
#    y 0.000000 1.763840 0.000000 
#    z -0.004160 0.000000 1.759010 
# 
# From -- ./inp_files/266686.got.cif
#   From: 2010.06.25/outbox.cif.g09.slc.cpg/sg12_134_cif.got.tgz:266686.got - 2010.06.28 00:19:55.
