data_PCOD8101836
_publ_section_title
;
Structure prediction by ZEFSAII (Michael W. Deem and Ramdas Pophale) SiO2 
 PCOD8101836
Probable space group: C 2/M
;
_chemical_formula_sum "Si O2"
_cell_formula_units_Z 64
_cell_length_a 14.095168
_cell_length_b 26.317455
_cell_length_c 9.634927
_cell_angle_alpha 90.000000
_cell_angle_beta 106.763482
_cell_angle_gamma 90.000000
_cell_volume 3422.180824
_symmetry_space_group_name_H-M "C 2/M"
_symmetry_group_IT_number 12
_symmetry_cell_setting 'monoclinic'
loop_
_space_group_symop_operation_xyz
x,y,z
-x,y,-z
-x,-y,-z
x,-y,z
1/2+x,1/2+y,z
1/2-x,1/2+y,-z
1/2-x,1/2-y,-z
1/2+x,1/2-y,z
loop_
_atom_site_type_symbol
_atom_site_label
_atom_site_fract_x
_atom_site_fract_y
_atom_site_fract_z
Si Si1 0.406104 0.178543 0.118453
Si Si2 0.908392 0.145351 0.719967
Si Si3 0.882558 0.354815 0.805397
Si Si4 0.278841 0.697041 0.442911
Si Si5 0.254153 0.440268 0.147627
Si Si6 0.899981 0.791692 0.218004
Si Si7 0.532676 0.444161 0.669806
Si Si8 0.794657 0.861206 0.950993
O O1 0.502503 0.143933 0.195711
O O2 0.416307 0.235607 0.170620
O O3 0.311245 0.155236 0.156741
O O4 0.381971 0.179133 0.944061
O O5 0.821281 0.157428 0.574495
O O6 0.873356 0.142837 0.863079
O O7 0.989034 0.188393 0.733559
O O8 0.959998 0.091257 0.724198
O O9 0.820097 0.327911 0.659611
O O10 0.839171 0.411021 0.821893
O O11 0.250000 0.750000 0.500000
O O12 0.358593 0.707046 0.356269
O O13 0.228682 0.500000 0.127882
O O14 0.351940 0.428009 0.279817
O O15 0.279899 0.418166 0.005491
O O16 0.827395 0.824062 0.089763
O O17 0.500000 0.442821 0.500000
O O18 0.521969 0.500000 0.731574
#
# Coordination Sequence:
#
# PCOD8101836 Si02
#       8
#     8   8   8   8   8   8   8   8
#     4  10  22  36  61  79 118 158 205 246 296 352
#     4  12  24  36  59  87 124 159 197 244 306 371
#     4  10  21  39  57  89 117 154 207 254 296 360
#     4  12  24  38  58  88 125 161 204 250 301 360
#     4  10  20  39  64  87 120 156 201 263 310 357
#     4  12  22  38  59  84 122 163 203 241 300 372
#     4  10  20  36  59  87 118 155 195 247 312 370
#     4  11  23  39  56  88 119 158 201 248 299 361
#
# _framework density 18.701523999999999
#
# number of rings (size 3 to 8) (size 9 to 14) (size 15 to 20)
#    0.000    1.125    3.750    4.125    5.250    0.500 
#    0.000    8.125    0.000    0.000    0.000    0.000 
#    0.000   17.000    0.000    0.000    0.000    0.000 
#
# Total GULP energy -396725.404254 kJ/mol
# GULP energy per Si atom -12397.668883 kJ/mol
# Density = 1.865896 g / cm^3
# Si number density = 18.701524 Si / 1000 Ang^3
#
#
#
# Elastic Constant Matrix: (Units=GPa)
#
#
# Indices 1 2 3 4 5 6 
#
# 1 109.6643 58.4181 43.5474 0.0000 6.6071 0.0000
# 2 58.4181 120.7824 49.4262 0.0000 -0.3599 0.0000
# 3 43.5474 49.4262 81.1692 0.0000 7.5784 0.0000
# 4 0.0000 0.0000 0.0000 26.7157 0.0000 1.3192
# 5 6.6071 -0.3599 7.5784 0.0000 36.1191 0.0000
# 6 0.0000 0.0000 0.0000 1.3192 0.0000 28.9713
#
#
#
# Elastic Compliance Matrix: (Units=1/GPa)
#
#
# Indices 1 2 3 4 5 6 
#
# 1 0.013413 -0.004808 -0.004115 0.000000 -0.001638 0.000000
# 2 -0.004808 0.012836 -0.005437 0.000000 0.002148 0.000000
# 3 -0.004115 -0.005437 0.018129 0.000000 -0.003105 0.000000
# 4 0.000000 0.000000 0.000000 0.037516 0.000000 -0.001708
# 5 -0.001638 0.002148 -0.003105 0.000000 0.028659 0.000000
# 6 0.000000 0.000000 0.000000 -0.001708 0.000000 0.034595
#
#
# Mechanical properties :
#
#
# Convention : Reuss Voigt Hill
#
# Bulk Modulus (GPa) = 63.87227 68.26660 66.06944
# Shear Modulus (GPa) = 27.91933 29.04283 28.48108
#
# Velocity S-wave (km/s) = 3.86799 3.94504 3.90670
# Velocity P-wave (km/s) = 7.36044 7.57190 7.46692
#
# Compressibility (1/GPa) = 0.01565625
#
# Stress axis : x y z
#
# Youngs Moduli (GPa) = 74.55509 77.90364 55.16112
#
# Poissons Ratio (x) = 0.37457 0.22700
# Poissons Ratio (y) = 0.35847 0.29993
# Poissons Ratio (z) = 0.30682 0.42359
#
# Static dielectric constant tensor:
#      x y z
#    x 3.793030 0.000000 0.259820 
#    y 0.000000 3.724410 0.000000 
#    z 0.259820 0.000000 3.380080 
# 
# 
# High freq. dielectric constant tensor:
#      x y z
#    x 1.736690 0.000000 0.013870 
#    y 0.000000 1.721130 0.000000 
#    z 0.013870 0.000000 1.721740 
# 
# From -- ./inp_files/67026.got.cif
#   From: 2010.06.25/outbox.cif.g09.slc.cpg/sg12_34_cif.got.tgz:67026.got - 2010.06.28 00:19:55.
