data_PCOD8101338
_publ_section_title
;
Structure prediction by ZEFSAII (Michael W. Deem and Ramdas Pophale) SiO2 
 PCOD8101338
Probable space group: C 2/M
;
_chemical_formula_sum "Si O2"
_cell_formula_units_Z 64
_cell_length_a 27.956854
_cell_length_b 8.931529
_cell_length_c 15.759152
_cell_angle_alpha 90.000000
_cell_angle_beta 63.749210
_cell_angle_gamma 90.000000
_cell_volume 3529.188271
_symmetry_space_group_name_H-M "C 2/M"
_symmetry_group_IT_number 12
_symmetry_cell_setting 'monoclinic'
loop_
_space_group_symop_operation_xyz
x,y,z
-x,y,-z
-x,-y,-z
x,-y,z
1/2+x,1/2+y,z
1/2-x,1/2+y,-z
1/2-x,1/2-y,-z
1/2+x,1/2-y,z
loop_
_atom_site_type_symbol
_atom_site_label
_atom_site_fract_x
_atom_site_fract_y
_atom_site_fract_z
Si Si1 0.612530 0.823661 0.757574
Si Si2 0.738843 0.675147 0.244738
Si Si3 0.968979 0.826868 0.607449
Si Si4 0.635320 0.176748 0.249050
Si Si5 0.397153 0.673107 0.893045
Si Si6 0.276253 0.827767 0.400134
Si Si7 0.485107 0.329786 0.248274
Si Si8 0.152993 0.823814 0.887915
O O1 0.663292 0.770598 0.662064
O O2 0.559117 0.784305 0.749633
O O3 0.613742 0.738609 0.846327
O O4 0.615663 0.000000 0.773172
O O5 0.736950 0.500000 0.225186
O O6 0.686827 0.754989 0.252015
O O7 0.741860 0.704458 0.343021
O O8 0.790062 0.743751 0.158050
O O9 0.916025 0.729355 0.658013
O O10 0.000000 0.771523 0.500000
O O11 0.007655 0.803249 0.657206
O O12 0.951677 0.000000 0.613485
O O13 0.632841 0.228783 0.153596
O O14 0.639219 0.000000 0.249229
O O15 0.387448 0.500000 0.877084
O O16 0.460150 0.707393 0.843484
O O17 0.374345 0.716117 0.001851
O O18 0.250000 0.750000 0.500000
O O19 0.277230 0.000000 0.422243
O O20 0.466981 0.500000 0.244201
O O21 0.160821 0.000000 0.869552
#
# Coordination Sequence:
#
# PCOD8101338 Si02
#       8
#     8   8   8   8   8   8   8   8
#     4  10  21  36  52  76 110 142 172 213 266 316
#     4  10  21  38  56  77 109 143 175 215 266 320
#     4   9  19  37  58  79 107 143 180 220 269 318
#     4  11  22  35  55  82 109 140 179 220 263 313
#     4   9  20  38  57  78 107 140 175 219 268 316
#     4   9  20  36  54  76 103 137 174 214 260 309
#     4   9  18  34  55  78 104 138 178 216 257 310
#     4  10  20  36  58  81 104 135 178 223 265 312
#
# _framework density 18.134481999999998
#
# number of rings (size 3 to 8) (size 9 to 14) (size 15 to 20)
#    0.000    2.375    0.000    3.750    0.000    8.250 
#    0.000    6.250    0.000    0.000    0.000    0.000 
#    0.000    0.000    0.000    0.000    0.000    0.000 
#
# Total GULP energy -396879.643634 kJ/mol
# GULP energy per Si atom -12402.488864 kJ/mol
# Density = 1.809321 g / cm^3
# Si number density = 18.134482 Si / 1000 Ang^3
#
#
#
# Elastic Constant Matrix: (Units=GPa)
#
#
# Indices 1 2 3 4 5 6 
#
# 1 124.7423 62.0819 57.8509 0.0000 3.6297 0.0000
# 2 62.0819 105.0853 65.6452 0.0000 1.2170 0.0000
# 3 57.8509 65.6452 155.2627 0.0000 -2.8176 0.0000
# 4 0.0000 0.0000 0.0000 28.6782 0.0000 -0.2701
# 5 3.6297 1.2170 -2.8176 0.0000 11.9037 0.0000
# 6 0.0000 0.0000 0.0000 -0.2701 0.0000 37.1546
#
#
#
# Elastic Compliance Matrix: (Units=1/GPa)
#
#
# Indices 1 2 3 4 5 6 
#
# 1 0.011928 -0.005692 -0.002102 0.000000 -0.003553 0.000000
# 2 -0.005692 0.015731 -0.004547 0.000000 -0.000949 0.000000
# 3 -0.002102 -0.004547 0.009206 0.000000 0.003285 0.000000
# 4 0.000000 0.000000 0.000000 0.034872 0.000000 0.000253
# 5 -0.003553 -0.000949 0.003285 0.000000 0.085966 0.000000
# 6 0.000000 0.000000 0.000000 0.000253 0.000000 0.026916
#
#
# Mechanical properties :
#
#
# Convention : Reuss Voigt Hill
#
# Bulk Modulus (GPa) = 82.09314 84.02736 83.06025
# Shear Modulus (GPa) = 23.43438 28.84810 26.14124
#
# Velocity S-wave (km/s) = 3.59869 3.99279 3.80086
# Velocity P-wave (km/s) = 7.91422 8.22756 8.07241
#
# Compressibility (1/GPa) = 0.01218129
#
# Stress axis : x y z
#
# Youngs Moduli (GPa) = 83.83839 63.57072 108.62443
#
# Poissons Ratio (x) = 0.36187 0.22833
# Poissons Ratio (y) = 0.47724 0.49393
# Poissons Ratio (z) = 0.17623 0.28906
#
# Static dielectric constant tensor:
#      x y z
#    x 3.374900 0.000000 -0.053390 
#    y 0.000000 3.349620 0.000000 
#    z -0.053390 0.000000 3.485340 
# 
# 
# High freq. dielectric constant tensor:
#      x y z
#    x 1.704270 0.000000 -0.000290 
#    y 0.000000 1.706410 0.000000 
#    z -0.000290 0.000000 1.706530 
# 
# From -- ./inp_files/243731.got.cif
#   From: 2010.06.25/outbox.cif.g09.slc.cpg/sg12_122_cif.got.tgz:243731.got - 2010.06.28 00:19:55.
