data_PCOD8101589
_publ_section_title
;
Structure prediction by ZEFSAII (Michael W. Deem and Ramdas Pophale) SiO2 
 PCOD8101589
Probable space group: C 2/M
;
_chemical_formula_sum "Si O2"
_cell_formula_units_Z 56
_cell_length_a 22.280335
_cell_length_b 8.659102
_cell_length_c 29.076170
_cell_angle_alpha 90.000000
_cell_angle_beta 150.863789
_cell_angle_gamma 90.000000
_cell_volume 2731.243392
_symmetry_space_group_name_H-M "C 2/M"
_symmetry_group_IT_number 12
_symmetry_cell_setting 'monoclinic'
loop_
_space_group_symop_operation_xyz
x,y,z
-x,y,-z
-x,-y,-z
x,-y,z
1/2+x,1/2+y,z
1/2-x,1/2+y,-z
1/2-x,1/2-y,-z
1/2+x,1/2-y,z
loop_
_atom_site_type_symbol
_atom_site_label
_atom_site_fract_x
_atom_site_fract_y
_atom_site_fract_z
Si Si1 0.617910 0.681864 0.713053
Si Si2 0.771073 0.818812 0.738389
Si Si3 0.030589 0.317420 0.916494
Si Si4 0.257176 0.182823 0.116773
Si Si5 0.288210 0.322537 0.645859
Si Si6 0.957639 0.681504 0.179259
Si Si7 0.144608 0.319464 0.460936
O O1 0.622474 0.500000 0.710085
O O2 0.654600 0.762360 0.689692
O O3 0.713331 0.734586 0.815763
O O4 0.481629 0.734632 0.635815
O O5 0.742392 0.776636 0.666096
O O6 0.891517 0.727770 0.836479
O O7 0.792297 0.000000 0.759450
O O8 0.048689 0.500000 0.933370
O O9 0.059668 0.256105 0.884290
O O10 0.119398 0.228778 0.010799
O O11 0.350465 0.247774 0.140171
O O12 0.268531 0.000000 0.130804
O O13 0.327942 0.500000 0.670636
O O14 0.409397 0.228614 0.712024
O O15 0.178489 0.287474 0.536898
O O16 0.949770 0.500000 0.173407
O O17 0.129466 0.500000 0.440430
O O18 0.250000 0.250000 0.500000
#
# Coordination Sequence:
#
# PCOD8101589 Si02
#       7
#     8   8   8   8   8   8   8
#     4  12  26  42  59  84 116 153 194 242 291 341
#     4  10  21  41  63  85 113 150 194 240 286 341
#     4  10  20  36  58  87 119 152 189 237 289 343
#     4  11  22  37  57  84 116 156 198 239 287 343
#     4   9  20  37  61  87 115 151 191 235 287 340
#     4   9  19  34  56  86 120 152 189 235 286 341
#     4  11  23  41  63  91 122 154 190 233 284 342
#
# _framework density 20.503482999999999
#
# number of rings (size 3 to 8) (size 9 to 14) (size 15 to 20)
#    0.000    1.714    0.000    4.286    0.000    6.857 
#    0.000    5.714    0.000    0.000    0.000    0.000 
#    0.000    0.000    0.000    0.000    0.000    0.000 
#
# Total GULP energy -347350.964796 kJ/mol
# GULP energy per Si atom -12405.391600 kJ/mol
# Density = 2.045682 g / cm^3
# Si number density = 20.503483 Si / 1000 Ang^3
#
#
#
# Elastic Constant Matrix: (Units=GPa)
#
#
# Indices 1 2 3 4 5 6 
#
# 1 95.7393 26.9239 26.4484 0.0005 4.1405 0.0001
# 2 26.9239 60.8716 16.6759 0.0004 -7.3916 -0.0013
# 3 26.4484 16.6759 79.8727 -0.0003 -12.6048 -0.0002
# 4 0.0005 0.0004 -0.0003 36.0720 0.0001 2.9663
# 5 4.1405 -7.3916 -12.6048 0.0001 28.7861 0.0001
# 6 0.0001 -0.0013 -0.0002 2.9663 0.0001 31.3156
#
#
#
# Elastic Compliance Matrix: (Units=1/GPa)
#
#
# Indices 1 2 3 4 5 6 
#
# 1 0.013308 -0.005385 -0.004085 0.000000 -0.005085 0.000000
# 2 -0.005385 0.019864 -0.001544 0.000000 0.005199 0.000001
# 3 -0.004085 -0.001544 0.015281 0.000000 0.006882 0.000000
# 4 0.000000 0.000000 0.000000 0.027940 0.000000 -0.002647
# 5 -0.005085 0.005199 0.006882 0.000000 0.039819 0.000000
# 6 0.000000 0.000001 0.000000 -0.002647 0.000000 0.032184
#
#
# Mechanical properties :
#
#
# Convention : Reuss Voigt Hill
#
# Bulk Modulus (GPa) = 37.84136 41.84223 39.84180
# Shear Modulus (GPa) = 27.89708 30.33045 29.11376
#
# Velocity S-wave (km/s) = 3.69264 3.85032 3.77230
# Velocity P-wave (km/s) = 6.05614 6.34179 6.20061
#
# Compressibility (1/GPa) = 0.02642611
#
# Stress axis : x y z
#
# Youngs Moduli (GPa) = 75.14457 50.34270 65.44079
#
# Poissons Ratio (x) = 0.27107 0.26732
# Poissons Ratio (y) = 0.40462 0.10102
# Poissons Ratio (z) = 0.30696 0.07772
#
# Static dielectric constant tensor:
#      x y z
#    x 3.927580 0.000000 -0.116720 
#    y 0.000000 3.669900 0.000000 
#    z -0.116720 0.000000 3.664950 
# 
# 
# High freq. dielectric constant tensor:
#      x y z
#    x 1.805500 0.000000 -0.004760 
#    y 0.000000 1.803880 0.000000 
#    z -0.004760 0.000000 1.801810 
# 
# From -- ./inp_files/380764.got.cif
#   From: 2010.06.25/outbox.cif.g09.slc.cpg/sg12_191_cif.got.tgz:380764.got - 2010.06.28 00:19:55.
