data_PCOD8101212
_publ_section_title
;
Structure prediction by ZEFSAII (Michael W. Deem and Ramdas Pophale) SiO2 
 PCOD8101212
Probable space group: C 2/M
;
_chemical_formula_sum "Si O2"
_cell_formula_units_Z 48
_cell_length_a 15.523720
_cell_length_b 26.245176
_cell_length_c 10.846208
_cell_angle_alpha 90.000000
_cell_angle_beta 34.811038
_cell_angle_gamma 90.000000
_cell_volume 2522.677722
_symmetry_space_group_name_H-M "C 2/M"
_symmetry_group_IT_number 12
_symmetry_cell_setting 'monoclinic'
loop_
_space_group_symop_operation_xyz
x,y,z
-x,y,-z
-x,-y,-z
x,-y,z
1/2+x,1/2+y,z
1/2-x,1/2+y,-z
1/2-x,1/2-y,-z
1/2+x,1/2-y,z
loop_
_atom_site_type_symbol
_atom_site_label
_atom_site_fract_x
_atom_site_fract_y
_atom_site_fract_z
Si Si1 0.274887 0.190482 0.475101
Si Si2 0.669733 0.393848 0.765488
Si Si3 0.161144 0.865382 0.372278
Si Si4 0.552311 0.124841 0.125879
Si Si5 0.786862 0.441919 0.383157
Si Si6 0.141862 0.556716 0.251504
O O1 0.250000 0.250000 0.500000
O O2 0.199633 0.164172 0.684576
O O3 0.187885 0.171613 0.455873
O O4 0.453280 0.175686 0.271713
O O5 0.724646 0.432415 0.593931
O O6 0.748058 0.407141 0.801571
O O7 0.500000 0.402795 0.000000
O O8 0.166530 0.923037 0.421187
O O9 0.000000 0.854395 0.500000
O O10 0.294858 0.856696 0.117443
O O11 0.439799 0.089949 0.176293
O O12 0.595137 0.089923 0.190152
O O13 0.823925 0.500000 0.319055
O O14 0.208854 0.500000 0.136627
O O15 0.000000 0.544678 0.500000
#
# Coordination Sequence:
#
# PCOD8101212 Si02
#       6
#     8   8   8   8   8   8
#     4  10  22  43  65  85 109 156 203 249 302 360
#     4  10  22  37  56  85 125 154 193 250 300 348
#     4  10  23  41  58  86 122 150 193 249 295 349
#     4  10  21  38  63  84 120 156 195 245 297 350
#     4  10  20  36  57  82 116 163 204 233 284 353
#     4  11  20  35  60  90 122 157 200 241 289 360
#
# _framework density 19.027401999999999
#
# number of rings (size 3 to 8) (size 9 to 14) (size 15 to 20)
#    0.000    2.167    3.333    3.000    4.667    5.000 
#    3.000    0.833    0.000    0.000    0.000    0.000 
#    0.000    0.000    0.000    0.000    0.000    0.000 
#
# Total GULP energy -297313.716956 kJ/mol
# GULP energy per Si atom -12388.071540 kJ/mol
# Density = 1.898409 g / cm^3
# Si number density = 19.027402 Si / 1000 Ang^3
#
#
#
# Elastic Constant Matrix: (Units=GPa)
#
#
# Indices 1 2 3 4 5 6 
#
# 1 114.5420 46.4515 35.4243 0.0000 -16.1702 0.0000
# 2 46.4515 155.1408 29.1769 0.0001 -8.3483 -0.0001
# 3 35.4243 29.1769 106.3942 0.0005 -18.1796 -0.0003
# 4 0.0000 0.0001 0.0005 6.0152 -0.0001 -1.0646
# 5 -16.1702 -8.3483 -18.1796 -0.0001 24.1740 0.0000
# 6 0.0000 -0.0001 -0.0003 -1.0646 0.0000 23.2133
#
#
#
# Elastic Compliance Matrix: (Units=1/GPa)
#
#
# Indices 1 2 3 4 5 6 
#
# 1 0.011176 -0.002678 -0.002143 0.000000 0.004940 0.000000
# 2 -0.002678 0.007463 -0.001171 0.000000 -0.000095 0.000000
# 3 -0.002143 -0.001171 0.011612 -0.000001 0.006895 0.000000
# 4 0.000000 0.000000 -0.000001 0.167607 0.000000 0.007687
# 5 0.004940 -0.000095 0.006895 0.000000 0.049823 0.000000
# 6 0.000000 0.000000 0.000000 0.007687 0.000000 0.043431
#
#
# Mechanical properties :
#
#
# Convention : Reuss Voigt Hill
#
# Bulk Modulus (GPa) = 54.74199 66.46472 60.60336
# Shear Modulus (GPa) = 16.17160 28.34878 22.26019
#
# Velocity S-wave (km/s) = 2.91849 3.86410 3.42409
# Velocity P-wave (km/s) = 6.33950 7.41048 6.89582
#
# Compressibility (1/GPa) = 0.01826751
#
# Stress axis : x y z
#
# Youngs Moduli (GPa) = 89.47442 134.00105 86.11985
#
# Poissons Ratio (x) = 0.35880 0.18454
# Poissons Ratio (y) = 0.23957 0.10086
# Poissons Ratio (z) = 0.19173 0.15694
#
# Static dielectric constant tensor:
#      x y z
#    x 3.480570 0.000000 -0.100720 
#    y 0.000000 3.402600 0.000000 
#    z -0.100720 0.000000 3.673610 
# 
# 
# High freq. dielectric constant tensor:
#      x y z
#    x 1.747690 0.000000 0.001960 
#    y 0.000000 1.722250 0.000000 
#    z 0.001960 0.000000 1.736470 
# 
# From -- ./inp_files/150210.got.cif
#   From: 2010.06.25/outbox.cif.g09.slc.cpg/sg12_76_cif.got.tgz:150210.got - 2010.06.28 00:19:55.
