data_PCOD8101385
_publ_section_title
;
Structure prediction by ZEFSAII (Michael W. Deem and Ramdas Pophale) SiO2 
 PCOD8101385
Probable space group: C 2/M
;
_chemical_formula_sum "Si O2"
_cell_formula_units_Z 44
_cell_length_a 14.569858
_cell_length_b 17.940534
_cell_length_c 10.656122
_cell_angle_alpha 90.000000
_cell_angle_beta 55.318577
_cell_angle_gamma 90.000000
_cell_volume 2290.526131
_symmetry_space_group_name_H-M "C 2/M"
_symmetry_group_IT_number 12
_symmetry_cell_setting 'monoclinic'
loop_
_space_group_symop_operation_xyz
x,y,z
-x,y,-z
-x,-y,-z
x,-y,z
1/2+x,1/2+y,z
1/2-x,1/2+y,-z
1/2-x,1/2-y,-z
1/2+x,1/2-y,z
loop_
_atom_site_type_symbol
_atom_site_label
_atom_site_fract_x
_atom_site_fract_y
_atom_site_fract_z
Si Si1 0.081687 0.585532 0.723580
Si Si2 0.915067 0.651085 0.677007
Si Si3 0.250579 0.087434 0.622373
Si Si4 0.001930 0.915577 0.147396
Si Si5 0.500000 0.181491 0.000000
Si Si6 0.876645 0.227923 0.888840
O O1 0.099822 0.500000 0.743631
O O2 0.180848 0.614428 0.554089
O O3 0.959969 0.596855 0.753058
O O4 0.084788 0.630947 0.851616
O O5 0.794354 0.626693 0.716866
O O6 0.916542 0.735548 0.727044
O O7 0.000000 0.643351 0.500000
O O8 0.120616 0.107225 0.705398
O O9 0.269048 0.000000 0.628283
O O10 0.094178 0.860174 0.135889
O O11 0.032489 0.000000 0.165161
O O12 0.000000 0.909852 0.000000
O O13 0.566608 0.236450 0.035776
O O14 0.750000 0.250000 0.000000
#
# Coordination Sequence:
#
# PCOD8101385 Si02
#       6
#     8   8   8   8   4   8
#     4   9  17  32  54  82 118 152 187 230 277 336
#     4   9  18  32  51  83 112 148 187 228 281 326
#     4   9  17  32  57  86 114 147 190 235 277 326
#     4  10  20  36  58  82 108 143 187 233 282 333
#     4  10  21  36  53  82 112 150 190 230 283 336
#     4  11  22  38  56  79 114 144 186 236 281 335
#
# _framework density 19.209558999999999
#
# number of rings (size 3 to 8) (size 9 to 14) (size 15 to 20)
#    0.000    2.364    0.909    1.909    0.000    2.182 
#    3.273    7.273    0.000    0.545    0.000    0.000 
#    0.000    0.000    0.000    0.000    0.000    0.000 
#
# Total GULP energy -272682.388202 kJ/mol
# GULP energy per Si atom -12394.654009 kJ/mol
# Density = 1.916584 g / cm^3
# Si number density = 19.209559 Si / 1000 Ang^3
#
#
#
# Elastic Constant Matrix: (Units=GPa)
#
#
# Indices 1 2 3 4 5 6 
#
# 1 58.9374 42.0655 20.6543 0.0000 -11.5446 0.0000
# 2 42.0655 110.5128 29.2528 0.0000 -5.8582 0.0000
# 3 20.6543 29.2528 64.3974 0.0000 -2.4173 0.0000
# 4 0.0000 0.0000 0.0000 22.1295 0.0000 -3.5462
# 5 -11.5446 -5.8582 -2.4173 0.0000 31.0874 0.0000
# 6 0.0000 0.0000 0.0000 -3.5462 0.0000 30.2683
#
#
#
# Elastic Compliance Matrix: (Units=1/GPa)
#
#
# Indices 1 2 3 4 5 6 
#
# 1 0.025911 -0.008332 -0.004236 0.000000 0.007723 0.000000
# 2 -0.008332 0.013043 -0.003286 0.000000 -0.000892 0.000000
# 3 -0.004236 -0.003286 0.018351 0.000000 -0.000765 0.000000
# 4 0.000000 0.000000 0.000000 0.046053 0.000000 0.005396
# 5 0.007723 -0.000892 -0.000765 0.000000 0.034808 0.000000
# 6 0.000000 0.000000 0.000000 0.005396 0.000000 0.033670
#
#
# Mechanical properties :
#
#
# Convention : Reuss Voigt Hill
#
# Bulk Modulus (GPa) = 39.06634 46.42143 42.74388
# Shear Modulus (GPa) = 23.57643 26.15536 24.86590
#
# Velocity S-wave (km/s) = 3.50712 3.69396 3.60176
# Velocity P-wave (km/s) = 6.06473 6.51246 6.29258
#
# Compressibility (1/GPa) = 0.02559748
#
# Stress axis : x y z
#
# Youngs Moduli (GPa) = 38.59313 76.67065 54.49306
#
# Poissons Ratio (x) = 0.63884 0.23082
# Poissons Ratio (y) = 0.32157 0.17905
# Poissons Ratio (z) = 0.16347 0.25192
#
# Static dielectric constant tensor:
#      x y z
#    x 3.348640 0.000000 0.019020 
#    y 0.000000 2.692280 0.000000 
#    z 0.019020 0.000000 3.785230 
# 
# 
# High freq. dielectric constant tensor:
#      x y z
#    x 1.725400 0.000000 -0.003050 
#    y 0.000000 1.743850 0.000000 
#    z -0.003050 0.000000 1.751880 
# 
# From -- ./inp_files/145007.got.cif
#   From: 2010.06.25/outbox.cif.g09.slc.cpg/sg12_73_cif.got.tgz:145007.got - 2010.06.28 00:19:55.
