data_PCOD8101357
_publ_section_title
;
Structure prediction by ZEFSAII (Michael W. Deem and Ramdas Pophale) SiO2 
 PCOD8101357
Probable space group: C 2/M
;
_chemical_formula_sum "Si O2"
_cell_formula_units_Z 48
_cell_length_a 18.865085
_cell_length_b 9.392022
_cell_length_c 14.588376
_cell_angle_alpha 90.000000
_cell_angle_beta 99.742058
_cell_angle_gamma 90.000000
_cell_volume 2547.513463
_symmetry_space_group_name_H-M "C 2/M"
_symmetry_group_IT_number 12
_symmetry_cell_setting 'monoclinic'
loop_
_space_group_symop_operation_xyz
x,y,z
-x,y,-z
-x,-y,-z
x,-y,z
1/2+x,1/2+y,z
1/2-x,1/2+y,-z
1/2-x,1/2-y,-z
1/2+x,1/2-y,z
loop_
_atom_site_type_symbol
_atom_site_label
_atom_site_fract_x
_atom_site_fract_y
_atom_site_fract_z
Si Si1 0.968488 0.167374 0.592102
Si Si2 0.235137 0.661392 0.753991
Si Si3 0.804190 0.161882 0.572647
Si Si4 0.060334 0.661209 0.951508
Si Si5 0.427018 0.832369 0.251865
Si Si6 0.712618 0.161174 0.069410
O O1 0.885671 0.218717 0.579768
O O2 0.000000 0.207686 0.500000
O O3 0.012754 0.249929 0.678712
O O4 0.975122 0.000000 0.613541
O O5 0.239470 0.500000 0.794070
O O6 0.278803 0.676079 0.670717
O O7 0.151384 0.702505 0.722935
O O8 0.273751 0.769492 0.829912
O O9 0.750000 0.250000 0.500000
O O10 0.800752 0.000000 0.537393
O O11 0.035446 0.500000 0.927588
O O12 0.071986 0.727579 0.852835
O O13 0.129167 0.666226 0.030414
O O14 0.000000 0.741307 0.000000
O O15 0.443060 0.000000 0.261224
O O16 0.742091 0.000000 0.076024
O O17 0.750000 0.250000 0.000000
#
# Coordination Sequence:
#
# PCOD8101357 Si02
#       6
#     8   8   8   8   8   8
#     4  10  22  39  57  81 115 147 178 226 284 337
#     4  10  21  38  57  82 115 147 187 237 281 326
#     4  10  22  39  60  84 114 147 184 235 283 332
#     4   9  19  35  54  79 113 148 185 229 271 317
#     4  10  20  36  58  81 109 146 186 230 273 324
#     4  11  21  36  59  84 113 151 190 231 279 331
#
# _framework density 18.841901
#
# number of rings (size 3 to 8) (size 9 to 14) (size 15 to 20)
#    0.000    2.000    1.667    1.500    2.333    2.333 
#    0.000    0.000    0.000    2.500    0.000    0.000 
#    0.000    0.000    0.000    0.000    0.000    0.000 
#
# Total GULP energy -297577.534364 kJ/mol
# GULP energy per Si atom -12399.063932 kJ/mol
# Density = 1.879902 g / cm^3
# Si number density = 18.841901 Si / 1000 Ang^3
#
#
#
# Elastic Constant Matrix: (Units=GPa)
#
#
# Indices 1 2 3 4 5 6 
#
# 1 152.6243 48.4660 70.6481 0.0000 -5.7239 0.0000
# 2 48.4660 78.4410 55.3841 0.0000 12.7613 0.0000
# 3 70.6481 55.3841 99.9071 0.0000 11.6137 0.0000
# 4 0.0000 0.0000 0.0000 31.5940 0.0000 13.3264
# 5 -5.7239 12.7613 11.6137 0.0000 40.2099 0.0000
# 6 0.0000 0.0000 0.0000 13.3264 0.0000 24.6976
#
#
#
# Elastic Compliance Matrix: (Units=1/GPa)
#
#
# Indices 1 2 3 4 5 6 
#
# 1 0.010548 -0.002613 -0.006500 0.000000 0.004208 0.000000
# 2 -0.002613 0.022056 -0.009853 0.000000 -0.004526 0.000000
# 3 -0.006500 -0.009853 0.020500 0.000000 -0.003719 0.000000
# 4 0.000000 0.000000 0.000000 0.040978 0.000000 -0.022111
# 5 0.004208 -0.004526 -0.003719 0.000000 0.027979 0.000000
# 6 0.000000 0.000000 0.000000 -0.022111 0.000000 0.052421
#
#
# Mechanical properties :
#
#
# Convention : Reuss Voigt Hill
#
# Bulk Modulus (GPa) = 65.90744 75.55210 70.72977
# Shear Modulus (GPa) = 22.99154 29.73189 26.36172
#
# Velocity S-wave (km/s) = 3.49698 3.97667 3.74451
# Velocity P-wave (km/s) = 7.16661 7.82753 7.50435
#
# Compressibility (1/GPa) = 0.01517279
#
# Stress axis : x y z
#
# Youngs Moduli (GPa) = 94.80264 45.33915 48.78014
#
# Poissons Ratio (x) = 0.11846 0.31706
# Poissons Ratio (y) = 0.24769 0.48064
# Poissons Ratio (z) = 0.61620 0.44674
#
# Static dielectric constant tensor:
#      x y z
#    x 3.657480 0.000000 -0.249610 
#    y 0.000000 3.434700 0.000000 
#    z -0.249610 0.000000 3.548480 
# 
# 
# High freq. dielectric constant tensor:
#      x y z
#    x 1.746770 0.000000 -0.006530 
#    y 0.000000 1.712680 0.000000 
#    z -0.006530 0.000000 1.740580 
# 
# From -- ./inp_files/221693.got.cif
#   From: 2010.06.25/outbox.cif.g09.slc.cpg/sg12_111_cif.got.tgz:221693.got - 2010.06.28 00:19:55.
