data_PCOD8101964
_publ_section_title
;
Structure prediction by ZEFSAII (Michael W. Deem and Ramdas Pophale) SiO2 
 PCOD8101964
Probable space group: C 2/M
;
_chemical_formula_sum "Si O2"
_cell_formula_units_Z 40
_cell_length_a 22.868517
_cell_length_b 10.292491
_cell_length_c 8.748787
_cell_angle_alpha 90.000000
_cell_angle_beta 110.959884
_cell_angle_gamma 90.000000
_cell_volume 1922.979612
_symmetry_space_group_name_H-M "C 2/M"
_symmetry_group_IT_number 12
_symmetry_cell_setting 'monoclinic'
loop_
_space_group_symop_operation_xyz
x,y,z
-x,y,-z
-x,-y,-z
x,-y,z
1/2+x,1/2+y,z
1/2-x,1/2+y,-z
1/2-x,1/2-y,-z
1/2+x,1/2-y,z
loop_
_atom_site_type_symbol
_atom_site_label
_atom_site_fract_x
_atom_site_fract_y
_atom_site_fract_z
Si Si1 0.856326 0.146977 0.813989
Si Si2 0.091763 0.642530 0.644212
Si Si3 0.731875 0.850600 0.853017
Si Si4 0.459311 0.220872 0.098525
Si Si5 0.560526 0.647231 0.377407
O O1 0.782003 0.168226 0.762998
O O2 0.876222 0.180206 0.658733
O O3 0.875897 0.000000 0.867390
O O4 0.893188 0.231553 0.972385
O O5 0.085946 0.500000 0.560344
O O6 0.163954 0.684426 0.724751
O O7 0.058740 0.626823 0.778870
O O8 0.056303 0.751882 0.513146
O O9 0.733321 0.000000 0.915914
O O10 0.750000 0.750000 0.000000
O O11 0.501877 0.337434 0.207083
O O12 0.500000 0.152429 0.000000
O O13 0.560888 0.500000 0.442442
#
# Coordination Sequence:
#
# PCOD8101964 Si02
#       5
#     8   8   8   8   8
#     4   9  18  36  61  87 115 145 187 243 289 328
#     4  11  24  39  56  85 121 154 188 231 287 345
#     4  10  20  37  61  86 113 147 189 236 285 338
#     4  10  20  36  60  86 113 149 192 241 285 334
#     4  10  22  38  59  88 116 150 194 235 282 340
#
# _framework density 20.801051999999999
#
# number of rings (size 3 to 8) (size 9 to 14) (size 15 to 20)
#    0.000    2.000    2.000    1.200    0.000    8.400 
#    0.000    4.000    0.000    0.000    0.000    0.000 
#    0.000    0.000    0.000    0.000    0.000    0.000 
#
# Total GULP energy -247870.501996 kJ/mol
# GULP energy per Si atom -12393.525100 kJ/mol
# Density = 2.075371 g / cm^3
# Si number density = 20.801052 Si / 1000 Ang^3
#
#
#
# Elastic Constant Matrix: (Units=GPa)
#
#
# Indices 1 2 3 4 5 6 
#
# 1 128.9205 15.4854 36.9132 0.0000 -6.9124 0.0000
# 2 15.4854 95.0631 39.0301 0.0000 2.6830 0.0000
# 3 36.9132 39.0301 82.8051 0.0000 -7.2136 0.0000
# 4 0.0000 0.0000 0.0000 24.7432 0.0000 -3.2284
# 5 -6.9124 2.6830 -7.2136 0.0000 32.4360 0.0000
# 6 0.0000 0.0000 0.0000 -3.2284 0.0000 19.2819
#
#
#
# Elastic Compliance Matrix: (Units=1/GPa)
#
#
# Indices 1 2 3 4 5 6 
#
# 1 0.008927 0.000143 -0.003959 0.000000 0.001010 0.000000
# 2 0.000143 0.013247 -0.006527 0.000000 -0.002517 0.000000
# 3 -0.003959 -0.006527 0.017225 0.000000 0.003527 0.000000
# 4 0.000000 0.000000 0.000000 0.041318 0.000000 0.006918
# 5 0.001010 -0.002517 0.003527 0.000000 0.032038 0.000000
# 6 0.000000 0.000000 0.000000 0.006918 0.000000 0.053020
#
#
# Mechanical properties :
#
#
# Convention : Reuss Voigt Hill
#
# Bulk Modulus (GPa) = 53.43824 54.40511 53.92168
# Shear Modulus (GPa) = 25.94725 29.64955 27.79840
#
# Velocity S-wave (km/s) = 3.53569 3.77953 3.65964
# Velocity P-wave (km/s) = 6.51261 6.72742 6.62088
#
# Compressibility (1/GPa) = 0.01871319
#
# Stress axis : x y z
#
# Youngs Moduli (GPa) = 112.01634 75.48989 58.05522
#
# Poissons Ratio (x) = -0.01077 0.22983
# Poissons Ratio (y) = -0.01598 0.37891
# Poissons Ratio (z) = 0.44346 0.49270
#
# Static dielectric constant tensor:
#      x y z
#    x 4.253140 0.000000 -0.238590 
#    y 0.000000 3.505950 0.000000 
#    z -0.238590 0.000000 3.522990 
# 
# 
# High freq. dielectric constant tensor:
#      x y z
#    x 1.840520 0.000000 -0.011720 
#    y 0.000000 1.796430 0.000000 
#    z -0.011720 0.000000 1.791050 
# 
# From -- ./inp_files/93007.got.cif
#   From: 2010.06.25/outbox.cif.g09.slc.cpg/sg12_47_cif.got.tgz:93007.got - 2010.06.28 00:19:55.
