data_PCOD8101538
_publ_section_title
;
Structure prediction by ZEFSAII (Michael W. Deem and Ramdas Pophale) SiO2 
 PCOD8101538
Probable space group: C 2/M
;
_chemical_formula_sum "Si O2"
_cell_formula_units_Z 44
_cell_length_a 14.636010
_cell_length_b 11.023195
_cell_length_c 22.130581
_cell_angle_alpha 90.000000
_cell_angle_beta 143.391425
_cell_angle_gamma 90.000000
_cell_volume 2129.220309
_symmetry_space_group_name_H-M "C 2/M"
_symmetry_group_IT_number 12
_symmetry_cell_setting 'monoclinic'
loop_
_space_group_symop_operation_xyz
x,y,z
-x,y,-z
-x,-y,-z
x,-y,z
1/2+x,1/2+y,z
1/2-x,1/2+y,-z
1/2-x,1/2-y,-z
1/2+x,1/2-y,z
loop_
_atom_site_type_symbol
_atom_site_label
_atom_site_fract_x
_atom_site_fract_y
_atom_site_fract_z
Si Si1 0.393588 0.760695 0.119547
Si Si2 0.218746 0.000000 0.786619
Si Si3 0.056192 0.638571 0.732715
Si Si4 0.029960 0.500000 0.899480
Si Si5 0.915095 0.789326 0.361978
Si Si6 0.211352 0.140812 0.583538
Si Si7 0.622587 0.500000 0.870493
O O1 0.347468 0.785939 0.165428
O O2 0.466341 0.623267 0.155363
O O3 0.500074 0.875109 0.155677
O O4 0.250000 0.750000 0.000000
O O5 0.165510 0.884272 0.722984
O O6 0.405912 0.000000 0.887651
O O7 0.136655 0.000000 0.806610
O O8 0.095485 0.500000 0.765259
O O9 0.094863 0.667218 0.683481
O O10 0.878368 0.671221 0.648275
O O11 0.203026 0.500000 0.013161
O O12 0.823562 0.776121 0.376252
O O13 0.091036 0.826351 0.467360
O O14 0.192078 0.000000 0.592068
#
# Coordination Sequence:
#
# PCOD8101538 Si02
#       7
#     8   4   8   4   8   8   4
#     4  10  20  36  58  85 115 150 192 240 292 347
#     4  12  19  33  60  86 112 146 193 241 286 341
#     4  11  22  37  60  83 118 160 197 236 301 362
#     4  10  21  36  59  84 116 155 190 236 298 361
#     4  11  20  35  59  88 116 145 197 245 289 340
#     4  10  20  37  59  86 113 154 199 243 292 354
#     4  10  21  36  57  88 116 146 195 247 292 339
#
# _framework density 20.664840999999999
#
# number of rings (size 3 to 8) (size 9 to 14) (size 15 to 20)
#    0.000    1.455    4.545    2.455    0.000    0.000 
#    0.000    1.818   10.000    0.000    0.000   12.727 
#    0.000    0.000    0.000    0.000    0.000    0.000 
#
# Total GULP energy -272545.415802 kJ/mol
# GULP energy per Si atom -12388.427991 kJ/mol
# Density = 2.061781 g / cm^3
# Si number density = 20.664841 Si / 1000 Ang^3
#
#
#
# Elastic Constant Matrix: (Units=GPa)
#
#
# Indices 1 2 3 4 5 6 
#
# 1 53.5383 25.4786 27.6431 0.0000 -11.4336 0.0000
# 2 25.4786 140.5212 31.7643 0.0000 -3.1738 0.0000
# 3 27.6431 31.7643 76.4423 0.0001 -16.7110 0.0000
# 4 0.0000 0.0000 0.0001 25.2210 0.0000 -5.4073
# 5 -11.4336 -3.1738 -16.7110 0.0000 18.8209 0.0000
# 6 0.0000 0.0000 0.0000 -5.4073 0.0000 15.0187
#
#
#
# Elastic Compliance Matrix: (Units=1/GPa)
#
#
# Indices 1 2 3 4 5 6 
#
# 1 0.025147 -0.003051 -0.005707 0.000000 0.009695 0.000000
# 2 -0.003051 0.008282 -0.003026 0.000000 -0.003143 0.000000
# 3 -0.005707 -0.003026 0.019274 0.000000 0.013137 0.000000
# 4 0.000000 0.000000 0.000000 0.042966 0.000000 0.015469
# 5 0.009695 -0.003143 0.013137 0.000000 0.070156 0.000000
# 6 0.000000 0.000000 0.000000 0.015469 0.000000 0.072153
#
#
# Mechanical properties :
#
#
# Convention : Reuss Voigt Hill
#
# Bulk Modulus (GPa) = 34.31892 48.91932 41.61912
# Shear Modulus (GPa) = 18.43269 24.18651 21.30960
#
# Velocity S-wave (km/s) = 2.98985 3.42485 3.21472
# Velocity P-wave (km/s) = 5.34438 6.27404 5.82778
#
# Compressibility (1/GPa) = 0.02913844
#
# Stress axis : x y z
#
# Youngs Moduli (GPa) = 39.76627 120.73788 51.88228
#
# Poissons Ratio (x) = 0.36832 0.29607
# Poissons Ratio (y) = 0.12131 0.15697
# Poissons Ratio (z) = 0.22693 0.36529
#
# Static dielectric constant tensor:
#      x y z
#    x 3.625310 0.000000 -0.311910 
#    y 0.000000 4.121810 0.000000 
#    z -0.311910 0.000000 3.949550 
# 
# 
# High freq. dielectric constant tensor:
#      x y z
#    x 1.775080 0.000000 -0.022710 
#    y 0.000000 1.809690 0.000000 
#    z -0.022710 0.000000 1.821800 
# 
# From -- ./inp_files/262258.got.cif
#   From: 2010.06.25/outbox.cif.g09.slc.cpg/sg12_132_cif.got.tgz:262258.got - 2010.06.28 00:19:55.
