data_PCOD8101376
_publ_section_title
;
Structure prediction by ZEFSAII (Michael W. Deem and Ramdas Pophale) SiO2 
 PCOD8101376
Probable space group: C 2/M
;
_chemical_formula_sum "Si O2"
_cell_formula_units_Z 48
_cell_length_a 18.961797
_cell_length_b 17.199033
_cell_length_c 14.775083
_cell_angle_alpha 90.000000
_cell_angle_beta 29.602404
_cell_angle_gamma 90.000000
_cell_volume 2380.243377
_symmetry_space_group_name_H-M "C 2/M"
_symmetry_group_IT_number 12
_symmetry_cell_setting 'monoclinic'
loop_
_space_group_symop_operation_xyz
x,y,z
-x,y,-z
-x,-y,-z
x,-y,z
1/2+x,1/2+y,z
1/2-x,1/2+y,-z
1/2-x,1/2-y,-z
1/2+x,1/2-y,z
loop_
_atom_site_type_symbol
_atom_site_label
_atom_site_fract_x
_atom_site_fract_y
_atom_site_fract_z
Si Si1 0.645463 0.409941 0.373391
Si Si2 0.820865 0.682889 0.533932
Si Si3 0.702701 0.152939 0.639155
Si Si4 0.331276 0.912088 0.696582
Si Si5 0.098636 0.591832 0.029880
Si Si6 0.852265 0.681746 0.848133
O O1 0.500000 0.369381 0.500000
O O2 0.636091 0.500000 0.361687
O O3 0.672762 0.395625 0.449343
O O4 0.775940 0.372623 0.172144
O O5 0.719268 0.757344 0.647150
O O6 0.787389 0.636012 0.478976
O O7 0.773800 0.628196 0.669320
O O8 0.986696 0.711699 0.353073
O O9 0.547375 0.126791 0.846216
O O10 0.500000 0.917373 0.500000
O O11 0.285179 0.858899 0.833758
O O12 0.268677 0.000000 0.775565
O O13 0.088195 0.500000 0.034409
O O14 0.132473 0.614398 0.094851
O O15 0.750000 0.750000 0.000000
#
# Coordination Sequence:
#
# PCOD8101376 Si02
#       6
#     8   8   8   8   8   8
#     4  10  22  36  56  86 117 153 193 243 305 357
#     4   9  21  36  55  88 117 155 204 245 298 355
#     4  10  20  36  58  81 121 156 194 252 293 357
#     4   9  18  35  59  86 117 155 203 253 300 355
#     4  10  21  38  59  87 118 156 201 242 296 364
#     4  10  21  34  57  92 123 157 193 248 305 359
#
# _framework density 20.166004999999998
#
# number of rings (size 3 to 8) (size 9 to 14) (size 15 to 20)
#    0.000    2.333    0.000    1.500    4.667    6.667 
#    0.000    0.000    0.000    0.000    0.000   10.500 
#    0.000    0.000    0.000    0.000    0.000    0.000 
#
# Total GULP energy -297520.510466 kJ/mol
# GULP energy per Si atom -12396.687936 kJ/mol
# Density = 2.012011 g / cm^3
# Si number density = 20.166005 Si / 1000 Ang^3
#
#
#
# Elastic Constant Matrix: (Units=GPa)
#
#
# Indices 1 2 3 4 5 6 
#
# 1 169.1107 48.6448 58.9086 0.0021 0.5336 -0.0009
# 2 48.6448 90.7178 52.2902 0.0030 4.8527 -0.0015
# 3 58.9086 52.2902 88.4300 0.0030 -8.3056 -0.0017
# 4 0.0021 0.0030 0.0030 29.7330 -0.0026 1.3314
# 5 0.5336 4.8527 -8.3056 -0.0026 27.7883 0.0012
# 6 -0.0009 -0.0015 -0.0017 1.3314 0.0012 37.6814
#
#
#
# Elastic Compliance Matrix: (Units=1/GPa)
#
#
# Indices 1 2 3 4 5 6 
#
# 1 0.007930 -0.001637 -0.004426 0.000000 -0.001189 0.000000
# 2 -0.001637 0.018110 -0.010199 -0.000001 -0.006179 0.000000
# 3 -0.004426 -0.010199 0.021054 0.000000 0.008159 0.000000
# 4 0.000000 -0.000001 0.000000 0.033686 0.000003 -0.001190
# 5 -0.001189 -0.006179 0.008159 0.000003 0.039527 -0.000001
# 6 0.000000 0.000000 0.000000 -0.001190 -0.000001 0.026580
#
#
# Mechanical properties :
#
#
# Convention : Reuss Voigt Hill
#
# Bulk Modulus (GPa) = 68.63470 74.21616 71.42543
# Shear Modulus (GPa) = 27.13451 31.60154 29.36802
#
# Velocity S-wave (km/s) = 3.67216 3.96292 3.82031
# Velocity P-wave (km/s) = 7.21723 7.60409 7.41318
#
# Compressibility (1/GPa) = 0.01456989
#
# Stress axis : x y z
#
# Youngs Moduli (GPa) = 126.10667 55.21753 47.49760
#
# Poissons Ratio (x) = 0.09041 0.21023
# Poissons Ratio (y) = 0.20648 0.48441
# Poissons Ratio (z) = 0.55815 0.56314
#
# Static dielectric constant tensor:
#      x y z
#    x 3.902670 0.000000 0.060280 
#    y 0.000000 3.501250 0.000000 
#    z 0.060280 0.000000 3.705280 
# 
# 
# High freq. dielectric constant tensor:
#      x y z
#    x 1.803830 0.000000 0.008070 
#    y 0.000000 1.777180 0.000000 
#    z 0.008070 0.000000 1.763880 
# 
# From -- ./inp_files/226730.got.cif
#   From: 2010.06.25/outbox.cif.g09.slc.cpg/sg12_114_cif.got.tgz:226730.got - 2010.06.28 00:19:55.
