data_PCOD8101318
_publ_section_title
;
Structure prediction by ZEFSAII (Michael W. Deem and Ramdas Pophale) SiO2 
 PCOD8101318
Probable space group: C 2/M
;
_chemical_formula_sum "Si O2"
_cell_formula_units_Z 64
_cell_length_a 11.938104
_cell_length_b 14.798203
_cell_length_c 28.097240
_cell_angle_alpha 90.000000
_cell_angle_beta 139.634367
_cell_angle_gamma 90.000000
_cell_volume 3214.823152
_symmetry_space_group_name_H-M "C 2/M"
_symmetry_group_IT_number 12
_symmetry_cell_setting 'monoclinic'
loop_
_space_group_symop_operation_xyz
x,y,z
-x,y,-z
-x,-y,-z
x,-y,z
1/2+x,1/2+y,z
1/2-x,1/2+y,-z
1/2-x,1/2-y,-z
1/2+x,1/2-y,z
loop_
_atom_site_type_symbol
_atom_site_label
_atom_site_fract_x
_atom_site_fract_y
_atom_site_fract_z
Si Si1 0.102830 0.102958 0.173800
Si Si2 0.605932 0.296935 0.313945
Si Si3 0.769728 0.340298 0.574512
Si Si4 0.369154 0.900330 0.338493
Si Si5 0.682358 0.605502 0.728903
Si Si6 0.537653 0.601679 0.580635
Si Si7 0.993783 0.720576 0.183303
Si Si8 0.833663 0.896106 0.915078
O O1 0.288051 0.115115 0.259726
O O2 0.975661 0.177672 0.155981
O O3 0.123686 0.125041 0.125544
O O4 0.031441 0.000000 0.158220
O O5 0.661489 0.254017 0.382215
O O6 0.781767 0.335409 0.348567
O O7 0.461265 0.373039 0.277555
O O8 0.525179 0.225496 0.250368
O O9 0.614869 0.330078 0.485751
O O10 0.696703 0.398814 0.594987
O O11 0.926417 0.388626 0.598547
O O12 0.328930 0.000000 0.344106
O O13 0.731460 0.500000 0.746534
O O14 0.606281 0.634891 0.653315
O O15 0.852016 0.665867 0.792853
O O16 0.462715 0.500000 0.559478
O O17 0.818501 0.667680 0.115654
O O18 0.776190 0.000000 0.902926
O O19 0.000000 0.872796 0.000000
#
# Coordination Sequence:
#
# PCOD8101318 Si02
#       8
#     8   8   8   8   8   8   8   8
#     4   9  20  36  57  84 115 148 186 233 278 330
#     4  11  22  37  55  85 113 142 187 243 283 334
#     4  11  20  36  57  76 106 143 193 233 285 340
#     4  10  20  36  58  79 107 148 188 227 280 340
#     4  11  23  39  57  83 117 150 187 237 296 342
#     4  10  22  38  55  80 110 145 188 245 292 340
#     4  11  20  38  61  85 113 152 194 226 279 345
#     4  10  21  37  58  88 120 149 187 234 277 323
#
# _framework density 19.907782000000001
#
# number of rings (size 3 to 8) (size 9 to 14) (size 15 to 20)
#    0.000    1.625    1.250    5.250    0.000    1.500 
#    2.250    0.000    0.000    2.625    0.000    0.875 
#    0.000    0.000    0.000    0.000    0.000    0.000 
#
# Total GULP energy -396781.005388 kJ/mol
# GULP energy per Si atom -12399.406418 kJ/mol
# Density = 1.986247 g / cm^3
# Si number density = 19.907782 Si / 1000 Ang^3
#
#
#
# Elastic Constant Matrix: (Units=GPa)
#
#
# Indices 1 2 3 4 5 6 
#
# 1 93.5338 38.9853 41.8498 0.0000 16.8285 0.0000
# 2 38.9853 102.1567 44.4807 0.0000 14.3598 0.0000
# 3 41.8498 44.4807 74.8008 0.0000 14.5744 0.0000
# 4 0.0000 0.0000 0.0000 18.0810 0.0000 3.7193
# 5 16.8285 14.3598 14.5744 0.0000 23.4815 0.0000
# 6 0.0000 0.0000 0.0000 3.7193 0.0000 35.2881
#
#
#
# Elastic Compliance Matrix: (Units=1/GPa)
#
#
# Indices 1 2 3 4 5 6 
#
# 1 0.015474 -0.002443 -0.006069 0.000000 -0.005829 0.000000
# 2 -0.002443 0.013875 -0.006338 0.000000 -0.002800 0.000000
# 3 -0.006069 -0.006338 0.021535 0.000000 -0.005141 0.000000
# 4 0.000000 0.000000 0.000000 0.056532 0.000000 -0.005958
# 5 -0.005829 -0.002800 -0.005141 0.000000 0.051667 0.000000
# 6 0.000000 0.000000 0.000000 -0.005958 0.000000 0.028966
#
#
# Mechanical properties :
#
#
# Convention : Reuss Voigt Hill
#
# Bulk Modulus (GPa) = 47.20778 57.90254 52.55516
# Shear Modulus (GPa) = 22.24104 25.04850 23.64477
#
# Velocity S-wave (km/s) = 3.34609 3.55100 3.45006
# Velocity P-wave (km/s) = 6.22038 6.77948 6.50594
#
# Compressibility (1/GPa) = 0.02118295
#
# Stress axis : x y z
#
# Youngs Moduli (GPa) = 64.62559 72.07428 46.43657
#
# Poissons Ratio (x) = 0.17611 0.28181
# Poissons Ratio (y) = 0.15791 0.29431
# Poissons Ratio (z) = 0.39219 0.45681
#
# Static dielectric constant tensor:
#      x y z
#    x 3.484280 0.000000 -0.038100 
#    y 0.000000 3.681530 0.000000 
#    z -0.038100 0.000000 3.454800 
# 
# 
# High freq. dielectric constant tensor:
#      x y z
#    x 1.773210 0.000000 -0.001230 
#    y 0.000000 1.781950 0.000000 
#    z -0.001230 0.000000 1.753100 
# 
# From -- ./inp_files/358395.got.cif
#   From: 2010.06.25/outbox.cif.g09.slc.cpg/sg12_180_cif.got.tgz:358395.got - 2010.06.28 00:19:55.
