data_PCOD8101114
_publ_section_title
;
Structure prediction by ZEFSAII (Michael W. Deem and Ramdas Pophale) SiO2 
 PCOD8101114
Probable space group: C 2/M
;
_chemical_formula_sum "Si O2"
_cell_formula_units_Z 56
_cell_length_a 22.371426
_cell_length_b 9.000696
_cell_length_c 16.283233
_cell_angle_alpha 90.000000
_cell_angle_beta 60.360893
_cell_angle_gamma 90.000000
_cell_volume 2849.764193
_symmetry_space_group_name_H-M "C 2/M"
_symmetry_group_IT_number 12
_symmetry_cell_setting 'monoclinic'
loop_
_space_group_symop_operation_xyz
x,y,z
-x,y,-z
-x,-y,-z
x,-y,z
1/2+x,1/2+y,z
1/2-x,1/2+y,-z
1/2-x,1/2-y,-z
1/2+x,1/2-y,z
loop_
_atom_site_type_symbol
_atom_site_label
_atom_site_fract_x
_atom_site_fract_y
_atom_site_fract_z
Si Si1 0.931367 0.669494 0.362348
Si Si2 0.911364 0.673630 0.742094
Si Si3 0.805223 0.172958 0.519786
Si Si4 0.407189 0.675859 0.915792
Si Si5 0.548621 0.828122 0.837486
Si Si6 0.661866 0.826404 0.892609
Si Si7 0.302845 0.327461 0.709505
O O1 0.912883 0.500000 0.396281
O O2 0.882267 0.775106 0.447621
O O3 0.919786 0.699802 0.273752
O O4 0.009514 0.707068 0.333774
O O5 0.900266 0.500000 0.765851
O O6 0.889115 0.760241 0.838924
O O7 0.866368 0.728891 0.696664
O O8 0.750000 0.250000 0.500000
O O9 0.787866 0.212162 0.625400
O O10 0.799894 0.000000 0.506519
O O11 0.406285 0.500000 0.911739
O O12 0.480930 0.731004 0.898244
O O13 0.348752 0.732063 0.017858
O O14 0.605175 0.779009 0.864386
O O15 0.526864 0.000000 0.861931
O O16 0.736171 0.784935 0.807246
O O17 0.655979 0.000000 0.916871
O O18 0.322031 0.500000 0.706345
#
# Coordination Sequence:
#
# PCOD8101114 Si02
#       7
#     8   8   8   8   8   8   8
#     4   9  19  37  60  85 114 149 189 232 279 332
#     4  10  22  41  62  83 110 148 192 232 277 336
#     4  11  23  39  61  89 119 150 185 227 279 335
#     4  11  22  35  55  84 116 147 185 236 286 334
#     4   9  18  35  58  83 114 152 191 230 278 338
#     4  10  20  36  57  79 110 153 193 231 281 336
#     4  10  23  41  59  82 113 148 189 236 279 327
#
# _framework density 19.650748
#
# number of rings (size 3 to 8) (size 9 to 14) (size 15 to 20)
#    0.000    2.000    0.000    4.286    0.000   10.286 
#    0.000    4.286    0.000    0.000    0.000    0.000 
#    0.000    0.000    0.000    0.000    0.000    0.000 
#
# Total GULP energy -347345.235895 kJ/mol
# GULP energy per Si atom -12405.186996 kJ/mol
# Density = 1.960602 g / cm^3
# Si number density = 19.650748 Si / 1000 Ang^3
#
#
#
# Elastic Constant Matrix: (Units=GPa)
#
#
# Indices 1 2 3 4 5 6 
#
# 1 110.4196 60.3469 50.3644 0.0000 2.9534 0.0000
# 2 60.3469 107.9268 65.0219 0.0000 -1.5474 0.0000
# 3 50.3644 65.0219 103.8831 0.0000 -18.2468 0.0000
# 4 0.0000 0.0000 0.0000 33.6976 0.0000 0.5433
# 5 2.9534 -1.5474 -18.2468 0.0000 20.1907 0.0000
# 6 0.0000 0.0000 0.0000 0.5433 0.0000 33.3881
#
#
#
# Elastic Compliance Matrix: (Units=1/GPa)
#
#
# Indices 1 2 3 4 5 6 
#
# 1 0.014294 -0.005106 -0.004957 0.000000 -0.006962 0.000000
# 2 -0.005106 0.018087 -0.010069 0.000000 -0.006967 0.000000
# 3 -0.004957 -0.010069 0.021781 0.000000 0.019637 0.000000
# 4 0.000000 0.000000 0.000000 0.029683 0.000000 -0.000483
# 5 -0.006962 -0.006967 0.019637 0.000000 0.067759 0.000000
# 6 0.000000 0.000000 0.000000 -0.000483 0.000000 0.029959
#
#
# Mechanical properties :
#
#
# Convention : Reuss Voigt Hill
#
# Bulk Modulus (GPa) = 71.95236 74.85507 73.40371
# Shear Modulus (GPa) = 22.07900 27.22170 24.65035
#
# Velocity S-wave (km/s) = 3.35561 3.72597 3.54563
# Velocity P-wave (km/s) = 7.19086 7.52900 7.36187
#
# Compressibility (1/GPa) = 0.01389808
#
# Stress axis : x y z
#
# Youngs Moduli (GPa) = 69.95925 55.28902 45.91148
#
# Poissons Ratio (x) = 0.28230 0.22758
# Poissons Ratio (y) = 0.35720 0.46228
# Poissons Ratio (z) = 0.34679 0.55671
#
# Static dielectric constant tensor:
#      x y z
#    x 3.556420 0.000000 -0.004700 
#    y 0.000000 3.502070 0.000000 
#    z -0.004700 0.000000 3.637420 
# 
# 
# High freq. dielectric constant tensor:
#      x y z
#    x 1.767250 0.000000 -0.000320 
#    y 0.000000 1.760950 0.000000 
#    z -0.000320 0.000000 1.772000 
# 
# From -- ./inp_files/238305.got.cif
#   From: 2010.06.25/outbox.cif.g09.slc.cpg/sg12_120_cif.got.tgz:238305.got - 2010.06.28 00:19:55.
