data_PCOD8101684
_publ_section_title
;
Structure prediction by ZEFSAII (Michael W. Deem and Ramdas Pophale) SiO2 
 PCOD8101684
Probable space group: C 2/M
;
_chemical_formula_sum "Si O2"
_cell_formula_units_Z 60
_cell_length_a 19.457106
_cell_length_b 10.245246
_cell_length_c 20.624256
_cell_angle_alpha 90.000000
_cell_angle_beta 128.535800
_cell_angle_gamma 90.000000
_cell_volume 3215.935347
_symmetry_space_group_name_H-M "C 2/M"
_symmetry_group_IT_number 12
_symmetry_cell_setting 'monoclinic'
loop_
_space_group_symop_operation_xyz
x,y,z
-x,y,-z
-x,-y,-z
x,-y,z
1/2+x,1/2+y,z
1/2-x,1/2+y,-z
1/2-x,1/2-y,-z
1/2+x,1/2-y,z
loop_
_atom_site_type_symbol
_atom_site_label
_atom_site_fract_x
_atom_site_fract_y
_atom_site_fract_z
Si Si1 0.313340 0.850584 0.370547
Si Si2 0.000000 0.220338 0.500000
Si Si3 0.201078 0.852760 0.428676
Si Si4 0.897686 0.353650 0.944244
Si Si5 0.394298 0.145086 0.217123
Si Si6 0.494837 0.356179 0.643022
Si Si7 0.223050 0.851612 0.189506
Si Si8 0.328673 0.149723 0.044410
O O1 0.408686 0.798278 0.446460
O O2 0.235717 0.827393 0.376688
O O3 0.275283 0.791370 0.281825
O O4 0.331844 0.000000 0.368288
O O5 0.993486 0.140765 0.563560
O O6 0.250000 0.750000 0.500000
O O7 0.098098 0.827863 0.377299
O O8 0.225000 0.000000 0.464826
O O9 0.866609 0.500000 0.905694
O O10 0.855653 0.246529 0.872213
O O11 0.877684 0.325269 0.006758
O O12 0.000000 0.338424 0.000000
O O13 0.441468 0.246975 0.291574
O O14 0.290188 0.147613 0.169249
O O15 0.399511 0.178861 0.143750
O O16 0.432852 0.000000 0.254598
O O17 0.527349 0.500000 0.683528
O O18 0.187694 0.000000 0.181600
O O19 0.294566 0.000000 0.030424
O O20 0.250000 0.250000 0.000000
#
# Coordination Sequence:
#
# PCOD8101684 Si02
#       8
#     8   4   8   8   8   8   8   8
#     4  10  21  36  59  86 115 152 196 240 283 337
#     4  12  20  36  60  84 115 152 197 240 285 338
#     4  10  21  39  57  79 111 148 188 233 283 335
#     4  10  22  39  59  86 119 153 187 230 287 350
#     4  10  21  37  58  85 115 147 188 236 280 336
#     4  11  24  38  56  85 118 148 186 238 290 339
#     4  10  20  37  58  87 117 148 192 240 284 333
#     4  10  20  36  59  84 111 145 186 229 275 334
#
# _framework density 18.657091000000001
#
# number of rings (size 3 to 8) (size 9 to 14) (size 15 to 20)
#    0.000    1.733    4.000    0.400    0.000    3.467 
#    0.000    0.667    0.000    0.000    0.000    0.000 
#    0.000    0.000    0.000    0.000    0.000    0.000 
#
# Total GULP energy -371771.847950 kJ/mol
# GULP energy per Si atom -12392.394932 kJ/mol
# Density = 1.861463 g / cm^3
# Si number density = 18.657091 Si / 1000 Ang^3
#
#
#
# Elastic Constant Matrix: (Units=GPa)
#
#
# Indices 1 2 3 4 5 6 
#
# 1 104.1037 37.4908 30.9814 0.0000 -0.0774 0.0000
# 2 37.4908 105.5663 63.9228 0.0000 0.5542 0.0000
# 3 30.9814 63.9228 104.2507 0.0000 -8.4768 0.0000
# 4 0.0000 0.0000 0.0000 33.1113 0.0000 1.3148
# 5 -0.0774 0.5542 -8.4768 0.0000 16.6509 0.0000
# 6 0.0000 0.0000 0.0000 1.3148 0.0000 23.5166
#
#
#
# Elastic Compliance Matrix: (Units=1/GPa)
#
#
# Indices 1 2 3 4 5 6 
#
# 1 0.011149 -0.003054 -0.001490 0.000000 -0.000605 0.000000
# 2 -0.003054 0.016389 -0.009584 0.000000 -0.005439 0.000000
# 3 -0.001490 -0.009584 0.016625 0.000000 0.008776 0.000000
# 4 0.000000 0.000000 0.000000 0.030268 0.000000 -0.001692
# 5 -0.000605 -0.005439 0.008776 0.000000 0.064703 0.000000
# 6 0.000000 0.000000 0.000000 -0.001692 0.000000 0.042618
#
#
# Mechanical properties :
#
#
# Convention : Reuss Voigt Hill
#
# Bulk Modulus (GPa) = 62.86350 64.30117 63.58234
# Shear Modulus (GPa) = 23.22242 26.75748 24.98995
#
# Velocity S-wave (km/s) = 3.53185 3.79116 3.66380
# Velocity P-wave (km/s) = 7.09925 7.32826 7.21466
#
# Compressibility (1/GPa) = 0.01590748
#
# Stress axis : x y z
#
# Youngs Moduli (GPa) = 89.69774 61.01610 60.15037
#
# Poissons Ratio (x) = 0.18635 0.08961
# Poissons Ratio (y) = 0.27394 0.57647
# Poissons Ratio (z) = 0.13362 0.58477
#
# Static dielectric constant tensor:
#      x y z
#    x 3.495180 0.000000 -0.160210 
#    y 0.000000 3.525570 0.000000 
#    z -0.160210 0.000000 3.450910 
# 
# 
# High freq. dielectric constant tensor:
#      x y z
#    x 1.730310 0.000000 -0.015890 
#    y 0.000000 1.726600 0.000000 
#    z -0.015890 0.000000 1.718100 
# 
# From -- ./inp_files/320530.got.cif
#   From: 2010.06.25/outbox.cif.g09.slc.cpg/sg12_161_cif.got.tgz:320530.got - 2010.06.28 00:19:55.
