data_PCOD8101593
_publ_section_title
;
Structure prediction by ZEFSAII (Michael W. Deem and Ramdas Pophale) SiO2 
 PCOD8101593
Probable space group: C 2/M
;
_chemical_formula_sum "Si O2"
_cell_formula_units_Z 64
_cell_length_a 16.083565
_cell_length_b 8.939154
_cell_length_c 32.494940
_cell_angle_alpha 90.000000
_cell_angle_beta 42.160846
_cell_angle_gamma 90.000000
_cell_volume 3135.852361
_symmetry_space_group_name_H-M "C 2/M"
_symmetry_group_IT_number 12
_symmetry_cell_setting 'monoclinic'
loop_
_space_group_symop_operation_xyz
x,y,z
-x,y,-z
-x,-y,-z
x,-y,z
1/2+x,1/2+y,z
1/2-x,1/2+y,-z
1/2-x,1/2-y,-z
1/2+x,1/2-y,z
loop_
_atom_site_type_symbol
_atom_site_label
_atom_site_fract_x
_atom_site_fract_y
_atom_site_fract_z
Si Si1 0.730130 0.826828 0.626622
Si Si2 0.371720 0.324347 0.862520
Si Si3 0.545427 0.823511 0.860882
Si Si4 0.342491 0.674689 0.497257
Si Si5 0.493381 0.668160 0.734145
Si Si6 0.605741 0.822300 0.930024
Si Si7 0.693057 0.668567 0.266784
Si Si8 0.591429 0.825083 0.379683
O O1 0.795636 0.789316 0.559877
O O2 0.585833 0.784515 0.678308
O O3 0.786041 0.720890 0.640986
O O4 0.746813 0.000000 0.632053
O O5 0.362232 0.500000 0.874186
O O6 0.423200 0.248825 0.885325
O O7 0.467769 0.287416 0.790609
O O8 0.236815 0.259628 0.899223
O O9 0.569691 0.759725 0.897967
O O10 0.664089 0.782115 0.789070
O O11 0.524729 0.000000 0.870296
O O12 0.345746 0.500000 0.486916
O O13 0.250000 0.750000 0.500000
O O14 0.478421 0.739600 0.442154
O O15 0.548206 0.500000 0.711107
O O16 0.362735 0.675579 0.758502
O O17 0.615099 0.000000 0.923900
O O18 0.500000 0.768224 0.000000
O O19 0.683121 0.500000 0.288285
O O20 0.613094 0.778546 0.324672
O O21 0.564802 0.000000 0.391742
#
# Coordination Sequence:
#
# PCOD8101593 Si02
#       8
#     8   8   8   8   8   8   8   8
#     4  11  24  40  58  83 114 149 191 240 293 352
#     4  10  20  36  58  87 120 156 200 248 298 353
#     4  10  20  36  59  88 119 157 203 247 298 359
#     4  11  24  42  62  84 113 149 191 240 294 355
#     4  10  20  36  59  85 115 152 194 241 294 356
#     4   9  18  36  61  86 118 161 204 243 291 358
#     4  10  20  37  60  84 116 155 195 243 297 357
#     4  12  25  39  58  85 115 150 194 242 294 355
#
# _framework density 20.409125
#
# number of rings (size 3 to 8) (size 9 to 14) (size 15 to 20)
#    0.000    1.625    1.250    3.750    0.000    9.500 
#    0.000    0.625    0.000    0.750    0.000    0.000 
#    0.000    0.000    0.000    0.000    0.000    0.000 
#
# Total GULP energy -396876.868829 kJ/mol
# GULP energy per Si atom -12402.402151 kJ/mol
# Density = 2.036267 g / cm^3
# Si number density = 20.409125 Si / 1000 Ang^3
#
#
#
# Elastic Constant Matrix: (Units=GPa)
#
#
# Indices 1 2 3 4 5 6 
#
# 1 136.7824 33.3905 53.2766 0.0016 1.6897 0.0034
# 2 33.3905 56.5864 44.0812 0.0036 5.3436 0.0056
# 3 53.2766 44.0812 114.3209 0.0000 -2.0755 0.0003
# 4 0.0016 0.0036 0.0000 19.2083 0.0000 0.2099
# 5 1.6897 5.3436 -2.0755 0.0000 28.5633 0.0006
# 6 0.0034 0.0056 0.0003 0.2099 0.0006 33.8954
#
#
#
# Elastic Compliance Matrix: (Units=1/GPa)
#
#
# Indices 1 2 3 4 5 6 
#
# 1 0.009279 -0.002977 -0.003181 0.000000 -0.000223 0.000000
# 2 -0.002977 0.027088 -0.009159 -0.000005 -0.005557 -0.000004
# 3 -0.003181 -0.009159 0.013814 0.000002 0.002905 0.000002
# 4 0.000000 -0.000005 0.000002 0.052064 0.000001 -0.000322
# 5 -0.000223 -0.005557 0.002905 0.000001 0.036274 0.000000
# 6 0.000000 -0.000004 0.000002 -0.000322 0.000000 0.029505
#
#
# Mechanical properties :
#
#
# Convention : Reuss Voigt Hill
#
# Bulk Modulus (GPa) = 51.15306 63.24292 57.19799
# Shear Modulus (GPa) = 24.36985 28.12950 26.24968
#
# Velocity S-wave (km/s) = 3.45928 3.71655 3.59022
# Velocity P-wave (km/s) = 6.40888 7.03362 6.72850
#
# Compressibility (1/GPa) = 0.01954917
#
# Stress axis : x y z
#
# Youngs Moduli (GPa) = 107.76884 36.91684 72.39150
#
# Poissons Ratio (x) = 0.10989 0.23025
# Poissons Ratio (y) = 0.32079 0.66300
# Poissons Ratio (z) = 0.34277 0.33811
#
# Static dielectric constant tensor:
#      x y z
#    x 3.482930 0.000020 0.276880 
#    y 0.000020 3.437140 -0.000020 
#    z 0.276880 -0.000020 3.322030 
# 
# 
# High freq. dielectric constant tensor:
#      x y z
#    x 1.811670 0.000000 -0.000010 
#    y 0.000000 1.773830 0.000000 
#    z -0.000010 0.000000 1.799910 
# 
# From -- ./inp_files/375368.got.cif
#   From: 2010.06.25/outbox.cif.g09.slc.cpg/sg12_188_cif.got.tgz:375368.got - 2010.06.28 00:19:55.
