data_PCOD8101420
_publ_section_title
;
Structure prediction by ZEFSAII (Michael W. Deem and Ramdas Pophale) SiO2 
 PCOD8101420
Probable space group: C 2/M
;
_chemical_formula_sum "Si O2"
_cell_formula_units_Z 56
_cell_length_a 32.823502
_cell_length_b 8.561124
_cell_length_c 11.287265
_cell_angle_alpha 90.000000
_cell_angle_beta 60.283140
_cell_angle_gamma 90.000000
_cell_volume 2754.654190
_symmetry_space_group_name_H-M "C 2/M"
_symmetry_group_IT_number 12
_symmetry_cell_setting 'monoclinic'
loop_
_space_group_symop_operation_xyz
x,y,z
-x,y,-z
-x,-y,-z
x,-y,z
1/2+x,1/2+y,z
1/2-x,1/2+y,-z
1/2-x,1/2-y,-z
1/2+x,1/2-y,z
loop_
_atom_site_type_symbol
_atom_site_label
_atom_site_fract_x
_atom_site_fract_y
_atom_site_fract_z
Si Si1 0.988957 0.317565 0.383449
Si Si2 0.212682 0.816798 0.812282
Si Si3 0.101307 0.818508 0.593376
Si Si4 0.809717 0.178931 0.690786
Si Si5 0.925789 0.817053 0.867945
Si Si6 0.380945 0.684167 0.172638
Si Si7 0.335104 0.819268 0.898670
O O1 0.998814 0.500000 0.357216
O O2 0.021636 0.226745 0.243303
O O3 0.000000 0.258659 0.500000
O O4 0.935397 0.279068 0.430908
O O5 0.259348 0.723807 0.709139
O O6 0.170898 0.754734 0.787608
O O7 0.221553 0.000000 0.785009
O O8 0.198210 0.782672 0.968750
O O9 0.152617 0.792570 0.466035
O O10 0.102162 0.748295 0.725712
O O11 0.086572 0.000000 0.612305
O O12 0.820563 0.290088 0.785182
O O13 0.810101 0.000000 0.732866
O O14 0.889556 0.726915 0.835465
O O15 0.916658 0.000000 0.864572
O O16 0.917691 0.767946 0.016816
O O17 0.377689 0.500000 0.189813
O O18 0.328079 0.000000 0.939530
#
# Coordination Sequence:
#
# PCOD8101420 Si02
#       7
#     8   8   8   8   8   8   8
#     4  11  24  40  58  84 117 148 182 227 279 331
#     4  10  20  36  58  82 112 149 188 230 279 334
#     4  10  22  40  60  81 110 148 189 230 274 332
#     4  11  22  35  54  82 114 149 190 233 279 330
#     4  10  20  37  62  86 112 147 185 227 278 334
#     4   8  18  38  60  83 110 144 186 229 275 329
#     4  11  21  35  56  83 116 148 185 233 282 332
#
# _framework density 20.329232000000001
#
# number of rings (size 3 to 8) (size 9 to 14) (size 15 to 20)
#    0.000    1.857    0.000    5.143    0.000    5.714 
#    0.000    7.143    0.000    0.000    0.000    0.000 
#    0.000    0.000    0.000    0.000    0.000    0.000 
#
# Total GULP energy -347317.232189 kJ/mol
# GULP energy per Si atom -12404.186864 kJ/mol
# Density = 2.028296 g / cm^3
# Si number density = 20.329232 Si / 1000 Ang^3
#
#
#
# Elastic Constant Matrix: (Units=GPa)
#
#
# Indices 1 2 3 4 5 6 
#
# 1 104.2350 25.9039 66.4169 0.0000 7.0643 0.0000
# 2 25.9039 56.1540 26.1839 0.0000 -1.1132 0.0000
# 3 66.4169 26.1839 111.4166 0.0000 -0.5786 0.0000
# 4 0.0000 0.0000 0.0000 23.7065 0.0000 -8.7617
# 5 7.0643 -1.1132 -0.5786 0.0000 40.6585 0.0000
# 6 0.0000 0.0000 0.0000 -8.7617 0.0000 30.3208
#
#
#
# Elastic Compliance Matrix: (Units=1/GPa)
#
#
# Indices 1 2 3 4 5 6 
#
# 1 0.016367 -0.003430 -0.008967 0.000000 -0.003065 0.000000
# 2 -0.003430 0.020728 -0.002821 0.000000 0.001123 0.000000
# 3 -0.008967 -0.002821 0.014992 0.000000 0.001694 0.000000
# 4 0.000000 0.000000 0.000000 0.047226 0.000000 0.013647
# 5 -0.003065 0.001123 0.001694 0.000000 0.025183 0.000000
# 6 0.000000 0.000000 0.000000 0.013647 0.000000 0.036924
#
#
# Mechanical properties :
#
#
# Convention : Reuss Voigt Hill
#
# Bulk Modulus (GPa) = 46.18364 56.53500 51.35932
# Shear Modulus (GPa) = 25.11647 29.15721 27.13684
#
# Velocity S-wave (km/s) = 3.51876 3.79126 3.65755
# Velocity P-wave (km/s) = 6.26706 6.85820 6.56928
#
# Compressibility (1/GPa) = 0.02165269
#
# Stress axis : x y z
#
# Youngs Moduli (GPa) = 61.09780 48.24393 66.70181
#
# Poissons Ratio (x) = 0.16548 0.59808
# Poissons Ratio (y) = 0.20957 0.18815
# Poissons Ratio (z) = 0.54784 0.13608
#
# Static dielectric constant tensor:
#      x y z
#    x 3.741920 0.000000 0.034550 
#    y 0.000000 3.515980 0.000000 
#    z 0.034550 0.000000 3.736800 
# 
# 
# High freq. dielectric constant tensor:
#      x y z
#    x 1.795190 0.000000 -0.005510 
#    y 0.000000 1.783530 0.000000 
#    z -0.005510 0.000000 1.795040 
# 
# From -- ./inp_files/181129.got.cif
#   From: 2010.06.25/outbox.cif.g09.slc.cpg/sg12_91_cif.got.tgz:181129.got - 2010.06.28 00:19:55.
