data_PCOD8101784
_publ_section_title
;
Structure prediction by ZEFSAII (Michael W. Deem and Ramdas Pophale) SiO2 
 PCOD8101784
Probable space group: C 2/M
;
_chemical_formula_sum "Si O2"
_cell_formula_units_Z 64
_cell_length_a 17.434129
_cell_length_b 14.618461
_cell_length_c 16.930570
_cell_angle_alpha 90.000000
_cell_angle_beta 46.341339
_cell_angle_gamma 90.000000
_cell_volume 3121.700775
_symmetry_space_group_name_H-M "C 2/M"
_symmetry_group_IT_number 12
_symmetry_cell_setting 'monoclinic'
loop_
_space_group_symop_operation_xyz
x,y,z
-x,y,-z
-x,-y,-z
x,-y,z
1/2+x,1/2+y,z
1/2-x,1/2+y,-z
1/2-x,1/2-y,-z
1/2+x,1/2-y,z
loop_
_atom_site_type_symbol
_atom_site_label
_atom_site_fract_x
_atom_site_fract_y
_atom_site_fract_z
Si Si1 0.938528 0.105619 0.336547
Si Si2 0.802020 0.839950 0.997324
Si Si3 0.024706 0.771595 0.834893
Si Si4 0.160874 0.396940 0.242880
Si Si5 0.526331 0.897067 0.732371
Si Si6 0.234319 0.105081 0.413332
Si Si7 0.676715 0.599239 0.186181
Si Si8 0.761884 0.267055 0.245979
O O1 0.921346 0.168602 0.272640
O O2 0.852755 0.136149 0.461983
O O3 0.054155 0.122943 0.292050
O O4 0.923313 0.000000 0.322630
O O5 0.808862 0.908002 0.918246
O O6 0.921251 0.819901 0.944515
O O7 0.750000 0.750000 0.000000
O O8 0.737290 0.885957 0.113160
O O9 0.988593 0.672755 0.826778
O O10 0.114192 0.758575 0.837714
O O11 0.172873 0.500000 0.267661
O O12 0.192009 0.325644 0.289549
O O13 0.039908 0.378554 0.300767
O O14 0.651101 0.883608 0.626808
O O15 0.502787 0.000000 0.779805
O O16 0.222761 0.171230 0.346330
O O17 0.216104 0.000000 0.399019
O O18 0.706527 0.500000 0.200631
O O19 0.749642 0.676846 0.173218
#
# Coordination Sequence:
#
# PCOD8101784 Si02
#       8
#     8   8   8   8   8   8   8   8
#     4   9  19  37  61  85 110 148 195 236 277 332
#     4  11  19  38  61  80 107 146 197 231 273 332
#     4  10  21  36  59  85 113 146 187 237 285 330
#     4  11  22  38  58  82 114 154 191 230 281 336
#     4   9  18  34  56  79 106 146 192 229 266 328
#     4   9  19  37  61  86 112 145 187 238 290 332
#     4  10  20  36  59  86 116 147 188 238 282 333
#     4  11  22  35  53  84 122 149 177 231 283 343
#
# _framework density 20.501645
#
# number of rings (size 3 to 8) (size 9 to 14) (size 15 to 20)
#    0.000    2.000    2.500    1.500    0.000    4.500 
#    0.000    3.750    0.000    1.500    0.000    6.125 
#    0.000    0.000    0.000    0.000    0.000    0.000 
#
# Total GULP energy -396763.769528 kJ/mol
# GULP energy per Si atom -12398.867798 kJ/mol
# Density = 2.045498 g / cm^3
# Si number density = 20.501645 Si / 1000 Ang^3
#
#
#
# Elastic Constant Matrix: (Units=GPa)
#
#
# Indices 1 2 3 4 5 6 
#
# 1 115.9024 57.9729 31.8866 0.0000 -17.9113 0.0000
# 2 57.9729 112.8994 16.3502 0.0000 -4.7495 0.0000
# 3 31.8866 16.3502 88.4819 0.0000 -4.8360 0.0000
# 4 0.0000 0.0000 0.0000 17.9968 0.0000 0.2540
# 5 -17.9113 -4.7495 -4.8360 0.0000 11.5434 0.0000
# 6 0.0000 0.0000 0.0000 0.2540 0.0000 34.4952
#
#
#
# Elastic Compliance Matrix: (Units=1/GPa)
#
#
# Indices 1 2 3 4 5 6 
#
# 1 0.016321 -0.006999 -0.003440 0.000000 0.021004 0.000000
# 2 -0.006999 0.012213 -0.000055 0.000000 -0.005858 0.000000
# 3 -0.003440 -0.000055 0.012546 0.000000 -0.000105 0.000000
# 4 0.000000 0.000000 0.000000 0.055571 0.000000 -0.000409
# 5 0.021004 -0.005858 -0.000105 0.000000 0.116766 0.000000
# 6 0.000000 0.000000 0.000000 -0.000409 0.000000 0.028993
#
#
# Mechanical properties :
#
#
# Convention : Reuss Voigt Hill
#
# Bulk Modulus (GPa) = 49.77157 58.85591 54.31374
# Shear Modulus (GPa) = 18.51202 26.87868 22.69535
#
# Velocity S-wave (km/s) = 3.00818 3.62477 3.33077
# Velocity P-wave (km/s) = 6.03283 6.80359 6.42977
#
# Compressibility (1/GPa) = 0.02009179
#
# Stress axis : x y z
#
# Youngs Moduli (GPa) = 61.27055 81.88123 79.70691
#
# Poissons Ratio (x) = 0.57308 0.27423
# Poissons Ratio (y) = 0.42883 0.00436
# Poissons Ratio (z) = 0.21080 0.00448
#
# Static dielectric constant tensor:
#      x y z
#    x 3.696420 0.000000 -0.232080 
#    y 0.000000 4.013720 0.000000 
#    z -0.232080 0.000000 3.619230 
# 
# 
# High freq. dielectric constant tensor:
#      x y z
#    x 1.793220 0.000000 -0.022910 
#    y 0.000000 1.818990 0.000000 
#    z -0.022910 0.000000 1.776630 
# 
# From -- ./inp_files/270629.got.cif
#   From: 2010.06.25/outbox.cif.g09.slc.cpg/sg12_136_cif.got.tgz:270629.got - 2010.06.28 00:19:55.
