data_PCOD8101456
_publ_section_title
;
Structure prediction by ZEFSAII (Michael W. Deem and Ramdas Pophale) SiO2 
 PCOD8101456
Probable space group: C 2/M
;
_chemical_formula_sum "Si O2"
_cell_formula_units_Z 64
_cell_length_a 19.722128
_cell_length_b 8.861421
_cell_length_c 24.321219
_cell_angle_alpha 90.000000
_cell_angle_beta 129.082151
_cell_angle_gamma 90.000000
_cell_volume 3299.438888
_symmetry_space_group_name_H-M "C 2/M"
_symmetry_group_IT_number 12
_symmetry_cell_setting 'monoclinic'
loop_
_space_group_symop_operation_xyz
x,y,z
-x,y,-z
-x,-y,-z
x,-y,z
1/2+x,1/2+y,z
1/2-x,1/2+y,-z
1/2-x,1/2-y,-z
1/2+x,1/2-y,z
loop_
_atom_site_type_symbol
_atom_site_label
_atom_site_fract_x
_atom_site_fract_y
_atom_site_fract_z
Si Si1 0.582276 0.171783 0.762054
Si Si2 0.991832 0.678995 0.163563
Si Si3 0.980982 0.178264 0.378702
Si Si4 0.678706 0.820510 0.220157
Si Si5 0.169264 0.320636 0.990306
Si Si6 0.670354 0.679149 0.621831
Si Si7 0.215978 0.827622 0.123795
Si Si8 0.175417 0.179774 0.499991
O O1 0.524952 0.236519 0.783008
O O2 0.565824 0.273944 0.701055
O O3 0.680997 0.182563 0.833497
O O4 0.557397 0.000000 0.734148
O O5 0.988390 0.500000 0.162474
O O6 0.085978 0.739182 0.194138
O O7 0.919106 0.738128 0.083888
O O8 0.922184 0.236972 0.400133
O O9 0.080125 0.239213 0.431914
O O10 0.983154 0.000000 0.382042
O O11 0.751468 0.761034 0.299880
O O12 0.693475 0.746848 0.169524
O O13 0.681851 0.000000 0.215770
O O14 0.177624 0.500000 0.993034
O O15 0.165850 0.263886 0.051036
O O16 0.250000 0.250000 0.000000
O O17 0.670172 0.500000 0.620476
O O18 0.685895 0.738799 0.567973
O O19 0.183942 0.000000 0.106599
O O20 0.250000 0.250000 0.500000
O O21 0.182777 0.000000 0.500120
#
# Coordination Sequence:
#
# PCOD8101456 Si02
#       8
#     8   8   8   8   8   8   8   8
#     4  10  20  36  58  83 113 149 189 235 283 338
#     4   9  20  37  57  83 112 146 190 236 284 339
#     4  10  20  36  58  85 112 145 192 238 277 327
#     4  10  20  37  61  85 109 146 194 236 280 338
#     4  11  21  37  59  84 115 151 194 240 288 342
#     4   9  18  35  60  83 107 146 192 229 272 332
#     4  11  22  38  58  84 117 150 189 237 289 341
#     4  10  22  38  57  85 119 150 184 232 282 334
#
# _framework density 19.397238000000002
#
# number of rings (size 3 to 8) (size 9 to 14) (size 15 to 20)
#    0.000    2.000    2.500    1.125    1.750    3.000 
#    0.000    5.625    0.000    1.500    0.000    0.000 
#    0.000    0.000    0.000    0.000    0.000    0.000 
#
# Total GULP energy -396792.615758 kJ/mol
# GULP energy per Si atom -12399.769242 kJ/mol
# Density = 1.935309 g / cm^3
# Si number density = 19.397238 Si / 1000 Ang^3
#
#
#
# Elastic Constant Matrix: (Units=GPa)
#
#
# Indices 1 2 3 4 5 6 
#
# 1 122.5289 35.0148 72.3863 0.0000 10.5541 0.0000
# 2 35.0148 32.0653 23.4967 0.0000 -0.4184 0.0000
# 3 72.3863 23.4967 122.4235 0.0000 -10.2093 0.0000
# 4 0.0000 0.0000 0.0000 22.8968 0.0000 -2.4185
# 5 10.5541 -0.4184 -10.2093 0.0000 34.0158 0.0000
# 6 0.0000 0.0000 0.0000 -2.4185 0.0000 28.2347
#
#
#
# Elastic Compliance Matrix: (Units=1/GPa)
#
#
# Indices 1 2 3 4 5 6 
#
# 1 0.017743 -0.013138 -0.008659 0.000000 -0.008266 0.000000
# 2 -0.013138 0.046113 -0.000713 0.000000 0.004430 0.000000
# 3 -0.008659 -0.000713 0.013999 0.000000 0.006879 0.000000
# 4 0.000000 0.000000 0.000000 0.044073 0.000000 0.003775
# 5 -0.008266 0.004430 0.006879 0.000000 0.034082 0.000000
# 6 0.000000 0.000000 0.000000 0.003775 0.000000 0.035741
#
#
# Mechanical properties :
#
#
# Convention : Reuss Voigt Hill
#
# Bulk Modulus (GPa) = 30.45490 59.86813 45.16151
# Shear Modulus (GPa) = 20.18449 26.77080 23.47764
#
# Velocity S-wave (km/s) = 3.22931 3.71905 3.48280
# Velocity P-wave (km/s) = 5.44420 7.02659 6.28539
#
# Compressibility (1/GPa) = 0.03283544
#
# Stress axis : x y z
#
# Youngs Moduli (GPa) = 56.35993 21.68580 71.43568
#
# Poissons Ratio (x) = 0.28491 0.61855
# Poissons Ratio (y) = 0.74046 0.05092
# Poissons Ratio (z) = 0.48801 0.01546
#
# Static dielectric constant tensor:
#      x y z
#    x 3.775920 0.000000 0.144820 
#    y 0.000000 3.281000 0.000000 
#    z 0.144820 0.000000 3.770030 
# 
# 
# High freq. dielectric constant tensor:
#      x y z
#    x 1.767520 0.000000 -0.004320 
#    y 0.000000 1.721950 0.000000 
#    z -0.004320 0.000000 1.767590 
# 
# From -- ./inp_files/346160.got.cif
#   From: 2010.06.25/outbox.cif.g09.slc.cpg/sg12_174_cif.got.tgz:346160.got - 2010.06.28 00:19:55.
