data_PCOD8101506
_publ_section_title
;
Structure prediction by ZEFSAII (Michael W. Deem and Ramdas Pophale) SiO2 
 PCOD8101506
Probable space group: C 2/M
;
_chemical_formula_sum "Si O2"
_cell_formula_units_Z 48
_cell_length_a 24.133834
_cell_length_b 8.512885
_cell_length_c 11.851386
_cell_angle_alpha 90.000000
_cell_angle_beta 78.626227
_cell_angle_gamma 90.000000
_cell_volume 2387.033426
_symmetry_space_group_name_H-M "C 2/M"
_symmetry_group_IT_number 12
_symmetry_cell_setting 'monoclinic'
loop_
_space_group_symop_operation_xyz
x,y,z
-x,y,-z
-x,-y,-z
x,-y,z
1/2+x,1/2+y,z
1/2-x,1/2+y,-z
1/2-x,1/2-y,-z
1/2+x,1/2-y,z
loop_
_atom_site_type_symbol
_atom_site_label
_atom_site_fract_x
_atom_site_fract_y
_atom_site_fract_z
Si Si1 0.126608 0.814543 0.937101
Si Si2 0.454252 0.683618 0.223903
Si Si3 0.420167 0.314149 0.802728
Si Si4 0.353378 0.318147 0.421426
Si Si5 0.334086 0.818647 0.668412
Si Si6 0.283482 0.182046 0.250382
O O1 0.075972 0.751086 0.876944
O O2 0.184622 0.729831 0.877643
O O3 0.134316 0.000000 0.917233
O O4 0.113124 0.769130 0.070326
O O5 0.462415 0.500000 0.203458
O O6 0.516378 0.756857 0.215196
O O7 0.415580 0.721175 0.348024
O O8 0.420680 0.500000 0.782355
O O9 0.390872 0.231223 0.709301
O O10 0.348324 0.500000 0.458453
O O11 0.342514 0.210184 0.532784
O O12 0.306545 0.283362 0.345707
O O13 0.282567 0.717225 0.738916
O O14 0.320975 0.000000 0.694165
O O15 0.292934 0.000000 0.272549
#
# Coordination Sequence:
#
# PCOD8101506 Si02
#       6
#     8   8   8   8   8   8
#     4   9  18  35  60  87 113 144 184 229 274 323
#     4   8  16  33  60  88 111 141 183 228 270 322
#     4  10  20  36  58  84 114 149 188 226 269 324
#     4  10  20  38  62  86 111 142 184 229 275 326
#     4  12  25  39  54  78 114 151 187 228 279 332
#     4  11  22  38  60  84 110 143 185 230 278 330
#
# _framework density 20.108640999999999
#
# number of rings (size 3 to 8) (size 9 to 14) (size 15 to 20)
#    0.000    2.000    0.000    5.500    0.000    4.000 
#    0.000    7.500    0.000    5.000    0.000    0.000 
#    0.000    0.000    0.000    0.000    0.000    0.000 
#
# Total GULP energy -297676.119271 kJ/mol
# GULP energy per Si atom -12403.171636 kJ/mol
# Density = 2.006287 g / cm^3
# Si number density = 20.108641 Si / 1000 Ang^3
#
#
#
# Elastic Constant Matrix: (Units=GPa)
#
#
# Indices 1 2 3 4 5 6 
#
# 1 79.6131 17.7413 22.0721 0.0000 -7.7495 0.0000
# 2 17.7413 55.3244 22.4735 0.0000 -9.3950 0.0000
# 3 22.0721 22.4735 49.5554 0.0000 -13.2449 0.0000
# 4 0.0000 0.0000 0.0000 28.8163 0.0000 -1.8808
# 5 -7.7495 -9.3950 -13.2449 0.0000 20.5656 0.0000
# 6 0.0000 0.0000 0.0000 -1.8808 0.0000 23.1038
#
#
#
# Elastic Compliance Matrix: (Units=1/GPa)
#
#
# Indices 1 2 3 4 5 6 
#
# 1 0.014628 -0.002423 -0.005121 0.000000 0.001108 0.000000
# 2 -0.002423 0.022894 -0.008156 0.000000 0.004293 0.000000
# 3 -0.005121 -0.008156 0.029772 0.000000 0.013519 0.000000
# 4 0.000000 0.000000 0.000000 0.034888 0.000000 0.002840
# 5 0.001108 0.004293 0.013519 0.000000 0.059710 0.000000
# 6 0.000000 0.000000 0.000000 0.002840 0.000000 0.043514
#
#
# Mechanical properties :
#
#
# Convention : Reuss Voigt Hill
#
# Bulk Modulus (GPa) = 27.85861 34.34077 31.09969
# Shear Modulus (GPa) = 20.09885 22.64422 21.37154
#
# Velocity S-wave (km/s) = 3.16494 3.35937 3.26360
# Velocity P-wave (km/s) = 5.21919 5.67114 5.44985
#
# Compressibility (1/GPa) = 0.03589555
#
# Stress axis : x y z
#
# Youngs Moduli (GPa) = 68.36152 43.67906 33.58844
#
# Poissons Ratio (x) = 0.10582 0.17200
# Poissons Ratio (y) = 0.16562 0.27395
# Poissons Ratio (z) = 0.35006 0.35625
#
# Static dielectric constant tensor:
#      x y z
#    x 3.820620 0.000000 -0.143450 
#    y 0.000000 3.385520 0.000000 
#    z -0.143450 0.000000 3.608310 
# 
# 
# High freq. dielectric constant tensor:
#      x y z
#    x 1.788380 0.000000 -0.010020 
#    y 0.000000 1.764550 0.000000 
#    z -0.010020 0.000000 1.786200 
# 
# From -- ./inp_files/172200.got.cif
#   From: 2010.06.25/outbox.cif.g09.slc.cpg/sg12_87_cif.got.tgz:172200.got - 2010.06.28 00:19:55.
