data_PCOD8101278
_publ_section_title
;
Structure prediction by ZEFSAII (Michael W. Deem and Ramdas Pophale) SiO2 
 PCOD8101278
Probable space group: C 2/M
;
_chemical_formula_sum "Si O2"
_cell_formula_units_Z 64
_cell_length_a 8.983056
_cell_length_b 30.700641
_cell_length_c 11.907233
_cell_angle_alpha 90.000000
_cell_angle_beta 90.000025
_cell_angle_gamma 90.000000
_cell_volume 3283.843127
_symmetry_space_group_name_H-M "C 2/M"
_symmetry_group_IT_number 12
_symmetry_cell_setting 'monoclinic'
loop_
_space_group_symop_operation_xyz
x,y,z
-x,y,-z
-x,-y,-z
x,-y,z
1/2+x,1/2+y,z
1/2-x,1/2+y,-z
1/2-x,1/2-y,-z
1/2+x,1/2-y,z
loop_
_atom_site_type_symbol
_atom_site_label
_atom_site_fract_x
_atom_site_fract_y
_atom_site_fract_z
Si Si1 0.670621 0.450823 0.775664
Si Si2 0.172944 0.379465 0.368818
Si Si3 0.176447 0.325749 0.000000
Si Si4 0.324218 0.793761 0.238082
Si Si5 0.677045 0.924457 0.000000
Si Si6 0.827057 0.620535 0.368817
Si Si7 0.824218 0.706239 0.761918
Si Si8 0.829379 0.950823 0.775664
O O1 0.684064 0.500000 0.729513
O O2 0.735280 0.419348 0.680879
O O3 0.500000 0.438231 0.799581
O O4 0.762108 0.448093 0.890374
O O5 0.204765 0.376571 0.500000
O O6 0.227027 0.334307 0.313814
O O7 0.000001 0.387382 0.341197
O O8 0.234808 0.301404 0.111067
O O9 0.234808 0.301404 0.888934
O O10 0.236047 0.374970 0.000000
O O11 0.000000 0.327317 0.000000
O O12 0.272973 0.834307 0.313813
O O13 0.250000 0.750000 0.286165
O O14 0.500000 0.787964 0.242430
O O15 0.737894 0.948093 0.890375
O O16 0.500000 0.927322 0.000000
O O17 0.735282 0.580652 0.319120
O O18 0.815936 0.000000 0.729514
#
# Coordination Sequence:
#
# PCOD8101278 Si02
#       8
#     8   8   8   8   8   8   8   8
#     4  11  24  40  59  88 124 156 190 240 300 356
#     4  10  22  41  63  85 113 154 205 253 291 340
#     4   9  17  33  57  83 114 149 185 233 289 341
#     4  10  20  36  57  85 118 151 190 239 294 349
#     4  11  20  37  64  90 118 156 196 238 289 347
#     4  10  22  41  63  85 113 154 205 253 291 340
#     4  10  20  36  57  85 118 151 190 239 294 349
#     4  11  24  40  59  88 124 156 190 240 300 356
#
# _framework density 19.489360000000001
#
# number of rings (size 3 to 8) (size 9 to 14) (size 15 to 20)
#    0.000    1.750    2.500    1.875    0.000    6.000 
#    0.000    2.500    0.000    0.000    0.000    0.000 
#    0.000    0.000    0.000    0.000    0.000    0.000 
#
# Total GULP energy -396910.150535 kJ/mol
# GULP energy per Si atom -12403.442204 kJ/mol
# Density = 1.944500 g / cm^3
# Si number density = 19.489360 Si / 1000 Ang^3
#
#
#
# Elastic Constant Matrix: (Units=GPa)
#
#
# Indices 1 2 3 4 5 6 
#
# 1 75.7025 58.0286 47.1507 0.0000 -0.0003 0.0000
# 2 58.0286 157.1601 61.5848 0.0000 -0.0006 0.0000
# 3 47.1507 61.5848 117.9898 0.0000 -0.0012 0.0000
# 4 0.0000 0.0000 0.0000 5.1645 0.0000 -0.0004
# 5 -0.0003 -0.0006 -0.0012 0.0000 20.7214 0.0000
# 6 0.0000 0.0000 0.0000 -0.0004 0.0000 36.0608
#
#
#
# Elastic Compliance Matrix: (Units=1/GPa)
#
#
# Indices 1 2 3 4 5 6 
#
# 1 0.020865 -0.005577 -0.005427 0.000000 0.000000 0.000000
# 2 -0.005577 0.009490 -0.002724 0.000000 0.000000 0.000000
# 3 -0.005427 -0.002724 0.012066 0.000000 0.000001 0.000000
# 4 0.000000 0.000000 0.000000 0.193631 0.000000 0.000002
# 5 0.000000 0.000000 0.000001 0.000000 0.048259 0.000000
# 6 0.000000 0.000000 0.000000 0.000002 0.000000 0.027731
#
#
# Mechanical properties :
#
#
# Convention : Reuss Voigt Hill
#
# Bulk Modulus (GPa) = 66.82957 76.04228 71.43593
# Shear Modulus (GPa) = 14.51434 24.66190 19.58812
#
# Velocity S-wave (km/s) = 2.73194 3.56111 3.17372
# Velocity P-wave (km/s) = 6.65703 7.48403 7.08261
#
# Compressibility (1/GPa) = 0.01496344
#
# Stress axis : x y z
#
# Youngs Moduli (GPa) = 47.92718 105.37520 82.87770
#
# Poissons Ratio (x) = 0.58773 0.44976
# Poissons Ratio (y) = 0.26731 0.22579
# Poissons Ratio (z) = 0.26009 0.28708
#
# Static dielectric constant tensor:
#      x y z
#    x 3.385720 0.000000 0.000000 
#    y 0.000000 3.695250 0.000000 
#    z 0.000000 0.000000 3.575680 
# 
# 
# High freq. dielectric constant tensor:
#      x y z
#    x 1.744930 0.000000 0.000000 
#    y 0.000000 1.773370 0.000000 
#    z 0.000000 0.000000 1.757070 
# 
# From -- ./inp_files/125769.got.cif
#   From: 2010.06.25/outbox.cif.g09.slc.cpg/sg12_63_cif.got.tgz:125769.got - 2010.06.28 00:19:55.
