data_PCOD8101307
_publ_section_title
;
Structure prediction by ZEFSAII (Michael W. Deem and Ramdas Pophale) SiO2 
 PCOD8101307
Probable space group: C 2/M
;
_chemical_formula_sum "Si O2"
_cell_formula_units_Z 40
_cell_length_a 13.658733
_cell_length_b 27.375464
_cell_length_c 9.660890
_cell_angle_alpha 90.000000
_cell_angle_beta 31.423999
_cell_angle_gamma 90.000000
_cell_volume 1883.357079
_symmetry_space_group_name_H-M "C 2/M"
_symmetry_group_IT_number 12
_symmetry_cell_setting 'monoclinic'
loop_
_space_group_symop_operation_xyz
x,y,z
-x,y,-z
-x,-y,-z
x,-y,z
1/2+x,1/2+y,z
1/2-x,1/2+y,-z
1/2-x,1/2-y,-z
1/2+x,1/2-y,z
loop_
_atom_site_type_symbol
_atom_site_label
_atom_site_fract_x
_atom_site_fract_y
_atom_site_fract_z
Si Si1 0.625208 0.556759 0.220948
Si Si2 0.941059 0.709593 0.713358
Si Si3 0.603525 0.395235 0.730202
Si Si4 0.985568 0.791233 0.852760
Si Si5 0.498081 0.098714 0.344970
O O1 0.500000 0.577046 0.500000
O O2 0.668655 0.500000 0.188930
O O3 0.507513 0.565592 0.225450
O O4 0.825237 0.583762 0.962570
O O5 0.046633 0.740374 0.707304
O O6 0.000000 0.735804 0.500000
O O7 0.032134 0.656504 0.612409
O O8 0.717608 0.702968 0.976848
O O9 0.599119 0.340119 0.670832
O O10 0.809345 0.418920 0.496391
O O11 0.500000 0.389819 0.000000
O O12 0.000000 0.783466 0.000000
O O13 0.500000 0.077306 0.500000
#
# Coordination Sequence:
#
# PCOD8101307 Si02
#       5
#     8   8   8   8   8
#     4  11  26  47  67  95 132 162 208 278 335 382
#     4  10  20  36  59  87 126 171 212 259 308 368
#     4  11  21  41  69  94 130 172 216 263 317 382
#     4  10  20  36  57  91 130 166 210 259 310 369
#     4  11  21  42  69  96 128 169 219 264 315 384
#
# _framework density 21.238669999999999
#
# number of rings (size 3 to 8) (size 9 to 14) (size 15 to 20)
#    0.000    1.400    4.000    3.600    0.000    6.400 
#    3.600    2.000    0.000    0.000    0.000    0.000 
#    0.000    0.000    0.000    0.000    0.000    0.000 
#
# Total GULP energy -247810.177221 kJ/mol
# GULP energy per Si atom -12390.508861 kJ/mol
# Density = 2.119033 g / cm^3
# Si number density = 21.238670 Si / 1000 Ang^3
#
#
#
# Elastic Constant Matrix: (Units=GPa)
#
#
# Indices 1 2 3 4 5 6 
#
# 1 100.1873 20.7448 39.0251 0.0000 -19.4478 0.0000
# 2 20.7448 44.8644 28.6478 0.0000 9.6143 0.0000
# 3 39.0251 28.6478 127.8173 0.0000 -8.7391 -0.0001
# 4 0.0000 0.0000 0.0000 27.1799 0.0000 1.5604
# 5 -19.4478 9.6143 -8.7391 0.0000 41.2996 0.0001
# 6 0.0000 0.0000 -0.0001 1.5604 0.0001 50.3211
#
#
#
# Elastic Compliance Matrix: (Units=1/GPa)
#
#
# Indices 1 2 3 4 5 6 
#
# 1 0.013632 -0.006503 -0.002194 0.000000 0.007469 0.000000
# 2 -0.006503 0.031549 -0.005882 0.000000 -0.011651 0.000000
# 3 -0.002194 -0.005882 0.009979 0.000000 0.002448 0.000000
# 4 0.000000 0.000000 0.000000 0.036857 0.000000 -0.001143
# 5 0.007469 -0.011651 0.002448 0.000000 0.030961 0.000000
# 6 0.000000 0.000000 0.000000 -0.001143 0.000000 0.019908
#
#
# Mechanical properties :
#
#
# Convention : Reuss Voigt Hill
#
# Bulk Modulus (GPa) = 38.45827 49.96715 44.21271
# Shear Modulus (GPa) = 27.66819 36.05688 31.86253
#
# Velocity S-wave (km/s) = 3.61325 4.12478 3.87746
# Velocity P-wave (km/s) = 5.96275 6.80167 6.39598
#
# Compressibility (1/GPa) = 0.02600221
#
# Stress axis : x y z
#
# Youngs Moduli (GPa) = 73.35538 31.69646 100.20728
#
# Poissons Ratio (x) = 0.20612 0.21985
# Poissons Ratio (y) = 0.47703 0.58945
# Poissons Ratio (z) = 0.16094 0.18645
#
# Static dielectric constant tensor:
#      x y z
#    x 3.951620 0.000000 -0.050970 
#    y 0.000000 3.842320 0.000000 
#    z -0.050970 0.000000 3.830460 
# 
# 
# High freq. dielectric constant tensor:
#      x y z
#    x 1.839150 0.000000 -0.016160 
#    y 0.000000 1.819850 0.000000 
#    z -0.016160 0.000000 1.826580 
# 
# From -- ./inp_files/54003.got.cif
#   From: 2010.06.25/outbox.cif.g09.slc.cpg/sg12_28_cif.got.tgz:54003.got - 2010.06.28 00:19:55.
