data_PCOD8101054
_publ_section_title
;
Structure prediction by ZEFSAII (Michael W. Deem and Ramdas Pophale) SiO2 
 PCOD8101054
Probable space group: C 2/M
;
_chemical_formula_sum "Si O2"
_cell_formula_units_Z 60
_cell_length_a 20.551705
_cell_length_b 18.666606
_cell_length_c 8.708782
_cell_angle_alpha 90.000000
_cell_angle_beta 74.503309
_cell_angle_gamma 90.000000
_cell_volume 3219.497624
_symmetry_space_group_name_H-M "C 2/M"
_symmetry_group_IT_number 12
_symmetry_cell_setting 'monoclinic'
loop_
_space_group_symop_operation_xyz
x,y,z
-x,y,-z
-x,-y,-z
x,-y,z
1/2+x,1/2+y,z
1/2-x,1/2+y,-z
1/2-x,1/2-y,-z
1/2+x,1/2-y,z
loop_
_atom_site_type_symbol
_atom_site_label
_atom_site_fract_x
_atom_site_fract_y
_atom_site_fract_z
Si Si1 0.390914 0.686151 0.368078
Si Si2 0.186710 0.294441 0.090678
Si Si3 0.769463 0.082602 0.527919
Si Si4 0.744294 0.419068 0.110834
Si Si5 0.000000 0.877001 0.500000
Si Si6 0.806431 0.297185 0.552211
Si Si7 0.410604 0.580195 0.820343
Si Si8 0.072275 0.210626 0.992172
O O1 0.339100 0.625140 0.458547
O O2 0.464006 0.670306 0.392294
O O3 0.375086 0.766941 0.435865
O O4 0.388512 0.687343 0.185863
O O5 0.185939 0.286301 0.272629
O O6 0.250000 0.250000 0.000000
O O7 0.201043 0.374651 0.021488
O O8 0.116825 0.265430 0.063939
O O9 0.742279 0.088604 0.717502
O O10 0.709456 0.119147 0.466434
O O11 0.779844 0.000000 0.471405
O O12 0.753512 0.500000 0.048924
O O13 0.667106 0.393974 0.135025
O O14 0.056070 0.922602 0.371311
O O15 0.750000 0.250000 0.500000
O O16 0.416436 0.500000 0.885429
O O17 0.446808 0.637624 0.905620
O O18 0.000000 0.247775 0.000000
#
# Coordination Sequence:
#
# PCOD8101054 Si02
#       8
#     8   8   8   8   4   8   8   8
#     4  11  22  37  56  81 116 152 196 234 281 341
#     4  12  21  38  62  82 116 154 195 249 296 343
#     4  10  20  36  56  84 116 147 187 236 291 346
#     4  10  21  37  60  88 116 151 194 242 295 349
#     4  12  21  38  58  78 115 164 200 234 275 344
#     4  10  22  36  56  85 109 147 193 243 294 340
#     4  11  23  38  55  83 120 161 200 235 282 343
#     4  12  25  40  57  87 117 157 203 243 290 348
#
# _framework density 18.636448000000001
#
# number of rings (size 3 to 8) (size 9 to 14) (size 15 to 20)
#    0.000    1.067    4.000    5.000    0.000    1.867 
#    0.000    0.000    0.000    0.400    0.000    0.467 
#    0.000    0.000    0.000    0.000    0.000    0.000 
#
# Total GULP energy -371821.687202 kJ/mol
# GULP energy per Si atom -12394.056240 kJ/mol
# Density = 1.859403 g / cm^3
# Si number density = 18.636448 Si / 1000 Ang^3
#
#
#
# Elastic Constant Matrix: (Units=GPa)
#
#
# Indices 1 2 3 4 5 6 
#
# 1 103.5992 53.6666 33.4418 0.0000 12.1826 0.0000
# 2 53.6666 94.7683 41.2559 0.0000 1.2172 0.0000
# 3 33.4418 41.2559 117.0840 0.0000 10.8780 0.0000
# 4 0.0000 0.0000 0.0000 28.8878 0.0000 3.1158
# 5 12.1826 1.2172 10.8780 0.0000 29.8059 0.0000
# 6 0.0000 0.0000 0.0000 3.1158 0.0000 20.4599
#
#
#
# Elastic Compliance Matrix: (Units=1/GPa)
#
#
# Indices 1 2 3 4 5 6 
#
# 1 0.014623 -0.007807 -0.000932 0.000000 -0.005318 0.000000
# 2 -0.007807 0.016669 -0.004013 0.000000 0.003975 0.000000
# 3 -0.000932 -0.004013 0.010527 0.000000 -0.003297 0.000000
# 4 0.000000 0.000000 0.000000 0.035195 0.000000 -0.005360
# 5 -0.005318 0.003975 -0.003297 0.000000 0.036765 0.000000
# 6 0.000000 0.000000 0.000000 -0.005360 0.000000 0.049692
#
#
# Mechanical properties :
#
#
# Convention : Reuss Voigt Hill
#
# Bulk Modulus (GPa) = 61.28929 63.57555 62.43242
# Shear Modulus (GPa) = 25.71841 28.30320 27.01081
#
# Velocity S-wave (km/s) = 3.71887 3.90128 3.81117
# Velocity P-wave (km/s) = 7.16925 7.38112 7.27596
#
# Compressibility (1/GPa) = 0.01631606
#
# Stress axis : x y z
#
# Youngs Moduli (GPa) = 68.38618 59.99169 94.99068
#
# Poissons Ratio (x) = 0.46835 0.08850
# Poissons Ratio (y) = 0.53389 0.38119
# Poissons Ratio (z) = 0.06371 0.24074
#
# Static dielectric constant tensor:
#      x y z
#    x 3.511000 0.000000 -0.042270 
#    y 0.000000 3.681060 0.000000 
#    z -0.042270 0.000000 3.513270 
# 
# 
# High freq. dielectric constant tensor:
#      x y z
#    x 1.709060 0.000000 0.010810 
#    y 0.000000 1.709050 0.000000 
#    z 0.010810 0.000000 1.734960 
# 
# From -- ./inp_files/87907.got.cif
#   From: 2010.06.25/outbox.cif.g09.slc.cpg/sg12_44_cif.got.tgz:87907.got - 2010.06.28 00:19:55.
