data_PCOD8101190
_publ_section_title
;
Structure prediction by ZEFSAII (Michael W. Deem and Ramdas Pophale) SiO2 
 PCOD8101190
Probable space group: C 2/M
;
_chemical_formula_sum "Si O2"
_cell_formula_units_Z 64
_cell_length_a 28.699879
_cell_length_b 9.275189
_cell_length_c 12.487382
_cell_angle_alpha 90.000000
_cell_angle_beta 85.403082
_cell_angle_gamma 90.000000
_cell_volume 3313.408155
_symmetry_space_group_name_H-M "C 2/M"
_symmetry_group_IT_number 12
_symmetry_cell_setting 'monoclinic'
loop_
_space_group_symop_operation_xyz
x,y,z
-x,y,-z
-x,-y,-z
x,-y,z
1/2+x,1/2+y,z
1/2-x,1/2+y,-z
1/2-x,1/2-y,-z
1/2+x,1/2-y,z
loop_
_atom_site_type_symbol
_atom_site_label
_atom_site_fract_x
_atom_site_fract_y
_atom_site_fract_z
Si Si1 0.127248 0.167008 0.872537
Si Si2 0.934619 0.669223 0.750385
Si Si3 0.296150 0.668194 0.527879
Si Si4 0.379689 0.668409 0.367930
Si Si5 0.157172 0.832617 0.261037
Si Si6 0.484301 0.667518 0.381885
Si Si7 0.297278 0.669171 0.969872
Si Si8 0.948190 0.667004 0.993003
O O1 0.138628 0.203620 0.747665
O O2 0.116394 0.000000 0.891342
O O3 0.169928 0.216536 0.938409
O O4 0.081408 0.251216 0.913582
O O5 0.935499 0.500000 0.723668
O O6 0.889460 0.742135 0.704281
O O7 0.930313 0.699384 0.877302
O O8 0.982118 0.740123 0.699865
O O9 0.289103 0.500000 0.502763
O O10 0.250000 0.750000 0.500000
O O11 0.340992 0.732520 0.455839
O O12 0.305188 0.693681 0.652108
O O13 0.383489 0.500000 0.389798
O O14 0.431698 0.731141 0.378677
O O15 0.180355 0.779676 0.146249
O O16 0.142434 0.000000 0.257492
O O17 0.500000 0.688937 0.500000
O O18 0.487096 0.500000 0.346543
O O19 0.287473 0.500000 0.969719
O O20 0.250000 0.750000 0.000000
O O21 0.945289 0.500000 0.021741
O O22 0.000000 0.726241 0.000000
#
# Coordination Sequence:
#
# PCOD8101190 Si02
#       8
#     8   8   8   8   8   8   8   8
#     4  10  20  36  57  82 111 145 187 233 276 328
#     4  11  22  35  56  86 116 148 186 234 286 332
#     4  10  22  40  62  85 112 147 187 233 282 333
#     4   9  19  36  57  83 112 145 188 232 278 332
#     4  10  21  40  61  83 114 151 192 233 276 340
#     4  10  20  36  59  83 110 152 195 231 278 335
#     4  10  22  37  57  84 112 146 188 234 287 338
#     4  10  21  36  53  79 116 153 186 224 280 339
#
# _framework density 19.315458
#
# number of rings (size 3 to 8) (size 9 to 14) (size 15 to 20)
#    0.000    2.000    1.250    1.875    1.750    4.500 
#    0.000    1.250    0.000    0.000    0.000    0.000 
#    0.000    0.000    0.000    0.000    0.000    0.000 
#
# Total GULP energy -396883.355949 kJ/mol
# GULP energy per Si atom -12402.604873 kJ/mol
# Density = 1.927150 g / cm^3
# Si number density = 19.315458 Si / 1000 Ang^3
#
#
#
# Elastic Constant Matrix: (Units=GPa)
#
#
# Indices 1 2 3 4 5 6 
#
# 1 159.2984 47.2965 57.6113 0.0000 -0.5725 0.0000
# 2 47.2965 49.7586 30.6798 0.0000 -1.9545 0.0000
# 3 57.6113 30.6798 96.8108 0.0000 1.3607 0.0000
# 4 0.0000 0.0000 0.0000 14.6339 0.0000 -3.5476
# 5 -0.5725 -1.9545 1.3607 0.0000 35.6614 0.0000
# 6 0.0000 0.0000 0.0000 -3.5476 0.0000 38.3483
#
#
#
# Elastic Compliance Matrix: (Units=1/GPa)
#
#
# Indices 1 2 3 4 5 6 
#
# 1 0.009620 -0.006983 -0.003510 0.000000 -0.000094 0.000000
# 2 -0.006983 0.030147 -0.005422 0.000000 0.001747 0.000000
# 3 -0.003510 -0.005422 0.014149 0.000000 -0.000893 0.000000
# 4 0.000000 0.000000 0.000000 0.069902 0.000000 0.006467
# 5 -0.000094 0.001747 -0.000893 0.000000 0.028170 0.000000
# 6 0.000000 0.000000 0.000000 0.006467 0.000000 0.026675
#
#
# Mechanical properties :
#
#
# Convention : Reuss Voigt Hill
#
# Bulk Modulus (GPa) = 45.28211 64.11587 54.69899
# Shear Modulus (GPa) = 22.95079 29.08073 26.01576
#
# Velocity S-wave (km/s) = 3.45078 3.88437 3.67398
# Velocity P-wave (km/s) = 6.27467 7.30643 6.81012
#
# Compressibility (1/GPa) = 0.02208378
#
# Stress axis : x y z
#
# Youngs Moduli (GPa) = 103.94808 33.17091 70.67413
#
# Poissons Ratio (x) = 0.23165 0.24810
# Poissons Ratio (y) = 0.72591 0.38323
# Poissons Ratio (z) = 0.36491 0.17987
#
# Static dielectric constant tensor:
#      x y z
#    x 3.510830 0.000000 -0.031530 
#    y 0.000000 3.313660 0.000000 
#    z -0.031530 0.000000 3.657740 
# 
# 
# High freq. dielectric constant tensor:
#      x y z
#    x 1.760960 0.000000 0.003760 
#    y 0.000000 1.728770 0.000000 
#    z 0.003760 0.000000 1.763900 
# 
# From -- ./inp_files/187491.got.cif
#   From: 2010.06.25/outbox.cif.g09.slc.cpg/sg12_94_cif.got.tgz:187491.got - 2010.06.28 00:19:55.
