data_PCOD8101358
_publ_section_title
;
Structure prediction by ZEFSAII (Michael W. Deem and Ramdas Pophale) SiO2 
 PCOD8101358
Probable space group: C 2/M
;
_chemical_formula_sum "Si O2"
_cell_formula_units_Z 48
_cell_length_a 20.412410
_cell_length_b 8.890592
_cell_length_c 16.408932
_cell_angle_alpha 90.000000
_cell_angle_beta 62.178170
_cell_angle_gamma 90.000000
_cell_volume 2633.635037
_symmetry_space_group_name_H-M "C 2/M"
_symmetry_group_IT_number 12
_symmetry_cell_setting 'monoclinic'
loop_
_space_group_symop_operation_xyz
x,y,z
-x,y,-z
-x,-y,-z
x,-y,z
1/2+x,1/2+y,z
1/2-x,1/2+y,-z
1/2-x,1/2-y,-z
1/2+x,1/2-y,z
loop_
_atom_site_type_symbol
_atom_site_label
_atom_site_fract_x
_atom_site_fract_y
_atom_site_fract_z
Si Si1 0.419061 0.823246 0.577775
Si Si2 0.346451 0.678274 0.768702
Si Si3 0.083992 0.674896 0.944723
Si Si4 0.224848 0.326176 0.432276
Si Si5 0.171034 0.323994 0.057964
Si Si6 0.295351 0.676219 0.223674
O O1 0.500000 0.779079 0.500000
O O2 0.406175 0.733396 0.668374
O O3 0.357562 0.773324 0.546985
O O4 0.411177 0.000000 0.600900
O O5 0.346253 0.500000 0.774000
O O6 0.370040 0.747938 0.841528
O O7 0.264090 0.734105 0.795473
O O8 0.088286 0.500000 0.918838
O O9 0.123491 0.768395 0.849653
O O10 0.121456 0.710007 0.008754
O O11 0.000000 0.730995 0.000000
O O12 0.223557 0.500000 0.452644
O O13 0.250000 0.250000 0.500000
O O14 0.282770 0.287906 0.326461
O O15 0.181040 0.500000 0.067913
O O16 0.250000 0.250000 0.000000
O O17 0.284915 0.500000 0.212566
#
# Coordination Sequence:
#
# PCOD8101358 Si02
#       6
#     8   8   8   8   8   8
#     4   9  19  38  60  81 110 144 183 229 279 328
#     4  11  21  34  56  85 113 145 186 229 276 328
#     4  10  22  39  57  81 112 146 185 227 276 329
#     4   9  19  35  56  82 107 140 180 222 270 324
#     4  11  21  35  58  84 112 144 185 230 272 327
#     4  10  20  36  58  81 109 146 188 228 274 329
#
# _framework density 18.225760999999999
#
# number of rings (size 3 to 8) (size 9 to 14) (size 15 to 20)
#    0.000    2.000    1.667    3.500    0.000    4.667 
#    3.000    0.000    0.000    0.000    0.000    0.000 
#    0.000    0.000    0.000    0.000    0.000    0.000 
#
# Total GULP energy -297650.172065 kJ/mol
# GULP energy per Si atom -12402.090503 kJ/mol
# Density = 1.818428 g / cm^3
# Si number density = 18.225761 Si / 1000 Ang^3
#
#
#
# Elastic Constant Matrix: (Units=GPa)
#
#
# Indices 1 2 3 4 5 6 
#
# 1 113.9731 51.5032 82.6511 0.0000 -14.6803 0.0000
# 2 51.5032 96.3120 71.3332 0.0001 -0.8387 0.0002
# 3 82.6511 71.3332 152.6953 0.0000 -5.4332 0.0000
# 4 0.0000 0.0001 0.0000 38.0335 0.0000 -0.4213
# 5 -14.6803 -0.8387 -5.4332 0.0000 32.9399 0.0000
# 6 0.0000 0.0002 0.0000 -0.4213 0.0000 25.9806
#
#
#
# Elastic Compliance Matrix: (Units=1/GPa)
#
#
# Indices 1 2 3 4 5 6 
#
# 1 0.016095 -0.003455 -0.006887 0.000000 0.005949 0.000000
# 2 -0.003455 0.016640 -0.005978 0.000000 -0.002102 0.000000
# 3 -0.006887 -0.005978 0.013031 0.000000 -0.001072 0.000000
# 4 0.000000 0.000000 0.000000 0.026297 0.000000 0.000426
# 5 0.005949 -0.002102 -0.001072 0.000000 0.032779 0.000000
# 6 0.000000 0.000000 0.000000 0.000426 0.000000 0.038497
#
#
# Mechanical properties :
#
#
# Convention : Reuss Voigt Hill
#
# Bulk Modulus (GPa) = 76.17688 85.99504 81.08596
# Shear Modulus (GPa) = 27.72303 29.89034 28.80668
#
# Velocity S-wave (km/s) = 3.90435 4.05409 3.97992
# Velocity P-wave (km/s) = 7.88747 8.31865 8.10593
#
# Compressibility (1/GPa) = 0.01312734
#
# Stress axis : x y z
#
# Youngs Moduli (GPa) = 62.12919 60.09660 76.73887
#
# Poissons Ratio (x) = 0.20762 0.52847
# Poissons Ratio (y) = 0.21465 0.45876
# Poissons Ratio (z) = 0.42786 0.35927
#
# Static dielectric constant tensor:
#      x y z
#    x 3.572210 0.000000 0.265060 
#    y 0.000000 3.355130 0.000000 
#    z 0.265060 0.000000 3.769310 
# 
# 
# High freq. dielectric constant tensor:
#      x y z
#    x 1.689390 0.000000 -0.001420 
#    y 0.000000 1.709770 0.000000 
#    z -0.001420 0.000000 1.718400 
# 
# From -- ./inp_files/229934.got.cif
#   From: 2010.06.25/outbox.cif.g09.slc.cpg/sg12_115_cif.got.tgz:229934.got - 2010.06.28 00:19:55.
