data_PCOD8101172
_publ_section_title
;
Structure prediction by ZEFSAII (Michael W. Deem and Ramdas Pophale) SiO2 
 PCOD8101172
Probable space group: C 2/M
;
_chemical_formula_sum "Si O2"
_cell_formula_units_Z 56
_cell_length_a 14.863308
_cell_length_b 13.753427
_cell_length_c 27.246221
_cell_angle_alpha 90.000000
_cell_angle_beta 30.128404
_cell_angle_gamma 90.000000
_cell_volume 2795.658451
_symmetry_space_group_name_H-M "C 2/M"
_symmetry_group_IT_number 12
_symmetry_cell_setting 'monoclinic'
loop_
_space_group_symop_operation_xyz
x,y,z
-x,y,-z
-x,-y,-z
x,-y,z
1/2+x,1/2+y,z
1/2-x,1/2+y,-z
1/2-x,1/2-y,-z
1/2+x,1/2-y,z
loop_
_atom_site_type_symbol
_atom_site_label
_atom_site_fract_x
_atom_site_fract_y
_atom_site_fract_z
Si Si1 0.516720 0.110215 0.273452
Si Si2 0.521755 0.736387 0.548785
Si Si3 0.843186 0.759974 0.108675
Si Si4 0.842011 0.891108 0.871742
Si Si5 0.299197 0.109671 0.470794
Si Si6 0.907587 0.324245 0.933382
Si Si7 0.883052 0.274194 0.250390
O O1 0.718668 0.147169 0.174369
O O2 0.461463 0.116951 0.356006
O O3 0.388330 0.181603 0.302656
O O4 0.502318 0.000000 0.260845
O O5 0.500000 0.732640 0.500000
O O6 0.643805 0.828504 0.508047
O O7 0.619032 0.643518 0.527313
O O8 0.323973 0.739524 0.666309
O O9 0.745244 0.665756 0.132413
O O10 0.922081 0.727969 0.122881
O O11 0.000000 0.798134 0.000000
O O12 0.020504 0.830988 0.802048
O O13 0.898787 0.000000 0.829267
O O14 0.688927 0.904681 0.986965
O O15 0.265606 0.000000 0.504683
O O16 0.999874 0.352788 0.837783
O O17 0.750000 0.250000 0.000000
#
# Coordination Sequence:
#
# PCOD8101172 Si02
#       7
#     8   8   8   8   8   8   8
#     4  10  20  36  57  81 112 152 194 241 298 355
#     4  11  22  40  67  90 120 164 201 248 308 358
#     4   9  18  33  53  78 111 148 190 240 290 348
#     4   9  19  35  56  80 111 152 192 235 294 352
#     4  10  23  41  62  90 122 157 204 251 301 363
#     4   9  18  33  52  76 109 146 186 235 283 342
#     4  10  20  36  58  85 116 151 195 243 292 353
#
# _framework density 20.03106
#
# number of rings (size 3 to 8) (size 9 to 14) (size 15 to 20)
#    0.000    2.286    1.429    1.714    0.000    5.143 
#    0.000    4.286    0.000    0.000    0.000    0.000 
#    0.000    0.000    0.000    0.000    0.000    0.000 
#
# Total GULP energy -346882.533707 kJ/mol
# GULP energy per Si atom -12388.661918 kJ/mol
# Density = 1.998547 g / cm^3
# Si number density = 20.031060 Si / 1000 Ang^3
#
#
#
# Elastic Constant Matrix: (Units=GPa)
#
#
# Indices 1 2 3 4 5 6 
#
# 1 82.8887 26.2425 23.2266 -0.0009 -14.1960 0.0000
# 2 26.2425 109.1086 30.7632 0.0010 -12.7538 -0.0003
# 3 23.2266 30.7632 88.1303 -0.0028 -21.8124 0.0005
# 4 -0.0009 0.0010 -0.0028 21.1372 -0.0006 0.4842
# 5 -14.1960 -12.7538 -21.8124 -0.0006 32.9313 -0.0002
# 6 0.0000 -0.0003 0.0005 0.4842 -0.0002 11.9705
#
#
#
# Elastic Compliance Matrix: (Units=1/GPa)
#
#
# Indices 1 2 3 4 5 6 
#
# 1 0.014013 -0.002382 -0.001908 0.000001 0.003855 0.000000
# 2 -0.002382 0.010671 -0.002785 -0.000001 0.001261 0.000000
# 3 -0.001908 -0.002785 0.014773 0.000002 0.007884 -0.000001
# 4 0.000001 -0.000001 0.000002 0.047354 0.000002 -0.001916
# 5 0.003855 0.001261 0.007884 0.000002 0.037739 0.000000
# 6 0.000000 0.000000 -0.000001 -0.001916 0.000000 0.083616
#
#
# Mechanical properties :
#
#
# Convention : Reuss Voigt Hill
#
# Bulk Modulus (GPa) = 39.51314 48.95470 44.23392
# Shear Modulus (GPa) = 21.66841 26.53415 24.10128
#
# Velocity S-wave (km/s) = 3.29255 3.64352 3.47247
# Velocity P-wave (km/s) = 5.85007 6.49560 6.18126
#
# Compressibility (1/GPa) = 0.02530804
#
# Stress axis : x y z
#
# Youngs Moduli (GPa) = 71.36109 93.71457 67.69085
#
# Poissons Ratio (x) = 0.22323 0.12913
# Poissons Ratio (y) = 0.16998 0.18851
# Poissons Ratio (z) = 0.13613 0.26098
#
# Static dielectric constant tensor:
#      x y z
#    x 3.796780 0.000010 0.018980 
#    y 0.000010 3.380670 0.000020 
#    z 0.018980 0.000020 3.858990 
# 
# 
# High freq. dielectric constant tensor:
#      x y z
#    x 1.788540 0.000000 -0.004800 
#    y 0.000000 1.753510 0.000000 
#    z -0.004800 0.000000 1.789120 
# 
# From -- ./inp_files/361419.got.cif
#   From: 2010.06.25/outbox.cif.g09.slc.cpg/sg12_181_cif.got.tgz:361419.got - 2010.06.28 00:19:55.
