data_PCOD8101584
_publ_section_title
;
Structure prediction by ZEFSAII (Michael W. Deem and Ramdas Pophale) SiO2 
 PCOD8101584
Probable space group: C 2/M
;
_chemical_formula_sum "Si O2"
_cell_formula_units_Z 48
_cell_length_a 21.201468
_cell_length_b 27.656551
_cell_length_c 9.295555
_cell_angle_alpha 90.000000
_cell_angle_beta 150.672609
_cell_angle_gamma 90.000000
_cell_volume 2669.669112
_symmetry_space_group_name_H-M "C 2/M"
_symmetry_group_IT_number 12
_symmetry_cell_setting 'monoclinic'
loop_
_space_group_symop_operation_xyz
x,y,z
-x,y,-z
-x,-y,-z
x,-y,z
1/2+x,1/2+y,z
1/2-x,1/2+y,-z
1/2-x,1/2-y,-z
1/2+x,1/2-y,z
loop_
_atom_site_type_symbol
_atom_site_label
_atom_site_fract_x
_atom_site_fract_y
_atom_site_fract_z
Si Si1 0.716506 0.792524 0.247628
Si Si2 0.258067 0.636310 0.832894
Si Si3 0.646313 0.709791 0.754781
Si Si4 0.075298 0.555379 0.500338
Si Si5 0.003652 0.638635 0.179356
Si Si6 0.869161 0.807186 0.825744
O O1 0.841317 0.797031 0.392753
O O2 0.752921 0.807226 0.481224
O O3 0.650283 0.739480 0.109818
O O4 0.612164 0.830823 0.984079
O O5 0.218119 0.580828 0.791039
O O6 0.364890 0.644647 0.918593
O O7 0.131725 0.661846 0.508317
O O8 0.310988 0.660381 0.082614
O O9 0.500000 0.724514 0.500000
O O10 0.750000 0.750000 0.000000
O O11 0.095044 0.500000 0.495682
O O12 0.000000 0.560736 0.500000
O O13 0.992686 0.582704 0.211932
O O14 0.000000 0.640974 0.000000
O O15 0.000000 0.804166 0.000000
#
# Coordination Sequence:
#
# PCOD8101584 Si02
#       6
#     8   8   8   8   8   8
#     4  11  22  34  54  76 114 155 200 233 282 349
#     4  10  22  38  55  83 118 151 185 245 291 346
#     4  12  26  37  54  83 118 160 201 242 286 346
#     4   9  19  36  62  90 116 147 188 243 304 353
#     4  10  20  36  58  87 114 151 192 243 300 338
#     4  11  22  34  51  76 110 158 198 234 277 350
#
# _framework density 17.979755999999998
#
# number of rings (size 3 to 8) (size 9 to 14) (size 15 to 20)
#    1.000    0.500    3.333    2.500    4.667    0.333 
#    0.000    0.000    0.000    1.000    0.000    2.333 
#    0.000    0.000    0.000    0.000    0.000    0.000 
#
# Total GULP energy -297320.397611 kJ/mol
# GULP energy per Si atom -12388.349900 kJ/mol
# Density = 1.793883 g / cm^3
# Si number density = 17.979756 Si / 1000 Ang^3
#
#
#
# Elastic Constant Matrix: (Units=GPa)
#
#
# Indices 1 2 3 4 5 6 
#
# 1 129.7583 46.4407 24.6211 0.0000 14.1231 0.0000
# 2 46.4407 98.5379 32.8208 0.0000 10.7766 0.0000
# 3 24.6211 32.8208 61.8638 0.0000 10.3813 0.0000
# 4 0.0000 0.0000 0.0000 26.5929 0.0000 -0.2094
# 5 14.1231 10.7766 10.3813 0.0000 28.3068 0.0000
# 6 0.0000 0.0000 0.0000 -0.2094 0.0000 26.3211
#
#
#
# Elastic Compliance Matrix: (Units=1/GPa)
#
#
# Indices 1 2 3 4 5 6 
#
# 1 0.009625 -0.003774 -0.001347 0.000000 -0.002872 0.000000
# 2 -0.003774 0.013967 -0.005681 0.000000 -0.001351 0.000000
# 3 -0.001347 -0.005681 0.020501 0.000000 -0.004684 0.000000
# 4 0.000000 0.000000 0.000000 0.037606 0.000000 0.000299
# 5 -0.002872 -0.001351 -0.004684 0.000000 0.038992 0.000000
# 6 0.000000 0.000000 0.000000 0.000299 0.000000 0.037995
#
#
# Mechanical properties :
#
#
# Convention : Reuss Voigt Hill
#
# Bulk Modulus (GPa) = 44.46572 55.32503 49.89538
# Shear Modulus (GPa) = 26.62601 28.66266 27.64434
#
# Velocity S-wave (km/s) = 3.85241 3.99703 3.92538
# Velocity P-wave (km/s) = 6.67628 7.22075 6.95384
#
# Compressibility (1/GPa) = 0.02248923
#
# Stress axis : x y z
#
# Youngs Moduli (GPa) = 103.89193 71.59720 48.77896
#
# Poissons Ratio (x) = 0.27019 0.06569
# Poissons Ratio (y) = 0.39206 0.27713
# Poissons Ratio (z) = 0.13992 0.40677
#
# Static dielectric constant tensor:
#      x y z
#    x 3.589620 0.000000 -0.120630 
#    y 0.000000 3.068180 0.000000 
#    z -0.120630 0.000000 3.252660 
# 
# 
# High freq. dielectric constant tensor:
#      x y z
#    x 1.716200 0.000000 -0.009100 
#    y 0.000000 1.654750 0.000000 
#    z -0.009100 0.000000 1.688890 
# 
# From -- ./inp_files/91459.got.cif
#   From: 2010.06.25/outbox.cif.g09.slc.cpg/sg12_46_cif.got.tgz:91459.got - 2010.06.28 00:19:55.
