data_PCOD8101662
_publ_section_title
;
Structure prediction by ZEFSAII (Michael W. Deem and Ramdas Pophale) SiO2 
 PCOD8101662
Probable space group: C 2/M
;
_chemical_formula_sum "Si O2"
_cell_formula_units_Z 40
_cell_length_a 29.036064
_cell_length_b 9.173161
_cell_length_c 7.138363
_cell_angle_alpha 90.000000
_cell_angle_beta 93.258202
_cell_angle_gamma 90.000000
_cell_volume 1898.247359
_symmetry_space_group_name_H-M "C 2/M"
_symmetry_group_IT_number 12
_symmetry_cell_setting 'monoclinic'
loop_
_space_group_symop_operation_xyz
x,y,z
-x,y,-z
-x,-y,-z
x,-y,z
1/2+x,1/2+y,z
1/2-x,1/2+y,-z
1/2-x,1/2-y,-z
1/2+x,1/2-y,z
loop_
_atom_site_type_symbol
_atom_site_label
_atom_site_fract_x
_atom_site_fract_y
_atom_site_fract_z
Si Si1 0.219385 0.338781 0.752708
Si Si2 0.552209 0.334641 0.032821
Si Si3 0.888413 0.165840 0.608846
Si Si4 0.197511 0.662268 0.310565
Si Si5 0.117434 0.672064 0.772033
O O1 0.233027 0.500000 0.826978
O O2 0.212440 0.343720 0.528539
O O3 0.260953 0.227039 0.808629
O O4 0.170846 0.287648 0.833447
O O5 0.557441 0.500000 0.956570
O O6 0.565644 0.328638 0.254535
O O7 0.500000 0.279543 0.000000
O O8 0.585102 0.226149 0.929227
O O9 0.847196 0.236750 0.720333
O O10 0.898909 0.252944 0.423028
O O11 0.874603 0.000000 0.556117
O O12 0.186284 0.500000 0.232488
O O13 0.112549 0.500000 0.742323
#
# Coordination Sequence:
#
# PCOD8101662 Si02
#       5
#     8   8   8   8   8
#     4   8  15  28  47  75 110 146 182 219 266 324
#     4  10  23  42  61  82 109 144 188 235 282 334
#     4  10  20  36  59  83 112 150 187 227 276 332
#     4   9  16  27  48  79 112 145 183 226 269 318
#     4  10  21  37  59  86 115 147 184 230 279 329
#
# _framework density 21.072068999999999
#
# number of rings (size 3 to 8) (size 9 to 14) (size 15 to 20)
#    0.000    2.600    0.000    3.000    0.000    8.400 
#    0.000    5.000    0.000    0.000    0.000    0.000 
#    0.000    0.000    0.000    0.000    0.000    0.000 
#
# Total GULP energy -248011.657249 kJ/mol
# GULP energy per Si atom -12400.582862 kJ/mol
# Density = 2.102411 g / cm^3
# Si number density = 21.072069 Si / 1000 Ang^3
#
#
#
# Elastic Constant Matrix: (Units=GPa)
#
#
# Indices 1 2 3 4 5 6 
#
# 1 85.7684 40.1073 14.2869 0.0000 -2.2930 0.0000
# 2 40.1073 121.0418 23.2732 0.0000 -1.2917 0.0000
# 3 14.2869 23.2732 30.0002 0.0000 -7.3804 0.0000
# 4 0.0000 0.0000 0.0000 21.5721 0.0000 -11.1243
# 5 -2.2930 -1.2917 -7.3804 0.0000 30.4466 0.0000
# 6 0.0000 0.0000 0.0000 -11.1243 0.0000 26.8469
#
#
#
# Elastic Compliance Matrix: (Units=1/GPa)
#
#
# Indices 1 2 3 4 5 6 
#
# 1 0.014127 -0.003982 -0.003635 0.000000 0.000014 0.000000
# 2 -0.003982 0.010897 -0.006931 0.000000 -0.001518 0.000000
# 3 -0.003635 -0.006931 0.042857 0.000000 0.009821 0.000000
# 4 0.000000 0.000000 0.000000 0.058953 0.000000 0.024428
# 5 0.000014 -0.001518 0.009821 0.000000 0.035162 0.000000
# 6 0.000000 0.000000 0.000000 0.024428 0.000000 0.047370
#
#
# Mechanical properties :
#
#
# Convention : Reuss Voigt Hill
#
# Bulk Modulus (GPa) = 25.78281 43.57168 34.67725
# Shear Modulus (GPa) = 19.88924 26.38265 23.13594
#
# Velocity S-wave (km/s) = 3.07558 3.54223 3.31712
# Velocity P-wave (km/s) = 4.98742 6.11982 5.58241
#
# Compressibility (1/GPa) = 0.03878553
#
# Stress axis : x y z
#
# Youngs Moduli (GPa) = 70.78496 91.76428 23.33327
#
# Poissons Ratio (x) = 0.36540 0.08482
# Poissons Ratio (y) = 0.28186 0.16172
# Poissons Ratio (z) = 0.25733 0.63602
#
# Static dielectric constant tensor:
#      x y z
#    x 3.856130 0.000000 0.007960 
#    y 0.000000 3.965190 0.000000 
#    z 0.007960 0.000000 3.510630 
# 
# 
# High freq. dielectric constant tensor:
#      x y z
#    x 1.816480 0.000000 0.000670 
#    y 0.000000 1.831480 0.000000 
#    z 0.000670 0.000000 1.816630 
# 
# From -- ./inp_files/92936.got.cif
#   From: 2010.06.25/outbox.cif.g09.slc.cpg/sg12_47_cif.got.tgz:92936.got - 2010.06.28 00:19:55.
