data_PCOD8101591
_publ_section_title
;
Structure prediction by ZEFSAII (Michael W. Deem and Ramdas Pophale) SiO2 
 PCOD8101591
Probable space group: C 2/M
;
_chemical_formula_sum "Si O2"
_cell_formula_units_Z 56
_cell_length_a 15.965378
_cell_length_b 8.963909
_cell_length_c 22.753478
_cell_angle_alpha 90.000000
_cell_angle_beta 121.812824
_cell_angle_gamma 90.000000
_cell_volume 2767.121610
_symmetry_space_group_name_H-M "C 2/M"
_symmetry_group_IT_number 12
_symmetry_cell_setting 'monoclinic'
loop_
_space_group_symop_operation_xyz
x,y,z
-x,y,-z
-x,-y,-z
x,-y,z
1/2+x,1/2+y,z
1/2-x,1/2+y,-z
1/2-x,1/2-y,-z
1/2+x,1/2-y,z
loop_
_atom_site_type_symbol
_atom_site_label
_atom_site_fract_x
_atom_site_fract_y
_atom_site_fract_z
Si Si1 0.218028 0.824619 0.842823
Si Si2 0.012939 0.673233 0.572707
Si Si3 0.441200 0.822626 0.921220
Si Si4 0.868369 0.667801 0.697943
Si Si5 0.953302 0.675765 0.157113
Si Si6 0.321925 0.332242 0.302519
Si Si7 0.835696 0.174955 0.568439
O O1 0.329476 0.760277 0.884669
O O2 0.152836 0.749559 0.869878
O O3 0.167952 0.786426 0.761665
O O4 0.219534 0.000000 0.855038
O O5 0.991884 0.500000 0.576786
O O6 0.940354 0.774788 0.583053
O O7 0.000000 0.712775 0.500000
O O8 0.121621 0.716240 0.634659
O O9 0.498937 0.760374 0.885336
O O10 0.436812 0.000000 0.915374
O O11 0.500000 0.767192 0.000000
O O12 0.873223 0.500000 0.673491
O O13 0.793393 0.673538 0.724682
O O14 0.829915 0.779774 0.634180
O O15 0.974388 0.716281 0.761988
O O16 0.937815 0.500000 0.146108
O O17 0.362892 0.500000 0.328062
O O18 0.750000 0.250000 0.500000
O O19 0.822257 0.000000 0.557742
#
# Coordination Sequence:
#
# PCOD8101591 Si02
#       7
#     8   8   8   8   8   8   8
#     4  10  20  36  58  87 119 154 199 248 296 353
#     4  11  24  40  57  81 113 148 191 243 295 353
#     4   9  18  36  61  86 118 161 203 243 295 361
#     4  10  20  37  60  84 115 153 194 243 296 354
#     4  10  20  36  59  88 119 156 201 246 296 356
#     4  10  20  36  59  84 113 151 194 241 295 356
#     4  12  25  40  58  82 113 150 193 241 296 356
#
# _framework density 20.237636999999999
#
# number of rings (size 3 to 8) (size 9 to 14) (size 15 to 20)
#    0.000    1.714    1.429    3.429    0.000    8.000 
#    0.000    0.714    0.000    0.857    0.000    0.000 
#    0.000    0.000    0.000    0.000    0.000    0.000 
#
# Total GULP energy -347270.016679 kJ/mol
# GULP energy per Si atom -12402.500596 kJ/mol
# Density = 2.019158 g / cm^3
# Si number density = 20.237637 Si / 1000 Ang^3
#
#
#
# Elastic Constant Matrix: (Units=GPa)
#
#
# Indices 1 2 3 4 5 6 
#
# 1 143.7692 33.6367 58.1202 0.0000 -0.8380 0.0000
# 2 33.6367 69.3095 41.9277 0.0000 -2.9905 0.0000
# 3 58.1202 41.9277 115.2497 0.0000 0.3129 0.0000
# 4 0.0000 0.0000 0.0000 16.8786 0.0000 -0.2358
# 5 -0.8380 -2.9905 0.3129 0.0000 28.8285 0.0000
# 6 0.0000 0.0000 0.0000 -0.2358 0.0000 30.6694
#
#
#
# Elastic Compliance Matrix: (Units=1/GPa)
#
#
# Indices 1 2 3 4 5 6 
#
# 1 0.008963 -0.002066 -0.003769 0.000000 0.000087 0.000000
# 2 -0.002066 0.019091 -0.005909 0.000000 0.001984 0.000000
# 3 -0.003769 -0.005909 0.012729 0.000000 -0.000861 0.000000
# 4 0.000000 0.000000 0.000000 0.059253 0.000000 0.000456
# 5 0.000087 0.001984 -0.000861 0.000000 0.034906 0.000000
# 6 0.000000 0.000000 0.000000 0.000456 0.000000 0.032609
#
#
# Mechanical properties :
#
#
# Convention : Reuss Voigt Hill
#
# Bulk Modulus (GPa) = 57.81661 66.18861 62.00261
# Shear Modulus (GPa) = 25.40610 28.25154 26.82882
#
# Velocity S-wave (km/s) = 3.54699 3.74035 3.64495
# Velocity P-wave (km/s) = 6.73838 7.17149 6.95831
#
# Compressibility (1/GPa) = 0.01729607
#
# Stress axis : x y z
#
# Youngs Moduli (GPa) = 111.56946 52.38133 78.55999
#
# Poissons Ratio (x) = 0.10824 0.29606
# Poissons Ratio (y) = 0.23055 0.46417
# Poissons Ratio (z) = 0.42045 0.30950
#
# Static dielectric constant tensor:
#      x y z
#    x 3.831270 0.000000 0.138230 
#    y 0.000000 3.387440 0.000000 
#    z 0.138230 0.000000 4.184210 
# 
# 
# High freq. dielectric constant tensor:
#      x y z
#    x 1.804480 0.000000 0.000560 
#    y 0.000000 1.762950 0.000000 
#    z 0.000560 0.000000 1.791370 
# 
# From -- ./inp_files/339073.got.cif
#   From: 2010.06.25/outbox.cif.g09.slc.cpg/sg12_170_cif.got.tgz:339073.got - 2010.06.28 00:19:55.
