data_PCOD8101597
_publ_section_title
;
Structure prediction by ZEFSAII (Michael W. Deem and Ramdas Pophale) SiO2 
 PCOD8101597
Probable space group: C 2/M
;
_chemical_formula_sum "Si O2"
_cell_formula_units_Z 64
_cell_length_a 9.459411
_cell_length_b 19.556018
_cell_length_c 26.299090
_cell_angle_alpha 90.000000
_cell_angle_beta 45.347413
_cell_angle_gamma 90.000000
_cell_volume 3460.889147
_symmetry_space_group_name_H-M "C 2/M"
_symmetry_group_IT_number 12
_symmetry_cell_setting 'monoclinic'
loop_
_space_group_symop_operation_xyz
x,y,z
-x,y,-z
-x,-y,-z
x,-y,z
1/2+x,1/2+y,z
1/2-x,1/2+y,-z
1/2-x,1/2-y,-z
1/2+x,1/2-y,z
loop_
_atom_site_type_symbol
_atom_site_label
_atom_site_fract_x
_atom_site_fract_y
_atom_site_fract_z
Si Si1 0.861831 0.182431 0.170387
Si Si2 0.793959 0.819878 0.838309
Si Si3 0.769711 0.420459 0.550933
Si Si4 0.584923 0.331227 0.678561
Si Si5 0.465253 0.925743 0.951161
Si Si6 0.800539 0.818772 0.518121
Si Si7 0.419046 0.796992 0.668827
Si Si8 0.527317 0.420067 0.051586
O O1 0.806356 0.249329 0.152697
O O2 0.686682 0.167132 0.255733
O O3 0.072714 0.192981 0.145369
O O4 0.875879 0.120146 0.126865
O O5 0.622568 0.874280 0.888839
O O6 0.928153 0.853638 0.760649
O O7 0.735161 0.500000 0.550511
O O8 0.656623 0.398364 0.630843
O O9 0.676970 0.381501 0.526258
O O10 0.000000 0.401742 0.500000
O O11 0.479468 0.280589 0.665726
O O12 0.769942 0.293170 0.658738
O O13 0.473163 0.000000 0.920243
O O14 0.500000 0.941536 0.000000
O O15 0.248498 0.892549 0.004172
O O16 0.750000 0.750000 0.500000
O O17 0.618938 0.837155 0.602396
O O18 0.000000 0.808592 0.500000
O O19 0.500778 0.500000 0.071030
O O20 0.500000 0.402994 0.000000
#
# Coordination Sequence:
#
# PCOD8101597 Si02
#       8
#     8   8   8   8   8   8   8   8
#     4  10  22  38  56  85 118 148 186 242 289 344
#     4  10  22  36  57  86 116 149 186 237 295 340
#     4  11  23  39  57  84 121 152 193 245 292 343
#     4  10  20  37  58  84 115 149 192 236 291 346
#     4  10  20  37  58  80 109 145 192 234 273 337
#     4  12  22  36  64  91 115 157 202 241 287 350
#     4  10  20  36  58  88 113 146 195 235 286 341
#     4  10  22  40  60  82 111 152 195 235 285 348
#
# _framework density 18.492356999999998
#
# number of rings (size 3 to 8) (size 9 to 14) (size 15 to 20)
#    0.000    1.625    3.750    1.125    1.750    1.750 
#    0.000    2.500    0.000    1.500    0.000    0.000 
#    0.000    0.000    0.000    0.000    0.000    0.000 
#
# Total GULP energy -396706.144194 kJ/mol
# GULP energy per Si atom -12397.067006 kJ/mol
# Density = 1.845027 g / cm^3
# Si number density = 18.492357 Si / 1000 Ang^3
#
#
#
# Elastic Constant Matrix: (Units=GPa)
#
#
# Indices 1 2 3 4 5 6 
#
# 1 102.6810 47.3252 45.3745 0.0034 -0.5500 -0.0009
# 2 47.3252 100.4525 68.7617 -0.0149 4.9904 0.0021
# 3 45.3745 68.7617 133.0725 -0.0160 -4.4728 0.0044
# 4 0.0034 -0.0149 -0.0160 31.1347 0.0056 0.1396
# 5 -0.5500 4.9904 -4.4728 0.0056 27.8515 0.0014
# 6 -0.0009 0.0021 0.0044 0.1396 0.0014 25.4540
#
#
#
# Elastic Compliance Matrix: (Units=1/GPa)
#
#
# Indices 1 2 3 4 5 6 
#
# 1 0.012769 -0.004788 -0.001852 -0.000005 0.000813 0.000001
# 2 -0.004788 0.017669 -0.007648 0.000006 -0.004489 0.000000
# 3 -0.001852 -0.007648 0.012209 0.000002 0.003295 -0.000002
# 4 -0.000005 0.000006 0.000002 0.032119 -0.000007 -0.000176
# 5 0.000813 -0.004489 0.003295 -0.000007 0.037254 -0.000002
# 6 0.000001 0.000000 -0.000002 -0.000176 -0.000002 0.039288
#
#
# Mechanical properties :
#
#
# Convention : Reuss Voigt Hill
#
# Bulk Modulus (GPa) = 71.07598 73.23652 72.15625
# Shear Modulus (GPa) = 27.08926 28.53766 27.81346
#
# Velocity S-wave (km/s) = 3.83154 3.93264 3.88242
# Velocity P-wave (km/s) = 7.62188 7.76598 7.69427
#
# Compressibility (1/GPa) = 0.01406945
#
# Stress axis : x y z
#
# Youngs Moduli (GPa) = 78.31739 56.59610 81.90569
#
# Poissons Ratio (x) = 0.27097 0.15173
# Poissons Ratio (y) = 0.37497 0.62644
# Poissons Ratio (z) = 0.14508 0.43287
#
# Static dielectric constant tensor:
#      x y z
#    x 3.529920 0.000000 -0.015360 
#    y 0.000000 3.180920 0.000010 
#    z -0.015360 0.000010 3.650390 
# 
# 
# High freq. dielectric constant tensor:
#      x y z
#    x 1.727960 0.000000 0.000020 
#    y 0.000000 1.694930 0.000000 
#    z 0.000020 0.000000 1.729780 
# 
# From -- ./inp_files/356848.got.cif
#   From: 2010.06.25/outbox.cif.g09.slc.cpg/sg12_179_cif.got.tgz:356848.got - 2010.06.28 00:19:55.
