data_PCOD8101859
_publ_section_title
;
Structure prediction by ZEFSAII (Michael W. Deem and Ramdas Pophale) SiO2 
 PCOD8101859
Probable space group: C 2/M
;
_chemical_formula_sum "Si O2"
_cell_formula_units_Z 48
_cell_length_a 14.936286
_cell_length_b 22.329624
_cell_length_c 14.708684
_cell_angle_alpha 90.000000
_cell_angle_beta 150.790675
_cell_angle_gamma 90.000000
_cell_volume 2393.972756
_symmetry_space_group_name_H-M "C 2/M"
_symmetry_group_IT_number 12
_symmetry_cell_setting 'monoclinic'
loop_
_space_group_symop_operation_xyz
x,y,z
-x,y,-z
-x,-y,-z
x,-y,z
1/2+x,1/2+y,z
1/2-x,1/2+y,-z
1/2-x,1/2-y,-z
1/2+x,1/2-y,z
loop_
_atom_site_type_symbol
_atom_site_label
_atom_site_fract_x
_atom_site_fract_y
_atom_site_fract_z
Si Si1 0.495761 0.828645 0.092196
Si Si2 0.530191 0.431311 0.927903
Si Si3 0.686761 0.753043 0.841122
Si Si4 0.101527 0.834923 0.496170
Si Si5 0.705813 0.429391 0.445800
Si Si6 0.897240 0.618653 0.191179
O O1 0.695700 0.808265 0.304667
O O2 0.394899 0.867517 0.080634
O O3 0.500000 0.865753 0.000000
O O4 0.367778 0.771369 0.949813
O O5 0.475227 0.500000 0.889122
O O6 0.395472 0.403193 0.733147
O O7 0.500000 0.400111 0.000000
O O8 0.736085 0.426407 0.073497
O O9 0.508185 0.713388 0.660558
O O10 0.631848 0.821664 0.772949
O O11 0.750000 0.750000 0.000000
O O12 0.122476 0.896830 0.460264
O O13 0.000000 0.849373 0.500000
O O14 0.676111 0.500000 0.433864
O O15 0.917354 0.414297 0.617489
#
# Coordination Sequence:
#
# PCOD8101859 Si02
#       6
#     8   8   8   8   8   8
#     4  10  20  36  59  87 123 163 199 243 303 369
#     4  10  22  41  62  86 119 162 208 262 315 358
#     4  10  21  37  57  87 120 163 205 248 302 358
#     4  11  22  38  63  90 130 167 204 248 307 374
#     4  10  22  40  63  90 123 162 206 258 305 361
#     4  10  22  38  62  88 122 158 206 257 307 367
#
# _framework density 20.050353000000001
#
# number of rings (size 3 to 8) (size 9 to 14) (size 15 to 20)
#    0.000    1.833    1.667    2.500    0.000    9.000 
#    3.000    2.500    0.000    2.500    0.000    0.000 
#    0.000    0.000    0.000    0.000    0.000    0.000 
#
# Total GULP energy -297417.401641 kJ/mol
# GULP energy per Si atom -12392.391735 kJ/mol
# Density = 2.000472 g / cm^3
# Si number density = 20.050353 Si / 1000 Ang^3
#
#
#
# Elastic Constant Matrix: (Units=GPa)
#
#
# Indices 1 2 3 4 5 6 
#
# 1 125.4463 14.6430 52.1025 0.0000 -6.9871 0.0000
# 2 14.6430 60.6632 24.7821 0.0000 -7.8906 0.0000
# 3 52.1025 24.7821 132.5544 -0.0001 -6.3691 0.0000
# 4 0.0000 0.0000 -0.0001 30.9818 0.0000 4.7395
# 5 -6.9871 -7.8906 -6.3691 0.0000 30.8391 0.0000
# 6 0.0000 0.0000 0.0000 4.7395 0.0000 21.0823
#
#
#
# Elastic Compliance Matrix: (Units=1/GPa)
#
#
# Indices 1 2 3 4 5 6 
#
# 1 0.009613 -0.000690 -0.003589 0.000000 0.001260 0.000000
# 2 -0.000690 0.018378 -0.002976 0.000000 0.003931 0.000000
# 3 -0.003589 -0.002976 0.009530 0.000000 0.000394 0.000000
# 4 0.000000 0.000000 0.000000 0.033427 0.000000 -0.007515
# 5 0.001260 0.003931 0.000394 0.000000 0.033799 0.000000
# 6 0.000000 0.000000 0.000000 -0.007515 0.000000 0.049123
#
#
# Mechanical properties :
#
#
# Convention : Reuss Voigt Hill
#
# Bulk Modulus (GPa) = 43.45719 55.74656 49.60188
# Shear Modulus (GPa) = 28.40114 31.72306 30.06210
#
# Velocity S-wave (km/s) = 3.76771 3.98197 3.87632
# Velocity P-wave (km/s) = 6.37563 7.00036 6.69528
#
# Compressibility (1/GPa) = 0.02301115
#
# Stress axis : x y z
#
# Youngs Moduli (GPa) = 104.02688 54.41263 104.93205
#
# Poissons Ratio (x) = 0.03756 0.37659
# Poissons Ratio (y) = 0.07182 0.31224
# Poissons Ratio (z) = 0.37334 0.16191
#
# Static dielectric constant tensor:
#      x y z
#    x 4.298070 0.000000 0.091640 
#    y 0.000000 3.626970 0.000000 
#    z 0.091640 0.000000 3.973970 
# 
# 
# High freq. dielectric constant tensor:
#      x y z
#    x 1.791330 0.000000 0.002440 
#    y 0.000000 1.752580 0.000000 
#    z 0.002440 0.000000 1.803370 
# 
# From -- ./inp_files/218405.got.cif
#   From: 2010.06.25/outbox.cif.g09.slc.cpg/sg12_110_cif.got.tgz:218405.got - 2010.06.28 00:19:55.
