data_PCOD8101210
_publ_section_title
;
Structure prediction by ZEFSAII (Michael W. Deem and Ramdas Pophale) SiO2 
 PCOD8101210
Probable space group: C 2/M
;
_chemical_formula_sum "Si O2"
_cell_formula_units_Z 64
_cell_length_a 14.313509
_cell_length_b 13.778879
_cell_length_c 17.273135
_cell_angle_alpha 90.000000
_cell_angle_beta 120.528023
_cell_angle_gamma 90.000000
_cell_volume 2934.447664
_symmetry_space_group_name_H-M "C 2/M"
_symmetry_group_IT_number 12
_symmetry_cell_setting 'monoclinic'
loop_
_space_group_symop_operation_xyz
x,y,z
-x,y,-z
-x,-y,-z
x,-y,z
1/2+x,1/2+y,z
1/2-x,1/2+y,-z
1/2-x,1/2-y,-z
1/2+x,1/2-y,z
loop_
_atom_site_type_symbol
_atom_site_label
_atom_site_fract_x
_atom_site_fract_y
_atom_site_fract_z
Si Si1 0.435411 0.251200 0.660232
Si Si2 0.741487 0.114628 0.785550
Si Si3 0.297017 0.107080 0.685095
Si Si4 0.692527 0.108448 0.137395
Si Si5 0.127170 0.232456 0.839682
Si Si6 0.597425 0.390322 0.488354
Si Si7 0.454590 0.887328 0.400986
Si Si8 0.540678 0.277757 0.096836
O O1 0.367751 0.204901 0.702845
O O2 0.540547 0.303839 0.739329
O O3 0.378669 0.327633 0.578861
O O4 0.464924 0.152923 0.628841
O O5 0.682954 0.166586 0.834471
O O6 0.671108 0.135610 0.676736
O O7 0.863622 0.155867 0.825225
O O8 0.745823 0.000000 0.804259
O O9 0.252896 0.113988 0.754086
O O10 0.202614 0.114151 0.584010
O O11 0.354697 0.000000 0.700379
O O12 0.780005 0.151066 0.113856
O O13 0.583406 0.170929 0.092689
O O14 0.662635 0.000000 0.099271
O O15 0.065030 0.239654 0.894648
O O16 0.500000 0.347697 0.500000
O O17 0.570048 0.500000 0.450640
O O18 0.500000 0.840654 0.500000
O O19 0.474635 0.000000 0.412318
O O20 0.500000 0.328093 0.000000
#
# Coordination Sequence:
#
# PCOD8101210 Si02
#       8
#     8   8   8   8   8   8   8   8
#     4  11  19  33  57  83 112 160 203 254 310 368
#     4   9  21  41  65  92 126 169 210 252 315 377
#     4  10  20  36  57  82 116 157 206 257 305 370
#     4  10  22  41  65  91 124 163 206 257 313 374
#     4  10  22  40  63  91 121 159 210 259 311 377
#     4  10  21  35  51  79 119 162 208 255 306 365
#     4   9  18  34  57  88 123 159 205 259 306 362
#     4  11  24  43  65  95 130 161 204 265 320 381
#
# _framework density 21.809895999999998
#
# number of rings (size 3 to 8) (size 9 to 14) (size 15 to 20)
#    0.000    2.000    1.250    1.875    0.000    7.500 
#    2.250    1.250    0.000    0.000    0.000    0.000 
#    0.000    0.000    0.000    0.000    0.000    0.000 
#
# Total GULP energy -396488.187946 kJ/mol
# GULP energy per Si atom -12390.255873 kJ/mol
# Density = 2.176026 g / cm^3
# Si number density = 21.809896 Si / 1000 Ang^3
#
#
#
# Elastic Constant Matrix: (Units=GPa)
#
#
# Indices 1 2 3 4 5 6 
#
# 1 118.0852 44.0537 18.9557 0.0000 -10.4460 0.0000
# 2 44.0537 96.9483 23.4972 0.0000 8.9832 0.0000
# 3 18.9557 23.4972 74.8420 0.0000 -0.8061 0.0000
# 4 0.0000 0.0000 0.0000 6.8697 0.0000 -18.6431
# 5 -10.4460 8.9832 -0.8061 0.0000 21.3202 0.0000
# 6 0.0000 0.0000 0.0000 -18.6431 0.0000 -24.8039
#
#
#
# Elastic Compliance Matrix: (Units=1/GPa)
#
#
# Indices 1 2 3 4 5 6 
#
# 1 0.011466 -0.005701 -0.001028 0.000000 0.007981 0.000000
# 2 -0.005701 0.014521 -0.003212 0.000000 -0.009033 0.000000
# 3 -0.001028 -0.003212 0.014646 0.000000 0.001403 0.000000
# 4 0.000000 0.000000 0.000000 0.047888 0.000000 -0.035993
# 5 0.007981 -0.009033 0.001403 0.000000 0.054673 0.000000
# 6 0.000000 0.000000 0.000000 -0.035993 0.000000 -0.013263
#
#
# Mechanical properties :
#
#
# Convention : Reuss Voigt Hill
#
# Bulk Modulus (GPa) = 48.19309 51.43206 49.81258
# Shear Modulus (GPa) = 31.90207 14.23513 23.06860
#
# Velocity S-wave (km/s) = 3.82872 2.55755 3.25578
# Velocity P-wave (km/s) = 6.45680 5.68811 6.08461
#
# Compressibility (1/GPa) = 0.02074986
#
# Stress axis : x y z
#
# Youngs Moduli (GPa) = 87.21245 68.86731 68.27980
#
# Poissons Ratio (x) = 0.39258 0.07022
# Poissons Ratio (y) = 0.49716 0.21934
# Poissons Ratio (z) = 0.08969 0.22123
#
# Static dielectric constant tensor:
#      x y z
#    x 3.880800 0.000000 0.132400 
#    y 0.000000 4.020070 0.000000 
#    z 0.132400 0.000000 4.071940 
# 
# 
# High freq. dielectric constant tensor:
#      x y z
#    x 1.841520 0.000000 0.005340 
#    y 0.000000 1.856900 0.000000 
#    z 0.005340 0.000000 1.854220 
# 
# From -- ./inp_files/270315.got.cif
#   From: 2010.06.25/outbox.cif.g09.slc.cpg/sg12_136_cif.got.tgz:270315.got - 2010.06.28 00:19:55.
