data_PCOD8101688
_publ_section_title
;
Structure prediction by ZEFSAII (Michael W. Deem and Ramdas Pophale) SiO2 
 PCOD8101688
Probable space group: C 2/M
;
_chemical_formula_sum "Si O2"
_cell_formula_units_Z 56
_cell_length_a 19.858113
_cell_length_b 9.809578
_cell_length_c 14.285440
_cell_angle_alpha 90.000000
_cell_angle_beta 112.159540
_cell_angle_gamma 90.000000
_cell_volume 2577.254097
_symmetry_space_group_name_H-M "C 2/M"
_symmetry_group_IT_number 12
_symmetry_cell_setting 'monoclinic'
loop_
_space_group_symop_operation_xyz
x,y,z
-x,y,-z
-x,-y,-z
x,-y,z
1/2+x,1/2+y,z
1/2-x,1/2+y,-z
1/2-x,1/2-y,-z
1/2+x,1/2-y,z
loop_
_atom_site_type_symbol
_atom_site_label
_atom_site_fract_x
_atom_site_fract_y
_atom_site_fract_z
Si Si1 0.229466 0.645309 0.369161
Si Si2 0.912178 0.342623 0.065247
Si Si3 0.827143 0.253767 0.844682
Si Si4 0.073315 0.347009 0.368518
Si Si5 0.671835 0.844432 0.800723
Si Si6 0.354552 0.841034 0.416483
Si Si7 0.964366 0.843065 0.814961
O O1 0.268476 0.500000 0.408213
O O2 0.203936 0.641864 0.247483
O O3 0.158943 0.656909 0.395823
O O4 0.283950 0.766547 0.422258
O O5 0.937371 0.500000 0.091577
O O6 0.865886 0.278850 0.127844
O O7 0.981350 0.242611 0.090162
O O8 0.863840 0.336929 0.947219
O O9 0.759090 0.168708 0.849005
O O10 0.885350 0.156546 0.822167
O O11 0.041235 0.500000 0.331727
O O12 0.073312 0.314855 0.481162
O O13 0.033186 0.233915 0.285040
O O14 0.634766 0.787071 0.684936
O O15 0.651013 0.000000 0.798047
O O16 0.334401 0.000000 0.403258
O O17 0.989317 0.000000 0.815117
#
# Coordination Sequence:
#
# PCOD8101688 Si02
#       7
#     8   8   8   8   8   8   8
#     4   9  17  28  46  78 113 141 178 227 279 333
#     4  11  23  39  59  82 114 154 190 228 277 333
#     4  10  20  36  59  84 112 146 187 232 278 330
#     4   9  18  33  53  77 108 146 185 228 277 330
#     4   9  19  36  58  86 115 146 188 233 276 327
#     4   9  17  31  52  78 109 145 185 228 275 327
#     4  11  24  39  58  85 114 146 187 235 283 332
#
# _framework density 21.728553000000002
#
# number of rings (size 3 to 8) (size 9 to 14) (size 15 to 20)
#    0.000    2.286    0.000    2.571    0.000    8.000 
#    0.000    4.286    0.000    4.286    0.000    0.000 
#    0.000    0.000    0.000    0.000    0.000    0.000 
#
# Total GULP energy -346926.503382 kJ/mol
# GULP energy per Si atom -12390.232264 kJ/mol
# Density = 2.167910 g / cm^3
# Si number density = 21.728553 Si / 1000 Ang^3
#
#
#
# Elastic Constant Matrix: (Units=GPa)
#
#
# Indices 1 2 3 4 5 6 
#
# 1 47.5086 10.1322 12.5147 0.0000 -5.0910 0.0000
# 2 10.1322 105.8893 37.4305 0.0000 3.9886 0.0000
# 3 12.5147 37.4305 114.0658 0.0000 5.5921 0.0000
# 4 0.0000 0.0000 0.0000 27.4694 0.0000 6.2068
# 5 -5.0910 3.9886 5.5921 0.0000 14.1233 0.0000
# 6 0.0000 0.0000 0.0000 6.2068 0.0000 19.1615
#
#
#
# Elastic Compliance Matrix: (Units=1/GPa)
#
#
# Indices 1 2 3 4 5 6 
#
# 1 0.023109 -0.001713 -0.002453 0.000000 0.009785 0.000000
# 2 -0.001713 0.010848 -0.003255 0.000000 -0.002392 0.000000
# 3 -0.002453 -0.003255 0.010302 0.000000 -0.004044 0.000000
# 4 0.000000 0.000000 0.000000 0.039279 0.000000 -0.012723
# 5 0.009785 -0.002392 -0.004044 0.000000 0.076609 0.000000
# 6 0.000000 0.000000 0.000000 -0.012723 0.000000 0.056309
#
#
# Mechanical properties :
#
#
# Convention : Reuss Voigt Hill
#
# Bulk Modulus (GPa) = 33.99208 43.06872 38.53040
# Shear Modulus (GPa) = 20.73791 25.97658 23.35725
#
# Velocity S-wave (km/s) = 3.09270 3.46136 3.28221
# Velocity P-wave (km/s) = 5.33207 5.98656 5.66877
#
# Compressibility (1/GPa) = 0.02941861
#
# Stress axis : x y z
#
# Youngs Moduli (GPa) = 43.27354 92.18033 97.06577
#
# Poissons Ratio (x) = 0.15787 0.23811
# Poissons Ratio (y) = 0.07411 0.31592
# Poissons Ratio (z) = 0.10615 0.30002
#
# Static dielectric constant tensor:
#      x y z
#    x 3.795710 0.000000 -0.266390 
#    y 0.000000 3.638270 0.000000 
#    z -0.266390 0.000000 4.240650 
# 
# 
# High freq. dielectric constant tensor:
#      x y z
#    x 1.830940 0.000000 -0.010230 
#    y 0.000000 1.826270 0.000000 
#    z -0.010230 0.000000 1.875570 
# 
# From -- ./inp_files/239034.got.cif
#   From: 2010.06.25/outbox.cif.g09.slc.cpg/sg12_120_cif.got.tgz:239034.got - 2010.06.28 00:19:55.
