data_PCOD8101473
_publ_section_title
;
Structure prediction by ZEFSAII (Michael W. Deem and Ramdas Pophale) SiO2 
 PCOD8101473
Probable space group: C 2/M
;
_chemical_formula_sum "Si O2"
_cell_formula_units_Z 56
_cell_length_a 27.317150
_cell_length_b 8.802279
_cell_length_c 13.599811
_cell_angle_alpha 90.000000
_cell_angle_beta 120.079318
_cell_angle_gamma 90.000000
_cell_volume 2829.738817
_symmetry_space_group_name_H-M "C 2/M"
_symmetry_group_IT_number 12
_symmetry_cell_setting 'monoclinic'
loop_
_space_group_symop_operation_xyz
x,y,z
-x,y,-z
-x,-y,-z
x,-y,z
1/2+x,1/2+y,z
1/2-x,1/2+y,-z
1/2-x,1/2-y,-z
1/2+x,1/2-y,z
loop_
_atom_site_type_symbol
_atom_site_label
_atom_site_fract_x
_atom_site_fract_y
_atom_site_fract_z
Si Si1 0.203557 0.821010 0.022921
Si Si2 0.014332 0.324352 0.126695
Si Si3 0.224371 0.180709 0.262856
Si Si4 0.653671 0.821542 0.544952
Si Si5 0.921397 0.177653 0.166889
Si Si6 0.560124 0.175144 0.609622
Si Si7 0.628254 0.679320 0.311706
O O1 0.211431 0.756037 0.141025
O O2 0.211997 0.000000 0.030310
O O3 0.250000 0.750000 0.000000
O O4 0.142303 0.773303 0.921992
O O5 0.027779 0.500000 0.160710
O O6 0.068192 0.225732 0.208653
O O7 0.961371 0.275202 0.137860
O O8 0.000000 0.292025 0.000000
O O9 0.285409 0.240222 0.359401
O O10 0.177352 0.245249 0.290389
O O11 0.223096 0.000000 0.259993
O O12 0.608648 0.777930 0.582509
O O13 0.635578 0.741461 0.427554
O O14 0.654769 0.000000 0.526463
O O15 0.934513 0.215264 0.292496
O O16 0.931612 0.000000 0.157730
O O17 0.500000 0.204636 0.500000
O O18 0.566581 0.000000 0.649210
O O19 0.631777 0.500000 0.319200
#
# Coordination Sequence:
#
# PCOD8101473 Si02
#       7
#     8   8   8   8   8   8   8
#     4  10  21  38  59  85 116 150 190 232 280 337
#     4  11  24  41  61  85 114 150 192 235 282 342
#     4   9  19  36  57  81 113 154 192 230 282 341
#     4  10  20  36  58  83 115 155 196 236 280 336
#     4  11  23  38  60  89 119 150 187 237 289 338
#     4  10  21  37  58  83 114 155 197 236 283 340
#     4  11  22  37  59  85 115 150 189 238 292 341
#
# _framework density 19.789812000000001
#
# number of rings (size 3 to 8) (size 9 to 14) (size 15 to 20)
#    0.000    1.714    0.000    4.286    0.000    6.571 
#    0.000    2.857    0.000    0.000    0.000    0.000 
#    0.000    0.000    0.000    0.000    0.000    0.000 
#
# Total GULP energy -347349.792067 kJ/mol
# GULP energy per Si atom -12405.349717 kJ/mol
# Density = 1.974477 g / cm^3
# Si number density = 19.789812 Si / 1000 Ang^3
#
#
#
# Elastic Constant Matrix: (Units=GPa)
#
#
# Indices 1 2 3 4 5 6 
#
# 1 153.6732 24.1190 57.0758 0.0000 -6.1381 0.0000
# 2 24.1190 25.5482 30.9310 0.0000 -12.8705 0.0000
# 3 57.0758 30.9310 118.2304 0.0000 -11.4225 0.0000
# 4 0.0000 0.0000 0.0000-1061.0439 0.0000 -152.5662
# 5 -6.1381 -12.8705 -11.4225 0.0000 33.7110 0.0000
# 6 0.0000 0.0000 0.0000 -152.5662 0.0000 3.6228
#
#
#
# Elastic Compliance Matrix: (Units=1/GPa)
#
#
# Indices 1 2 3 4 5 6 
#
# 1 0.008298 -0.005163 -0.002791 0.000000 -0.001406 0.000000
# 2 -0.005163 0.072363 -0.014330 0.000000 0.021832 0.000000
# 3 -0.002791 -0.014330 0.013416 0.000000 -0.001433 0.000000
# 4 0.000000 0.000000 0.000000 -0.000134 0.000000 -0.005626
# 5 -0.001406 0.021832 -0.001433 0.000000 0.037257 0.000000
# 6 0.000000 0.000000 0.000000 -0.005626 0.000000 0.039123
#
#
# Mechanical properties :
#
#
# Convention : Reuss Voigt Hill
#
# Bulk Modulus (GPa) = 20.19815 57.96704 39.08259
# Shear Modulus (GPa) = 21.60806 -192.38695 -85.38944
#
# Velocity S-wave (km/s) = 3.30794 -9.87047 -6.57585
# Velocity P-wave (km/s) = 4.98181 10.02730 6.15338
#
# Compressibility (1/GPa) = 0.04950949
#
# Stress axis : x y z
#
# Youngs Moduli (GPa) = 120.50916 13.81919 74.53899
#
# Poissons Ratio (x) = 0.07135 0.20804
# Poissons Ratio (y) = 0.62221 1.06811
# Poissons Ratio (z) = 0.33634 0.19802
#
# Static dielectric constant tensor:
#      x y z
#    x 3.818500 0.000000 0.040890 
#    y 0.000000 3.439920 0.000000 
#    z 0.040890 0.000000 3.769090 
# 
# 
# High freq. dielectric constant tensor:
#      x y z
#    x 1.792990 0.000000 0.000600 
#    y 0.000000 1.755010 0.000000 
#    z 0.000600 0.000000 1.789780 
# 
# From -- ./inp_files/181057.got.cif
#   From: 2010.06.25/outbox.cif.g09.slc.cpg/sg12_91_cif.got.tgz:181057.got - 2010.06.28 00:19:55.
