data_PCOD8101033
_publ_section_title
;
Structure prediction by ZEFSAII (Michael W. Deem and Ramdas Pophale) SiO2 
 PCOD8101033
Probable space group: C 2/M
;
_chemical_formula_sum "Si O2"
_cell_formula_units_Z 52
_cell_length_a 20.356468
_cell_length_b 13.015647
_cell_length_c 20.327097
_cell_angle_alpha 90.000000
_cell_angle_beta 150.551120
_cell_angle_gamma 90.000000
_cell_volume 2647.870763
_symmetry_space_group_name_H-M "C 2/M"
_symmetry_group_IT_number 12
_symmetry_cell_setting 'monoclinic'
loop_
_space_group_symop_operation_xyz
x,y,z
-x,y,-z
-x,-y,-z
x,-y,z
1/2+x,1/2+y,z
1/2-x,1/2+y,-z
1/2-x,1/2-y,-z
1/2+x,1/2-y,z
loop_
_atom_site_type_symbol
_atom_site_label
_atom_site_fract_x
_atom_site_fract_y
_atom_site_fract_z
Si Si1 0.500000 0.188286 0.000000
Si Si2 0.740452 0.713755 0.148735
Si Si3 0.422925 0.118386 0.792364
Si Si4 0.930153 0.116082 0.255486
Si Si5 0.113734 0.783173 0.910630
Si Si6 0.685530 0.724192 0.515064
Si Si7 0.501546 0.881081 0.426873
O O1 0.634750 0.256795 0.112927
O O2 0.529405 0.120129 0.090110
O O3 0.813799 0.816100 0.186280
O O4 0.851285 0.633039 0.268253
O O5 0.645181 0.665191 0.008623
O O6 0.530636 0.177832 0.842464
O O7 0.286339 0.179269 0.657453
O O8 0.412297 0.000000 0.760290
O O9 0.953568 0.136566 0.197887
O O10 0.072899 0.136955 0.412411
O O11 0.886386 0.000000 0.229777
O O12 0.250000 0.750000 0.000000
O O13 0.750000 0.750000 0.500000
O O14 0.614430 0.826099 0.481604
O O15 0.500000 0.838012 0.500000
O O16 0.539387 0.000000 0.458250
#
# Coordination Sequence:
#
# PCOD8101033 Si02
#       7
#     4   8   8   8   8   8   8
#     4  10  21  38  61  86 120 158 199 250 295 356
#     4   9  20  37  58  84 117 153 196 244 294 349
#     4  11  22  37  59  86 118 156 197 243 299 362
#     4  10  20  36  56  82 117 152 191 241 300 360
#     4   9  19  35  51  79 113 149 190 236 290 348
#     4  11  22  40  60  90 123 155 203 258 310 361
#     4  10  22  41  64  88 120 164 207 249 306 370
#
# _framework density 19.63842
#
# number of rings (size 3 to 8) (size 9 to 14) (size 15 to 20)
#    0.000    2.000    1.538    1.615    0.000    8.000 
#    0.000    0.385    0.000    5.077    0.000    0.000 
#    0.000    0.000    0.000    0.000    0.000    0.000 
#
# Total GULP energy -322190.433256 kJ/mol
# GULP energy per Si atom -12391.939741 kJ/mol
# Density = 1.959372 g / cm^3
# Si number density = 19.638420 Si / 1000 Ang^3
#
#
#
# Elastic Constant Matrix: (Units=GPa)
#
#
# Indices 1 2 3 4 5 6 
#
# 1 100.7100 36.8357 32.5046 0.0000 11.8563 0.0001
# 2 36.8357 77.9728 35.8721 0.0000 0.8247 0.0001
# 3 32.5046 35.8721 121.3139 -0.0002 5.3214 0.0000
# 4 0.0000 0.0000 -0.0002 19.3990 -0.0001 -3.8630
# 5 11.8563 0.8247 5.3214 -0.0001 33.4736 0.0001
# 6 0.0001 0.0001 0.0000 -3.8630 0.0001 22.7643
#
#
#
# Elastic Compliance Matrix: (Units=1/GPa)
#
#
# Indices 1 2 3 4 5 6 
#
# 1 0.012898 -0.005259 -0.001718 0.000000 -0.004166 0.000000
# 2 -0.005259 0.016992 -0.003705 0.000000 0.002033 0.000000
# 3 -0.001718 -0.003705 0.009837 0.000000 -0.000864 0.000000
# 4 0.000000 0.000000 0.000000 0.053352 0.000000 0.009053
# 5 -0.004166 0.002033 -0.000864 0.000000 0.031437 0.000000
# 6 0.000000 0.000000 0.000000 0.009053 0.000000 0.045465
#
#
# Mechanical properties :
#
#
# Convention : Reuss Voigt Hill
#
# Bulk Modulus (GPa) = 54.45493 56.71351 55.58422
# Shear Modulus (GPa) = 25.32096 28.11299 26.71697
#
# Velocity S-wave (km/s) = 3.59466 3.78766 3.69242
# Velocity P-wave (km/s) = 6.70953 6.93326 6.82231
#
# Compressibility (1/GPa) = 0.01836381
#
# Stress axis : x y z
#
# Youngs Moduli (GPa) = 77.53222 58.85070 101.65915
#
# Poissons Ratio (x) = 0.30948 0.17466
# Poissons Ratio (y) = 0.40772 0.37662
# Poissons Ratio (z) = 0.13321 0.21802
#
# Static dielectric constant tensor:
#      x y z
#    x 4.980860 -0.000010 -1.188450 
#    y -0.000010 3.477270 0.000010 
#    z -1.188450 0.000010 4.824230 
# 
# 
# High freq. dielectric constant tensor:
#      x y z
#    x 1.767020 0.000000 -0.001660 
#    y 0.000000 1.736630 0.000000 
#    z -0.001660 0.000000 1.789700 
# 
# From -- ./inp_files/321572.got.cif
#   From: 2010.06.25/outbox.cif.g09.slc.cpg/sg12_161_cif.got.tgz:321572.got - 2010.06.28 00:19:55.
