data_PCOD8101042
_publ_section_title
;
Structure prediction by ZEFSAII (Michael W. Deem and Ramdas Pophale) SiO2 
 PCOD8101042
Probable space group: C 2/M
;
_chemical_formula_sum "Si O2"
_cell_formula_units_Z 52
_cell_length_a 10.162977
_cell_length_b 22.563948
_cell_length_c 11.906156
_cell_angle_alpha 90.000000
_cell_angle_beta 70.571035
_cell_angle_gamma 90.000000
_cell_volume 2574.805617
_symmetry_space_group_name_H-M "C 2/M"
_symmetry_group_IT_number 12
_symmetry_cell_setting 'monoclinic'
loop_
_space_group_symop_operation_xyz
x,y,z
-x,y,-z
-x,-y,-z
x,-y,z
1/2+x,1/2+y,z
1/2-x,1/2+y,-z
1/2-x,1/2-y,-z
1/2+x,1/2-y,z
loop_
_atom_site_type_symbol
_atom_site_label
_atom_site_fract_x
_atom_site_fract_y
_atom_site_fract_z
Si Si1 0.000000 0.791627 0.000000
Si Si2 0.730186 0.000000 0.916614
Si Si3 0.489861 0.000000 0.818275
Si Si4 0.651894 0.830103 0.438392
Si Si5 0.892501 0.378135 0.779733
Si Si6 0.845739 0.809291 0.568805
Si Si7 0.363282 0.810483 0.174587
Si Si8 0.709600 0.622426 0.039992
O O1 0.105143 0.753013 0.892571
O O2 0.081159 0.832032 0.068599
O O3 0.647996 0.000000 0.821359
O O4 0.830692 0.057714 0.898968
O O5 0.616851 0.000000 0.048009
O O6 0.468324 0.941908 0.746365
O O7 0.500000 0.857842 0.500000
O O8 0.691690 0.854855 0.305275
O O9 0.755788 0.849769 0.507875
O O10 0.650817 0.760032 0.455223
O O11 0.765814 0.385002 0.899752
O O12 0.005863 0.328907 0.785671
O O13 0.780508 0.813585 0.712595
O O14 0.000000 0.834807 0.500000
O O15 0.339079 0.854769 0.078332
#
# Coordination Sequence:
#
# PCOD8101042 Si02
#       8
#     4   4   4   8   8   8   8   8
#     4  12  26  35  54  97 132 164 186 248 330 376
#     4   9  18  37  60  84 118 163 208 242 294 370
#     4   9  18  34  61  88 111 152 207 253 307 345
#     4  10  20  36  56  83 117 157 204 251 293 357
#     4  11  20  37  61  88 118 153 200 262 300 361
#     4  10  23  38  58  85 121 168 205 241 296 373
#     4  12  22  36  60  88 126 156 198 251 313 370
#     4  11  23  38  58  89 125 161 201 249 309 374
#
# _framework density 20.195699000000001
#
# number of rings (size 3 to 8) (size 9 to 14) (size 15 to 20)
#    0.000    1.385    4.615    1.385    2.154    1.538 
#    0.000    0.385    0.000    0.000    0.000    2.692 
#    0.000    0.000    0.000    0.000    0.000    0.000 
#
# Total GULP energy -322140.705524 kJ/mol
# GULP energy per Si atom -12390.027136 kJ/mol
# Density = 2.014973 g / cm^3
# Si number density = 20.195699 Si / 1000 Ang^3
#
#
#
# Elastic Constant Matrix: (Units=GPa)
#
#
# Indices 1 2 3 4 5 6 
#
# 1 84.6011 51.1906 47.3425 0.0000 16.0480 0.0000
# 2 51.1906 108.1700 26.6248 0.0000 11.1776 0.0000
# 3 47.3425 26.6248 93.2570 0.0000 12.9506 0.0000
# 4 0.0000 0.0000 0.0000 16.3704 0.0000 3.6414
# 5 16.0480 11.1776 12.9506 0.0000 34.2659 0.0000
# 6 0.0000 0.0000 0.0000 3.6414 0.0000 20.6901
#
#
#
# Elastic Compliance Matrix: (Units=1/GPa)
#
#
# Indices 1 2 3 4 5 6 
#
# 1 0.022193 -0.007969 -0.008347 0.000000 -0.004640 0.000000
# 2 -0.007969 0.012978 0.000432 0.000000 -0.000665 0.000000
# 3 -0.008347 0.000432 0.015107 0.000000 -0.001941 0.000000
# 4 0.000000 0.000000 0.000000 0.063575 0.000000 -0.011189
# 5 -0.004640 -0.000665 -0.001941 0.000000 0.032307 0.000000
# 6 0.000000 0.000000 0.000000 -0.011189 0.000000 0.050301
#
#
# Mechanical properties :
#
#
# Convention : Reuss Voigt Hill
#
# Bulk Modulus (GPa) = 54.02158 59.59377 56.80767
# Shear Modulus (GPa) = 21.33126 24.98996 23.16061
#
# Velocity S-wave (km/s) = 3.25349 3.52147 3.39013
# Velocity P-wave (km/s) = 6.39693 6.79018 6.59649
#
# Compressibility (1/GPa) = 0.01851112
#
# Stress axis : x y z
#
# Youngs Moduli (GPa) = 45.05935 77.05288 66.19628
#
# Poissons Ratio (x) = 0.61401 0.55254
# Poissons Ratio (y) = 0.35906 -0.02863
# Poissons Ratio (z) = 0.37611 -0.03332
#
# Static dielectric constant tensor:
#      x y z
#    x 3.771730 0.000000 0.149420 
#    y 0.000000 3.699930 0.000000 
#    z 0.149420 0.000000 3.627610 
# 
# 
# High freq. dielectric constant tensor:
#      x y z
#    x 1.779810 0.000000 0.015130 
#    y 0.000000 1.768530 0.000000 
#    z 0.015130 0.000000 1.775200 
# 
# From -- ./inp_files/133113.got.cif
#   From: 2010.06.25/outbox.cif.g09.slc.cpg/sg12_67_cif.got.tgz:133113.got - 2010.06.28 00:19:55.
