data_PCOD8101904
_publ_section_title
;
Structure prediction by ZEFSAII (Michael W. Deem and Ramdas Pophale) SiO2 
 PCOD8101904
Probable space group: C 2/M
;
_chemical_formula_sum "Si O2"
_cell_formula_units_Z 56
_cell_length_a 18.874539
_cell_length_b 17.424931
_cell_length_c 14.414555
_cell_angle_alpha 90.000000
_cell_angle_beta 142.769280
_cell_angle_gamma 90.000000
_cell_volume 2868.288088
_symmetry_space_group_name_H-M "C 2/M"
_symmetry_group_IT_number 12
_symmetry_cell_setting 'monoclinic'
loop_
_space_group_symop_operation_xyz
x,y,z
-x,y,-z
-x,-y,-z
x,-y,z
1/2+x,1/2+y,z
1/2-x,1/2+y,-z
1/2-x,1/2-y,-z
1/2+x,1/2-y,z
loop_
_atom_site_type_symbol
_atom_site_label
_atom_site_fract_x
_atom_site_fract_y
_atom_site_fract_z
Si Si1 0.576484 0.085027 0.671988
Si Si2 0.070461 0.343450 0.318334
Si Si3 0.437624 0.290984 0.568479
Si Si4 0.169538 0.742987 0.737054
Si Si5 0.316212 0.414473 0.548359
Si Si6 0.001818 0.084719 0.112228
Si Si7 0.934126 0.749986 0.029363
O O1 0.500000 0.086378 0.500000
O O2 0.499011 0.102697 0.681997
O O3 0.674320 0.150614 0.758963
O O4 0.633312 0.000000 0.743187
O O5 0.118310 0.266644 0.415765
O O6 0.184142 0.386474 0.400807
O O7 0.990137 0.317235 0.148929
O O8 0.579547 0.280844 0.717379
O O9 0.381764 0.266642 0.414311
O O10 0.402278 0.375265 0.563278
O O11 0.299395 0.775642 0.880581
O O12 0.315544 0.500000 0.511857
O O13 0.367323 0.407598 0.706987
O O14 0.936775 0.163360 0.077021
O O15 0.950403 0.000000 0.091304
O O16 0.000000 0.084229 0.000000
O O17 0.000000 0.751623 0.000000
#
# Coordination Sequence:
#
# PCOD8101904 Si02
#       7
#     8   8   8   8   8   8   8
#     4  10  20  36  59  90 122 155 193 238 297 351
#     4  11  21  37  60  89 119 155 201 248 287 351
#     4  10  20  38  60  87 115 155 202 245 285 348
#     4  10  21  39  60  86 120 157 198 245 289 352
#     4  11  22  37  61  86 117 154 196 244 295 349
#     4   9  20  34  49  84 124 152 183 230 292 350
#     4  11  23  36  61  89 119 158 199 243 302 345
#
# _framework density 19.523841999999998
#
# number of rings (size 3 to 8) (size 9 to 14) (size 15 to 20)
#    0.000    1.714    4.286    1.714    4.000    2.857 
#    0.000    1.429    0.000    8.571    0.000    0.000 
#    0.000    0.000    0.000    0.000    0.000    0.000 
#
# Total GULP energy -346869.723298 kJ/mol
# GULP energy per Si atom -12388.204403 kJ/mol
# Density = 1.947940 g / cm^3
# Si number density = 19.523842 Si / 1000 Ang^3
#
#
#
# Elastic Constant Matrix: (Units=GPa)
#
#
# Indices 1 2 3 4 5 6 
#
# 1 73.7149 70.2666 43.2363 0.0000 -3.7263 0.0000
# 2 70.2666 124.8338 60.5719 0.0000 9.8479 0.0000
# 3 43.2363 60.5719 107.5215 0.0000 13.0061 0.0000
# 4 0.0000 0.0000 0.0000 25.4432 0.0000 3.5019
# 5 -3.7263 9.8479 13.0061 0.0000 18.4915 0.0000
# 6 0.0000 0.0000 0.0000 3.5019 0.0000 13.2025
#
#
#
# Elastic Compliance Matrix: (Units=1/GPa)
#
#
# Indices 1 2 3 4 5 6 
#
# 1 0.037203 -0.019457 -0.006732 0.000000 0.022594 0.000000
# 2 -0.019457 0.021246 -0.002516 0.000000 -0.013466 0.000000
# 3 -0.006732 -0.002516 0.014675 0.000000 -0.010339 0.000000
# 4 0.000000 0.000000 0.000000 0.040793 0.000000 -0.010820
# 5 0.022594 -0.013466 -0.010339 0.000000 0.073075 0.000000
# 6 0.000000 0.000000 0.000000 -0.010820 0.000000 0.078613
#
#
# Mechanical properties :
#
#
# Convention : Reuss Voigt Hill
#
# Bulk Modulus (GPa) = 63.63490 72.69110 68.16300
# Shear Modulus (GPa) = 15.23217 20.22714 17.72965
#
# Velocity S-wave (km/s) = 2.79621 3.22222 3.01674
# Velocity P-wave (km/s) = 6.56424 7.15237 6.86461
#
# Compressibility (1/GPa) = 0.01571465
#
# Stress axis : x y z
#
# Youngs Moduli (GPa) = 26.87944 47.06867 68.14093
#
# Poissons Ratio (x) = 0.91581 0.45873
# Poissons Ratio (y) = 0.52299 0.17143
# Poissons Ratio (z) = 0.18096 0.11842
#
# Static dielectric constant tensor:
#      x y z
#    x 3.592610 0.000000 -0.096340 
#    y 0.000000 3.963010 0.000000 
#    z -0.096340 0.000000 3.527910 
# 
# 
# High freq. dielectric constant tensor:
#      x y z
#    x 1.743000 0.000000 -0.006020 
#    y 0.000000 1.762920 0.000000 
#    z -0.006020 0.000000 1.754490 
# 
# From -- ./inp_files/234726.got.cif
#   From: 2010.06.25/outbox.cif.g09.slc.cpg/sg12_118_cif.got.tgz:234726.got - 2010.06.28 00:19:55.
