data_PCOD8101611
_publ_section_title
;
Structure prediction by ZEFSAII (Michael W. Deem and Ramdas Pophale) SiO2 
 PCOD8101611
Probable space group: C 2/M
;
_chemical_formula_sum "Si O2"
_cell_formula_units_Z 40
_cell_length_a 20.932458
_cell_length_b 8.855639
_cell_length_c 10.314620
_cell_angle_alpha 90.000000
_cell_angle_beta 80.773823
_cell_angle_gamma 90.000000
_cell_volume 1887.288482
_symmetry_space_group_name_H-M "C 2/M"
_symmetry_group_IT_number 12
_symmetry_cell_setting 'monoclinic'
loop_
_space_group_symop_operation_xyz
x,y,z
-x,y,-z
-x,-y,-z
x,-y,z
1/2+x,1/2+y,z
1/2-x,1/2+y,-z
1/2-x,1/2-y,-z
1/2+x,1/2-y,z
loop_
_atom_site_type_symbol
_atom_site_label
_atom_site_fract_x
_atom_site_fract_y
_atom_site_fract_z
Si Si1 0.314576 0.177550 0.422176
Si Si2 0.946004 0.821767 0.414324
Si Si3 0.281271 0.671539 0.181936
Si Si4 0.338517 0.327184 0.880991
Si Si5 0.518143 0.320807 0.135051
O O1 0.250000 0.250000 0.500000
O O2 0.378784 0.240283 0.472263
O O3 0.319203 0.223294 0.270053
O O4 0.311538 0.000000 0.441265
O O5 0.000000 0.770497 0.500000
O O6 0.967630 0.771749 0.262311
O O7 0.934771 0.000000 0.425847
O O8 0.281455 0.500000 0.232784
O O9 0.207005 0.724604 0.193441
O O10 0.318991 0.687487 0.036455
O O11 0.332077 0.500000 0.835635
O O12 0.411068 0.264387 0.843670
O O13 0.520805 0.500000 0.121335
O O14 0.500000 0.251093 0.000000
#
# Coordination Sequence:
#
# PCOD8101611 Si02
#       5
#     8   8   8   8   8
#     4  12  26  43  64  88 120 162 210 259 315 374
#     4  10  22  40  63  93 126 162 206 254 309 374
#     4  10  20  36  58  88 123 158 204 257 309 363
#     4   9  18  33  58  89 122 162 205 250 302 367
#     4   9  17  32  57  86 119 161 204 245 297 366
#
# _framework density 21.194430000000001
#
# number of rings (size 3 to 8) (size 9 to 14) (size 15 to 20)
#    0.000    2.000    0.000    3.600    2.800    4.400 
#    0.000    1.000    0.000    2.400    0.000    0.000 
#    0.000    0.000    0.000    0.000    0.000    0.000 
#
# Total GULP energy -248030.258800 kJ/mol
# GULP energy per Si atom -12401.512940 kJ/mol
# Density = 2.114619 g / cm^3
# Si number density = 21.194430 Si / 1000 Ang^3
#
#
#
# Elastic Constant Matrix: (Units=GPa)
#
#
# Indices 1 2 3 4 5 6 
#
# 1 165.3107 56.1362 40.6578 0.0000 -7.0818 0.0000
# 2 56.1362 89.4957 31.1781 0.0000 -0.3675 0.0000
# 3 40.6578 31.1781 67.5641 0.0000 8.1312 0.0000
# 4 0.0000 0.0000 0.0000 21.9726 0.0000 4.2421
# 5 -7.0818 -0.3675 8.1312 0.0000 33.3881 0.0000
# 6 0.0000 0.0000 0.0000 4.2421 0.0000 34.6008
#
#
#
# Elastic Compliance Matrix: (Units=1/GPa)
#
#
# Indices 1 2 3 4 5 6 
#
# 1 0.008390 -0.004033 -0.003499 0.000000 0.002587 0.000000
# 2 -0.004033 0.015346 -0.004710 0.000000 0.000461 0.000000
# 3 -0.003499 -0.004710 0.019755 0.000000 -0.005605 0.000000
# 4 0.000000 0.000000 0.000000 0.046615 0.000000 -0.005715
# 5 0.002587 0.000461 -0.005605 0.000000 0.031870 0.000000
# 6 0.000000 0.000000 0.000000 -0.005715 0.000000 0.029602
#
#
# Mechanical properties :
#
#
# Convention : Reuss Voigt Hill
#
# Bulk Modulus (GPa) = 52.61457 64.25719 58.43588
# Shear Modulus (GPa) = 27.41265 30.95219 29.18242
#
# Velocity S-wave (km/s) = 3.60027 3.82565 3.71467
# Velocity P-wave (km/s) = 6.49317 7.06385 6.78451
#
# Compressibility (1/GPa) = 0.01900614
#
# Stress axis : x y z
#
# Youngs Moduli (GPa) = 119.18592 65.16243 50.62119
#
# Poissons Ratio (x) = 0.26281 0.17714
# Poissons Ratio (y) = 0.48069 0.23843
# Poissons Ratio (z) = 0.41706 0.30692
#
# Static dielectric constant tensor:
#      x y z
#    x 4.049700 0.000000 0.082580 
#    y 0.000000 3.585170 0.000000 
#    z 0.082580 0.000000 3.909160 
# 
# 
# High freq. dielectric constant tensor:
#      x y z
#    x 1.847950 0.000000 0.001730 
#    y 0.000000 1.794980 0.000000 
#    z 0.001730 0.000000 1.833950 
# 
# From -- ./inp_files/162494.got.cif
#   From: 2010.06.25/outbox.cif.g09.slc.cpg/sg12_82_cif.got.tgz:162494.got - 2010.06.28 00:19:55.
