data_PCOD8101564
_publ_section_title
;
Structure prediction by ZEFSAII (Michael W. Deem and Ramdas Pophale) SiO2 
 PCOD8101564
Probable space group: C 2/M
;
_chemical_formula_sum "Si O2"
_cell_formula_units_Z 56
_cell_length_a 18.824749
_cell_length_b 8.982427
_cell_length_c 20.821942
_cell_angle_alpha 90.000000
_cell_angle_beta 57.364929
_cell_angle_gamma 90.000000
_cell_volume 2964.963634
_symmetry_space_group_name_H-M "C 2/M"
_symmetry_group_IT_number 12
_symmetry_cell_setting 'monoclinic'
loop_
_space_group_symop_operation_xyz
x,y,z
-x,y,-z
-x,-y,-z
x,-y,z
1/2+x,1/2+y,z
1/2-x,1/2+y,-z
1/2-x,1/2-y,-z
1/2+x,1/2-y,z
loop_
_atom_site_type_symbol
_atom_site_label
_atom_site_fract_x
_atom_site_fract_y
_atom_site_fract_z
Si Si1 0.902883 0.669943 0.561583
Si Si2 0.757952 0.822864 0.565788
Si Si3 0.775888 0.163837 0.170770
Si Si4 0.780273 0.824301 0.920555
Si Si5 0.851265 0.175771 0.268240
Si Si6 0.036172 0.172098 0.213958
Si Si7 0.089347 0.338167 0.302737
O O1 0.867444 0.500000 0.573905
O O2 0.852551 0.780303 0.540141
O O3 0.892294 0.737370 0.638000
O O4 0.000000 0.675223 0.500000
O O5 0.750000 0.750000 0.500000
O O6 0.692323 0.758486 0.650503
O O7 0.746390 0.000000 0.566788
O O8 0.783853 0.271982 0.105247
O O9 0.815291 0.232594 0.217038
O O10 0.676819 0.143352 0.224502
O O11 0.816620 0.000000 0.137405
O O12 0.878572 0.775329 0.863575
O O13 0.771983 0.000000 0.930171
O O14 0.750000 0.750000 0.000000
O O15 0.951269 0.211987 0.216526
O O16 0.833402 0.000000 0.284763
O O17 0.026449 0.244858 0.289059
O O18 0.043022 0.000000 0.224616
O O19 0.046804 0.500000 0.335353
#
# Coordination Sequence:
#
# PCOD8101564 Si02
#       7
#     8   8   8   8   8   8   8
#     4  10  21  38  58  81 111 145 188 239 291 343
#     4  12  26  41  58  81 114 155 198 243 293 345
#     4   9  17  33  58  81 107 145 183 222 276 335
#     4  10  20  36  58  86 116 147 185 227 276 333
#     4  10  20  39  61  83 114 150 189 237 289 341
#     4   9  20  35  56  84 113 144 185 232 276 331
#     4   9  17  32  53  78 107 142 182 227 277 332
#
# _framework density 18.887246000000001
#
# number of rings (size 3 to 8) (size 9 to 14) (size 15 to 20)
#    0.000    2.143    1.429    1.714    2.000    2.571 
#    0.000    0.714    0.000    4.286    0.000    0.000 
#    0.000    0.000    0.000    0.000    0.000    0.000 
#
# Total GULP energy -346966.278843 kJ/mol
# GULP energy per Si atom -12391.652816 kJ/mol
# Density = 1.884426 g / cm^3
# Si number density = 18.887246 Si / 1000 Ang^3
#
#
#
# Elastic Constant Matrix: (Units=GPa)
#
#
# Indices 1 2 3 4 5 6 
#
# 1 118.1100 48.9531 62.0200 -0.0001 18.4040 -0.0002
# 2 48.9531 81.2792 60.5906 -0.0003 12.1157 -0.0006
# 3 62.0200 60.5906 128.3159 0.0000 29.1968 -0.0001
# 4 -0.0001 -0.0003 0.0000 30.3458 0.0000 7.3811
# 5 18.4040 12.1157 29.1968 0.0000 30.2586 0.0000
# 6 -0.0002 -0.0006 -0.0001 7.3811 0.0000 30.1597
#
#
#
# Elastic Compliance Matrix: (Units=1/GPa)
#
#
# Indices 1 2 3 4 5 6 
#
# 1 0.012537 -0.004765 -0.003215 0.000000 -0.002616 0.000000
# 2 -0.004765 0.020840 -0.008070 0.000000 0.002341 0.000000
# 3 -0.003215 -0.008070 0.015347 0.000000 -0.009622 0.000000
# 4 0.000000 0.000000 0.000000 0.035039 0.000000 -0.008575
# 5 -0.002616 0.002341 -0.009622 0.000000 0.042987 0.000000
# 6 0.000000 0.000000 0.000000 -0.008575 0.000000 0.035255
#
#
# Mechanical properties :
#
#
# Convention : Reuss Voigt Hill
#
# Bulk Modulus (GPa) = 60.14929 74.53694 67.34311
# Shear Modulus (GPa) = 25.04422 28.56224 26.80323
#
# Velocity S-wave (km/s) = 3.64536 3.89298 3.77121
# Velocity P-wave (km/s) = 7.04513 7.73026 7.39563
#
# Compressibility (1/GPa) = 0.01662530
#
# Stress axis : x y z
#
# Youngs Moduli (GPa) = 79.76351 47.98426 65.15829
#
# Poissons Ratio (x) = 0.22862 0.20946
# Poissons Ratio (y) = 0.38004 0.52585
# Poissons Ratio (z) = 0.25641 0.38725
#
# Static dielectric constant tensor:
#      x y z
#    x 3.571290 0.000000 0.070830 
#    y 0.000000 3.661150 0.000000 
#    z 0.070830 0.000000 3.316380 
# 
# 
# High freq. dielectric constant tensor:
#      x y z
#    x 1.733600 0.000000 0.014720 
#    y 0.000000 1.723690 0.000000 
#    z 0.014720 0.000000 1.727780 
# 
# From -- ./inp_files/275041.got.cif
#   From: 2010.06.25/outbox.cif.g09.slc.cpg/sg12_138_cif.got.tgz:275041.got - 2010.06.28 00:19:55.
