data_PCOD8101822
_publ_section_title
;
Structure prediction by ZEFSAII (Michael W. Deem and Ramdas Pophale) SiO2 
 PCOD8101822
Probable space group: C 2/M
;
_chemical_formula_sum "Si O2"
_cell_formula_units_Z 56
_cell_length_a 23.668695
_cell_length_b 8.712530
_cell_length_c 14.775519
_cell_angle_alpha 90.000000
_cell_angle_beta 70.054929
_cell_angle_gamma 90.000000
_cell_volume 2864.167917
_symmetry_space_group_name_H-M "C 2/M"
_symmetry_group_IT_number 12
_symmetry_cell_setting 'monoclinic'
loop_
_space_group_symop_operation_xyz
x,y,z
-x,y,-z
-x,-y,-z
x,-y,z
1/2+x,1/2+y,z
1/2-x,1/2+y,-z
1/2-x,1/2-y,-z
1/2+x,1/2-y,z
loop_
_atom_site_type_symbol
_atom_site_label
_atom_site_fract_x
_atom_site_fract_y
_atom_site_fract_z
Si Si1 0.824464 0.822727 0.865223
Si Si2 0.390393 0.319640 0.541711
Si Si3 0.736203 0.181730 0.410913
Si Si4 0.302280 0.322328 0.079259
Si Si5 0.069868 0.320425 0.302470
Si Si6 0.349749 0.320292 0.239986
Si Si7 0.050595 0.181695 0.680168
O O1 0.756513 0.781153 0.876190
O O2 0.869820 0.718396 0.784665
O O3 0.836283 0.000000 0.834954
O O4 0.834703 0.789682 0.966332
O O5 0.380876 0.500000 0.550672
O O6 0.326835 0.238957 0.593097
O O7 0.433625 0.266349 0.599245
O O8 0.418107 0.269628 0.430907
O O9 0.750000 0.250000 0.500000
O O10 0.787873 0.243588 0.315731
O O11 0.735382 0.000000 0.417911
O O12 0.282157 0.500000 0.097236
O O13 0.349787 0.280635 0.132960
O O14 0.067199 0.500000 0.321906
O O15 0.013009 0.265734 0.274888
O O16 0.351469 0.500000 0.257090
O O17 0.408036 0.253873 0.260114
O O18 0.040063 0.000000 0.690815
#
# Coordination Sequence:
#
# PCOD8101822 Si02
#       7
#     8   8   8   8   8   8   8
#     4  10  20  36  59  87 115 146 184 230 283 336
#     4  11  22  38  59  84 111 147 189 236 289 339
#     4  11  20  33  54  83 118 153 186 226 274 329
#     4   9  18  35  62  90 115 143 181 231 283 336
#     4  12  25  39  56  80 110 149 192 237 281 333
#     4   9  18  35  57  82 112 148 185 224 278 332
#     4  10  21  39  58  78 110 150 188 231 280 339
#
# _framework density 19.551926000000002
#
# number of rings (size 3 to 8) (size 9 to 14) (size 15 to 20)
#    0.000    1.714    1.429    3.857    0.000    4.571 
#    0.000    2.143    0.000    4.286    0.000    0.000 
#    0.000    0.000    0.000    0.000    0.000    0.000 
#
# Total GULP energy -347262.043550 kJ/mol
# GULP energy per Si atom -12402.215841 kJ/mol
# Density = 1.950743 g / cm^3
# Si number density = 19.551926 Si / 1000 Ang^3
#
#
#
# Elastic Constant Matrix: (Units=GPa)
#
#
# Indices 1 2 3 4 5 6 
#
# 1 98.2659 19.1407 34.2126 0.0000 20.2003 0.0000
# 2 19.1407 55.1330 23.8050 0.0000 2.2582 0.0000
# 3 34.2126 23.8050 86.9609 0.0000 24.6793 0.0000
# 4 0.0000 0.0000 0.0000 22.8748 0.0000 -2.2956
# 5 20.2003 2.2582 24.6793 0.0000 32.4629 0.0000
# 6 0.0000 0.0000 0.0000 -2.2956 0.0000 32.7502
#
#
#
# Elastic Compliance Matrix: (Units=1/GPa)
#
#
# Indices 1 2 3 4 5 6 
#
# 1 0.012877 -0.003131 -0.002546 0.000000 -0.005860 0.000000
# 2 -0.003131 0.021672 -0.006153 0.000000 0.005119 0.000000
# 3 -0.002546 -0.006153 0.017360 0.000000 -0.011185 0.000000
# 4 0.000000 0.000000 0.000000 0.044026 0.000000 0.003086
# 5 -0.005860 0.005119 -0.011185 0.000000 0.042598 0.000000
# 6 0.000000 0.000000 0.000000 0.003086 0.000000 0.030750
#
#
# Mechanical properties :
#
#
# Convention : Reuss Voigt Hill
#
# Bulk Modulus (GPa) = 35.40110 43.85294 39.62702
# Shear Modulus (GPa) = 24.70823 28.49768 26.60296
#
# Velocity S-wave (km/s) = 3.55875 3.82191 3.69267
# Velocity P-wave (km/s) = 5.91876 6.47717 6.20425
#
# Compressibility (1/GPa) = 0.02824771
#
# Stress axis : x y z
#
# Youngs Moduli (GPa) = 77.65526 46.14186 57.60381
#
# Poissons Ratio (x) = 0.14448 0.14667
# Poissons Ratio (y) = 0.24316 0.35446
# Poissons Ratio (z) = 0.19773 0.28393
#
# Static dielectric constant tensor:
#      x y z
#    x 3.745440 0.000000 0.159860 
#    y 0.000000 3.427330 0.000000 
#    z 0.159860 0.000000 3.622190 
# 
# 
# High freq. dielectric constant tensor:
#      x y z
#    x 1.763880 0.000000 0.013190 
#    y 0.000000 1.749630 0.000000 
#    z 0.013190 0.000000 1.759370 
# 
# From -- ./inp_files/237428.got.cif
#   From: 2010.06.25/outbox.cif.g09.slc.cpg/sg12_119_cif.got.tgz:237428.got - 2010.06.28 00:19:55.
