data_PCOD8101063
_publ_section_title
;
Structure prediction by ZEFSAII (Michael W. Deem and Ramdas Pophale) SiO2 
 PCOD8101063
Probable space group: C 2/M
;
_chemical_formula_sum "Si O2"
_cell_formula_units_Z 60
_cell_length_a 12.475091
_cell_length_b 18.256022
_cell_length_c 13.588610
_cell_angle_alpha 90.000000
_cell_angle_beta 106.739255
_cell_angle_gamma 90.000000
_cell_volume 2963.606644
_symmetry_space_group_name_H-M "C 2/M"
_symmetry_group_IT_number 12
_symmetry_cell_setting 'monoclinic'
loop_
_space_group_symop_operation_xyz
x,y,z
-x,y,-z
-x,-y,-z
x,-y,z
1/2+x,1/2+y,z
1/2-x,1/2+y,-z
1/2-x,1/2-y,-z
1/2+x,1/2-y,z
loop_
_atom_site_type_symbol
_atom_site_label
_atom_site_fract_x
_atom_site_fract_y
_atom_site_fract_z
Si Si1 0.363721 0.650617 0.240635
Si Si2 0.684315 0.184918 0.731107
Si Si3 0.500000 0.798619 0.000000
Si Si4 0.055690 0.349253 0.291287
Si Si5 0.629260 0.419968 0.551212
Si Si6 0.430537 0.297869 0.802391
Si Si7 0.650732 0.083864 0.122386
Si Si8 0.294172 0.170433 0.488919
O O1 0.324201 0.734001 0.227350
O O2 0.353247 0.631171 0.351282
O O3 0.486852 0.642317 0.224865
O O4 0.283618 0.597517 0.156859
O O5 0.579839 0.140141 0.750019
O O6 0.811835 0.161511 0.796342
O O7 0.661695 0.172521 0.610030
O O8 0.503504 0.743381 0.092406
O O9 0.603526 0.856150 0.032086
O O10 0.095559 0.265493 0.283394
O O11 0.103803 0.402777 0.220422
O O12 0.108761 0.362331 0.413225
O O13 0.500000 0.427801 0.500000
O O14 0.681480 0.500000 0.585024
O O15 0.688548 0.384238 0.472047
O O16 0.624999 0.000000 0.083403
O O17 0.250000 0.250000 0.500000
#
# Coordination Sequence:
#
# PCOD8101063 Si02
#       8
#     8   8   4   8   8   8   8   8
#     4  11  20  35  59  84 116 154 188 239 295 343
#     4  11  20  35  55  85 117 151 190 241 295 335
#     4  10  21  40  58  92 113 142 188 246 302 346
#     4  10  21  34  53  88 114 152 193 234 289 339
#     4  11  23  35  53  85 122 158 195 236 285 344
#     4  10  20  36  56  85 119 141 185 243 298 346
#     4  11  21  40  60  83 117 154 195 235 288 352
#     4  12  19  33  55  83 117 156 199 240 280 339
#
# _framework density 20.245602000000002
#
# number of rings (size 3 to 8) (size 9 to 14) (size 15 to 20)
#    0.000    1.200    6.667    1.800    1.867    0.533 
#    2.400    0.667    0.000    3.200    0.000    1.867 
#    0.000    0.000    0.000    0.000    0.000    0.000 
#
# Total GULP energy -371645.970648 kJ/mol
# GULP energy per Si atom -12388.199022 kJ/mol
# Density = 2.019952 g / cm^3
# Si number density = 20.245602 Si / 1000 Ang^3
#
#
#
# Elastic Constant Matrix: (Units=GPa)
#
#
# Indices 1 2 3 4 5 6 
#
# 1 129.7501 28.3064 10.2957 0.0000 15.9022 0.0000
# 2 28.3064 54.2186 5.7884 0.0000 0.7780 0.0000
# 3 10.2957 5.7884 73.4632 0.0000 14.7043 0.0000
# 4 0.0000 0.0000 0.0000 18.7030 0.0000 -3.6890
# 5 15.9022 0.7780 14.7043 0.0000 21.4693 0.0000
# 6 0.0000 0.0000 0.0000 -3.6890 0.0000 25.3729
#
#
#
# Elastic Compliance Matrix: (Units=1/GPa)
#
#
# Indices 1 2 3 4 5 6 
#
# 1 0.009652 -0.004988 0.000504 0.000000 -0.007313 0.000000
# 2 -0.004988 0.021181 -0.001803 0.000000 0.004162 0.000000
# 3 0.000504 -0.001803 0.015929 0.000000 -0.011218 0.000000
# 4 0.000000 0.000000 0.000000 0.055046 0.000000 0.008003
# 5 -0.007313 0.004162 -0.011218 0.000000 0.059528 0.000000
# 6 0.000000 0.000000 0.000000 0.008003 0.000000 0.040576
#
#
# Mechanical properties :
#
#
# Convention : Reuss Voigt Hill
#
# Bulk Modulus (GPa) = 29.24971 38.46810 33.85890
# Shear Modulus (GPa) = 22.13571 27.31180 24.72375
#
# Velocity S-wave (km/s) = 3.31018 3.67689 3.49835
# Velocity P-wave (km/s) = 5.39338 6.08835 5.75137
#
# Compressibility (1/GPa) = 0.03418837
#
# Stress axis : x y z
#
# Youngs Moduli (GPa) = 103.60988 47.21296 62.77856
#
# Poissons Ratio (x) = 0.23549 -0.03165
# Poissons Ratio (y) = 0.51678 0.11318
# Poissons Ratio (z) = -0.05224 0.08512
#
# Static dielectric constant tensor:
#      x y z
#    x 3.787620 0.000000 -0.028920 
#    y 0.000000 3.497080 0.000000 
#    z -0.028920 0.000000 3.789830 
# 
# 
# High freq. dielectric constant tensor:
#      x y z
#    x 1.799440 0.000000 0.016850 
#    y 0.000000 1.749870 0.000000 
#    z 0.016850 0.000000 1.781250 
# 
# From -- ./inp_files/206726.got.cif
#   From: 2010.06.25/outbox.cif.g09.slc.cpg/sg12_104_cif.got.tgz:206726.got - 2010.06.28 00:19:55.
