data_PCOD8101689
_publ_section_title
;
Structure prediction by ZEFSAII (Michael W. Deem and Ramdas Pophale) SiO2 
 PCOD8101689
Probable space group: C 2/M
;
_chemical_formula_sum "Si O2"
_cell_formula_units_Z 56
_cell_length_a 16.383632
_cell_length_b 8.645204
_cell_length_c 23.335359
_cell_angle_alpha 90.000000
_cell_angle_beta 57.192206
_cell_angle_gamma 90.000000
_cell_volume 2778.011053
_symmetry_space_group_name_H-M "C 2/M"
_symmetry_group_IT_number 12
_symmetry_cell_setting 'monoclinic'
loop_
_space_group_symop_operation_xyz
x,y,z
-x,y,-z
-x,-y,-z
x,-y,z
1/2+x,1/2+y,z
1/2-x,1/2+y,-z
1/2-x,1/2-y,-z
1/2+x,1/2-y,z
loop_
_atom_site_type_symbol
_atom_site_label
_atom_site_fract_x
_atom_site_fract_y
_atom_site_fract_z
Si Si1 0.257916 0.822540 0.435577
Si Si2 0.455279 0.682655 0.846986
Si Si3 0.728878 0.323481 0.155335
Si Si4 0.400604 0.173192 0.570857
Si Si5 0.091441 0.178613 0.308961
Si Si6 0.067138 0.679832 0.704899
Si Si7 0.947084 0.680483 0.079323
O O1 0.250000 0.750000 0.500000
O O2 0.155624 0.793718 0.446508
O O3 0.337636 0.749893 0.362177
O O4 0.283693 0.000000 0.434515
O O5 0.447966 0.500000 0.852143
O O6 0.351589 0.747516 0.859620
O O7 0.544465 0.728690 0.771729
O O8 0.483305 0.745043 0.898835
O O9 0.742158 0.500000 0.131402
O O10 0.691192 0.310137 0.235040
O O11 0.837275 0.247167 0.114863
O O12 0.500000 0.156987 0.500000
O O13 0.399238 0.256717 0.631753
O O14 0.355455 0.000000 0.593764
O O15 0.017616 0.295287 0.307899
O O16 0.055103 0.000000 0.323091
O O17 0.079285 0.500000 0.715708
O O18 0.939431 0.500000 0.096891
O O19 0.000000 0.714039 0.000000
#
# Coordination Sequence:
#
# PCOD8101689 Si02
#       7
#     8   8   8   8   8   8   8
#     4  11  24  39  57  81 111 149 190 238 293 349
#     4  10  21  38  60  87 119 157 198 247 301 355
#     4   8  18  37  58  83 119 156 192 239 298 354
#     4  11  24  39  55  79 113 150 191 239 286 342
#     4  10  20  36  59  84 112 148 190 239 293 347
#     4  10  21  38  59  84 114 148 189 239 294 350
#     4  10  21  38  61  88 120 160 201 244 298 363
#
# _framework density 20.158307000000001
#
# number of rings (size 3 to 8) (size 9 to 14) (size 15 to 20)
#    0.000    2.000    0.000    3.857    2.000    7.714 
#    0.000    3.571    0.000    0.000    0.000    0.000 
#    0.000    0.000    0.000    0.000    0.000    0.000 
#
# Total GULP energy -346916.177053 kJ/mol
# GULP energy per Si atom -12389.863466 kJ/mol
# Density = 2.011243 g / cm^3
# Si number density = 20.158307 Si / 1000 Ang^3
#
#
#
# Elastic Constant Matrix: (Units=GPa)
#
#
# Indices 1 2 3 4 5 6 
#
# 1 101.4664 23.5128 64.4244 0.0000 10.9064 0.0000
# 2 23.5128 50.1902 38.5729 0.0000 2.9568 0.0001
# 3 64.4244 38.5729 116.6822 0.0000 9.6750 -0.0001
# 4 0.0000 0.0000 0.0000 35.7325 0.0000 12.0878
# 5 10.9064 2.9568 9.6750 0.0000 41.7835 0.0000
# 6 0.0000 0.0001 -0.0001 12.0878 0.0000 34.0906
#
#
#
# Elastic Compliance Matrix: (Units=1/GPa)
#
#
# Indices 1 2 3 4 5 6 
#
# 1 0.015383 -0.000924 -0.008015 0.000000 -0.002094 0.000000
# 2 -0.000924 0.026767 -0.008362 0.000000 0.000283 0.000000
# 3 -0.008015 -0.008362 0.015841 0.000000 -0.000984 0.000000
# 4 0.000000 0.000000 0.000000 0.031800 0.000000 -0.011276
# 5 -0.002094 0.000283 -0.000984 0.000000 0.024687 0.000000
# 6 0.000000 0.000000 0.000000 -0.011276 0.000000 0.033332
#
#
# Mechanical properties :
#
#
# Convention : Reuss Voigt Hill
#
# Bulk Modulus (GPa) = 42.75215 57.92878 50.34046
# Shear Modulus (GPa) = 26.28691 31.77658 29.03174
#
# Velocity S-wave (km/s) = 3.61504 3.97464 3.79910
# Velocity P-wave (km/s) = 6.21924 7.06137 6.65364
#
# Compressibility (1/GPa) = 0.02339064
#
# Stress axis : x y z
#
# Youngs Moduli (GPa) = 65.00487 37.35975 63.12558
#
# Poissons Ratio (x) = 0.03451 0.50593
# Poissons Ratio (y) = 0.06005 0.52786
# Poissons Ratio (z) = 0.52100 0.31240
#
# Static dielectric constant tensor:
#      x y z
#    x 3.940940 0.000000 -0.339860 
#    y 0.000000 3.651460 0.000000 
#    z -0.339860 0.000000 3.929840 
# 
# 
# High freq. dielectric constant tensor:
#      x y z
#    x 1.790780 0.000000 0.003140 
#    y 0.000000 1.772790 0.000000 
#    z 0.003140 0.000000 1.795680 
# 
# From -- ./inp_files/338579.got.cif
#   From: 2010.06.25/outbox.cif.g09.slc.cpg/sg12_170_cif.got.tgz:338579.got - 2010.06.28 00:19:55.
