data_PCOD8101823
_publ_section_title
;
Structure prediction by ZEFSAII (Michael W. Deem and Ramdas Pophale) SiO2 
 PCOD8101823
Probable space group: C 2/M
;
_chemical_formula_sum "Si O2"
_cell_formula_units_Z 64
_cell_length_a 24.283652
_cell_length_b 8.565349
_cell_length_c 15.119460
_cell_angle_alpha 90.000000
_cell_angle_beta 87.425474
_cell_angle_gamma 90.000000
_cell_volume 3141.642498
_symmetry_space_group_name_H-M "C 2/M"
_symmetry_group_IT_number 12
_symmetry_cell_setting 'monoclinic'
loop_
_space_group_symop_operation_xyz
x,y,z
-x,y,-z
-x,-y,-z
x,-y,z
1/2+x,1/2+y,z
1/2-x,1/2+y,-z
1/2-x,1/2-y,-z
1/2+x,1/2-y,z
loop_
_atom_site_type_symbol
_atom_site_label
_atom_site_fract_x
_atom_site_fract_y
_atom_site_fract_z
Si Si1 0.532802 0.316488 0.910011
Si Si2 0.331379 0.816431 0.536007
Si Si3 0.771624 0.179951 0.178539
Si Si4 0.453359 0.816307 0.567926
Si Si5 0.842357 0.818896 0.857146
Si Si6 0.642953 0.819512 0.955817
Si Si7 0.270464 0.818751 0.362659
Si Si8 0.454948 0.317745 0.756211
O O1 0.545155 0.500000 0.909235
O O2 0.589810 0.222799 0.901144
O O3 0.498011 0.264245 0.827583
O O4 0.500000 0.266964 0.000000
O O5 0.393032 0.750595 0.545837
O O6 0.313149 0.777492 0.437392
O O7 0.291642 0.727615 0.606767
O O8 0.326494 0.000000 0.555823
O O9 0.706964 0.210902 0.172244
O O10 0.802871 0.285015 0.104928
O O11 0.790491 0.223158 0.276029
O O12 0.785019 0.000000 0.159291
O O13 0.500000 0.743834 0.500000
O O14 0.469076 0.774679 0.666595
O O15 0.452052 0.000000 0.556019
O O16 0.893879 0.774479 0.792361
O O17 0.826464 0.000000 0.848348
O O18 0.857853 0.786489 0.957183
O O19 0.642990 0.000000 0.983127
O O20 0.271027 0.000000 0.338465
O O21 0.460395 0.500000 0.736881
#
# Coordination Sequence:
#
# PCOD8101823 Si02
#       8
#     8   8   8   8   8   8   8   8
#     4  10  20  41  65  87 120 160 199 248 303 357
#     4   9  19  37  60  84 115 154 197 244 301 362
#     4  12  25  40  58  86 123 161 200 246 304 363
#     4  10  22  39  58  84 120 158 195 244 302 354
#     4  11  22  41  64  88 120 158 199 247 303 361
#     4  12  25  40  60  89 121 158 202 249 300 357
#     4  10  20  36  59  87 116 151 198 248 298 358
#     4  10  22  39  64  92 118 156 202 247 301 358
#
# _framework density 20.371510000000001
#
# number of rings (size 3 to 8) (size 9 to 14) (size 15 to 20)
#    0.000    1.500    1.250    4.125    0.000    6.000 
#    0.000    1.250    0.000    0.000    0.000    0.000 
#    0.000    0.000    0.000    0.000    0.000    0.000 
#
# Total GULP energy -397009.199058 kJ/mol
# GULP energy per Si atom -12406.537471 kJ/mol
# Density = 2.032514 g / cm^3
# Si number density = 20.371510 Si / 1000 Ang^3
#
#
#
# Elastic Constant Matrix: (Units=GPa)
#
#
# Indices 1 2 3 4 5 6 
#
# 1 80.4932 14.5882 47.1243 0.0000 5.1012 0.0000
# 2 14.5882 44.2884 18.3331 0.0000 -1.6479 0.0000
# 3 47.1243 18.3331 121.0054 0.0000 -3.1868 0.0000
# 4 0.0000 0.0000 0.0000 34.4639 0.0000 1.3270
# 5 5.1012 -1.6479 -3.1868 0.0000 31.5989 0.0000
# 6 0.0000 0.0000 0.0000 1.3270 0.0000 31.3609
#
#
#
# Elastic Compliance Matrix: (Units=1/GPa)
#
#
# Indices 1 2 3 4 5 6 
#
# 1 0.016823 -0.003117 -0.006172 0.000000 -0.003501 0.000000
# 2 -0.003117 0.024693 -0.002487 0.000000 0.001540 0.000000
# 3 -0.006172 -0.002487 0.011097 0.000000 0.001986 0.000000
# 4 0.000000 0.000000 0.000000 0.029063 0.000000 -0.001230
# 5 -0.003501 0.001540 0.001986 0.000000 0.032492 0.000000
# 6 0.000000 0.000000 0.000000 -0.001230 0.000000 0.031939
#
#
# Mechanical properties :
#
#
# Convention : Reuss Voigt Hill
#
# Bulk Modulus (GPa) = 34.40915 45.09758 39.75336
# Shear Modulus (GPa) = 27.87923 30.53416 29.20670
#
# Velocity S-wave (km/s) = 3.70339 3.87572 3.79054
# Velocity P-wave (km/s) = 5.93416 6.49722 6.22207
#
# Compressibility (1/GPa) = 0.02906204
#
# Stress axis : x y z
#
# Youngs Moduli (GPa) = 59.44129 40.49788 90.11762
#
# Poissons Ratio (x) = 0.12623 0.55617
# Poissons Ratio (y) = 0.18528 0.22409
# Poissons Ratio (z) = 0.36685 0.10070
#
# Static dielectric constant tensor:
#      x y z
#    x 3.818700 0.000000 0.048890 
#    y 0.000000 3.507810 0.000000 
#    z 0.048890 0.000000 3.730020 
# 
# 
# High freq. dielectric constant tensor:
#      x y z
#    x 1.800580 0.000000 0.005500 
#    y 0.000000 1.788550 0.000000 
#    z 0.005500 0.000000 1.803760 
# 
# From -- ./inp_files/238574.got.cif
#   From: 2010.06.25/outbox.cif.g09.slc.cpg/sg12_120_cif.got.tgz:238574.got - 2010.06.28 00:19:55.
