data_PCOD8101004
_publ_section_title
;
Structure prediction by ZEFSAII (Michael W. Deem and Ramdas Pophale) SiO2 
 PCOD8101004
Probable space group: C 2/M
;
_chemical_formula_sum "Si O2"
_cell_formula_units_Z 48
_cell_length_a 19.208807
_cell_length_b 8.751074
_cell_length_c 15.764045
_cell_angle_alpha 90.000000
_cell_angle_beta 103.373215
_cell_angle_gamma 90.000000
_cell_volume 2578.045190
_symmetry_space_group_name_H-M "C 2/M"
_symmetry_group_IT_number 12
_symmetry_cell_setting 'monoclinic'
loop_
_space_group_symop_operation_xyz
x,y,z
-x,y,-z
-x,-y,-z
x,-y,z
1/2+x,1/2+y,z
1/2-x,1/2+y,-z
1/2-x,1/2-y,-z
1/2+x,1/2-y,z
loop_
_atom_site_type_symbol
_atom_site_label
_atom_site_fract_x
_atom_site_fract_y
_atom_site_fract_z
Si Si1 0.205925 0.322270 0.747127
Si Si2 0.162875 0.320595 0.138173
Si Si3 0.426261 0.321401 0.024299
Si Si4 0.085513 0.820713 0.273984
Si Si5 0.273072 0.322306 0.593696
Si Si6 0.941265 0.322931 0.209473
O O1 0.227260 0.500000 0.761896
O O2 0.254548 0.227605 0.826729
O O3 0.222288 0.264526 0.656143
O O4 0.123194 0.292756 0.743456
O O5 0.153950 0.500000 0.149592
O O6 0.112648 0.230600 0.189625
O O7 0.138113 0.272907 0.037182
O O8 0.410242 0.500000 0.011266
O O9 0.429349 0.277127 0.123012
O O10 0.500000 0.275151 0.000000
O O11 0.144711 0.780100 0.361577
O O12 0.013242 0.730904 0.277361
O O13 0.069487 0.000000 0.265521
O O14 0.263452 0.500000 0.579572
O O15 0.250000 0.250000 0.500000
O O16 0.946667 0.500000 0.185613
#
# Coordination Sequence:
#
# PCOD8101004 Si02
#       6
#     8   8   8   8   8   8
#     4   9  21  40  57  79 115 148 177 224 284 329
#     4  11  21  34  56  82 107 144 194 235 265 318
#     4  11  22  35  54  78 111 152 187 227 277 322
#     4  10  20  36  56  80 113 148 179 222 279 329
#     4   9  19  37  61  84 108 140 179 221 270 330
#     4  11  22  36  57  83 110 145 188 232 271 319
#
# _framework density 18.618759000000001
#
# number of rings (size 3 to 8) (size 9 to 14) (size 15 to 20)
#    0.000    1.833    1.667    4.000    0.000    6.000 
#    0.000    0.833    0.000    5.000    0.000    0.000 
#    0.000    0.000    0.000    0.000    0.000    0.000 
#
# Total GULP energy -297672.104097 kJ/mol
# GULP energy per Si atom -12403.004337 kJ/mol
# Density = 1.857638 g / cm^3
# Si number density = 18.618759 Si / 1000 Ang^3
#
#
#
# Elastic Constant Matrix: (Units=GPa)
#
#
# Indices 1 2 3 4 5 6 
#
# 1 122.5780 41.3227 46.4634 0.0000 7.7748 0.0000
# 2 41.3227 58.1524 32.0314 0.0000 5.9092 0.0000
# 3 46.4634 32.0314 110.6078 0.0000 11.3460 0.0000
# 4 0.0000 0.0000 0.0000 33.8785 0.0000 4.9954
# 5 7.7748 5.9092 11.3460 0.0000 22.0044 0.0000
# 6 0.0000 0.0000 0.0000 4.9954 0.0000 29.3751
#
#
#
# Elastic Compliance Matrix: (Units=1/GPa)
#
#
# Indices 1 2 3 4 5 6 
#
# 1 0.011486 -0.006504 -0.002855 0.000000 -0.000839 0.000000
# 2 -0.006504 0.024282 -0.004082 0.000000 -0.002118 0.000000
# 3 -0.002855 -0.004082 0.011833 0.000000 -0.003996 0.000000
# 4 0.000000 0.000000 0.000000 0.030276 0.000000 -0.005149
# 5 -0.000839 -0.002118 -0.003996 0.000000 0.048371 0.000000
# 6 0.000000 0.000000 0.000000 -0.005149 0.000000 0.034918
#
#
# Mechanical properties :
#
#
# Convention : Reuss Voigt Hill
#
# Bulk Modulus (GPa) = 48.26985 58.99703 53.63344
# Shear Modulus (GPa) = 25.64689 28.48632 27.06660
#
# Velocity S-wave (km/s) = 3.71546 3.91574 3.81691
# Velocity P-wave (km/s) = 6.66242 7.22493 6.94937
#
# Compressibility (1/GPa) = 0.02071687
#
# Stress axis : x y z
#
# Youngs Moduli (GPa) = 87.06061 41.18320 84.51211
#
# Poissons Ratio (x) = 0.26785 0.24132
# Poissons Ratio (y) = 0.56623 0.34502
# Poissons Ratio (z) = 0.24860 0.16813
#
# Static dielectric constant tensor:
#      x y z
#    x 3.598540 0.000000 0.091380 
#    y 0.000000 3.433900 0.000000 
#    z 0.091380 0.000000 3.475800 
# 
# 
# High freq. dielectric constant tensor:
#      x y z
#    x 1.720950 0.000000 0.014000 
#    y 0.000000 1.729680 0.000000 
#    z 0.014000 0.000000 1.707690 
# 
# From -- ./inp_files/230449.got.cif
#   From: 2010.06.25/outbox.cif.g09.slc.cpg/sg12_116_cif.got.tgz:230449.got - 2010.06.28 00:19:55.
