data_PCOD8101525
_publ_section_title
;
Structure prediction by ZEFSAII (Michael W. Deem and Ramdas Pophale) SiO2 
 PCOD8101525
Probable space group: C 2/M
;
_chemical_formula_sum "Si O2"
_cell_formula_units_Z 64
_cell_length_a 24.305113
_cell_length_b 8.748293
_cell_length_c 19.918951
_cell_angle_alpha 90.000000
_cell_angle_beta 125.703543
_cell_angle_gamma 90.000000
_cell_volume 3439.290261
_symmetry_space_group_name_H-M "C 2/M"
_symmetry_group_IT_number 12
_symmetry_cell_setting 'monoclinic'
loop_
_space_group_symop_operation_xyz
x,y,z
-x,y,-z
-x,-y,-z
x,-y,z
1/2+x,1/2+y,z
1/2-x,1/2+y,-z
1/2-x,1/2-y,-z
1/2+x,1/2-y,z
loop_
_atom_site_type_symbol
_atom_site_label
_atom_site_fract_x
_atom_site_fract_y
_atom_site_fract_z
Si Si1 0.153095 0.322617 0.731899
Si Si2 0.679431 0.821419 0.971563
Si Si3 0.306121 0.674484 0.882551
Si Si4 0.921252 0.175376 0.697167
Si Si5 0.319957 0.179763 0.524532
Si Si6 0.923239 0.179276 0.204153
Si Si7 0.828049 0.175179 0.751058
Si Si8 0.689746 0.679878 0.621398
O O1 0.134655 0.500000 0.714827
O O2 0.226319 0.295678 0.816975
O O3 0.097987 0.236942 0.737644
O O4 0.149990 0.252802 0.655471
O O5 0.618521 0.760451 0.883691
O O6 0.684820 0.000000 0.964498
O O7 0.750000 0.750000 0.000000
O O8 0.664499 0.782686 0.038634
O O9 0.319885 0.500000 0.913361
O O10 0.344251 0.716426 0.840098
O O11 0.879882 0.284740 0.618704
O O12 0.895271 0.197530 0.755050
O O13 0.998979 0.224243 0.751429
O O14 0.911214 0.000000 0.666947
O O15 0.250000 0.250000 0.500000
O O16 0.341381 0.250811 0.468539
O O17 0.309914 0.000000 0.510115
O O18 0.910567 0.000000 0.189965
O O19 0.769555 0.282902 0.680343
O O20 0.800820 0.000000 0.729005
O O21 0.678877 0.500000 0.614426
#
# Coordination Sequence:
#
# PCOD8101525 Si02
#       8
#     8   8   8   8   8   8   8   8
#     4  10  20  36  58  84 117 154 191 237 291 349
#     4  12  23  36  57  84 115 151 195 244 292 343
#     4   9  18  33  56  85 113 146 189 239 290 340
#     4  10  22  40  61  86 118 156 194 237 292 351
#     4  12  23  37  59  88 119 153 196 243 289 342
#     4  11  23  39  60  86 118 155 195 239 291 353
#     4   9  18  35  58  83 116 152 190 236 288 347
#     4  11  21  34  57  88 118 150 191 243 291 339
#
# _framework density 18.608491000000001
#
# number of rings (size 3 to 8) (size 9 to 14) (size 15 to 20)
#    0.000    1.500    2.500    4.875    0.000    3.000 
#    0.000    1.250    0.000    7.500    0.000    0.000 
#    0.000    0.000    0.000    0.000    0.000    0.000 
#
# Total GULP energy -396933.201121 kJ/mol
# GULP energy per Si atom -12404.162535 kJ/mol
# Density = 1.856614 g / cm^3
# Si number density = 18.608491 Si / 1000 Ang^3
#
#
#
# Elastic Constant Matrix: (Units=GPa)
#
#
# Indices 1 2 3 4 5 6 
#
# 1 131.3651 44.7909 66.2470 0.0000 -12.8545 0.0000
# 2 44.7909 117.7905 55.8508 0.0000 -4.3450 0.0000
# 3 66.2470 55.8508 109.3794 0.0000 -14.8975 0.0000
# 4 0.0000 0.0000 0.0000 32.9290 0.0000 -5.0960
# 5 -12.8545 -4.3450 -14.8975 0.0000 31.1534 0.0000
# 6 0.0000 0.0000 0.0000 -5.0960 0.0000 27.2374
#
#
#
# Elastic Compliance Matrix: (Units=1/GPa)
#
#
# Indices 1 2 3 4 5 6 
#
# 1 0.011201 -0.001435 -0.005828 0.000000 0.001634 0.000000
# 2 -0.001435 0.011432 -0.005168 0.000000 -0.001469 0.000000
# 3 -0.005828 -0.005168 0.015923 0.000000 0.004488 0.000000
# 4 0.000000 0.000000 0.000000 0.031274 0.000000 0.005851
# 5 0.001634 -0.001469 0.004488 0.000000 0.034715 0.000000
# 6 0.000000 0.000000 0.000000 0.005851 0.000000 0.037809
#
#
# Mechanical properties :
#
#
# Convention : Reuss Voigt Hill
#
# Bulk Modulus (GPa) = 73.03640 76.92359 74.98000
# Shear Modulus (GPa) = 29.10687 31.04041 30.07364
#
# Velocity S-wave (km/s) = 3.95925 4.08864 4.02447
# Velocity P-wave (km/s) = 7.76113 7.98229 7.87248
#
# Compressibility (1/GPa) = 0.01369180
#
# Stress axis : x y z
#
# Youngs Moduli (GPa) = 89.27770 87.47637 62.80331
#
# Poissons Ratio (x) = 0.12556 0.36605
# Poissons Ratio (y) = 0.12815 0.32456
# Poissons Ratio (z) = 0.52035 0.45207
#
# Static dielectric constant tensor:
#      x y z
#    x 3.508290 0.000000 -0.281720 
#    y 0.000000 3.491210 0.000000 
#    z -0.281720 0.000000 3.434400 
# 
# 
# High freq. dielectric constant tensor:
#      x y z
#    x 1.719820 0.000000 -0.027960 
#    y 0.000000 1.730020 0.000000 
#    z -0.027960 0.000000 1.710820 
# 
# From -- ./inp_files/324251.got.cif
#   From: 2010.06.25/outbox.cif.g09.slc.cpg/sg12_163_cif.got.tgz:324251.got - 2010.06.28 00:19:55.
