data_PCOD8101437
_publ_section_title
;
Structure prediction by ZEFSAII (Michael W. Deem and Ramdas Pophale) SiO2 
 PCOD8101437
Probable space group: C 2/M
;
_chemical_formula_sum "Si O2"
_cell_formula_units_Z 64
_cell_length_a 14.799623
_cell_length_b 9.113488
_cell_length_c 24.310030
_cell_angle_alpha 90.000000
_cell_angle_beta 89.839730
_cell_angle_gamma 90.000000
_cell_volume 3278.831315
_symmetry_space_group_name_H-M "C 2/M"
_symmetry_group_IT_number 12
_symmetry_cell_setting 'monoclinic'
loop_
_space_group_symop_operation_xyz
x,y,z
-x,y,-z
-x,-y,-z
x,-y,z
1/2+x,1/2+y,z
1/2-x,1/2+y,-z
1/2-x,1/2-y,-z
1/2+x,1/2-y,z
loop_
_atom_site_type_symbol
_atom_site_label
_atom_site_fract_x
_atom_site_fract_y
_atom_site_fract_z
Si Si1 0.108233 0.661719 0.738909
Si Si2 0.389421 0.670112 0.643185
Si Si3 0.894259 0.662104 0.748864
Si Si4 0.403131 0.327557 0.367121
Si Si5 0.758888 0.673231 0.941963
Si Si6 0.580752 0.173029 0.133942
Si Si7 0.121887 0.327067 0.862057
Si Si8 0.736992 0.174043 0.557952
O O1 0.144956 0.500000 0.722038
O O2 0.136611 0.778226 0.692189
O O3 0.147556 0.707650 0.798461
O O4 0.001438 0.654127 0.743799
O O5 0.385089 0.500000 0.655092
O O6 0.353175 0.742960 0.699495
O O7 0.491513 0.716543 0.627848
O O8 0.324299 0.717027 0.593870
O O9 0.851560 0.500000 0.743837
O O10 0.874997 0.734898 0.809058
O O11 0.387060 0.500000 0.374705
O O12 0.353269 0.239010 0.414988
O O13 0.747501 0.500000 0.949079
O O14 0.857500 0.714945 0.917947
O O15 0.684565 0.731707 0.900574
O O16 0.750000 0.750000 0.000000
O O17 0.479375 0.230082 0.124097
O O18 0.574783 0.000000 0.143591
O O19 0.132771 0.500000 0.874784
O O20 0.750000 0.250000 0.500000
O O21 0.726892 0.000000 0.551037
#
# Coordination Sequence:
#
# PCOD8101437 Si02
#       8
#     8   8   8   8   8   8   8   8
#     4   8  15  30  54  83 112 139 170 212 263 319
#     4   9  20  37  56  80 112 144 171 212 271 322
#     4   8  14  29  55  83 107 135 175 215 254 314
#     4  10  20  36  58  83 111 143 177 215 264 319
#     4  11  23  38  54  76 106 140 183 228 269 317
#     4   8  17  35  57  78 105 142 176 211 263 323
#     4   9  18  36  59  80 105 140 178 216 264 318
#     4  11  24  41  57  77 107 143 186 229 270 318
#
# _framework density 19.51915
#
# number of rings (size 3 to 8) (size 9 to 14) (size 15 to 20)
#    0.000    2.750    0.000    2.625    0.000    4.000 
#    0.000   11.875    0.000    0.000    0.000    0.000 
#    0.000    0.000    0.000    0.000    0.000    0.000 
#
# Total GULP energy -396689.325370 kJ/mol
# GULP energy per Si atom -12396.541418 kJ/mol
# Density = 1.947472 g / cm^3
# Si number density = 19.519150 Si / 1000 Ang^3
#
#
#
# Elastic Constant Matrix: (Units=GPa)
#
#
# Indices 1 2 3 4 5 6 
#
# 1 32.4518 8.3730 -9.6176 0.0000 3.8667 0.0000
# 2 8.3730 52.7783 19.7864 0.0000 2.5662 0.0000
# 3 -9.6176 19.7864 64.5986 0.0000 1.3382 0.0000
# 4 0.0000 0.0000 0.0000 38.6430 0.0000 2.3101
# 5 3.8667 2.5662 1.3382 0.0000 31.8596 0.0000
# 6 0.0000 0.0000 0.0000 2.3101 0.0000 24.6042
#
#
#
# Elastic Compliance Matrix: (Units=1/GPa)
#
#
# Indices 1 2 3 4 5 6 
#
# 1 0.035866 -0.008505 0.008028 0.000000 -0.004005 0.000000
# 2 -0.008505 0.023489 -0.008450 0.000000 -0.000505 0.000000
# 3 0.008028 -0.008450 0.019287 0.000000 -0.001104 0.000000
# 4 0.000000 0.000000 0.000000 0.026024 0.000000 -0.002443
# 5 -0.004005 -0.000505 -0.001104 0.000000 0.031961 0.000000
# 6 0.000000 0.000000 0.000000 -0.002443 0.000000 0.040873
#
#
# Mechanical properties :
#
#
# Convention : Reuss Voigt Hill
#
# Bulk Modulus (GPa) = 16.45104 20.76803 18.60953
# Shear Modulus (GPa) = 23.18939 27.77381 25.48160
#
# Velocity S-wave (km/s) = 3.45052 3.77623 3.61704
# Velocity P-wave (km/s) = 4.93166 5.44758 5.19603
#
# Compressibility (1/GPa) = 0.06078645
#
# Stress axis : x y z
#
# Youngs Moduli (GPa) = 27.88185 42.57318 51.84948
#
# Poissons Ratio (x) = 0.36207 -0.41623
# Poissons Ratio (y) = 0.23713 0.43815
# Poissons Ratio (z) = -0.22383 0.35976
#
# Static dielectric constant tensor:
#      x y z
#    x 3.438820 0.000000 0.204720 
#    y 0.000000 3.131730 0.000000 
#    z 0.204720 0.000000 3.325160 
# 
# 
# High freq. dielectric constant tensor:
#      x y z
#    x 1.754860 0.000000 -0.002200 
#    y 0.000000 1.746800 0.000000 
#    z -0.002200 0.000000 1.765090 
# 
# From -- ./inp_files/338677.got.cif
#   From: 2010.06.25/outbox.cif.g09.slc.cpg/sg12_170_cif.got.tgz:338677.got - 2010.06.28 00:19:55.
