data_PCOD8101707
_publ_section_title
;
Structure prediction by ZEFSAII (Michael W. Deem and Ramdas Pophale) SiO2 
 PCOD8101707
Probable space group: C 2/M
;
_chemical_formula_sum "Si O2"
_cell_formula_units_Z 64
_cell_length_a 17.222815
_cell_length_b 30.277720
_cell_length_c 6.710046
_cell_angle_alpha 90.000000
_cell_angle_beta 80.850140
_cell_angle_gamma 90.000000
_cell_volume 3454.548501
_symmetry_space_group_name_H-M "C 2/M"
_symmetry_group_IT_number 12
_symmetry_cell_setting 'monoclinic'
loop_
_space_group_symop_operation_xyz
x,y,z
-x,y,-z
-x,-y,-z
x,-y,z
1/2+x,1/2+y,z
1/2-x,1/2+y,-z
1/2-x,1/2-y,-z
1/2+x,1/2-y,z
loop_
_atom_site_type_symbol
_atom_site_label
_atom_site_fract_x
_atom_site_fract_y
_atom_site_fract_z
Si Si1 0.907767 0.630969 0.519026
Si Si2 0.795795 0.086898 0.840807
Si Si3 0.844861 0.050112 0.220151
Si Si4 0.314351 0.301321 0.376032
Si Si5 0.799696 0.337475 0.904830
Si Si6 0.087429 0.119691 0.535953
Si Si7 0.196470 0.550043 0.542116
Si Si8 0.170618 0.703450 0.706993
O O1 0.871582 0.643166 0.747663
O O2 0.873987 0.584687 0.450253
O O3 0.889856 0.669888 0.370822
O O4 0.000000 0.624736 0.500000
O O5 0.858960 0.110222 0.675531
O O6 0.739482 0.054806 0.737188
O O7 0.843008 0.058588 0.985043
O O8 0.742351 0.122963 0.966347
O O9 0.909281 0.080239 0.304122
O O10 0.758569 0.061007 0.342273
O O11 0.869515 0.000000 0.253511
O O12 0.261704 0.311232 0.205277
O O13 0.384525 0.336017 0.365268
O O14 0.259583 0.304816 0.594078
O O15 0.354124 0.253361 0.337286
O O16 0.833403 0.303358 0.053972
O O17 0.000000 0.127145 0.500000
O O18 0.164016 0.500000 0.536845
#
# Coordination Sequence:
#
# PCOD8101707 Si02
#       8
#     8   8   8   8   8   8   8   8
#     4  11  23  37  56  84 120 151 179 230 290 338
#     4  11  18  37  62  81 107 147 192 235 274 330
#     4  10  20  37  60  83 109 148 197 236 274 335
#     4  10  20  36  60  87 110 144 190 236 275 328
#     4  11  18  37  63  82 105 148 194 230 275 330
#     4  11  23  37  55  83 121 152 179 231 292 335
#     4  10  20  36  59  85 110 146 192 236 281 331
#     4  10  20  37  61  84 111 147 190 231 275 333
#
# _framework density 18.526299999999999
#
# number of rings (size 3 to 8) (size 9 to 14) (size 15 to 20)
#    0.000    1.500    5.000    2.250    0.000    2.500 
#    0.000    0.625    2.750    0.750    0.000    0.000 
#    0.000    0.000    0.000    0.000    0.000    0.000 
#
# Total GULP energy -396903.666718 kJ/mol
# GULP energy per Si atom -12403.239585 kJ/mol
# Density = 1.848413 g / cm^3
# Si number density = 18.526300 Si / 1000 Ang^3
#
#
#
# Elastic Constant Matrix: (Units=GPa)
#
#
# Indices 1 2 3 4 5 6 
#
# 1 95.9999 51.0990 37.3808 0.0000 11.5238 0.0000
# 2 51.0990 124.2873 38.2138 0.0000 10.6505 0.0000
# 3 37.3808 38.2138 121.1834 0.0000 11.4503 0.0000
# 4 0.0000 0.0000 0.0000 26.6730 0.0000 0.8403
# 5 11.5238 10.6505 11.4503 0.0000 16.6297 0.0000
# 6 0.0000 0.0000 0.0000 0.8403 0.0000 5.2450
#
#
#
# Elastic Compliance Matrix: (Units=1/GPa)
#
#
# Indices 1 2 3 4 5 6 
#
# 1 0.014561 -0.004766 -0.002485 0.000000 -0.005326 0.000000
# 2 -0.004766 0.010730 -0.001686 0.000000 -0.002409 0.000000
# 3 -0.002485 -0.001686 0.009932 0.000000 -0.004036 0.000000
# 4 0.000000 0.000000 0.000000 0.037681 0.000000 -0.006037
# 5 -0.005326 -0.002409 -0.004036 0.000000 0.068146 0.000000
# 6 0.000000 0.000000 0.000000 -0.006037 0.000000 0.191623
#
#
# Mechanical properties :
#
#
# Convention : Reuss Voigt Hill
#
# Bulk Modulus (GPa) = 57.64298 66.09531 61.86914
# Shear Modulus (GPa) = 14.03195 24.02801 19.02998
#
# Velocity S-wave (km/s) = 2.75509 3.60525 3.20845
# Velocity P-wave (km/s) = 6.42669 7.28590 6.86974
#
# Compressibility (1/GPa) = 0.01734817
#
# Stress axis : x y z
#
# Youngs Moduli (GPa) = 68.67874 93.19640 100.68865
#
# Poissons Ratio (x) = 0.44415 0.25024
# Poissons Ratio (y) = 0.32731 0.16975
# Poissons Ratio (z) = 0.17069 0.15712
#
# Static dielectric constant tensor:
#      x y z
#    x 3.033780 0.000000 0.055190 
#    y 0.000000 3.538700 0.000000 
#    z 0.055190 0.000000 3.777060 
# 
# 
# High freq. dielectric constant tensor:
#      x y z
#    x 1.682130 0.000000 0.009710 
#    y 0.000000 1.732990 0.000000 
#    z 0.009710 0.000000 1.731570 
# 
# From -- ./inp_files/18326.got.cif
#   From: 2010.06.25/outbox.cif.g09.slc.cpg/sg12_10_cif.got.tgz:18326.got - 2010.06.28 00:19:55.
