data_PCOD8101091
_publ_section_title
;
Structure prediction by ZEFSAII (Michael W. Deem and Ramdas Pophale) SiO2 
 PCOD8101091
Probable space group: C 2/M
;
_chemical_formula_sum "Si O2"
_cell_formula_units_Z 48
_cell_length_a 30.788089
_cell_length_b 9.066614
_cell_length_c 8.991126
_cell_angle_alpha 90.000000
_cell_angle_beta 92.573083
_cell_angle_gamma 90.000000
_cell_volume 2507.285877
_symmetry_space_group_name_H-M "C 2/M"
_symmetry_group_IT_number 12
_symmetry_cell_setting 'monoclinic'
loop_
_space_group_symop_operation_xyz
x,y,z
-x,y,-z
-x,-y,-z
x,-y,z
1/2+x,1/2+y,z
1/2-x,1/2+y,-z
1/2-x,1/2-y,-z
1/2+x,1/2-y,z
loop_
_atom_site_type_symbol
_atom_site_label
_atom_site_fract_x
_atom_site_fract_y
_atom_site_fract_z
Si Si1 0.252773 0.672109 0.657830
Si Si2 0.492261 0.826502 0.328594
Si Si3 0.416353 0.328864 0.161369
Si Si4 0.929554 0.174954 0.823863
Si Si5 0.152726 0.828127 0.364109
Si Si6 0.171338 0.828523 0.696400
O O1 0.243219 0.500000 0.639439
O O2 0.250000 0.750000 0.500000
O O3 0.302376 0.699675 0.721849
O O4 0.215461 0.744393 0.756213
O O5 0.500000 0.782086 0.500000
O O6 0.444822 0.769329 0.276455
O O7 0.527094 0.747895 0.229884
O O8 0.495374 0.000000 0.304148
O O9 0.427854 0.500000 0.190154
O O10 0.365814 0.298528 0.188576
O O11 0.424915 0.280351 0.994526
O O12 0.887975 0.242450 0.729526
O O13 0.933245 0.000000 0.806653
O O14 0.155918 0.765624 0.532859
O O15 0.143217 0.000000 0.374754
O O16 0.183041 0.000000 0.684862
#
# Coordination Sequence:
#
# PCOD8101091 Si02
#       6
#     8   8   8   8   8   8
#     4   9  16  28  48  74 102 134 173 215 259 301
#     4  11  24  39  55  78 106 135 170 214 263 312
#     4  10  21  36  56  80 105 137 175 213 257 312
#     4  10  20  36  57  79 104 137 176 214 256 309
#     4   8  15  29  50  73  99 133 171 211 252 297
#     4   9  17  31  50  74 103 135 173 215 257 300
#
# _framework density 19.144207999999999
#
# number of rings (size 3 to 8) (size 9 to 14) (size 15 to 20)
#    0.000    2.500    0.000    3.500    0.000    6.000 
#    0.000    6.667    0.000    0.000    0.000    0.000 
#    0.000    0.000    0.000    0.000    0.000    0.000 
#
# Total GULP energy -297511.108624 kJ/mol
# GULP energy per Si atom -12396.296193 kJ/mol
# Density = 1.910063 g / cm^3
# Si number density = 19.144208 Si / 1000 Ang^3
#
#
#
# Elastic Constant Matrix: (Units=GPa)
#
#
# Indices 1 2 3 4 5 6 
#
# 1 92.1265 28.8415 20.8494 0.0000 -21.9925 0.0000
# 2 28.8415 50.0276 23.4390 0.0000 -10.2907 0.0000
# 3 20.8494 23.4390 70.4883 0.0000 -21.6295 0.0000
# 4 0.0000 0.0000 0.0000 19.2227 0.0000 -3.8744
# 5 -21.9925 -10.2907 -21.6295 0.0000 28.5469 0.0000
# 6 0.0000 0.0000 0.0000 -3.8744 0.0000 34.2147
#
#
#
# Elastic Compliance Matrix: (Units=1/GPa)
#
#
# Indices 1 2 3 4 5 6 
#
# 1 0.015251 -0.007189 0.000899 0.000000 0.009838 0.000000
# 2 -0.007189 0.027315 -0.007341 0.000000 -0.001255 0.000000
# 3 0.000899 -0.007341 0.020537 0.000000 0.013607 0.000000
# 4 0.000000 0.000000 0.000000 0.053237 0.000000 0.006028
# 5 0.009838 -0.001255 0.013607 0.000000 0.052467 0.000000
# 6 0.000000 0.000000 0.000000 0.006028 0.000000 0.029910
#
#
# Mechanical properties :
#
#
# Convention : Reuss Voigt Hill
#
# Bulk Modulus (GPa) = 27.90263 39.87804 33.89034
# Shear Modulus (GPa) = 21.01480 25.69771 23.35626
#
# Velocity S-wave (km/s) = 3.31677 3.66775 3.49666
# Velocity P-wave (km/s) = 5.41059 6.22993 5.83466
#
# Compressibility (1/GPa) = 0.03583891
#
# Stress axis : x y z
#
# Youngs Moduli (GPa) = 65.57102 36.60944 48.69174
#
# Poissons Ratio (x) = 0.26320 -0.04376
# Poissons Ratio (y) = 0.47142 0.35747
# Poissons Ratio (z) = -0.05893 0.26876
#
# Static dielectric constant tensor:
#      x y z
#    x 4.175890 0.000000 -0.158330 
#    y 0.000000 3.398660 0.000000 
#    z -0.158330 0.000000 3.492400 
# 
# 
# High freq. dielectric constant tensor:
#      x y z
#    x 1.766300 0.000000 -0.007520 
#    y 0.000000 1.722010 0.000000 
#    z -0.007520 0.000000 1.720910 
# 
# From -- ./inp_files/108724.got.cif
#   From: 2010.06.25/outbox.cif.g09.slc.cpg/sg12_55_cif.got.tgz:108724.got - 2010.06.28 00:19:55.
