data_PCOD8101271
_publ_section_title
;
Structure prediction by ZEFSAII (Michael W. Deem and Ramdas Pophale) SiO2 
 PCOD8101271
Probable space group: C 2/M
;
_chemical_formula_sum "Si O2"
_cell_formula_units_Z 64
_cell_length_a 12.681620
_cell_length_b 29.486967
_cell_length_c 8.620033
_cell_angle_alpha 90.000000
_cell_angle_beta 88.048250
_cell_angle_gamma 90.000000
_cell_volume 3221.526766
_symmetry_space_group_name_H-M "C 2/M"
_symmetry_group_IT_number 12
_symmetry_cell_setting 'monoclinic'
loop_
_space_group_symop_operation_xyz
x,y,z
-x,y,-z
-x,-y,-z
x,-y,z
1/2+x,1/2+y,z
1/2-x,1/2+y,-z
1/2-x,1/2-y,-z
1/2+x,1/2-y,z
loop_
_atom_site_type_symbol
_atom_site_label
_atom_site_fract_x
_atom_site_fract_y
_atom_site_fract_z
Si Si1 0.903127 0.811517 0.329528
Si Si2 0.755263 0.450543 0.810381
Si Si3 0.610705 0.409147 0.559213
Si Si4 0.867479 0.784363 0.665872
Si Si5 0.623931 0.121290 0.015658
Si Si6 0.899869 0.950853 0.909220
Si Si7 0.213813 0.879083 0.258766
Si Si8 0.723858 0.211851 0.124752
O O1 0.932257 0.863149 0.362754
O O2 0.849378 0.787855 0.482130
O O3 0.831708 0.810448 0.180019
O O4 0.011003 0.785715 0.289642
O O5 0.806994 0.500000 0.766395
O O6 0.667835 0.440077 0.683610
O O7 0.841418 0.411101 0.840697
O O8 0.699638 0.455906 0.976369
O O9 0.500000 0.431796 0.500000
O O10 0.708533 0.396039 0.437532
O O11 0.806089 0.825377 0.755655
O O12 0.828641 0.735604 0.724040
O O13 0.648610 0.173076 0.060448
O O14 0.500000 0.114762 0.000000
O O15 0.680902 0.109891 0.846870
O O16 0.884544 0.908931 0.796210
O O17 0.915974 0.000000 0.823202
O O18 0.000000 0.936563 0.000000
O O19 0.750000 0.250000 0.000000
#
# Coordination Sequence:
#
# PCOD8101271 Si02
#       8
#     8   8   8   8   8   8   8   8
#     4  10  21  39  58  84 123 162 194 235 302 363
#     4  10  22  40  63  89 119 159 200 244 301 359
#     4  11  19  36  64  94 126 156 189 237 302 366
#     4  10  21  37  59  86 117 164 197 231 297 367
#     4  11  25  44  60  85 120 158 208 258 297 345
#     4   9  18  31  51  83 120 155 190 232 289 354
#     4  10  20  36  57  84 121 152 195 241 296 350
#     4  12  24  37  59  89 119 154 203 258 292 348
#
# _framework density 19.866358000000002
#
# number of rings (size 3 to 8) (size 9 to 14) (size 15 to 20)
#    0.000    1.625    5.000    1.125    1.750    1.000 
#    0.000    0.625    0.000    0.750    0.000    0.000 
#    0.000    0.000    0.000    0.000    0.000    0.000 
#
# Total GULP energy -396446.224777 kJ/mol
# GULP energy per Si atom -12388.944524 kJ/mol
# Density = 1.982114 g / cm^3
# Si number density = 19.866358 Si / 1000 Ang^3
#
#
#
# Elastic Constant Matrix: (Units=GPa)
#
#
# Indices 1 2 3 4 5 6 
#
# 1 100.6144 24.6348 30.5671 0.0000 13.7227 0.0000
# 2 24.6348 91.4924 25.8651 0.0000 6.9502 0.0000
# 3 30.5671 25.8651 62.6304 0.0000 5.2991 0.0000
# 4 0.0000 0.0000 0.0000 38.7518 0.0000 11.2268
# 5 13.7227 6.9502 5.2991 0.0000 33.0289 0.0000
# 6 0.0000 0.0000 0.0000 11.2268 0.0000 22.5017
#
#
#
# Elastic Compliance Matrix: (Units=1/GPa)
#
#
# Indices 1 2 3 4 5 6 
#
# 1 0.012416 -0.001609 -0.005056 0.000000 -0.004009 0.000000
# 2 -0.001609 0.012691 -0.004345 0.000000 -0.001305 0.000000
# 3 -0.005056 -0.004345 0.020248 0.000000 -0.000234 0.000000
# 4 0.000000 0.000000 0.000000 0.030166 0.000000 -0.015051
# 5 -0.004009 -0.001305 -0.000234 0.000000 0.032254 0.000000
# 6 0.000000 0.000000 0.000000 -0.015051 0.000000 0.051950
#
#
# Mechanical properties :
#
#
# Convention : Reuss Voigt Hill
#
# Bulk Modulus (GPa) = 42.85523 46.31901 44.58712
# Shear Modulus (GPa) = 26.38199 30.43448 28.40824
#
# Velocity S-wave (km/s) = 3.64809 3.91827 3.78559
# Velocity P-wave (km/s) = 6.27402 6.62091 6.44980
#
# Compressibility (1/GPa) = 0.02333438
#
# Stress axis : x y z
#
# Youngs Moduli (GPa) = 80.54355 78.79801 49.38642
#
# Poissons Ratio (x) = 0.12680 0.24969
# Poissons Ratio (y) = 0.12961 0.21460
# Poissons Ratio (z) = 0.40721 0.34240
#
# Static dielectric constant tensor:
#      x y z
#    x 4.093400 0.000000 -0.424860 
#    y 0.000000 3.975690 0.000000 
#    z -0.424860 0.000000 3.952270 
# 
# 
# High freq. dielectric constant tensor:
#      x y z
#    x 1.747930 0.000000 -0.000680 
#    y 0.000000 1.780060 0.000000 
#    z -0.000680 0.000000 1.774390 
# 
# From -- ./inp_files/54739.got.cif
#   From: 2010.06.25/outbox.cif.g09.slc.cpg/sg12_28_cif.got.tgz:54739.got - 2010.06.28 00:19:55.
