data_PCOD8101666
_publ_section_title
;
Structure prediction by ZEFSAII (Michael W. Deem and Ramdas Pophale) SiO2 
 PCOD8101666
Probable space group: C 2/M
;
_chemical_formula_sum "Si O2"
_cell_formula_units_Z 56
_cell_length_a 25.237031
_cell_length_b 9.100723
_cell_length_c 14.626679
_cell_angle_alpha 90.000000
_cell_angle_beta 59.829329
_cell_angle_gamma 90.000000
_cell_volume 2904.297159
_symmetry_space_group_name_H-M "C 2/M"
_symmetry_group_IT_number 12
_symmetry_cell_setting 'monoclinic'
loop_
_space_group_symop_operation_xyz
x,y,z
-x,y,-z
-x,-y,-z
x,-y,z
1/2+x,1/2+y,z
1/2-x,1/2+y,-z
1/2-x,1/2-y,-z
1/2+x,1/2-y,z
loop_
_atom_site_type_symbol
_atom_site_label
_atom_site_fract_x
_atom_site_fract_y
_atom_site_fract_z
Si Si1 0.570748 0.171253 0.686244
Si Si2 0.741313 0.174027 0.785333
Si Si3 0.526411 0.165159 0.077236
Si Si4 0.508367 0.673408 0.388287
Si Si5 0.791788 0.673662 0.389308
Si Si6 0.851435 0.172709 0.998138
Si Si7 0.859900 0.173377 0.785377
O O1 0.527520 0.211691 0.808144
O O2 0.548239 0.257082 0.616710
O O3 0.638658 0.223693 0.653874
O O4 0.569872 0.000000 0.664262
O O5 0.728639 0.228179 0.693530
O O6 0.809426 0.226398 0.755588
O O7 0.733696 0.000000 0.799906
O O8 0.693338 0.243620 0.895906
O O9 0.579340 0.284255 0.039276
O O10 0.550550 0.000000 0.078197
O O11 0.500000 0.171229 0.000000
O O12 0.500000 0.718684 0.500000
O O13 0.505464 0.500000 0.376821
O O14 0.573330 0.740167 0.296621
O O15 0.783778 0.500000 0.404617
O O16 0.750000 0.750000 0.500000
O O17 0.838011 0.221747 0.905295
O O18 0.842990 0.000000 0.019190
O O19 0.866559 0.000000 0.774841
#
# Coordination Sequence:
#
# PCOD8101666 Si02
#       7
#     8   8   8   8   8   8   8
#     4  10  21  38  58  85 118 149 187 237 286 337
#     4  10  21  39  61  82 114 159 198 233 279 342
#     4  10  20  36  59  83 112 154 196 229 276 345
#     4  10  21  37  61  88 114 149 192 236 287 347
#     4  10  23  41  62  86 114 151 195 239 284 337
#     4  11  21  35  56  87 122 148 184 241 293 336
#     4   9  19  36  57  86 118 148 190 237 282 339
#
# _framework density 19.281773999999999
#
# number of rings (size 3 to 8) (size 9 to 14) (size 15 to 20)
#    0.000    2.000    1.429    1.714    2.000    4.000 
#    0.000    2.857    0.000    0.000    0.000    0.000 
#    0.000    0.000    0.000    0.000    0.000    0.000 
#
# Total GULP energy -347254.610882 kJ/mol
# GULP energy per Si atom -12401.950389 kJ/mol
# Density = 1.923789 g / cm^3
# Si number density = 19.281774 Si / 1000 Ang^3
#
#
#
# Elastic Constant Matrix: (Units=GPa)
#
#
# Indices 1 2 3 4 5 6 
#
# 1 150.4849 29.8493 63.8878 0.0000 9.3621 0.0000
# 2 29.8493 26.9391 31.7727 0.0000 5.0658 0.0000
# 3 63.8878 31.7727 121.5730 0.0000 7.0334 0.0000
# 4 0.0000 0.0000 0.0000 29.5256 0.0000 -3.6379
# 5 9.3621 5.0658 7.0334 0.0000 34.2629 0.0000
# 6 0.0000 0.0000 0.0000 -3.6379 0.0000 32.3360
#
#
#
# Elastic Compliance Matrix: (Units=1/GPa)
#
#
# Indices 1 2 3 4 5 6 
#
# 1 0.009321 -0.006414 -0.003167 0.000000 -0.000948 0.000000
# 2 -0.006414 0.058976 -0.011779 0.000000 -0.004549 0.000000
# 3 -0.003167 -0.011779 0.012972 0.000000 -0.000056 0.000000
# 4 0.000000 0.000000 0.000000 0.034345 0.000000 0.003864
# 5 -0.000948 -0.004549 -0.000056 0.000000 0.030129 0.000000
# 6 0.000000 0.000000 0.000000 0.003864 0.000000 0.031360
#
#
# Mechanical properties :
#
#
# Convention : Reuss Voigt Hill
#
# Bulk Modulus (GPa) = 25.94206 61.11297 43.52752
# Shear Modulus (GPa) = 21.48934 30.79071 26.14003
#
# Velocity S-wave (km/s) = 3.34202 4.00044 3.68596
# Velocity P-wave (km/s) = 5.32687 7.28708 6.38267
#
# Compressibility (1/GPa) = 0.03854744
#
# Stress axis : x y z
#
# Youngs Moduli (GPa) = 107.28376 16.95600 77.09190
#
# Poissons Ratio (x) = 0.10876 0.24416
# Poissons Ratio (y) = 0.68816 0.90808
# Poissons Ratio (z) = 0.33978 0.19973
#
# Static dielectric constant tensor:
#      x y z
#    x 3.804230 0.000000 0.006860 
#    y 0.000000 3.345110 0.000000 
#    z 0.006860 0.000000 3.642840 
# 
# 
# High freq. dielectric constant tensor:
#      x y z
#    x 1.764720 0.000000 0.002300 
#    y 0.000000 1.726590 0.000000 
#    z 0.002300 0.000000 1.762150 
# 
# From -- ./inp_files/238300.got.cif
#   From: 2010.06.25/outbox.cif.g09.slc.cpg/sg12_120_cif.got.tgz:238300.got - 2010.06.28 00:19:55.
