data_PCOD8101821
_publ_section_title
;
Structure prediction by ZEFSAII (Michael W. Deem and Ramdas Pophale) SiO2 
 PCOD8101821
Probable space group: C 2/M
;
_chemical_formula_sum "Si O2"
_cell_formula_units_Z 64
_cell_length_a 33.017228
_cell_length_b 13.221246
_cell_length_c 12.225072
_cell_angle_alpha 90.000000
_cell_angle_beta 36.270425
_cell_angle_gamma 90.000000
_cell_volume 3157.115374
_symmetry_space_group_name_H-M "C 2/M"
_symmetry_group_IT_number 12
_symmetry_cell_setting 'monoclinic'
loop_
_space_group_symop_operation_xyz
x,y,z
-x,y,-z
-x,-y,-z
x,-y,z
1/2+x,1/2+y,z
1/2-x,1/2+y,-z
1/2-x,1/2-y,-z
1/2+x,1/2-y,z
loop_
_atom_site_type_symbol
_atom_site_label
_atom_site_fract_x
_atom_site_fract_y
_atom_site_fract_z
Si Si1 0.557022 0.385566 0.515590
Si Si2 0.681713 0.742757 0.579553
Si Si3 0.309798 0.387678 0.639050
Si Si4 0.437514 0.724961 0.874751
Si Si5 0.934546 0.887243 0.086601
Si Si6 0.775728 0.386903 0.955398
Si Si7 0.430009 0.115508 0.085395
Si Si8 0.648928 0.294419 0.139794
O O1 0.526050 0.500000 0.575229
O O2 0.612098 0.382693 0.492158
O O3 0.503851 0.294468 0.655352
O O4 0.590166 0.360358 0.325684
O O5 0.750000 0.750000 0.500000
O O6 0.703250 0.710085 0.410004
O O7 0.638124 0.647961 0.713173
O O8 0.632993 0.841337 0.703002
O O9 0.296571 0.500000 0.615230
O O10 0.259824 0.375037 0.849923
O O11 0.371564 0.731432 0.940112
O O12 0.435162 0.624877 0.954888
O O13 0.438352 0.822357 0.953468
O O14 0.940621 0.000000 0.111968
O O15 0.000000 0.828792 0.000000
O O16 0.802583 0.500000 0.874484
O O17 0.720342 0.356815 0.983182
O O18 0.839952 0.310200 0.815866
O O19 0.412379 0.000000 0.093309
O O20 0.500000 0.121295 0.000000
#
# Coordination Sequence:
#
# PCOD8101821 Si02
#       8
#     8   8   8   8   8   8   8   8
#     4  10  20  36  59  87 115 145 184 238 295 345
#     4  11  22  34  56  87 119 145 188 250 293 338
#     4   9  18  34  59  82 108 148 189 228 285 349
#     4  11  21  34  59  87 111 146 188 241 288 339
#     4  10  21  37  56  82 115 151 188 232 293 356
#     4   9  20  38  58  78 111 157 193 228 283 351
#     4  10  23  43  62  82 118 167 206 236 284 355
#     4  10  21  35  55  85 115 143 190 239 288 344
#
# _framework density 20.271671000000001
#
# number of rings (size 3 to 8) (size 9 to 14) (size 15 to 20)
#    0.000    2.000    0.000    5.250    3.500    6.000 
#    0.000    0.625    0.000    6.000    0.000    0.000 
#    0.000    0.000    0.000    0.000    0.000    0.000 
#
# Total GULP energy -396473.590161 kJ/mol
# GULP energy per Si atom -12389.799693 kJ/mol
# Density = 2.022553 g / cm^3
# Si number density = 20.271671 Si / 1000 Ang^3
#
#
#
# Elastic Constant Matrix: (Units=GPa)
#
#
# Indices 1 2 3 4 5 6 
#
# 1 125.7267 35.6407 25.0842 0.0000 3.0710 0.0000
# 2 35.6407 137.5103 25.2644 0.0000 -0.3131 0.0000
# 3 25.0842 25.2644 45.1709 0.0000 -9.2016 0.0000
# 4 0.0000 0.0000 0.0000 23.5888 0.0000 9.8855
# 5 3.0710 -0.3131 -9.2016 0.0000 24.0593 0.0000
# 6 0.0000 0.0000 0.0000 9.8855 0.0000 12.7291
#
#
#
# Elastic Compliance Matrix: (Units=1/GPa)
#
#
# Indices 1 2 3 4 5 6 
#
# 1 0.009473 -0.001535 -0.005045 0.000000 -0.003159 0.000000
# 2 -0.001535 0.008424 -0.004117 0.000000 -0.001269 0.000000
# 3 -0.005045 -0.004117 0.029675 0.000000 0.011940 0.000000
# 4 0.000000 0.000000 0.000000 0.062847 0.000000 -0.048807
# 5 -0.003159 -0.001269 0.011940 0.000000 0.046517 0.000000
# 6 0.000000 0.000000 0.000000 -0.048807 0.000000 0.116464
#
#
# Mechanical properties :
#
#
# Convention : Reuss Voigt Hill
#
# Bulk Modulus (GPa) = 38.20342 53.37626 45.78984
# Shear Modulus (GPa) = 16.47341 26.90336 21.68838
#
# Velocity S-wave (km/s) = 2.85376 3.64695 3.27446
# Velocity P-wave (km/s) = 5.45392 6.64238 6.07727
#
# Compressibility (1/GPa) = 0.02617567
#
# Stress axis : x y z
#
# Youngs Moduli (GPa) = 105.56615 118.71238 33.69870
#
# Poissons Ratio (x) = 0.18228 0.17001
# Poissons Ratio (y) = 0.16209 0.13875
# Poissons Ratio (z) = 0.53258 0.48877
#
# Static dielectric constant tensor:
#      x y z
#    x 3.731680 0.000000 0.011130 
#    y 0.000000 3.865920 0.000000 
#    z 0.011130 0.000000 3.606360 
# 
# 
# High freq. dielectric constant tensor:
#      x y z
#    x 1.795220 0.000000 -0.004450 
#    y 0.000000 1.789530 0.000000 
#    z -0.004450 0.000000 1.776320 
# 
# From -- ./inp_files/189421.got.cif
#   From: 2010.06.25/outbox.cif.g09.slc.cpg/sg12_95_cif.got.tgz:189421.got - 2010.06.28 00:19:55.
