data_PCOD8101435
_publ_section_title
;
Structure prediction by ZEFSAII (Michael W. Deem and Ramdas Pophale) SiO2 
 PCOD8101435
Probable space group: C 2/M
;
_chemical_formula_sum "Si O2"
_cell_formula_units_Z 48
_cell_length_a 25.908855
_cell_length_b 14.801857
_cell_length_c 15.879615
_cell_angle_alpha 90.000000
_cell_angle_beta 24.864606
_cell_angle_gamma 90.000000
_cell_volume 2560.619216
_symmetry_space_group_name_H-M "C 2/M"
_symmetry_group_IT_number 12
_symmetry_cell_setting 'monoclinic'
loop_
_space_group_symop_operation_xyz
x,y,z
-x,y,-z
-x,-y,-z
x,-y,z
1/2+x,1/2+y,z
1/2-x,1/2+y,-z
1/2-x,1/2-y,-z
1/2+x,1/2-y,z
loop_
_atom_site_type_symbol
_atom_site_label
_atom_site_fract_x
_atom_site_fract_y
_atom_site_fract_z
Si Si1 0.825453 0.263350 0.144088
Si Si2 0.482513 0.901921 0.122829
Si Si3 0.638125 0.747401 0.271991
Si Si4 0.037348 0.101769 0.123650
Si Si5 0.198710 0.894499 0.047968
Si Si6 0.737063 0.669885 0.456315
O O1 0.715497 0.265948 0.241583
O O2 0.769791 0.294019 0.314964
O O3 0.934739 0.329883 0.949111
O O4 0.890325 0.164674 0.050551
O O5 0.335722 0.899461 0.350364
O O6 0.531916 0.000000 0.076300
O O7 0.500000 0.879176 0.000000
O O8 0.500000 0.769134 0.500000
O O9 0.644389 0.653475 0.211209
O O10 0.682512 0.835834 0.154660
O O11 0.895268 0.125254 0.345072
O O12 0.095798 0.112466 0.128954
O O13 0.050945 0.000000 0.069520
O O14 0.233471 0.000000 0.014027
O O15 0.750000 0.750000 0.500000
#
# Coordination Sequence:
#
# PCOD8101435 Si02
#       6
#     8   8   8   8   8   8
#     4  10  21  36  56  79 113 144 184 231 278 325
#     4   9  18  33  52  75 104 138 177 223 275 323
#     4  10  20  36  58  83 110 147 183 228 278 332
#     4  10  20  37  59  83 113 148 183 225 278 333
#     4   9  20  37  57  84 115 144 181 228 278 332
#     4  11  20  34  57  80 109 147 187 227 273 327
#
# _framework density 18.745466
#
# number of rings (size 3 to 8) (size 9 to 14) (size 15 to 20)
#    0.000    2.167    1.667    1.500    0.000    2.000 
#    0.000    2.500    0.000    0.000    0.000    0.000 
#    0.000    0.000    0.000    0.000    0.000    0.000 
#
# Total GULP energy -297395.944754 kJ/mol
# GULP energy per Si atom -12391.497698 kJ/mol
# Density = 1.870280 g / cm^3
# Si number density = 18.745466 Si / 1000 Ang^3
#
#
#
# Elastic Constant Matrix: (Units=GPa)
#
#
# Indices 1 2 3 4 5 6 
#
# 1 44.0390 28.7922 25.9673 0.0000 -16.5653 0.0000
# 2 28.7922 120.9062 22.0495 0.0000 -19.8037 0.0000
# 3 25.9673 22.0495 80.9261 0.0000 -31.7103 0.0000
# 4 0.0000 0.0000 0.0000 22.5588 0.0000 -1.9397
# 5 -16.5653 -19.8037 -31.7103 0.0000 29.6443 0.0000
# 6 0.0000 0.0000 0.0000 -1.9397 0.0000 28.4226
#
#
#
# Elastic Compliance Matrix: (Units=1/GPa)
#
#
# Indices 1 2 3 4 5 6 
#
# 1 0.032823 -0.005358 -0.005660 0.000000 0.008707 0.000000
# 2 -0.005358 0.010163 0.000753 0.000000 0.004601 0.000000
# 3 -0.005660 0.000753 0.022253 0.000000 0.021144 0.000000
# 4 0.000000 0.000000 0.000000 0.044590 0.000000 0.003043
# 5 0.008707 0.004601 0.021144 0.000000 0.064290 0.000000
# 6 0.000000 0.000000 0.000000 0.003043 0.000000 0.035391
#
#
# Mechanical properties :
#
#
# Convention : Reuss Voigt Hill
#
# Bulk Modulus (GPa) = 22.36699 44.38769 33.37734
# Shear Modulus (GPa) = 20.41279 27.39594 23.90436
#
# Velocity S-wave (km/s) = 3.30350 3.82707 3.57488
# Velocity P-wave (km/s) = 5.14865 6.57717 5.90626
#
# Compressibility (1/GPa) = 0.04470875
#
# Stress axis : x y z
#
# Youngs Moduli (GPa) = 30.46647 98.39573 44.93713
#
# Poissons Ratio (x) = 0.52719 0.25436
# Poissons Ratio (y) = 0.16323 -0.03383
# Poissons Ratio (z) = 0.17245 -0.07408
#
# Static dielectric constant tensor:
#      x y z
#    x 3.336130 0.000000 -0.145960 
#    y 0.000000 3.395840 0.000000 
#    z -0.145960 0.000000 3.395830 
# 
# 
# High freq. dielectric constant tensor:
#      x y z
#    x 1.719950 0.000000 -0.017320 
#    y 0.000000 1.737470 0.000000 
#    z -0.017320 0.000000 1.728700 
# 
# From -- ./inp_files/142725.got.cif
#   From: 2010.06.25/outbox.cif.g09.slc.cpg/sg12_72_cif.got.tgz:142725.got - 2010.06.28 00:19:55.
