data_PCOD8101585
_publ_section_title
;
Structure prediction by ZEFSAII (Michael W. Deem and Ramdas Pophale) SiO2 
 PCOD8101585
Probable space group: C 2/M
;
_chemical_formula_sum "Si O2"
_cell_formula_units_Z 36
_cell_length_a 26.394768
_cell_length_b 9.723910
_cell_length_c 8.157590
_cell_angle_alpha 90.000000
_cell_angle_beta 62.495919
_cell_angle_gamma 90.000000
_cell_volume 1857.092231
_symmetry_space_group_name_H-M "C 2/M"
_symmetry_group_IT_number 12
_symmetry_cell_setting 'monoclinic'
loop_
_space_group_symop_operation_xyz
x,y,z
-x,y,-z
-x,-y,-z
x,-y,z
1/2+x,1/2+y,z
1/2-x,1/2+y,-z
1/2-x,1/2-y,-z
1/2+x,1/2-y,z
loop_
_atom_site_type_symbol
_atom_site_label
_atom_site_fract_x
_atom_site_fract_y
_atom_site_fract_z
Si Si1 0.087924 0.500000 0.414379
Si Si2 0.726534 0.500000 0.772919
Si Si3 0.341699 0.773361 0.130180
Si Si4 0.963785 0.159200 0.893246
Si Si5 0.500000 0.231873 0.500000
Si Si6 0.158762 0.500000 0.605369
Si Si7 0.300273 0.000000 0.960307
O O1 0.055523 0.362493 0.413610
O O2 0.100785 0.500000 0.587347
O O3 0.147733 0.500000 0.238747
O O4 0.689336 0.631828 0.783507
O O5 0.782933 0.500000 0.581518
O O6 0.741524 0.500000 0.944817
O O7 0.345046 0.859694 0.289836
O O8 0.405818 0.747699 0.969595
O O9 0.303429 0.860913 0.061027
O O10 0.998702 0.179165 0.670148
O O11 0.947443 0.000000 0.934943
O O12 0.000000 0.205543 0.000000
#
# Coordination Sequence:
#
# PCOD8101585 Si02
#       7
#     4   4   8   8   4   4   4
#     4  10  20  36  58  87 114 153 202 247 297 359
#     4  11  22  39  62  84 119 157 202 248 302 362
#     4  11  21  40  60  87 120 156 200 248 306 361
#     4  11  23  39  62  90 126 163 200 248 304 365
#     4  11  21  38  62  88 123 161 204 246 304 358
#     4  10  23  37  61  87 119 155 198 254 306 356
#     4  10  21  38  60  87 114 154 196 251 299 357
#
# _framework density 19.385142999999999
#
# number of rings (size 3 to 8) (size 9 to 14) (size 15 to 20)
#    0.000    1.333    3.333    3.000    0.000    0.000 
#    0.000    3.333    0.000    0.000    0.000    0.000 
#    0.000    0.000    0.000    0.000    0.000    0.000 
#
# Total GULP energy -223186.401594 kJ/mol
# GULP energy per Si atom -12399.244533 kJ/mol
# Density = 1.934102 g / cm^3
# Si number density = 19.385143 Si / 1000 Ang^3
#
#
#
# Elastic Constant Matrix: (Units=GPa)
#
#
# Indices 1 2 3 4 5 6 
#
# 1 66.0725 28.7899 22.4530 0.0000 14.1731 0.0000
# 2 28.7899 116.8141 25.1994 0.0000 8.4113 0.0000
# 3 22.4530 25.1994 95.6539 0.0000 15.9518 0.0000
# 4 0.0000 0.0000 0.0000 -30.5636 0.0000 0.7517
# 5 14.1731 8.4113 15.9518 0.0000 36.2883 0.0000
# 6 0.0000 0.0000 0.0000 0.7517 0.0000 26.8141
#
#
#
# Elastic Compliance Matrix: (Units=1/GPa)
#
#
# Indices 1 2 3 4 5 6 
#
# 1 0.018753 -0.003689 -0.002537 0.000000 -0.005354 0.000000
# 2 -0.003689 0.009846 -0.001713 0.000000 -0.000088 0.000000
# 3 -0.002537 -0.001713 0.012161 0.000000 -0.003958 0.000000
# 4 0.000000 0.000000 0.000000 -0.032696 0.000000 0.000917
# 5 -0.005354 -0.000088 -0.003958 0.000000 0.031408 0.000000
# 6 0.000000 0.000000 0.000000 0.000917 0.000000 0.037268
#
#
# Mechanical properties :
#
#
# Convention : Reuss Voigt Hill
#
# Bulk Modulus (GPa) = 40.19090 47.93611 44.06351
# Shear Modulus (GPa) = 49.54762 19.98095 34.76428
#
# Velocity S-wave (km/s) = 5.06113 3.21399 4.23939
# Velocity P-wave (km/s) = 7.41156 6.20926 6.83689
#
# Compressibility (1/GPa) = 0.02488125
#
# Stress axis : x y z
#
# Youngs Moduli (GPa) = 53.32485 101.56697 82.22815
#
# Poissons Ratio (x) = 0.37468 0.20863
# Poissons Ratio (y) = 0.19671 0.14087
# Poissons Ratio (z) = 0.13530 0.17400
#
# Static dielectric constant tensor:
#      x y z
#    x 3.736420 0.000000 0.286620 
#    y 0.000000 3.500630 0.000000 
#    z 0.286620 0.000000 3.578640 
# 
# 
# High freq. dielectric constant tensor:
#      x y z
#    x 1.759310 0.000000 0.008440 
#    y 0.000000 1.761460 0.000000 
#    z 0.008440 0.000000 1.758250 
# 
# From -- ./inp_files/92466.got.cif
#   From: 2010.06.25/outbox.cif.g09.slc.cpg/sg12_47_cif.got.tgz:92466.got - 2010.06.28 00:19:55.
