data_PCOD8101266
_publ_section_title
;
Structure prediction by ZEFSAII (Michael W. Deem and Ramdas Pophale) SiO2 
 PCOD8101266
Probable space group: C 2/M
;
_chemical_formula_sum "Si O2"
_cell_formula_units_Z 56
_cell_length_a 21.578880
_cell_length_b 8.791390
_cell_length_c 32.988819
_cell_angle_alpha 90.000000
_cell_angle_beta 154.098082
_cell_angle_gamma 90.000000
_cell_volume 2733.805175
_symmetry_space_group_name_H-M "C 2/M"
_symmetry_group_IT_number 12
_symmetry_cell_setting 'monoclinic'
loop_
_space_group_symop_operation_xyz
x,y,z
-x,y,-z
-x,-y,-z
x,-y,z
1/2+x,1/2+y,z
1/2-x,1/2+y,-z
1/2-x,1/2-y,-z
1/2+x,1/2-y,z
loop_
_atom_site_type_symbol
_atom_site_label
_atom_site_fract_x
_atom_site_fract_y
_atom_site_fract_z
Si Si1 0.486076 0.820009 0.538739
Si Si2 0.672406 0.680607 0.712298
Si Si3 0.517580 0.174858 0.101437
Si Si4 0.431690 0.174156 0.272776
Si Si5 0.122898 0.324981 0.901594
Si Si6 0.751785 0.324629 0.545325
Si Si7 0.267952 0.680203 0.107220
O O1 0.500000 0.770057 0.500000
O O2 0.626593 0.754498 0.642898
O O3 0.346270 0.754186 0.478594
O O4 0.480531 0.000000 0.539820
O O5 0.672829 0.500000 0.707839
O O6 0.827980 0.742720 0.817984
O O7 0.560737 0.735169 0.680310
O O8 0.508926 0.192363 0.145402
O O9 0.512297 0.000000 0.085816
O O10 0.385011 0.247224 0.998385
O O11 0.586139 0.187616 0.342936
O O12 0.306240 0.248801 0.172732
O O13 0.391839 0.000000 0.257904
O O14 0.154758 0.500000 0.910162
O O15 0.107465 0.233368 0.850505
O O16 0.250000 0.250000 0.000000
O O17 0.704065 0.500000 0.513121
O O18 0.750000 0.250000 0.500000
O O19 0.267451 0.500000 0.110227
#
# Coordination Sequence:
#
# PCOD8101266 Si02
#       7
#     8   8   8   8   8   8   8
#     4  11  25  44  65  94 131 163 202 260 317 375
#     4  11  22  39  63  87 116 159 206 250 306 372
#     4   8  18  35  56  83 117 158 199 245 298 358
#     4  11  24  40  59  88 122 155 199 254 307 365
#     4   9  16  31  53  78 111 150 195 245 297 353
#     4  11  23  41  68  93 122 162 206 255 312 377
#     4  10  20  36  57  84 118 157 204 250 297 359
#
# _framework density 20.484269999999999
#
# number of rings (size 3 to 8) (size 9 to 14) (size 15 to 20)
#    0.000    1.857    1.429    3.429    0.000    4.571 
#    0.000   15.714    0.000    0.000    0.000    0.000 
#    0.000    0.000    0.000    0.000    0.000    0.000 
#
# Total GULP energy -346998.165500 kJ/mol
# GULP energy per Si atom -12392.791625 kJ/mol
# Density = 2.043765 g / cm^3
# Si number density = 20.484270 Si / 1000 Ang^3
#
#
#
# Elastic Constant Matrix: (Units=GPa)
#
#
# Indices 1 2 3 4 5 6 
#
# 1 116.8532 51.5911 52.1067 -0.0007 -8.6432 0.0004
# 2 51.5911 96.5639 43.1980 -0.0020 -5.7752 0.0015
# 3 52.1067 43.1980 114.8231 -0.0063 -5.1809 0.0007
# 4 -0.0007 -0.0020 -0.0063 30.2772 0.0003 -6.0549
# 5 -8.6432 -5.7752 -5.1809 0.0003 35.9980 0.0000
# 6 0.0004 0.0015 0.0007 -6.0549 0.0000 31.3108
#
#
#
# Elastic Compliance Matrix: (Units=1/GPa)
#
#
# Indices 1 2 3 4 5 6 
#
# 1 0.012527 -0.004909 -0.003762 -0.000001 0.001679 0.000000
# 2 -0.004909 0.014439 -0.003174 0.000000 0.000681 -0.000001
# 3 -0.003762 -0.003174 0.011622 0.000002 0.000260 0.000000
# 4 -0.000001 0.000000 0.000002 0.034357 0.000000 0.006644
# 5 0.001679 0.000681 0.000260 0.000000 0.028329 0.000000
# 6 0.000000 -0.000001 0.000000 0.006644 0.000000 0.033223
#
#
# Mechanical properties :
#
#
# Convention : Reuss Voigt Hill
#
# Bulk Modulus (GPa) = 67.12281 69.11465 68.11873
# Shear Modulus (GPa) = 30.64612 31.60684 31.12648
#
# Velocity S-wave (km/s) = 3.87212 3.93234 3.90234
# Velocity P-wave (km/s) = 7.26844 7.37776 7.32330
#
# Compressibility (1/GPa) = 0.01489806
#
# Stress axis : x y z
#
# Youngs Moduli (GPa) = 79.82757 69.25571 86.04411
#
# Poissons Ratio (x) = 0.34001 0.32370
# Poissons Ratio (y) = 0.39191 0.27307
# Poissons Ratio (z) = 0.30031 0.21979
#
# Static dielectric constant tensor:
#      x y z
#    x 4.209930 0.000000 0.046830 
#    y 0.000000 3.758040 0.000010 
#    z 0.046830 0.000010 3.830860 
# 
# 
# High freq. dielectric constant tensor:
#      x y z
#    x 1.801590 0.000000 0.000890 
#    y 0.000000 1.797490 0.000000 
#    z 0.000890 0.000000 1.797820 
# 
# From -- ./inp_files/380765.got.cif
#   From: 2010.06.25/outbox.cif.g09.slc.cpg/sg12_191_cif.got.tgz:380765.got - 2010.06.28 00:19:55.
