data_PCOD8101860
_publ_section_title
;
Structure prediction by ZEFSAII (Michael W. Deem and Ramdas Pophale) SiO2 
 PCOD8101860
Probable space group: C 2/M
;
_chemical_formula_sum "Si O2"
_cell_formula_units_Z 64
_cell_length_a 28.653651
_cell_length_b 8.738427
_cell_length_c 14.217924
_cell_angle_alpha 90.000000
_cell_angle_beta 72.495703
_cell_angle_gamma 90.000000
_cell_volume 3395.147515
_symmetry_space_group_name_H-M "C 2/M"
_symmetry_group_IT_number 12
_symmetry_cell_setting 'monoclinic'
loop_
_space_group_symop_operation_xyz
x,y,z
-x,y,-z
-x,-y,-z
x,-y,z
1/2+x,1/2+y,z
1/2-x,1/2+y,-z
1/2-x,1/2-y,-z
1/2+x,1/2-y,z
loop_
_atom_site_type_symbol
_atom_site_label
_atom_site_fract_x
_atom_site_fract_y
_atom_site_fract_z
Si Si1 0.096041 0.824051 0.784359
Si Si2 0.948011 0.823221 0.997864
Si Si3 0.053854 0.827432 0.506518
Si Si4 0.521525 0.822805 0.702325
Si Si5 0.372427 0.176863 0.678256
Si Si6 0.285935 0.175631 0.596522
Si Si7 0.577163 0.319620 0.191013
Si Si8 0.814478 0.676744 0.373233
O O1 0.051077 0.720246 0.777596
O O2 0.147418 0.775475 0.709395
O O3 0.085821 0.000000 0.763811
O O4 0.094654 0.802294 0.898338
O O5 0.927896 0.752117 0.912079
O O6 0.958675 0.000000 0.969295
O O7 0.000000 0.749591 0.000000
O O8 0.058022 0.717584 0.594489
O O9 0.091257 0.775686 0.405623
O O10 0.000000 0.812699 0.500000
O O11 0.066505 0.000000 0.529347
O O12 0.472514 0.722259 0.723262
O O13 0.507376 0.000000 0.710563
O O14 0.317971 0.202174 0.670674
O O15 0.377365 0.237565 0.782735
O O16 0.387354 0.000000 0.663836
O O17 0.239367 0.285130 0.632958
O O18 0.317065 0.216212 0.483201
O O19 0.268137 0.000000 0.599643
O O20 0.586326 0.500000 0.188176
O O21 0.826368 0.500000 0.347722
#
# Coordination Sequence:
#
# PCOD8101860 Si02
#       8
#     8   8   8   8   8   8   8   8
#     4  11  21  36  59  82 109 146 185 229 281 336
#     4   9  18  35  57  79 106 145 192 234 276 327
#     4  11  22  34  50  73 104 146 189 221 258 322
#     4  12  23  34  50  76 110 145 182 226 277 325
#     4  11  22  36  55  80 112 148 184 227 280 332
#     4   9  20  38  58  81 113 150 182 217 272 337
#     4  11  21  36  55  76 106 145 190 230 270 328
#     4  10  20  36  59  88 115 141 180 230 278 327
#
# _framework density 18.850432999999999
#
# number of rings (size 3 to 8) (size 9 to 14) (size 15 to 20)
#    0.000    1.500    2.500    3.750    0.000    3.000 
#    0.000    3.125    0.000    0.750    0.000    0.000 
#    0.000    0.000    0.000    0.000    0.000    0.000 
#
# Total GULP energy -396798.637272 kJ/mol
# GULP energy per Si atom -12399.957415 kJ/mol
# Density = 1.880753 g / cm^3
# Si number density = 18.850433 Si / 1000 Ang^3
#
#
#
# Elastic Constant Matrix: (Units=GPa)
#
#
# Indices 1 2 3 4 5 6 
#
# 1 79.8517 20.8041 37.4671 0.0000 19.2374 0.0000
# 2 20.8041 64.1541 20.1302 0.0000 4.9877 0.0000
# 3 37.4671 20.1302 89.3485 0.0000 16.7720 0.0000
# 4 0.0000 0.0000 0.0000 18.3198 0.0000 3.4559
# 5 19.2374 4.9877 16.7720 0.0000 33.0549 0.0000
# 6 0.0000 0.0000 0.0000 3.4559 0.0000 29.1795
#
#
#
# Elastic Compliance Matrix: (Units=1/GPa)
#
#
# Indices 1 2 3 4 5 6 
#
# 1 0.017607 -0.003508 -0.005271 0.000000 -0.007043 0.000000
# 2 -0.003508 0.017486 -0.002605 0.000000 0.000725 0.000000
# 3 -0.005271 -0.002605 0.014744 0.000000 -0.004020 0.000000
# 4 0.000000 0.000000 0.000000 0.055833 0.000000 -0.006613
# 5 -0.007043 0.000725 -0.004020 0.000000 0.036283 0.000000
# 6 0.000000 0.000000 0.000000 -0.006613 0.000000 0.035054
#
#
# Mechanical properties :
#
#
# Convention : Reuss Voigt Hill
#
# Bulk Modulus (GPa) = 36.94131 43.35079 40.14605
# Shear Modulus (GPa) = 23.94670 26.44102 25.19386
#
# Velocity S-wave (km/s) = 3.56807 3.74929 3.65980
# Velocity P-wave (km/s) = 6.05098 6.46453 6.26117
#
# Compressibility (1/GPa) = 0.02706997
#
# Stress axis : x y z
#
# Youngs Moduli (GPa) = 56.79501 57.18850 67.82482
#
# Poissons Ratio (x) = 0.20063 0.35749
# Poissons Ratio (y) = 0.19925 0.17665
# Poissons Ratio (z) = 0.29935 0.14895
#
# Static dielectric constant tensor:
#      x y z
#    x 3.441760 0.000000 0.247720 
#    y 0.000000 3.389910 0.000000 
#    z 0.247720 0.000000 3.545740 
# 
# 
# High freq. dielectric constant tensor:
#      x y z
#    x 1.716390 0.000000 0.018450 
#    y 0.000000 1.729690 0.000000 
#    z 0.018450 0.000000 1.721500 
# 
# From -- ./inp_files/243814.got.cif
#   From: 2010.06.25/outbox.cif.g09.slc.cpg/sg12_122_cif.got.tgz:243814.got - 2010.06.28 00:19:55.
