data_PCOD8101825
_publ_section_title
;
Structure prediction by ZEFSAII (Michael W. Deem and Ramdas Pophale) SiO2 
 PCOD8101825
Probable space group: C 2/M
;
_chemical_formula_sum "Si O2"
_cell_formula_units_Z 56
_cell_length_a 25.272670
_cell_length_b 16.858221
_cell_length_c 10.581423
_cell_angle_alpha 90.000000
_cell_angle_beta 39.688219
_cell_angle_gamma 90.000000
_cell_volume 2879.004805
_symmetry_space_group_name_H-M "C 2/M"
_symmetry_group_IT_number 12
_symmetry_cell_setting 'monoclinic'
loop_
_space_group_symop_operation_xyz
x,y,z
-x,y,-z
-x,-y,-z
x,-y,z
1/2+x,1/2+y,z
1/2-x,1/2+y,-z
1/2-x,1/2-y,-z
1/2+x,1/2-y,z
loop_
_atom_site_type_symbol
_atom_site_label
_atom_site_fract_x
_atom_site_fract_y
_atom_site_fract_z
Si Si1 0.477601 0.821437 0.184343
Si Si2 0.549679 0.092217 0.281117
Si Si3 0.884915 0.800179 0.019804
Si Si4 0.836383 0.910287 0.586143
Si Si5 0.519974 0.589575 0.328088
Si Si6 0.333499 0.289489 0.382904
Si Si7 0.783146 0.692778 0.046892
O O1 0.491299 0.890504 0.264132
O O2 0.535236 0.753792 0.132791
O O3 0.387331 0.780482 0.349877
O O4 0.500000 0.850896 0.000000
O O5 0.500000 0.111538 0.500000
O O6 0.633654 0.143722 0.137156
O O7 0.574505 0.000000 0.228274
O O8 0.803566 0.750944 0.127221
O O9 0.904157 0.871216 0.887223
O O10 0.875728 0.828046 0.180983
O O11 0.935399 0.907327 0.405675
O O12 0.810208 0.864419 0.509594
O O13 0.803455 0.000000 0.640291
O O14 0.791698 0.867553 0.785899
O O15 0.500000 0.630989 0.500000
O O16 0.550128 0.500000 0.298242
O O17 0.250000 0.250000 0.500000
O O18 0.750000 0.750000 0.000000
#
# Coordination Sequence:
#
# PCOD8101825 Si02
#       7
#     8   8   8   8   8   8   8
#     4   9  20  37  59  87 116 158 206 250 297 369
#     4  10  23  41  62  90 123 160 207 263 312 365
#     4  10  20  36  59  87 116 155 209 251 292 362
#     4  11  23  39  60  89 125 160 196 249 314 368
#     4  10  21  37  58  86 123 159 196 249 308 368
#     4  11  21  38  60  86 123 158 205 257 304 366
#     4  11  23  37  62  90 118 163 203 249 309 370
#
# _framework density 19.451165
#
# number of rings (size 3 to 8) (size 9 to 14) (size 15 to 20)
#    0.000    1.714    2.857    1.286    2.000    3.143 
#    0.000    2.857    0.000    0.000    0.000    0.000 
#    0.000    0.000    0.000    0.000    0.000    0.000 
#
# Total GULP energy -346992.202808 kJ/mol
# GULP energy per Si atom -12392.578672 kJ/mol
# Density = 1.940689 g / cm^3
# Si number density = 19.451165 Si / 1000 Ang^3
#
#
#
# Elastic Constant Matrix: (Units=GPa)
#
#
# Indices 1 2 3 4 5 6 
#
# 1 94.2413 43.9275 21.0559 0.0000 7.5630 0.0000
# 2 43.9275 114.5913 54.4067 0.0000 9.9494 0.0000
# 3 21.0559 54.4067 87.1336 0.0000 15.7171 0.0000
# 4 0.0000 0.0000 0.0000 31.6364 0.0000 1.9257
# 5 7.5630 9.9494 15.7171 0.0000 34.6988 0.0000
# 6 0.0000 0.0000 0.0000 1.9257 0.0000 31.4848
#
#
#
# Elastic Compliance Matrix: (Units=1/GPa)
#
#
# Indices 1 2 3 4 5 6 
#
# 1 0.012992 -0.004958 0.000229 0.000000 -0.001514 0.000000
# 2 -0.004958 0.014296 -0.007823 0.000000 0.000525 0.000000
# 3 0.000229 -0.007823 0.017326 0.000000 -0.005655 0.000000
# 4 0.000000 0.000000 0.000000 0.031727 0.000000 -0.001941
# 5 -0.001514 0.000525 -0.005655 0.000000 0.031560 0.000000
# 6 0.000000 0.000000 0.000000 -0.001941 0.000000 0.031880
#
#
# Mechanical properties :
#
#
# Convention : Reuss Voigt Hill
#
# Bulk Modulus (GPa) = 51.25366 59.41627 55.33497
# Shear Modulus (GPa) = 29.17342 31.33576 30.25459
#
# Velocity S-wave (km/s) = 3.87696 4.01808 3.94815
# Velocity P-wave (km/s) = 6.81530 7.22075 7.02095
#
# Compressibility (1/GPa) = 0.01951080
#
# Stress axis : x y z
#
# Youngs Moduli (GPa) = 76.96877 69.94983 57.71659
#
# Poissons Ratio (x) = 0.34680 -0.01323
# Poissons Ratio (y) = 0.38160 0.45152
# Poissons Ratio (z) = -0.01764 0.54723
#
# Static dielectric constant tensor:
#      x y z
#    x 4.238090 0.000000 0.552440 
#    y 0.000000 9.017500 0.000000 
#    z 0.552440 0.000000 3.914540 
# 
# 
# High freq. dielectric constant tensor:
#      x y z
#    x 1.765390 0.000000 0.005570 
#    y 0.000000 1.745040 0.000000 
#    z 0.005570 0.000000 1.760440 
# 
# From -- ./inp_files/98037.got.cif
#   From: 2010.06.25/outbox.cif.g09.slc.cpg/sg12_50_cif.got.tgz:98037.got - 2010.06.28 00:19:55.
