data_PCOD8101232
_publ_section_title
;
Structure prediction by ZEFSAII (Michael W. Deem and Ramdas Pophale) SiO2 
 PCOD8101232
Probable space group: C 2/M
;
_chemical_formula_sum "Si O2"
_cell_formula_units_Z 48
_cell_length_a 20.366540
_cell_length_b 8.671041
_cell_length_c 23.139033
_cell_angle_alpha 90.000000
_cell_angle_beta 39.348678
_cell_angle_gamma 90.000000
_cell_volume 2590.890449
_symmetry_space_group_name_H-M "C 2/M"
_symmetry_group_IT_number 12
_symmetry_cell_setting 'monoclinic'
loop_
_space_group_symop_operation_xyz
x,y,z
-x,y,-z
-x,-y,-z
x,-y,z
1/2+x,1/2+y,z
1/2-x,1/2+y,-z
1/2-x,1/2-y,-z
1/2+x,1/2-y,z
loop_
_atom_site_type_symbol
_atom_site_label
_atom_site_fract_x
_atom_site_fract_y
_atom_site_fract_z
Si Si1 0.362999 0.817753 0.928247
Si Si2 0.640213 0.819376 0.558287
Si Si3 0.824222 0.677577 0.272248
Si Si4 0.397009 0.322108 0.537313
Si Si5 0.531024 0.319212 0.735579
Si Si6 0.490444 0.818514 0.070315
O O1 0.428451 0.763158 0.828720
O O2 0.418908 0.756792 0.948898
O O3 0.356650 0.000000 0.932552
O O4 0.250000 0.750000 0.000000
O O5 0.750000 0.750000 0.500000
O O6 0.614179 0.787048 0.509815
O O7 0.550994 0.741548 0.657539
O O8 0.643138 0.000000 0.568267
O O9 0.852325 0.500000 0.267619
O O10 0.700809 0.702577 0.352978
O O11 0.869146 0.780923 0.293229
O O12 0.878367 0.723705 0.174551
O O13 0.500000 0.270328 0.500000
O O14 0.403312 0.500000 0.512958
O O15 0.511644 0.500000 0.747534
O O16 0.502999 0.000000 0.055322
O O17 0.500000 0.741566 0.000000
#
# Coordination Sequence:
#
# PCOD8101232 Si02
#       6
#     8   8   8   8   8   8
#     4  10  20  36  57  83 116 148 182 231 284 337
#     4  12  23  37  59  85 113 147 190 240 284 339
#     4   9  17  32  55  78 108 147 185 230 278 332
#     4  10  21  37  55  81 116 152 188 229 282 342
#     4  11  21  35  58  85 110 146 192 236 283 340
#     4   8  15  30  53  79 104 138 184 226 268 322
#
# _framework density 18.526449
#
# number of rings (size 3 to 8) (size 9 to 14) (size 15 to 20)
#    0.000    2.000    1.667    4.500    0.000    0.333 
#    3.000    0.000    0.000   12.500    0.000    0.000 
#    0.000    0.000    0.000    0.000    0.000    0.000 
#
# Total GULP energy -297597.609543 kJ/mol
# GULP energy per Si atom -12399.900398 kJ/mol
# Density = 1.848428 g / cm^3
# Si number density = 18.526449 Si / 1000 Ang^3
#
#
#
# Elastic Constant Matrix: (Units=GPa)
#
#
# Indices 1 2 3 4 5 6 
#
# 1 102.9994 27.4971 81.1269 -0.0001 -7.3114 0.0001
# 2 27.4971 72.9141 31.7789 -0.0001 -2.6472 0.0005
# 3 81.1269 31.7789 158.9283 0.0000 -3.4823 0.0000
# 4 -0.0001 -0.0001 0.0000 27.9703 0.0000 -0.7549
# 5 -7.3114 -2.6472 -3.4823 0.0000 38.4409 0.0000
# 6 0.0001 0.0005 0.0000 -0.7549 0.0000 23.6468
#
#
#
# Elastic Compliance Matrix: (Units=1/GPa)
#
#
# Indices 1 2 3 4 5 6 
#
# 1 0.016958 -0.002805 -0.008045 0.000000 0.002303 0.000000
# 2 -0.002805 0.015511 -0.001661 0.000000 0.000384 0.000000
# 3 -0.008045 -0.001661 0.010716 0.000000 -0.000674 0.000000
# 4 0.000000 0.000000 0.000000 0.035783 0.000000 0.001142
# 5 0.002303 0.000384 -0.000674 0.000000 0.026417 0.000000
# 6 0.000000 0.000000 0.000000 0.001142 0.000000 0.042325
#
#
# Mechanical properties :
#
#
# Convention : Reuss Voigt Hill
#
# Bulk Modulus (GPa) = 55.05959 68.40525 61.73242
# Shear Modulus (GPa) = 27.96630 30.97420 29.47025
#
# Velocity S-wave (km/s) = 3.88949 4.09331 3.99270
# Velocity P-wave (km/s) = 7.06787 7.70347 7.39250
#
# Compressibility (1/GPa) = 0.01816214
#
# Stress axis : x y z
#
# Youngs Moduli (GPa) = 58.97038 64.47222 93.31715
#
# Poissons Ratio (x) = 0.18085 0.75072
# Poissons Ratio (y) = 0.16542 0.15501
# Poissons Ratio (z) = 0.47441 0.10710
#
# Static dielectric constant tensor:
#      x y z
#    x 3.530220 0.000000 0.113560 
#    y 0.000000 3.278940 0.000000 
#    z 0.113560 0.000000 3.760510 
# 
# 
# High freq. dielectric constant tensor:
#      x y z
#    x 1.696160 0.000000 0.001350 
#    y 0.000000 1.706860 0.000000 
#    z 0.001350 0.000000 1.735480 
# 
# From -- ./inp_files/345386.got.cif
#   From: 2010.06.25/outbox.cif.g09.slc.cpg/sg12_173_cif.got.tgz:345386.got - 2010.06.28 00:19:55.
