data_PCOD8101254
_publ_section_title
;
Structure prediction by ZEFSAII (Michael W. Deem and Ramdas Pophale) SiO2 
 PCOD8101254
Probable space group: C 2/M
;
_chemical_formula_sum "Si O2"
_cell_formula_units_Z 56
_cell_length_a 31.716133
_cell_length_b 9.069222
_cell_length_c 20.071107
_cell_angle_alpha 90.000000
_cell_angle_beta 30.081835
_cell_angle_gamma 90.000000
_cell_volume 2893.771355
_symmetry_space_group_name_H-M "C 2/M"
_symmetry_group_IT_number 12
_symmetry_cell_setting 'monoclinic'
loop_
_space_group_symop_operation_xyz
x,y,z
-x,y,-z
-x,-y,-z
x,-y,z
1/2+x,1/2+y,z
1/2-x,1/2+y,-z
1/2-x,1/2-y,-z
1/2+x,1/2-y,z
loop_
_atom_site_type_symbol
_atom_site_label
_atom_site_fract_x
_atom_site_fract_y
_atom_site_fract_z
Si Si1 0.091668 0.828874 0.050923
Si Si2 0.429685 0.326145 0.648382
Si Si3 0.505685 0.327932 0.682582
Si Si4 0.698872 0.672831 0.628134
Si Si5 0.675009 0.171619 0.428741
Si Si6 0.784799 0.327665 0.774011
Si Si7 0.975620 0.672415 0.108624
O O1 0.051300 0.788724 0.176713
O O2 0.052920 0.725855 0.047512
O O3 0.077490 0.000000 0.051322
O O4 0.189412 0.790340 0.922412
O O5 0.500000 0.273999 0.500000
O O6 0.416714 0.500000 0.664434
O O7 0.458021 0.269371 0.682134
O O8 0.341407 0.252543 0.751281
O O9 0.523279 0.500000 0.651648
O O10 0.595270 0.251639 0.569598
O O11 0.692643 0.500000 0.620923
O O12 0.750000 0.750000 0.500000
O O13 0.743910 0.704078 0.636833
O O14 0.606165 0.738452 0.757679
O O15 0.694228 0.232575 0.328634
O O16 0.654207 0.000000 0.455480
O O17 0.803071 0.500000 0.752998
O O18 0.959004 0.500000 0.142531
O O19 0.000000 0.708917 0.000000
#
# Coordination Sequence:
#
# PCOD8101254 Si02
#       7
#     8   8   8   8   8   8   8
#     4  10  22  40  60  84 115 152 193 238 290 347
#     4  10  20  36  57  84 116 150 187 230 284 343
#     4  10  21  37  58  83 114 151 190 233 284 342
#     4  11  23  39  60  87 119 155 196 245 298 352
#     4  10  21  36  56  82 111 145 188 235 283 338
#     4  10  21  37  58  84 112 145 189 236 282 338
#     4  11  24  41  61  87 119 156 199 245 294 354
#
# _framework density 19.35191
#
# number of rings (size 3 to 8) (size 9 to 14) (size 15 to 20)
#    0.000    1.714    1.429    2.571    0.000    8.286 
#    0.000    0.000    0.000    0.000    0.000    0.000 
#    0.000    0.000    0.000    0.000    0.000    0.000 
#
# Total GULP energy -347368.672039 kJ/mol
# GULP energy per Si atom -12406.024001 kJ/mol
# Density = 1.930786 g / cm^3
# Si number density = 19.351910 Si / 1000 Ang^3
#
#
#
# Elastic Constant Matrix: (Units=GPa)
#
#
# Indices 1 2 3 4 5 6 
#
# 1 97.1652 34.9474 27.6126 0.0176 -1.6552 -0.0044
# 2 34.9474 53.2275 37.2500 0.0172 -1.5066 -0.0024
# 3 27.6126 37.2500 118.1155 0.0029 -2.6570 -0.0008
# 4 0.0176 0.0172 0.0029 32.1716 -0.0014 -7.7960
# 5 -1.6552 -1.5066 -2.6570 -0.0014 34.5543 0.0013
# 6 -0.0044 -0.0024 -0.0008 -7.7960 0.0013 30.5925
#
#
#
# Elastic Compliance Matrix: (Units=1/GPa)
#
#
# Indices 1 2 3 4 5 6 
#
# 1 0.013495 -0.008533 -0.000458 -0.000003 0.000239 0.000001
# 2 -0.008533 0.029511 -0.007305 -0.000011 0.000316 -0.000002
# 3 -0.000458 -0.007305 0.010888 0.000003 0.000497 0.000000
# 4 -0.000003 -0.000011 0.000003 0.033129 0.000001 0.008442
# 5 0.000239 0.000316 0.000497 0.000001 0.029003 -0.000001
# 6 0.000001 -0.000002 0.000000 0.008442 -0.000001 0.034839
#
#
# Mechanical properties :
#
#
# Convention : Reuss Voigt Hill
#
# Bulk Modulus (GPa) = 46.94425 52.01426 49.47925
# Shear Modulus (GPa) = 26.23860 30.71023 28.47441
#
# Velocity S-wave (km/s) = 3.68620 3.98796 3.84005
# Velocity P-wave (km/s) = 6.51370 6.93841 6.72941
#
# Compressibility (1/GPa) = 0.02130187
#
# Stress axis : x y z
#
# Youngs Moduli (GPa) = 74.10087 33.88594 91.84092
#
# Poissons Ratio (x) = 0.28914 0.04211
# Poissons Ratio (y) = 0.63229 0.67089
# Poissons Ratio (z) = 0.03397 0.24753
#
# Static dielectric constant tensor:
#      x y z
#    x 3.698160 -0.000010 0.135820 
#    y -0.000010 3.464490 0.000030 
#    z 0.135820 0.000030 3.417330 
# 
# 
# High freq. dielectric constant tensor:
#      x y z
#    x 1.766860 0.000000 -0.000800 
#    y 0.000000 1.747250 0.000000 
#    z -0.000800 0.000000 1.762270 
# 
# From -- ./inp_files/275628.got.cif
#   From: 2010.06.25/outbox.cif.g09.slc.cpg/sg12_138_cif.got.tgz:275628.got - 2010.06.28 00:19:55.
