data_PCOD8101829
_publ_section_title
;
Structure prediction by ZEFSAII (Michael W. Deem and Ramdas Pophale) SiO2 
 PCOD8101829
Probable space group: C 2/M
;
_chemical_formula_sum "Si O2"
_cell_formula_units_Z 64
_cell_length_a 15.237780
_cell_length_b 25.339607
_cell_length_c 8.055290
_cell_angle_alpha 90.000000
_cell_angle_beta 94.663576
_cell_angle_gamma 90.000000
_cell_volume 3100.006035
_symmetry_space_group_name_H-M "C 2/M"
_symmetry_group_IT_number 12
_symmetry_cell_setting 'monoclinic'
loop_
_space_group_symop_operation_xyz
x,y,z
-x,y,-z
-x,-y,-z
x,-y,z
1/2+x,1/2+y,z
1/2-x,1/2+y,-z
1/2-x,1/2-y,-z
1/2+x,1/2-y,z
loop_
_atom_site_type_symbol
_atom_site_label
_atom_site_fract_x
_atom_site_fract_y
_atom_site_fract_z
Si Si1 0.990148 0.888359 0.299968
Si Si2 0.675455 0.856709 0.201885
Si Si3 0.461380 0.274424 0.310255
Si Si4 0.336841 0.558036 0.714134
Si Si5 0.313932 0.559167 0.323465
Si Si6 0.234805 0.245788 0.801576
Si Si7 0.199146 0.639714 0.818552
Si Si8 0.507642 0.160275 0.697859
O O1 0.995070 0.828288 0.230060
O O2 0.897906 0.916565 0.238369
O O3 0.000000 0.887576 0.500000
O O4 0.069391 0.917659 0.217922
O O5 0.730507 0.902312 0.299636
O O6 0.695798 0.796147 0.267353
O O7 0.573617 0.869231 0.226205
O O8 0.702188 0.858299 0.015787
O O9 0.500000 0.272550 0.500000
O O10 0.356436 0.277941 0.278438
O O11 0.490885 0.220018 0.225965
O O12 0.328514 0.500000 0.791796
O O13 0.337734 0.554657 0.517909
O O14 0.254639 0.590685 0.766313
O O15 0.293212 0.500000 0.250938
O O16 0.239851 0.306802 0.740199
O O17 0.250000 0.250000 0.000000
O O18 0.097909 0.630363 0.752548
O O19 0.500000 0.160741 0.500000
#
# Coordination Sequence:
#
# PCOD8101829 Si02
#       8
#     8   8   8   8   8   8   8   8
#     4   9  17  32  56  86 118 152 191 234 286 345
#     4  11  21  37  60  82 116 157 195 240 296 359
#     4   9  17  32  53  87 121 150 193 240 289 348
#     4  10  21  37  59  86 118 156 197 246 296 342
#     4  10  20  36  59  87 117 153 198 246 290 344
#     4   9  19  35  55  82 117 156 199 236 293 356
#     4  10  22  39  57  83 116 157 198 239 295 356
#     4  10  21  37  57  87 117 148 191 250 301 348
#
# _framework density 20.645121
#
# number of rings (size 3 to 8) (size 9 to 14) (size 15 to 20)
#    0.000    2.250    1.250    1.500    1.750    2.000 
#    0.000    3.750    0.000    5.250    0.000    0.000 
#    0.000    0.000    0.000    0.000    0.000    0.000 
#
# Total GULP energy -396489.006293 kJ/mol
# GULP energy per Si atom -12390.281447 kJ/mol
# Density = 2.059813 g / cm^3
# Si number density = 20.645121 Si / 1000 Ang^3
#
#
#
# Elastic Constant Matrix: (Units=GPa)
#
#
# Indices 1 2 3 4 5 6 
#
# 1 153.5087 79.0213 7.9282 0.0000 4.1932 0.0000
# 2 79.0213 146.8422 3.6520 0.0000 -12.1010 0.0000
# 3 7.9282 3.6520 25.1001 0.0000 3.1697 0.0000
# 4 0.0000 0.0000 0.0000 17.9954 0.0000 -0.2346
# 5 4.1932 -12.1010 3.1697 0.0000 18.6160 0.0000
# 6 0.0000 0.0000 0.0000 -0.2346 0.0000 36.8381
#
#
#
# Elastic Compliance Matrix: (Units=1/GPa)
#
#
# Indices 1 2 3 4 5 6 
#
# 1 0.009628 -0.005600 -0.001525 0.000000 -0.005549 0.000000
# 2 -0.005600 0.010523 -0.000802 0.000000 0.008238 0.000000
# 3 -0.001525 -0.000802 0.041351 0.000000 -0.007219 0.000000
# 4 0.000000 0.000000 0.000000 0.055574 0.000000 0.000354
# 5 -0.005549 0.008238 -0.007219 0.000000 0.061551 0.000000
# 6 0.000000 0.000000 0.000000 0.000354 0.000000 0.027148
#
#
# Mechanical properties :
#
#
# Convention : Reuss Voigt Hill
#
# Bulk Modulus (GPa) = 21.90844 56.29491 39.10168
# Shear Modulus (GPa) = 21.11081 30.34653 25.72867
#
# Velocity S-wave (km/s) = 3.20121 3.83810 3.53403
# Velocity P-wave (km/s) = 4.92937 6.85336 5.96939
#
# Compressibility (1/GPa) = 0.04564451
#
# Stress axis : x y z
#
# Youngs Moduli (GPa) = 103.86903 95.03342 24.18346
#
# Poissons Ratio (x) = 0.53222 0.03689
# Poissons Ratio (y) = 0.58170 0.01941
# Poissons Ratio (z) = 0.15844 0.07626
#
# Static dielectric constant tensor:
#      x y z
#    x 3.736690 0.000000 0.308180 
#    y 0.000000 4.230290 0.000000 
#    z 0.308180 0.000000 3.424680 
# 
# 
# High freq. dielectric constant tensor:
#      x y z
#    x 1.806580 0.000000 0.022520 
#    y 0.000000 1.810070 0.000000 
#    z 0.022520 0.000000 1.780640 
# 
# From -- ./inp_files/66993.got.cif
#   From: 2010.06.25/outbox.cif.g09.slc.cpg/sg12_34_cif.got.tgz:66993.got - 2010.06.28 00:19:55.
