data_PCOD8101151
_publ_section_title
;
Structure prediction by ZEFSAII (Michael W. Deem and Ramdas Pophale) SiO2 
 PCOD8101151
Probable space group: C 2/M
;
_chemical_formula_sum "Si O2"
_cell_formula_units_Z 64
_cell_length_a 14.649606
_cell_length_b 19.312409
_cell_length_c 24.196270
_cell_angle_alpha 90.000000
_cell_angle_beta 30.438824
_cell_angle_gamma 90.000000
_cell_volume 3468.099211
_symmetry_space_group_name_H-M "C 2/M"
_symmetry_group_IT_number 12
_symmetry_cell_setting 'monoclinic'
loop_
_space_group_symop_operation_xyz
x,y,z
-x,y,-z
-x,-y,-z
x,-y,z
1/2+x,1/2+y,z
1/2-x,1/2+y,-z
1/2-x,1/2-y,-z
1/2+x,1/2-y,z
loop_
_atom_site_type_symbol
_atom_site_label
_atom_site_fract_x
_atom_site_fract_y
_atom_site_fract_z
Si Si1 0.010301 0.815387 0.264562
Si Si2 0.258037 0.830482 0.507261
Si Si3 0.674031 0.860152 0.047913
Si Si4 0.981092 0.776531 0.153398
Si Si5 0.368924 0.816157 0.728867
Si Si6 0.191587 0.579548 0.921752
Si Si7 0.158441 0.080494 0.458939
Si Si8 0.936201 0.421347 0.782160
O O1 0.081535 0.754690 0.266496
O O2 0.155830 0.876111 0.187780
O O3 0.826606 0.845675 0.388001
O O4 0.972823 0.786531 0.223462
O O5 0.250000 0.750000 0.500000
O O6 0.469858 0.848894 0.392757
O O7 0.142666 0.873576 0.522396
O O8 0.512143 0.804668 0.124791
O O9 0.637701 0.909238 0.118311
O O10 0.691961 0.910898 0.987033
O O11 0.859886 0.818827 0.959147
O O12 0.796904 0.803606 0.224443
O O13 0.324056 0.873148 0.798779
O O14 0.227385 0.500000 0.887928
O O15 0.000000 0.605568 0.000000
O O16 0.350494 0.095757 0.330019
O O17 0.000000 0.103587 0.500000
O O18 0.137138 0.000000 0.486173
O O19 0.900032 0.500000 0.783523
#
# Coordination Sequence:
#
# PCOD8101151 Si02
#       8
#     8   8   8   8   8   8   8   8
#     4  10  20  38  54  81 111 145 187 226 280 329
#     4   9  20  36  52  81 116 144 183 230 276 334
#     4  10  20  37  54  82 108 143 186 229 280 331
#     4  10  21  35  58  80 108 147 185 230 276 331
#     4  10  20  38  56  81 112 145 189 230 277 335
#     4  10  21  35  54  83 114 144 182 230 284 342
#     4   9  19  35  57  84 113 147 186 231 286 341
#     4  10  20  36  57  80 113 146 182 237 281 326
#
# _framework density 18.453911999999999
#
# number of rings (size 3 to 8) (size 9 to 14) (size 15 to 20)
#    0.000    2.250    1.250    1.125    0.000    4.500 
#    0.000    6.250    0.000    0.000    0.000    7.000 
#    0.000    0.000    0.000    0.000    0.000    0.000 
#
# Total GULP energy -396772.715715 kJ/mol
# GULP energy per Si atom -12399.147366 kJ/mol
# Density = 1.841191 g / cm^3
# Si number density = 18.453912 Si / 1000 Ang^3
#
#
#
# Elastic Constant Matrix: (Units=GPa)
#
#
# Indices 1 2 3 4 5 6 
#
# 1 71.2791 26.9970 41.9175 -0.0004 -16.2068 -0.0031
# 2 26.9970 72.4692 33.9693 -0.0180 -0.6781 -0.0120
# 3 41.9175 33.9693 113.5346 -0.0078 12.8941 0.0206
# 4 -0.0004 -0.0180 -0.0078 22.2912 0.0132 0.4837
# 5 -16.2068 -0.6781 12.8941 0.0132 30.0037 0.0015
# 6 -0.0031 -0.0120 0.0206 0.4837 0.0015 14.8318
#
#
#
# Elastic Compliance Matrix: (Units=1/GPa)
#
#
# Indices 1 2 3 4 5 6 
#
# 1 0.026049 -0.004705 -0.010298 -0.000018 0.018390 0.000015
# 2 -0.004705 0.017088 -0.003291 0.000013 -0.000741 0.000017
# 3 -0.010298 -0.003291 0.014965 0.000010 -0.012068 -0.000025
# 4 -0.000018 0.000013 0.000010 0.044893 -0.000034 -0.001464
# 5 0.018390 -0.000741 -0.012068 -0.000034 0.048432 0.000016
# 6 0.000015 0.000017 -0.000025 -0.001464 0.000016 0.067470
#
#
# Mechanical properties :
#
#
# Convention : Reuss Voigt Hill
#
# Bulk Modulus (GPa) = 46.48354 51.45006 48.96680
# Shear Modulus (GPa) = 19.03627 23.71861 21.37744
#
# Velocity S-wave (km/s) = 3.21527 3.58898 3.40725
# Velocity P-wave (km/s) = 6.24721 6.71679 6.48625
#
# Compressibility (1/GPa) = 0.02151299
#
# Stress axis : x y z
#
# Youngs Moduli (GPa) = 38.38973 58.52228 66.82066
#
# Poissons Ratio (x) = 0.27533 0.68813
# Poissons Ratio (y) = 0.18061 0.21994
# Poissons Ratio (z) = 0.39534 0.19262
#
# Static dielectric constant tensor:
#      x y z
#    x 3.189280 0.000010 0.060240 
#    y 0.000010 3.405350 0.000180 
#    z 0.060240 0.000180 3.792430 
# 
# 
# High freq. dielectric constant tensor:
#      x y z
#    x 1.698920 0.000000 0.007730 
#    y 0.000000 1.717040 0.000000 
#    z 0.007730 0.000000 1.726130 
# 
# From -- ./inp_files/340831.got.cif
#   From: 2010.06.25/outbox.cif.g09.slc.cpg/sg12_171_cif.got.tgz:340831.got - 2010.06.28 00:19:55.
