data_PCOD8101073
_publ_section_title
;
Structure prediction by ZEFSAII (Michael W. Deem and Ramdas Pophale) SiO2 
 PCOD8101073
Probable space group: C 2/M
;
_chemical_formula_sum "Si O2"
_cell_formula_units_Z 56
_cell_length_a 14.314555
_cell_length_b 9.401159
_cell_length_c 25.887030
_cell_angle_alpha 90.000000
_cell_angle_beta 64.983848
_cell_angle_gamma 90.000000
_cell_volume 3156.894561
_symmetry_space_group_name_H-M "C 2/M"
_symmetry_group_IT_number 12
_symmetry_cell_setting 'monoclinic'
loop_
_space_group_symop_operation_xyz
x,y,z
-x,y,-z
-x,-y,-z
x,-y,z
1/2+x,1/2+y,z
1/2-x,1/2+y,-z
1/2-x,1/2-y,-z
1/2+x,1/2-y,z
loop_
_atom_site_type_symbol
_atom_site_label
_atom_site_fract_x
_atom_site_fract_y
_atom_site_fract_z
Si Si1 0.692053 0.159433 0.555673
Si Si2 0.719290 0.331832 0.357577
Si Si3 0.027856 0.661286 0.436180
Si Si4 0.039815 0.835031 0.150109
Si Si5 0.951177 0.169481 0.064024
Si Si6 0.314240 0.661892 0.243220
Si Si7 0.230941 0.665165 0.150308
O O1 0.750000 0.250000 0.500000
O O2 0.715325 0.214156 0.607634
O O3 0.570557 0.167345 0.577320
O O4 0.733835 0.000000 0.538962
O O5 0.708830 0.500000 0.353530
O O6 0.606940 0.264923 0.389896
O O7 0.776064 0.271269 0.294639
O O8 0.071633 0.500000 0.429880
O O9 0.000000 0.717275 0.500000
O O10 0.131646 0.749732 0.154880
O O11 0.020341 0.778518 0.096233
O O12 0.935235 0.810789 0.206509
O O13 0.070759 0.000000 0.142484
O O14 0.832798 0.221550 0.096395
O O15 0.950358 0.000000 0.065072
O O16 0.000000 0.231262 0.000000
O O17 0.295992 0.500000 0.265997
O O18 0.248938 0.690346 0.206771
O O19 0.211931 0.500000 0.142923
#
# Coordination Sequence:
#
# PCOD8101073 Si02
#       7
#     8   8   8   8   8   8   8
#     4  10  21  36  54  77 103 131 164 202 248 303
#     4  11  23  36  54  81 107 130 167 221 265 299
#     4  10  20  36  57  77 102 139 171 196 245 317
#     4   9  18  33  54  78 104 138 179 220 261 307
#     4   8  15  30  51  76 109 147 181 211 254 316
#     4   9  20  38  54  70 100 140 177 210 256 321
#     4   9  18  33  54  77 102 138 179 219 261 307
#
# _framework density 17.738951
#
# number of rings (size 3 to 8) (size 9 to 14) (size 15 to 20)
#    0.000    2.571    1.429    2.143    0.000    4.286 
#    0.000    6.429    0.000    0.857    0.000    0.000 
#    0.000    0.000    0.000    0.000    0.000    0.000 
#
# Total GULP energy -347174.968693 kJ/mol
# GULP energy per Si atom -12399.106025 kJ/mol
# Density = 1.769858 g / cm^3
# Si number density = 17.738951 Si / 1000 Ang^3
#
#
#
# Elastic Constant Matrix: (Units=GPa)
#
#
# Indices 1 2 3 4 5 6 
#
# 1 132.3825 56.4044 54.4463 0.0000 0.0166 0.0000
# 2 56.4044 76.4322 60.8936 0.0000 -0.8486 0.0000
# 3 54.4463 60.8936 130.3603 0.0000 1.7013 0.0000
# 4 0.0000 0.0000 0.0000 23.4869 0.0000 0.2288
# 5 0.0166 -0.8486 1.7013 0.0000 16.5581 0.0000
# 6 0.0000 0.0000 0.0000 0.2288 0.0000 32.4247
#
#
#
# Elastic Compliance Matrix: (Units=1/GPa)
#
#
# Indices 1 2 3 4 5 6 
#
# 1 0.011155 -0.007208 -0.001289 0.000000 -0.000248 0.000000
# 2 -0.007208 0.025567 -0.008962 0.000000 0.002238 0.000000
# 3 -0.001289 -0.008962 0.012418 0.000000 -0.001734 0.000000
# 4 0.000000 0.000000 0.000000 0.042580 0.000000 -0.000301
# 5 -0.000248 0.002238 -0.001734 0.000000 0.060686 0.000000
# 6 0.000000 0.000000 0.000000 -0.000301 0.000000 0.030843
#
#
# Mechanical properties :
#
#
# Convention : Reuss Voigt Hill
#
# Bulk Modulus (GPa) = 70.30585 75.85150 73.07868
# Shear Modulus (GPa) = 22.43079 25.65601 24.04340
#
# Velocity S-wave (km/s) = 3.55983 3.80716 3.68557
# Velocity P-wave (km/s) = 7.52437 7.88535 7.70697
#
# Compressibility (1/GPa) = 0.01422357
#
# Stress axis : x y z
#
# Youngs Moduli (GPa) = 89.64512 39.11227 80.52759
#
# Poissons Ratio (x) = 0.28192 0.10378
# Poissons Ratio (y) = 0.64617 0.72166
# Poissons Ratio (z) = 0.11553 0.35051
#
# Static dielectric constant tensor:
#      x y z
#    x 3.294990 0.000000 0.058500 
#    y 0.000000 3.149300 0.000000 
#    z 0.058500 0.000000 3.340580 
# 
# 
# High freq. dielectric constant tensor:
#      x y z
#    x 1.693720 0.000000 0.002890 
#    y 0.000000 1.670340 0.000000 
#    z 0.002890 0.000000 1.686900 
# 
# From -- ./inp_files/309051.got.cif
#   From: 2010.06.25/outbox.cif.g09.slc.cpg/sg12_155_cif.got.tgz:309051.got - 2010.06.28 00:19:55.
