data_PCOD8101617
_publ_section_title
;
Structure prediction by ZEFSAII (Michael W. Deem and Ramdas Pophale) SiO2 
 PCOD8101617
Probable space group: C 2/M
;
_chemical_formula_sum "Si O2"
_cell_formula_units_Z 48
_cell_length_a 31.634876
_cell_length_b 7.616468
_cell_length_c 9.985344
_cell_angle_alpha 90.000000
_cell_angle_beta 76.491218
_cell_angle_gamma 90.000000
_cell_volume 2339.366781
_symmetry_space_group_name_H-M "C 2/M"
_symmetry_group_IT_number 12
_symmetry_cell_setting 'monoclinic'
loop_
_space_group_symop_operation_xyz
x,y,z
-x,y,-z
-x,-y,-z
x,-y,z
1/2+x,1/2+y,z
1/2-x,1/2+y,-z
1/2-x,1/2-y,-z
1/2+x,1/2-y,z
loop_
_atom_site_type_symbol
_atom_site_label
_atom_site_fract_x
_atom_site_fract_y
_atom_site_fract_z
Si Si1 0.458669 0.796855 0.122505
Si Si2 0.629752 0.801505 0.238041
Si Si3 0.976057 0.000000 0.313504
Si Si4 0.199781 0.708796 0.672719
Si Si5 0.433296 0.500000 0.632158
Si Si6 0.868107 0.706208 0.063469
Si Si7 0.297495 0.701130 0.624395
O O1 0.461653 0.677280 0.250568
O O2 0.416378 0.738088 0.070906
O O3 0.456045 0.000000 0.169978
O O4 0.500000 0.760920 0.000000
O O5 0.594722 0.675940 0.332134
O O6 0.673474 0.809125 0.293079
O O7 0.610694 0.000000 0.243394
O O8 0.640365 0.728072 0.081397
O O9 0.952232 0.000000 0.471058
O O10 0.028142 0.000000 0.288501
O O11 0.199072 0.500000 0.668657
O O12 0.167453 0.788461 0.808814
O O13 0.248458 0.776564 0.668350
O O14 0.184295 0.779269 0.539911
O O15 0.862339 0.500000 0.074667
O O16 0.299554 0.500000 0.667660
#
# Coordination Sequence:
#
# PCOD8101617 Si02
#       7
#     8   8   4   8   4   8   8
#     4  10  21  39  65  94 124 162 208 258 307 365
#     4  11  23  41  64  86 123 167 199 253 314 367
#     4  11  25  42  64  90 127 166 203 264 309 364
#     4   9  19  37  60  86 120 161 206 257 300 366
#     4  11  26  44  60  94 126 159 216 251 307 379
#     4   9  20  37  59  89 119 158 212 252 303 370
#     4  10  20  36  58  89 125 160 204 252 308 365
#
# _framework density 20.518371999999999
#
# number of rings (size 3 to 8) (size 9 to 14) (size 15 to 20)
#    0.000    2.000    0.833    1.750    2.333    4.667 
#    1.500    1.667    0.000    0.000    0.000    0.000 
#    0.000    0.000    0.000    0.000    0.000    0.000 
#
# Total GULP energy -297648.397741 kJ/mol
# GULP energy per Si atom -12402.016573 kJ/mol
# Density = 2.047167 g / cm^3
# Si number density = 20.518372 Si / 1000 Ang^3
#
#
#
# Elastic Constant Matrix: (Units=GPa)
#
#
# Indices 1 2 3 4 5 6 
#
# 1 138.5806 26.7430 83.1333 0.0000 5.5949 0.0000
# 2 26.7430 78.0633 33.1361 0.0000 2.0306 0.0000
# 3 83.1333 33.1361 131.3151 0.0000 9.2953 0.0000
# 4 0.0000 0.0000 0.0000 31.0711 0.0000 -0.6083
# 5 5.5949 2.0306 9.2953 0.0000 40.1126 0.0000
# 6 0.0000 0.0000 0.0000 -0.6083 0.0000 3.2509
#
#
#
# Elastic Compliance Matrix: (Units=1/GPa)
#
#
# Indices 1 2 3 4 5 6 
#
# 1 0.011700 -0.000967 -0.007168 0.000000 0.000078 0.000000
# 2 -0.000967 0.014427 -0.003036 0.000000 0.000108 0.000000
# 3 -0.007168 -0.003036 0.013052 0.000000 -0.001871 0.000000
# 4 0.000000 0.000000 0.000000 0.032303 0.000000 0.006045
# 5 0.000078 0.000108 -0.001871 0.000000 0.025347 0.000000
# 6 0.000000 0.000000 0.000000 0.006045 0.000000 0.308739
#
#
# Mechanical properties :
#
#
# Convention : Reuss Voigt Hill
#
# Bulk Modulus (GPa) = 59.39666 70.44264 64.91965
# Shear Modulus (GPa) = 11.53343 28.55002 20.04172
#
# Velocity S-wave (km/s) = 2.37344 3.73424 3.12872
# Velocity P-wave (km/s) = 6.04333 7.28003 6.69032
#
# Compressibility (1/GPa) = 0.01683596
#
# Stress axis : x y z
#
# Youngs Moduli (GPa) = 85.47172 69.31287 76.61693
#
# Poissons Ratio (x) = 0.06705 0.54922
# Poissons Ratio (y) = 0.08268 0.23260
# Poissons Ratio (z) = 0.61269 0.21042
#
# Static dielectric constant tensor:
#      x y z
#    x 3.918130 0.000000 -0.014550 
#    y 0.000000 3.586390 0.000000 
#    z -0.014550 0.000000 3.821350 
# 
# 
# High freq. dielectric constant tensor:
#      x y z
#    x 1.806230 0.000000 0.003390 
#    y 0.000000 1.800180 0.000000 
#    z 0.003390 0.000000 1.804810 
# 
# From -- ./inp_files/108826.got.cif
#   From: 2010.06.25/outbox.cif.g09.slc.cpg/sg12_55_cif.got.tgz:108826.got - 2010.06.28 00:19:55.
