data_PCOD8101989
_publ_section_title
;
Structure prediction by ZEFSAII (Michael W. Deem and Ramdas Pophale) SiO2 
 PCOD8101989
Probable space group: C 2/M
;
_chemical_formula_sum "Si O2"
_cell_formula_units_Z 60
_cell_length_a 20.625655
_cell_length_b 18.047878
_cell_length_c 14.570226
_cell_angle_alpha 90.000000
_cell_angle_beta 145.639338
_cell_angle_gamma 90.000000
_cell_volume 3061.170155
_symmetry_space_group_name_H-M "C 2/M"
_symmetry_group_IT_number 12
_symmetry_cell_setting 'monoclinic'
loop_
_space_group_symop_operation_xyz
x,y,z
-x,y,-z
-x,-y,-z
x,-y,z
1/2+x,1/2+y,z
1/2-x,1/2+y,-z
1/2-x,1/2-y,-z
1/2+x,1/2-y,z
loop_
_atom_site_type_symbol
_atom_site_label
_atom_site_fract_x
_atom_site_fract_y
_atom_site_fract_z
Si Si1 0.285127 0.861665 0.029159
Si Si2 0.500000 0.201183 0.500000
Si Si3 0.317639 0.082887 0.270376
Si Si4 0.381035 0.415419 0.820273
Si Si5 0.170066 0.820770 0.416919
Si Si6 0.338074 0.912537 0.731113
Si Si7 0.913410 0.416478 0.012531
Si Si8 0.563482 0.276911 0.759735
O O1 0.331710 0.915106 0.004795
O O2 0.150731 0.846059 0.854483
O O3 0.298813 0.901941 0.141479
O O4 0.364006 0.788998 0.109628
O O5 0.397255 0.146002 0.407041
O O6 0.523113 0.254623 0.611664
O O7 0.200149 0.088972 0.186886
O O8 0.370185 0.000000 0.343213
O O9 0.390340 0.500000 0.794224
O O10 0.337693 0.362719 0.688884
O O11 0.500000 0.385934 0.000000
O O12 0.250000 0.750000 0.500000
O O13 0.227303 0.874268 0.558149
O O14 0.043292 0.798079 0.301593
O O15 0.350015 0.881402 0.849672
O O16 0.315234 0.000000 0.696763
O O17 0.456499 0.886208 0.817815
O O18 0.935069 0.500000 0.007183
#
# Coordination Sequence:
#
# PCOD8101989 Si02
#       8
#     8   4   8   8   8   8   8   8
#     4  10  20  38  58  82 115 154 190 235 290 347
#     4  10  21  38  54  80 119 152 182 236 290 346
#     4  10  20  36  60  87 110 143 191 240 288 342
#     4  10  22  41  62  84 117 157 195 240 294 352
#     4  12  23  38  58  91 117 153 202 246 295 350
#     4   9  20  38  59  85 119 152 192 244 295 346
#     4   9  18  36  61  86 110 149 195 236 289 349
#     4  10  23  36  54  80 119 155 191 231 292 350
#
# _framework density 19.600348
#
# number of rings (size 3 to 8) (size 9 to 14) (size 15 to 20)
#    0.000    2.000    0.000    4.200    1.867    1.067 
#    7.200    4.667    0.000    1.600    0.000    0.000 
#    0.000    0.000    0.000    0.000    0.000    0.000 
#
# Total GULP energy -371906.709657 kJ/mol
# GULP energy per Si atom -12396.890322 kJ/mol
# Density = 1.955574 g / cm^3
# Si number density = 19.600348 Si / 1000 Ang^3
#
#
#
# Elastic Constant Matrix: (Units=GPa)
#
#
# Indices 1 2 3 4 5 6 
#
# 1 113.4151 21.5431 43.7781 0.0000 12.3055 0.0000
# 2 21.5431 52.7980 29.5681 0.0000 2.9648 0.0000
# 3 43.7781 29.5681 110.7072 0.0000 3.7933 0.0000
# 4 0.0000 0.0000 0.0000 -0.7428 0.0000 26.7722
# 5 12.3055 2.9648 3.7933 0.0000 32.1953 0.0000
# 6 0.0000 0.0000 0.0000 26.7722 0.0000 5.8595
#
#
#
# Elastic Compliance Matrix: (Units=1/GPa)
#
#
# Indices 1 2 3 4 5 6 
#
# 1 0.011041 -0.002266 -0.003638 0.000000 -0.003583 0.000000
# 2 -0.002266 0.022796 -0.005171 0.000000 -0.000624 0.000000
# 3 -0.003638 -0.005171 0.011836 0.000000 0.000472 0.000000
# 4 0.000000 0.000000 0.000000 -0.008126 0.000000 0.037127
# 5 -0.003583 -0.000624 0.000472 0.000000 0.032432 0.000000
# 6 0.000000 0.000000 0.000000 0.037127 0.000000 0.001030
#
#
# Mechanical properties :
#
#
# Convention : Reuss Voigt Hill
#
# Bulk Modulus (GPa) = 42.51256 51.85544 47.18400
# Shear Modulus (GPa) = 49.50539 19.59779 34.55159
#
# Velocity S-wave (km/s) = 5.03113 3.16550 4.20313
# Velocity P-wave (km/s) = 7.44892 6.31461 6.90510
#
# Compressibility (1/GPa) = 0.02352246
#
# Stress axis : x y z
#
# Youngs Moduli (GPa) = 90.57503 43.86807 84.48648
#
# Poissons Ratio (x) = 0.09942 0.30735
# Poissons Ratio (y) = 0.20528 0.43686
# Poissons Ratio (z) = 0.32949 0.22683
#
# Static dielectric constant tensor:
#      x y z
#    x 3.472370 0.000000 0.084070 
#    y 0.000000 3.571290 0.000000 
#    z 0.084070 0.000000 3.704410 
# 
# 
# High freq. dielectric constant tensor:
#      x y z
#    x 1.769440 0.000000 0.002650 
#    y 0.000000 1.757080 0.000000 
#    z 0.002650 0.000000 1.770370 
# 
# From -- ./inp_files/235199.got.cif
#   From: 2010.06.25/outbox.cif.g09.slc.cpg/sg12_118_cif.got.tgz:235199.got - 2010.06.28 00:19:55.
