data_PCOD8101058
_publ_section_title
;
Structure prediction by ZEFSAII (Michael W. Deem and Ramdas Pophale) SiO2 
 PCOD8101058
Probable space group: C 2/M
;
_chemical_formula_sum "Si O2"
_cell_formula_units_Z 60
_cell_length_a 8.952203
_cell_length_b 23.961103
_cell_length_c 17.724405
_cell_angle_alpha 90.000000
_cell_angle_beta 51.395793
_cell_angle_gamma 90.000000
_cell_volume 2971.141214
_symmetry_space_group_name_H-M "C 2/M"
_symmetry_group_IT_number 12
_symmetry_cell_setting 'monoclinic'
loop_
_space_group_symop_operation_xyz
x,y,z
-x,y,-z
-x,-y,-z
x,-y,z
1/2+x,1/2+y,z
1/2-x,1/2+y,-z
1/2-x,1/2-y,-z
1/2+x,1/2-y,z
loop_
_atom_site_type_symbol
_atom_site_label
_atom_site_fract_x
_atom_site_fract_y
_atom_site_fract_z
Si Si1 0.253932 0.833839 0.302083
Si Si2 0.000000 0.251004 0.000000
Si Si3 0.365638 0.176055 0.902912
Si Si4 0.208382 0.563510 0.277308
Si Si5 0.779057 0.937635 0.084257
Si Si6 0.848348 0.376062 0.427545
Si Si7 0.388569 0.368819 0.351167
Si Si8 0.617867 0.222086 0.394317
O O1 0.475439 0.832698 0.211252
O O2 0.222962 0.861054 0.394188
O O3 0.173820 0.771215 0.320866
O O4 0.118039 0.869449 0.289094
O O5 0.185015 0.211551 0.928152
O O6 0.963253 0.291863 0.941445
O O7 0.302566 0.112193 0.943731
O O8 0.266409 0.500000 0.267018
O O9 0.244731 0.583458 0.180475
O O10 0.348174 0.595224 0.290209
O O11 0.985755 0.571343 0.368581
O O12 0.686144 0.000000 0.099449
O O13 0.000000 0.943524 0.000000
O O14 0.718389 0.391956 0.540129
O O15 0.987039 0.323541 0.395764
O O16 0.312655 0.305998 0.363110
O O17 0.500000 0.249448 0.500000
#
# Coordination Sequence:
#
# PCOD8101058 Si02
#       8
#     8   4   8   8   8   8   8   8
#     4  12  22  33  57  88 121 162 196 251 305 367
#     4  10  26  44  64  94 138 164 204 252 320 394
#     4  11  24  43  64  96 127 169 204 254 314 389
#     4  10  21  40  64  86 112 158 213 257 308 374
#     4  10  21  42  71  93 116 156 214 274 314 362
#     4  10  20  36  56  84 120 162 207 251 296 363
#     4  10  22  35  54  87 123 158 206 254 299 360
#     4   9  19  34  52  79 118 160 202 239 283 354
#
# _framework density 20.194261999999998
#
# number of rings (size 3 to 8) (size 9 to 14) (size 15 to 20)
#    0.000    1.733    2.000    3.200    3.733    4.267 
#    0.000    1.667    0.000    1.600    0.000    0.000 
#    0.000    0.000    0.000    0.000    0.000    0.000 
#
# Total GULP energy -371833.927844 kJ/mol
# GULP energy per Si atom -12394.464261 kJ/mol
# Density = 2.014830 g / cm^3
# Si number density = 20.194262 Si / 1000 Ang^3
#
#
#
# Elastic Constant Matrix: (Units=GPa)
#
#
# Indices 1 2 3 4 5 6 
#
# 1 108.6990 39.3683 24.2821 0.0000 -7.5987 0.0000
# 2 39.3683 97.6140 28.4468 0.0000 -1.1071 0.0000
# 3 24.2821 28.4468 71.4752 0.0000 -8.5302 0.0000
# 4 0.0000 0.0000 0.0000 33.4949 0.0000 8.7258
# 5 -7.5987 -1.1071 -8.5302 0.0000 28.1434 0.0000
# 6 0.0000 0.0000 0.0000 8.7258 0.0000 21.0023
#
#
#
# Elastic Compliance Matrix: (Units=1/GPa)
#
#
# Indices 1 2 3 4 5 6 
#
# 1 0.011222 -0.003923 -0.001979 0.000000 0.002276 0.000000
# 2 -0.003923 0.012986 -0.004047 0.000000 -0.001775 0.000000
# 3 -0.001979 -0.004047 0.016799 0.000000 0.004398 0.000000
# 4 0.000000 0.000000 0.000000 0.033479 0.000000 -0.013909
# 5 0.002276 -0.001775 0.004398 0.000000 0.037410 0.000000
# 6 0.000000 0.000000 0.000000 -0.013909 0.000000 0.053393
#
#
# Mechanical properties :
#
#
# Convention : Reuss Voigt Hill
#
# Bulk Modulus (GPa) = 47.37771 51.33140 49.35455
# Shear Modulus (GPa) = 26.01127 28.90751 27.45939
#
# Velocity S-wave (km/s) = 3.59284 3.78758 3.69150
# Velocity P-wave (km/s) = 6.38147 6.67845 6.53165
#
# Compressibility (1/GPa) = 0.02110697
#
# Stress axis : x y z
#
# Youngs Moduli (GPa) = 89.11175 77.00561 59.52708
#
# Poissons Ratio (x) = 0.30211 0.11783
# Poissons Ratio (y) = 0.34960 0.24093
# Poissons Ratio (z) = 0.17639 0.31168
#
# Static dielectric constant tensor:
#      x y z
#    x 3.689460 0.000000 -0.084230 
#    y 0.000000 3.769100 0.000000 
#    z -0.084230 0.000000 3.683710 
# 
# 
# High freq. dielectric constant tensor:
#      x y z
#    x 1.784380 0.000000 -0.004870 
#    y 0.000000 1.780530 0.000000 
#    z -0.004870 0.000000 1.784250 
# 
# From -- ./inp_files/259711.got.cif
#   From: 2010.06.25/outbox.cif.g09.slc.cpg/sg12_130_cif.got.tgz:259711.got - 2010.06.28 00:19:55.
