data_PCOD8101546
_publ_section_title
;
Structure prediction by ZEFSAII (Michael W. Deem and Ramdas Pophale) SiO2 
 PCOD8101546
Probable space group: C 2/M
;
_chemical_formula_sum "Si O2"
_cell_formula_units_Z 56
_cell_length_a 24.019950
_cell_length_b 13.781359
_cell_length_c 8.620111
_cell_angle_alpha 90.000000
_cell_angle_beta 76.949232
_cell_angle_gamma 90.000000
_cell_volume 2779.789532
_symmetry_space_group_name_H-M "C 2/M"
_symmetry_group_IT_number 12
_symmetry_cell_setting 'monoclinic'
loop_
_space_group_symop_operation_xyz
x,y,z
-x,y,-z
-x,-y,-z
x,-y,z
1/2+x,1/2+y,z
1/2-x,1/2+y,-z
1/2-x,1/2-y,-z
1/2+x,1/2-y,z
loop_
_atom_site_type_symbol
_atom_site_label
_atom_site_fract_x
_atom_site_fract_y
_atom_site_fract_z
Si Si1 0.608635 0.606481 0.600329
Si Si2 0.922277 0.105978 0.723789
Si Si3 0.052116 0.612040 0.586232
Si Si4 0.301244 0.614062 0.954210
Si Si5 0.983223 0.225038 0.185300
Si Si6 0.268859 0.758828 0.227394
Si Si7 0.828605 0.288478 0.491439
O O1 0.629248 0.500000 0.639381
O O2 0.572712 0.602745 0.464544
O O3 0.568996 0.650741 0.759772
O O4 0.663418 0.672563 0.534960
O O5 0.858907 0.129635 0.821611
O O6 0.962557 0.191797 0.751414
O O7 0.941434 0.000000 0.777111
O O8 0.061941 0.500000 0.617413
O O9 0.112989 0.657311 0.492378
O O10 0.000000 0.627540 0.500000
O O11 0.034677 0.666932 0.753786
O O12 0.289604 0.500000 0.994717
O O13 0.250743 0.658643 0.880903
O O14 0.304481 0.675125 0.113370
O O15 0.000000 0.228439 0.000000
O O16 0.217273 0.699265 0.343059
O O17 0.305649 0.818056 0.334320
#
# Coordination Sequence:
#
# PCOD8101546 Si02
#       7
#     8   8   8   8   8   8   8
#     4  10  20  36  58  85 117 154 194 234 293 362
#     4  10  20  36  59  85 118 158 194 235 297 367
#     4  10  23  43  65  87 116 160 210 249 292 356
#     4  10  22  39  60  88 122 158 196 244 300 363
#     4  11  23  36  58  87 121 152 190 245 304 353
#     4  10  22  39  62  89 122 157 203 246 304 358
#     4  10  21  39  63  90 118 158 199 254 300 350
#
# _framework density 20.145409999999998
#
# number of rings (size 3 to 8) (size 9 to 14) (size 15 to 20)
#    0.000    1.857    1.429    2.571    4.000    4.286 
#    0.000    2.857    0.000    0.000    0.000    0.000 
#    0.000    0.000    0.000    0.000    0.000    0.000 
#
# Total GULP energy -347068.629462 kJ/mol
# GULP energy per Si atom -12395.308195 kJ/mol
# Density = 2.009956 g / cm^3
# Si number density = 20.145410 Si / 1000 Ang^3
#
#
#
# Elastic Constant Matrix: (Units=GPa)
#
#
# Indices 1 2 3 4 5 6 
#
# 1 65.5656 14.5463 0.9236 0.0000 -9.4163 0.0000
# 2 14.5463 107.9084 20.1594 0.0000 -17.7260 0.0000
# 3 0.9236 20.1594 98.4521 0.0000 -14.8932 0.0000
# 4 0.0000 0.0000 0.0000 20.1960 0.0000 0.1998
# 5 -9.4163 -17.7260 -14.8932 0.0000 23.1306 0.0000
# 6 0.0000 0.0000 0.0000 0.1998 0.0000 18.4488
#
#
#
# Elastic Compliance Matrix: (Units=1/GPa)
#
#
# Indices 1 2 3 4 5 6 
#
# 1 0.016453 -0.001379 0.001087 0.000000 0.006341 0.000000
# 2 -0.001379 0.010815 -0.001144 0.000000 0.006990 0.000000
# 3 0.001087 -0.001144 0.011429 0.000000 0.006924 0.000000
# 4 0.000000 0.000000 0.000000 0.049520 0.000000 -0.000536
# 5 0.006341 0.006990 0.006924 0.000000 0.055629 0.000000
# 6 0.000000 0.000000 0.000000 -0.000536 0.000000 0.054210
#
#
# Mechanical properties :
#
#
# Convention : Reuss Voigt Hill
#
# Bulk Modulus (GPa) = 27.91395 38.13164 33.02279
# Shear Modulus (GPa) = 23.48848 28.10821 25.79834
#
# Velocity S-wave (km/s) = 3.41830 3.73938 3.58244
# Velocity P-wave (km/s) = 5.42826 6.13296 5.79134
#
# Compressibility (1/GPa) = 0.03582439
#
# Stress axis : x y z
#
# Youngs Moduli (GPa) = 60.77817 92.46394 87.49820
#
# Poissons Ratio (x) = 0.12755 -0.09514
# Poissons Ratio (y) = 0.08384 0.10012
# Poissons Ratio (z) = -0.06609 0.10580
#
# Static dielectric constant tensor:
#      x y z
#    x 3.689320 0.000000 0.044490 
#    y 0.000000 3.784620 0.000000 
#    z 0.044490 0.000000 3.889640 
# 
# 
# High freq. dielectric constant tensor:
#      x y z
#    x 1.785770 0.000000 -0.005340 
#    y 0.000000 1.778960 0.000000 
#    z -0.005340 0.000000 1.788190 
# 
# From -- ./inp_files/96293.got.cif
#   From: 2010.06.25/outbox.cif.g09.slc.cpg/sg12_49_cif.got.tgz:96293.got - 2010.06.28 00:19:55.
