data_PCOD8101862
_publ_section_title
;
Structure prediction by ZEFSAII (Michael W. Deem and Ramdas Pophale) SiO2 
 PCOD8101862
Probable space group: C 2/M
;
_chemical_formula_sum "Si O2"
_cell_formula_units_Z 64
_cell_length_a 32.839889
_cell_length_b 8.901952
_cell_length_c 16.584663
_cell_angle_alpha 90.000000
_cell_angle_beta 42.733299
_cell_angle_gamma 90.000000
_cell_volume 3290.022777
_symmetry_space_group_name_H-M "C 2/M"
_symmetry_group_IT_number 12
_symmetry_cell_setting 'monoclinic'
loop_
_space_group_symop_operation_xyz
x,y,z
-x,y,-z
-x,-y,-z
x,-y,z
1/2+x,1/2+y,z
1/2-x,1/2+y,-z
1/2-x,1/2-y,-z
1/2+x,1/2-y,z
loop_
_atom_site_type_symbol
_atom_site_label
_atom_site_fract_x
_atom_site_fract_y
_atom_site_fract_z
Si Si1 0.217238 0.823716 0.473199
Si Si2 0.406967 0.170445 0.344020
Si Si3 0.091233 0.828246 0.218365
Si Si4 0.248448 0.321551 0.752563
Si Si5 0.633612 0.672802 0.328525
Si Si6 0.531649 0.170703 0.573701
Si Si7 0.990256 0.678319 0.924910
Si Si8 0.124226 0.678831 0.005659
O O1 0.250000 0.750000 0.500000
O O2 0.147653 0.784289 0.577257
O O3 0.245220 0.763410 0.348518
O O4 0.225486 0.000000 0.467752
O O5 0.439847 0.179829 0.380395
O O6 0.452703 0.228361 0.209871
O O7 0.385199 0.000000 0.357876
O O8 0.137259 0.813093 0.226372
O O9 0.116733 0.732264 0.107843
O O10 0.027224 0.771456 0.342315
O O11 0.084884 0.000000 0.199675
O O12 0.247270 0.500000 0.756073
O O13 0.304573 0.262854 0.723879
O O14 0.186715 0.257547 0.879359
O O15 0.623865 0.500000 0.369327
O O16 0.578026 0.769609 0.440502
O O17 0.514448 0.000000 0.576916
O O18 0.985400 0.500000 0.935173
O O19 0.929464 0.741861 0.972603
O O20 0.000000 0.745662 0.000000
O O21 0.123411 0.500000 0.007965
#
# Coordination Sequence:
#
# PCOD8101862 Si02
#       8
#     8   8   8   8   8   8   8   8
#     4  11  23  39  61  88 117 154 193 235 286 341
#     4  10  20  36  59  88 117 147 187 239 289 337
#     4  11  23  37  57  83 117 155 189 235 294 351
#     4   9  20  38  61  83 110 152 198 239 282 343
#     4  10  21  39  58  83 116 153 195 235 286 350
#     4  11  21  36  59  88 119 149 190 243 290 337
#     4   9  18  33  58  86 112 145 188 236 283 335
#     4  10  20  38  60  83 111 148 195 241 284 339
#
# _framework density 19.452753000000001
#
# number of rings (size 3 to 8) (size 9 to 14) (size 15 to 20)
#    0.000    1.875    2.500    1.500    1.750    3.500 
#    0.000    1.875    0.000    0.750    0.000    0.000 
#    0.000    0.000    0.000    0.000    0.000    0.000 
#
# Total GULP energy -396857.853717 kJ/mol
# GULP energy per Si atom -12401.807929 kJ/mol
# Density = 1.940848 g / cm^3
# Si number density = 19.452753 Si / 1000 Ang^3
#
#
#
# Elastic Constant Matrix: (Units=GPa)
#
#
# Indices 1 2 3 4 5 6 
#
# 1 123.7697 26.5054 69.2323 -0.0001 3.8799 0.0000
# 2 26.5054 39.8624 20.0125 0.0018 1.9881 0.0009
# 3 69.2323 20.0125 148.4236 -0.0001 1.0961 0.0002
# 4 -0.0001 0.0018 -0.0001 26.8293 -0.0002 -0.6296
# 5 3.8799 1.9881 1.0961 -0.0002 36.6690 -0.0001
# 6 0.0000 0.0009 0.0002 -0.6296 -0.0001 22.3162
#
#
#
# Elastic Compliance Matrix: (Units=1/GPa)
#
#
# Indices 1 2 3 4 5 6 
#
# 1 0.011995 -0.005501 -0.004847 0.000000 -0.000826 0.000000
# 2 -0.005501 0.029498 -0.001404 -0.000002 -0.000975 -0.000001
# 3 -0.004847 -0.001404 0.009185 0.000000 0.000314 0.000000
# 4 0.000000 -0.000002 0.000000 0.037297 0.000000 0.001052
# 5 -0.000826 -0.000975 0.000314 0.000000 0.027402 0.000000
# 6 0.000000 -0.000001 0.000000 0.001052 0.000000 0.044840
#
#
# Mechanical properties :
#
#
# Convention : Reuss Voigt Hill
#
# Bulk Modulus (GPa) = 36.80084 60.39512 48.59798
# Shear Modulus (GPa) = 25.93638 30.24994 28.09316
#
# Velocity S-wave (km/s) = 3.65540 3.94769 3.80435
# Velocity P-wave (km/s) = 6.06425 7.20371 6.65840
#
# Compressibility (1/GPa) = 0.02717330
#
# Stress axis : x y z
#
# Youngs Moduli (GPa) = 83.36969 33.90110 108.86797
#
# Poissons Ratio (x) = 0.18649 0.52770
# Poissons Ratio (y) = 0.45861 0.15287
# Poissons Ratio (z) = 0.40411 0.04760
#
# Static dielectric constant tensor:
#      x y z
#    x 3.742470 0.000000 0.084350 
#    y 0.000000 3.291900 0.000000 
#    z 0.084350 0.000000 3.672730 
# 
# 
# High freq. dielectric constant tensor:
#      x y z
#    x 1.771530 0.000000 0.006530 
#    y 0.000000 1.729100 0.000000 
#    z 0.006530 0.000000 1.764010 
# 
# From -- ./inp_files/249705.got.cif
#   From: 2010.06.25/outbox.cif.g09.slc.cpg/sg12_125_cif.got.tgz:249705.got - 2010.06.28 00:19:55.
