data_PCOD8101230
_publ_section_title
;
Structure prediction by ZEFSAII (Michael W. Deem and Ramdas Pophale) SiO2 
 PCOD8101230
Probable space group: C 2/M
;
_chemical_formula_sum "Si O2"
_cell_formula_units_Z 64
_cell_length_a 13.993930
_cell_length_b 20.911686
_cell_length_c 27.934567
_cell_angle_alpha 90.000000
_cell_angle_beta 156.432402
_cell_angle_gamma 90.000000
_cell_volume 3268.487867
_symmetry_space_group_name_H-M "C 2/M"
_symmetry_group_IT_number 12
_symmetry_cell_setting 'monoclinic'
loop_
_space_group_symop_operation_xyz
x,y,z
-x,y,-z
-x,-y,-z
x,-y,z
1/2+x,1/2+y,z
1/2-x,1/2+y,-z
1/2-x,1/2-y,-z
1/2+x,1/2-y,z
loop_
_atom_site_type_symbol
_atom_site_label
_atom_site_fract_x
_atom_site_fract_y
_atom_site_fract_z
Si Si1 0.952964 0.697849 0.794387
Si Si2 0.182813 0.675164 0.696899
Si Si3 0.310369 0.175127 0.449030
Si Si4 0.929639 0.723007 0.262673
Si Si5 0.922356 0.744368 0.014191
Si Si6 0.437213 0.072987 0.846393
Si Si7 0.956507 0.929659 0.255970
Si Si8 0.822704 0.887501 0.094533
O O1 0.752354 0.750935 0.714204
O O2 0.895835 0.625177 0.784696
O O3 0.009312 0.701391 0.763042
O O4 0.203813 0.714813 0.937545
O O5 0.085417 0.665136 0.706573
O O6 0.405071 0.628211 0.793791
O O7 0.954221 0.651979 0.561549
O O8 0.500000 0.205979 0.500000
O O9 0.119766 0.229218 0.372845
O O10 0.181399 0.117123 0.362344
O O11 0.671219 0.757168 0.156601
O O12 0.823214 0.674827 0.957518
O O13 0.000000 0.777766 0.000000
O O14 0.237141 0.089155 0.793365
O O15 0.413788 0.000000 0.815469
O O16 0.694863 0.077807 0.991121
O O17 0.829508 0.929450 0.145756
O O18 0.056672 0.000000 0.311858
#
# Coordination Sequence:
#
# PCOD8101230 Si02
#       8
#     8   8   8   8   8   8   8   8
#     4  10  20  36  57  83 116 144 181 228 282 332
#     4  11  22  35  58  88 113 146 182 230 283 335
#     4  12  21  39  55  84 116 146 189 231 276 329
#     4  11  21  35  57  83 114 148 183 225 286 331
#     4   9  17  30  55  83 110 142 170 221 281 335
#     4  11  23  37  57  84 111 148 191 227 271 331
#     4  11  23  38  57  79 112 153 186 226 278 331
#     4  11  19  35  57  86 118 140 181 227 279 335
#
# _framework density 19.580919999999999
#
# number of rings (size 3 to 8) (size 9 to 14) (size 15 to 20)
#    0.000    1.250    2.500    6.375    0.000    3.250 
#    0.000    0.000    0.000   10.875    0.000    3.500 
#    0.000    0.000    0.000    0.000    0.000    0.000 
#
# Total GULP energy -396426.796155 kJ/mol
# GULP energy per Si atom -12388.337380 kJ/mol
# Density = 1.953635 g / cm^3
# Si number density = 19.580920 Si / 1000 Ang^3
#
#
#
# Elastic Constant Matrix: (Units=GPa)
#
#
# Indices 1 2 3 4 5 6 
#
# 1 72.8082 13.4807 9.3273 0.0053 -2.1949 0.0006
# 2 13.4807 67.3051 3.3473 -0.0016 9.7740 -0.0017
# 3 9.3273 3.3473 89.0822 0.0236 2.9578 0.0092
# 4 0.0053 -0.0016 0.0236 18.7290 0.0107 2.3132
# 5 -2.1949 9.7740 2.9578 0.0107 24.8647 -0.0010
# 6 0.0006 -0.0017 0.0092 2.3132 -0.0010 20.0627
#
#
#
# Elastic Compliance Matrix: (Units=1/GPa)
#
#
# Indices 1 2 3 4 5 6 
#
# 1 0.014611 -0.003251 -0.001499 -0.000004 0.002746 0.000001
# 2 -0.003251 0.016494 -0.000055 0.000006 -0.006764 0.000000
# 3 -0.001499 -0.000055 0.011433 -0.000013 -0.001471 -0.000004
# 4 -0.000004 0.000006 -0.000013 0.054164 -0.000025 -0.006245
# 5 0.002746 -0.006764 -0.001471 -0.000025 0.043294 0.000005
# 6 0.000001 0.000000 -0.000004 -0.006245 0.000005 0.050564
#
#
# Mechanical properties :
#
#
# Convention : Reuss Voigt Hill
#
# Bulk Modulus (GPa) = 30.36775 31.27845 30.82310
# Shear Modulus (GPa) = 23.68030 26.26731 24.97380
#
# Velocity S-wave (km/s) = 3.48135 3.66659 3.57517
# Velocity P-wave (km/s) = 5.63048 5.82527 5.72870
#
# Compressibility (1/GPa) = 0.03292967
#
# Stress axis : x y z
#
# Youngs Moduli (GPa) = 68.43970 60.62885 87.46288
#
# Poissons Ratio (x) = 0.19709 0.13110
# Poissons Ratio (y) = 0.22248 0.00479
# Poissons Ratio (z) = 0.10258 0.00332
#
# Static dielectric constant tensor:
#      x y z
#    x 3.692580 0.000000 -0.084650 
#    y 0.000000 3.318410 -0.000060 
#    z -0.084650 -0.000060 3.929860 
# 
# 
# High freq. dielectric constant tensor:
#      x y z
#    x 1.768780 0.000000 0.006420 
#    y 0.000000 1.720400 -0.000010 
#    z 0.006420 -0.000010 1.772700 
# 
# From -- ./inp_files/377113.got.cif
#   From: 2010.06.25/outbox.cif.g09.slc.cpg/sg12_189_cif.got.tgz:377113.got - 2010.06.28 00:19:55.
