data_PCOD8101383
_publ_section_title
;
Structure prediction by ZEFSAII (Michael W. Deem and Ramdas Pophale) SiO2 
 PCOD8101383
Probable space group: C 2/M
;
_chemical_formula_sum "Si O2"
_cell_formula_units_Z 48
_cell_length_a 30.105716
_cell_length_b 8.669391
_cell_length_c 9.457444
_cell_angle_alpha 90.000000
_cell_angle_beta 88.529592
_cell_angle_gamma 90.000000
_cell_volume 2467.563273
_symmetry_space_group_name_H-M "C 2/M"
_symmetry_group_IT_number 12
_symmetry_cell_setting 'monoclinic'
loop_
_space_group_symop_operation_xyz
x,y,z
-x,y,-z
-x,-y,-z
x,-y,z
1/2+x,1/2+y,z
1/2-x,1/2+y,-z
1/2-x,1/2-y,-z
1/2+x,1/2-y,z
loop_
_atom_site_type_symbol
_atom_site_label
_atom_site_fract_x
_atom_site_fract_y
_atom_site_fract_z
Si Si1 0.243838 0.817657 0.847016
Si Si2 0.925025 0.819553 0.358630
Si Si3 0.820640 0.318207 0.640761
Si Si4 0.420098 0.181122 0.656046
Si Si5 0.331628 0.818216 0.324770
Si Si6 0.491660 0.319830 0.840599
O O1 0.282466 0.746194 0.743087
O O2 0.196026 0.768907 0.792463
O O3 0.247088 0.000000 0.854984
O O4 0.250000 0.750000 0.000000
O O5 0.937845 0.770245 0.516434
O O6 0.883062 0.725441 0.303502
O O7 0.965761 0.775613 0.255091
O O8 0.914191 0.000000 0.355115
O O9 0.816183 0.500000 0.644106
O O10 0.869299 0.268589 0.692612
O O11 0.814448 0.261034 0.479927
O O12 0.449234 0.226247 0.788387
O O13 0.422869 0.000000 0.624282
O O14 0.326139 0.000000 0.305453
O O15 0.480609 0.500000 0.831870
O O16 0.500000 0.267342 0.000000
#
# Coordination Sequence:
#
# PCOD8101383 Si02
#       6
#     8   8   8   8   8   8
#     4  11  22  37  55  79 112 147 181 218 266 320
#     4  10  20  36  58  82 108 141 180 221 268 319
#     4   8  18  36  57  80 107 139 177 222 267 316
#     4  10  20  36  58  83 108 138 180 225 269 316
#     4  10  20  37  59  83 108 137 179 227 272 317
#     4  10  22  38  54  77 111 147 181 219 266 321
#
# _framework density 19.452390000000001
#
# number of rings (size 3 to 8) (size 9 to 14) (size 15 to 20)
#    0.000    2.167    0.000    4.000    0.000    5.000 
#    0.000   12.500    0.000    0.000    0.000    0.000 
#    0.000    0.000    0.000    0.000    0.000    0.000 
#
# Total GULP energy -297669.376363 kJ/mol
# GULP energy per Si atom -12402.890682 kJ/mol
# Density = 1.940812 g / cm^3
# Si number density = 19.452390 Si / 1000 Ang^3
#
#
#
# Elastic Constant Matrix: (Units=GPa)
#
#
# Indices 1 2 3 4 5 6 
#
# 1 89.9033 24.8950 54.3123 0.0000 21.3477 0.0000
# 2 24.8950 51.4674 22.4374 0.0000 4.7504 0.0000
# 3 54.3123 22.4374 103.5064 0.0000 27.3934 0.0000
# 4 0.0000 0.0000 0.0000 30.4034 0.0000 6.6760
# 5 21.3477 4.7504 27.3934 0.0000 27.1483 0.0000
# 6 0.0000 0.0000 0.0000 6.6760 0.0000 31.5277
#
#
#
# Elastic Compliance Matrix: (Units=1/GPa)
#
#
# Indices 1 2 3 4 5 6 
#
# 1 0.018175 -0.005288 -0.006621 0.000000 -0.006685 0.000000
# 2 -0.005288 0.023029 -0.003072 0.000000 0.003228 0.000000
# 3 -0.006621 -0.003072 0.016756 0.000000 -0.011163 0.000000
# 4 0.000000 0.000000 0.000000 0.034495 0.000000 -0.007304
# 5 -0.006685 0.003228 -0.011163 0.000000 0.052791 0.000000
# 6 0.000000 0.000000 0.000000 -0.007304 0.000000 0.033265
#
#
# Mechanical properties :
#
#
# Convention : Reuss Voigt Hill
#
# Bulk Modulus (GPa) = 35.71676 49.79629 42.75652
# Shear Modulus (GPa) = 22.95654 27.36471 25.16063
#
# Velocity S-wave (km/s) = 3.43904 3.75474 3.60035
# Velocity P-wave (km/s) = 5.84554 6.66724 6.26986
#
# Compressibility (1/GPa) = 0.02799806
#
# Stress axis : x y z
#
# Youngs Moduli (GPa) = 55.02176 43.42432 59.68102
#
# Poissons Ratio (x) = 0.22961 0.39516
# Poissons Ratio (y) = 0.29093 0.18332
# Poissons Ratio (z) = 0.36431 0.13339
#
# Static dielectric constant tensor:
#      x y z
#    x 3.701600 0.000000 -0.096990 
#    y 0.000000 3.419950 0.000000 
#    z -0.096990 0.000000 3.615240 
# 
# 
# High freq. dielectric constant tensor:
#      x y z
#    x 1.767810 0.000000 0.004250 
#    y 0.000000 1.749750 0.000000 
#    z 0.004250 0.000000 1.754340 
# 
# From -- ./inp_files/108675.got.cif
#   From: 2010.06.25/outbox.cif.g09.slc.cpg/sg12_55_cif.got.tgz:108675.got - 2010.06.28 00:19:55.
