data_PCOD8101778
_publ_section_title
;
Structure prediction by ZEFSAII (Michael W. Deem and Ramdas Pophale) SiO2 
 PCOD8101778
Probable space group: C 2/M
;
_chemical_formula_sum "Si O2"
_cell_formula_units_Z 64
_cell_length_a 15.274682
_cell_length_b 13.389858
_cell_length_c 16.966417
_cell_angle_alpha 90.000000
_cell_angle_beta 125.190240
_cell_angle_gamma 90.000000
_cell_volume 2835.891016
_symmetry_space_group_name_H-M "C 2/M"
_symmetry_group_IT_number 12
_symmetry_cell_setting 'monoclinic'
loop_
_space_group_symop_operation_xyz
x,y,z
-x,y,-z
-x,-y,-z
x,-y,z
1/2+x,1/2+y,z
1/2-x,1/2+y,-z
1/2-x,1/2-y,-z
1/2+x,1/2-y,z
loop_
_atom_site_type_symbol
_atom_site_label
_atom_site_fract_x
_atom_site_fract_y
_atom_site_fract_z
Si Si1 0.427297 0.891220 0.141721
Si Si2 0.416769 0.319829 0.190939
Si Si3 0.680688 0.811379 0.064415
Si Si4 0.080327 0.233521 0.390351
Si Si5 0.160276 0.610111 0.214185
Si Si6 0.914684 0.113238 0.024069
Si Si7 0.934461 0.390290 0.388316
Si Si8 0.788252 0.765248 0.392254
O O1 0.392164 0.799708 0.178047
O O2 0.555742 0.889975 0.213807
O O3 0.385412 0.000000 0.149585
O O4 0.388199 0.876336 0.031618
O O5 0.297507 0.363600 0.134938
O O6 0.495733 0.344132 0.305516
O O7 0.469435 0.362605 0.137446
O O8 0.631215 0.817863 0.125808
O O9 0.681859 0.693812 0.037239
O O10 0.120419 0.198628 0.497864
O O11 0.181122 0.237600 0.384342
O O12 0.014002 0.336945 0.366638
O O13 0.188450 0.500000 0.197645
O O14 0.261494 0.646249 0.318312
O O15 0.869730 0.000000 0.998321
O O16 0.000000 0.130912 0.000000
O O17 0.899679 0.500000 0.336532
O O18 0.829961 0.325323 0.358570
O O19 0.000000 0.410020 0.500000
#
# Coordination Sequence:
#
# PCOD8101778 Si02
#       8
#     8   8   8   8   8   8   8   8
#     4  10  20  36  59  86 115 149 200 256 308 369
#     4  11  22  38  59  88 123 157 204 258 314 383
#     4  11  22  36  61  88 121 161 197 255 322 382
#     4  10  21  39  64  92 131 175 218 271 329 391
#     4  11  22  38  62  90 121 159 208 260 315 387
#     4  10  22  40  61  84 119 165 207 253 313 390
#     4   9  19  38  66  98 130 170 225 280 328 386
#     4  10  21  40  65  92 133 178 216 272 341 388
#
# _framework density 22.567864
#
# number of rings (size 3 to 8) (size 9 to 14) (size 15 to 20)
#    0.000    1.750    1.250    4.500    0.000    4.500 
#    0.000    5.000    0.000    7.875    0.000    0.000 
#    0.000    0.000    0.000    0.000    0.000    0.000 
#
# Total GULP energy -396420.383515 kJ/mol
# GULP energy per Si atom -12388.136985 kJ/mol
# Density = 2.251650 g / cm^3
# Si number density = 22.567864 Si / 1000 Ang^3
#
#
#
# Elastic Constant Matrix: (Units=GPa)
#
#
# Indices 1 2 3 4 5 6 
#
# 1 79.3936 14.4230 12.1065 0.0000 17.8075 0.0000
# 2 14.4230 95.1634 23.8757 0.0000 9.6132 0.0000
# 3 12.1065 23.8757 140.1672 0.0000 11.9196 0.0000
# 4 0.0000 0.0000 0.0000 15.2815 0.0000 10.2168
# 5 17.8075 9.6132 11.9196 0.0000 24.4546 0.0000
# 6 0.0000 0.0000 0.0000 10.2168 0.0000 8.1666
#
#
#
# Elastic Compliance Matrix: (Units=1/GPa)
#
#
# Indices 1 2 3 4 5 6 
#
# 1 0.015198 -0.001189 -0.000218 0.000000 -0.010494 0.000000
# 2 -0.001189 0.011374 -0.001594 0.000000 -0.002829 0.000000
# 3 -0.000218 -0.001594 0.007676 0.000000 -0.002956 0.000000
# 4 0.000000 0.000000 0.000000 0.400051 0.000000 -0.500487
# 5 -0.010494 -0.002829 -0.002956 0.000000 0.051086 0.000000
# 6 0.000000 0.000000 0.000000 -0.500487 0.000000 0.748588
#
#
# Mechanical properties :
#
#
# Convention : Reuss Voigt Hill
#
# Bulk Modulus (GPa) = 35.40214 46.17051 40.78632
# Shear Modulus (GPa) = 4.00195 27.20181 15.60188
#
# Velocity S-wave (km/s) = 1.33310 3.47556 2.63217
# Velocity P-wave (km/s) = 4.25330 6.05053 5.22970
#
# Compressibility (1/GPa) = 0.02824688
#
# Stress axis : x y z
#
# Youngs Moduli (GPa) = 65.79678 87.91889 130.27460
#
# Poissons Ratio (x) = 0.10451 0.02838
# Poissons Ratio (y) = 0.07822 0.20769
# Poissons Ratio (z) = 0.01433 0.14016
#
# Static dielectric constant tensor:
#      x y z
#    x 4.003010 0.000000 -0.033810 
#    y 0.000000 4.131260 0.000000 
#    z -0.033810 0.000000 4.349050 
# 
# 
# High freq. dielectric constant tensor:
#      x y z
#    x 1.887690 0.000000 -0.006850 
#    y 0.000000 1.862540 0.000000 
#    z -0.006850 0.000000 1.898360 
# 
# From -- ./inp_files/270700.got.cif
#   From: 2010.06.25/outbox.cif.g09.slc.cpg/sg12_136_cif.got.tgz:270700.got - 2010.06.28 00:19:55.
