data_PCOD8101200
_publ_section_title
;
Structure prediction by ZEFSAII (Michael W. Deem and Ramdas Pophale) SiO2 
 PCOD8101200
Probable space group: C 2/M
;
_chemical_formula_sum "Si O2"
_cell_formula_units_Z 52
_cell_length_a 20.386691
_cell_length_b 12.710025
_cell_length_c 12.069693
_cell_angle_alpha 90.000000
_cell_angle_beta 120.553748
_cell_angle_gamma 90.000000
_cell_volume 2693.205678
_symmetry_space_group_name_H-M "C 2/M"
_symmetry_group_IT_number 12
_symmetry_cell_setting 'monoclinic'
loop_
_space_group_symop_operation_xyz
x,y,z
-x,y,-z
-x,-y,-z
x,-y,z
1/2+x,1/2+y,z
1/2-x,1/2+y,-z
1/2-x,1/2-y,-z
1/2+x,1/2-y,z
loop_
_atom_site_type_symbol
_atom_site_label
_atom_site_fract_x
_atom_site_fract_y
_atom_site_fract_z
Si Si1 0.890582 0.258519 0.208114
Si Si2 0.910767 0.381048 0.439360
Si Si3 0.789361 0.117029 0.244864
Si Si4 0.829866 0.778111 0.510757
Si Si5 0.970865 0.876342 0.742593
Si Si6 0.620077 0.120181 0.027337
Si Si7 0.500000 0.277595 0.000000
O O1 0.875633 0.333515 0.298965
O O2 0.824778 0.171917 0.166245
O O3 0.971809 0.197514 0.279235
O O4 0.876619 0.331973 0.091841
O O5 0.884384 0.500000 0.428839
O O6 0.878208 0.326144 0.522177
O O7 0.000000 0.368659 0.500000
O O8 0.814810 0.162107 0.384106
O O9 0.699430 0.121026 0.157694
O O10 0.821135 0.000000 0.268803
O O11 0.750000 0.750000 0.500000
O O12 0.883338 0.848116 0.637304
O O13 0.984833 0.000000 0.730795
O O14 0.989219 0.853779 0.886553
O O15 0.570568 0.198208 0.058490
O O16 0.588187 0.000000 0.993901
#
# Coordination Sequence:
#
# PCOD8101200 Si02
#       7
#     8   8   8   8   8   8   4
#     4  10  20  36  58  85 111 148 189 240 283 338
#     4  10  20  37  58  85 115 149 192 237 285 340
#     4  10  21  36  56  82 115 148 188 233 283 339
#     4  11  23  39  58  85 118 153 191 238 289 347
#     4  11  22  38  59  82 112 149 192 235 289 344
#     4  10  20  36  57  82 113 150 188 232 283 337
#     4  10  22  38  56  82 112 148 188 238 282 342
#
# _framework density 19.307845
#
# number of rings (size 3 to 8) (size 9 to 14) (size 15 to 20)
#    0.000    1.692    1.538    3.231    0.000    1.231 
#    0.000    3.077    0.000   10.154    0.000    0.000 
#    0.000    0.000    0.000    0.000    0.000    0.000 
#
# Total GULP energy -322280.987400 kJ/mol
# GULP energy per Si atom -12395.422592 kJ/mol
# Density = 1.926390 g / cm^3
# Si number density = 19.307845 Si / 1000 Ang^3
#
#
#
# Elastic Constant Matrix: (Units=GPa)
#
#
# Indices 1 2 3 4 5 6 
#
# 1 79.6686 34.7772 9.8736 0.0000 2.6475 0.0000
# 2 34.7772 128.8239 32.0128 0.0000 4.6039 0.0000
# 3 9.8736 32.0128 60.9514 0.0000 11.7237 0.0000
# 4 0.0000 0.0000 0.0000 20.7074 0.0000 6.6510
# 5 2.6475 4.6039 11.7237 0.0000 23.5901 0.0000
# 6 0.0000 0.0000 0.0000 6.6510 0.0000 16.2491
#
#
#
# Elastic Compliance Matrix: (Units=1/GPa)
#
#
# Indices 1 2 3 4 5 6 
#
# 1 0.014247 -0.003775 -0.000176 0.000000 -0.000775 0.000000
# 2 -0.003775 0.009937 -0.004772 0.000000 0.000856 0.000000
# 3 -0.000176 -0.004772 0.020741 0.000000 -0.009357 0.000000
# 4 0.000000 0.000000 0.000000 0.055602 0.000000 -0.022759
# 5 -0.000775 0.000856 -0.009357 0.000000 0.046961 0.000000
# 6 0.000000 0.000000 0.000000 -0.022759 0.000000 0.070857
#
#
# Mechanical properties :
#
#
# Convention : Reuss Voigt Hill
#
# Bulk Modulus (GPa) = 36.39162 46.97458 41.68310
# Shear Modulus (GPa) = 20.41221 24.96133 22.68677
#
# Velocity S-wave (km/s) = 3.25499 3.59946 3.43155
# Velocity P-wave (km/s) = 5.74592 6.45422 6.11034
#
# Compressibility (1/GPa) = 0.02747885
#
# Stress axis : x y z
#
# Youngs Moduli (GPa) = 70.18850 100.63547 48.21308
#
# Poissons Ratio (x) = 0.37987 0.00851
# Poissons Ratio (y) = 0.26494 0.23008
# Poissons Ratio (z) = 0.01238 0.48025
#
# Static dielectric constant tensor:
#      x y z
#    x 3.628270 0.000000 0.007790 
#    y 0.000000 3.757810 0.000000 
#    z 0.007790 0.000000 3.383620 
# 
# 
# High freq. dielectric constant tensor:
#      x y z
#    x 1.753190 0.000000 0.000800 
#    y 0.000000 1.765550 0.000000 
#    z 0.000800 0.000000 1.750760 
# 
# From -- ./inp_files/165523.got.cif
#   From: 2010.06.25/outbox.cif.g09.slc.cpg/sg12_83_cif.got.tgz:165523.got - 2010.06.28 00:19:55.
