data_PCOD8101453
_publ_section_title
;
Structure prediction by ZEFSAII (Michael W. Deem and Ramdas Pophale) SiO2 
 PCOD8101453
Probable space group: C 2/M
;
_chemical_formula_sum "Si O2"
_cell_formula_units_Z 56
_cell_length_a 19.595574
_cell_length_b 8.913581
_cell_length_c 27.741036
_cell_angle_alpha 90.000000
_cell_angle_beta 142.137347
_cell_angle_gamma 90.000000
_cell_volume 2973.986886
_symmetry_space_group_name_H-M "C 2/M"
_symmetry_group_IT_number 12
_symmetry_cell_setting 'monoclinic'
loop_
_space_group_symop_operation_xyz
x,y,z
-x,y,-z
-x,-y,-z
x,-y,z
1/2+x,1/2+y,z
1/2-x,1/2+y,-z
1/2-x,1/2-y,-z
1/2+x,1/2-y,z
loop_
_atom_site_type_symbol
_atom_site_label
_atom_site_fract_x
_atom_site_fract_y
_atom_site_fract_z
Si Si1 0.635961 0.170746 0.448082
Si Si2 0.975482 0.671346 0.129982
Si Si3 0.118728 0.329283 0.551518
Si Si4 0.928551 0.177413 0.005459
Si Si5 0.492330 0.677570 0.701752
Si Si6 0.174234 0.322435 0.865053
Si Si7 0.837563 0.327321 0.691201
O O1 0.750000 0.250000 0.500000
O O2 0.620505 0.180420 0.495702
O O3 0.533190 0.255867 0.365199
O O4 0.639624 0.000000 0.431653
O O5 0.953680 0.500000 0.103158
O O6 0.095031 0.692411 0.221638
O O7 0.979769 0.768478 0.084198
O O8 0.878099 0.725772 0.112438
O O9 0.133938 0.500000 0.578307
O O10 0.212110 0.227552 0.629105
O O11 0.000000 0.263009 0.500000
O O12 0.933252 0.000000 0.007740
O O13 0.801030 0.232634 0.931645
O O14 0.000000 0.241199 0.000000
O O15 0.499359 0.500000 0.703113
O O16 0.608945 0.742228 0.785527
O O17 0.391122 0.725185 0.679759
O O18 0.160516 0.500000 0.850817
O O19 0.840919 0.500000 0.676276
#
# Coordination Sequence:
#
# PCOD8101453 Si02
#       7
#     8   8   8   8   8   8   8
#     4  11  21  35  58  84 114 148 186 232 280 330
#     4   9  19  35  57  83 108 142 182 226 276 324
#     4  10  22  39  57  81 112 149 192 232 275 331
#     4  10  21  37  57  83 113 146 181 221 274 332
#     4  11  21  34  56  86 113 143 188 235 280 328
#     4   9  19  37  58  81 112 143 183 230 273 328
#     4  10  20  36  58  83 113 147 185 231 282 332
#
# _framework density 18.829941000000002
#
# number of rings (size 3 to 8) (size 9 to 14) (size 15 to 20)
#    0.000    2.000    1.429    3.429    0.000    4.571 
#    2.571    0.000    0.000    0.000    0.000    0.000 
#    0.000    0.000    0.000    0.000    0.000    0.000 
#
# Total GULP energy -347241.123010 kJ/mol
# GULP energy per Si atom -12401.468679 kJ/mol
# Density = 1.878708 g / cm^3
# Si number density = 18.829941 Si / 1000 Ang^3
#
#
#
# Elastic Constant Matrix: (Units=GPa)
#
#
# Indices 1 2 3 4 5 6 
#
# 1 91.3384 28.2210 59.2163 0.0000 12.7554 0.0000
# 2 28.2210 74.4614 47.8133 0.0000 -1.1112 0.0000
# 3 59.2163 47.8133 133.9172 0.0000 7.3831 0.0000
# 4 0.0000 0.0000 0.0000 37.2844 0.0000 -2.7081
# 5 12.7554 -1.1112 7.3831 0.0000 27.1130 0.0000
# 6 0.0000 0.0000 0.0000 -2.7081 0.0000 22.7079
#
#
#
# Elastic Compliance Matrix: (Units=1/GPa)
#
#
# Indices 1 2 3 4 5 6 
#
# 1 0.016519 -0.002443 -0.006090 0.000000 -0.006213 0.000000
# 2 -0.002443 0.017947 -0.005514 0.000000 0.003386 0.000000
# 3 -0.006090 -0.005514 0.012166 0.000000 -0.000674 0.000000
# 4 0.000000 0.000000 0.000000 0.027055 0.000000 0.003227
# 5 -0.006213 0.003386 -0.000674 0.000000 0.040128 0.000000
# 6 0.000000 0.000000 0.000000 0.003227 0.000000 0.044422
#
#
# Mechanical properties :
#
#
# Convention : Reuss Voigt Hill
#
# Bulk Modulus (GPa) = 53.94294 63.35759 58.65027
# Shear Modulus (GPa) = 25.97263 28.38547 27.17905
#
# Velocity S-wave (km/s) = 3.71796 3.88682 3.80333
# Velocity P-wave (km/s) = 6.86590 7.33917 7.10648
#
# Compressibility (1/GPa) = 0.01853811
#
# Stress axis : x y z
#
# Youngs Moduli (GPa) = 60.53714 55.71964 82.19695
#
# Poissons Ratio (x) = 0.13613 0.50054
# Poissons Ratio (y) = 0.14790 0.45324
# Poissons Ratio (z) = 0.36864 0.30724
#
# Static dielectric constant tensor:
#      x y z
#    x 3.277050 0.000000 0.030720 
#    y 0.000000 3.508030 0.000000 
#    z 0.030720 0.000000 3.612190 
# 
# 
# High freq. dielectric constant tensor:
#      x y z
#    x 1.712070 0.000000 -0.002130 
#    y 0.000000 1.730040 0.000000 
#    z -0.002130 0.000000 1.744820 
# 
# From -- ./inp_files/362951.got.cif
#   From: 2010.06.25/outbox.cif.g09.slc.cpg/sg12_182_cif.got.tgz:362951.got - 2010.06.28 00:19:55.
