data_PCOD8101382
_publ_section_title
;
Structure prediction by ZEFSAII (Michael W. Deem and Ramdas Pophale) SiO2 
 PCOD8101382
Probable space group: C 2/M
;
_chemical_formula_sum "Si O2"
_cell_formula_units_Z 48
_cell_length_a 14.970009
_cell_length_b 8.857086
_cell_length_c 20.247865
_cell_angle_alpha 90.000000
_cell_angle_beta 68.162966
_cell_angle_gamma 90.000000
_cell_volume 2492.040270
_symmetry_space_group_name_H-M "C 2/M"
_symmetry_group_IT_number 12
_symmetry_cell_setting 'monoclinic'
loop_
_space_group_symop_operation_xyz
x,y,z
-x,y,-z
-x,-y,-z
x,-y,z
1/2+x,1/2+y,z
1/2-x,1/2+y,-z
1/2-x,1/2-y,-z
1/2+x,1/2-y,z
loop_
_atom_site_type_symbol
_atom_site_label
_atom_site_fract_x
_atom_site_fract_y
_atom_site_fract_z
Si Si1 0.877759 0.176526 0.080160
Si Si2 0.097823 0.177310 0.326832
Si Si3 0.931278 0.678229 0.932898
Si Si4 0.891176 0.177217 0.434730
Si Si5 0.164498 0.674417 0.178016
Si Si6 0.696673 0.177381 0.418487
O O1 0.777997 0.206064 0.144566
O O2 0.959185 0.263449 0.099057
O O3 0.902392 0.000000 0.069894
O O4 0.872497 0.240292 0.007308
O O5 0.116986 0.223311 0.246701
O O6 0.176278 0.254886 0.352285
O O7 0.990507 0.231352 0.375023
O O8 0.108388 0.000000 0.331758
O O9 0.929393 0.500000 0.946023
O O10 0.881873 0.723367 0.878261
O O11 0.804762 0.224428 0.409463
O O12 0.879864 0.258552 0.508087
O O13 0.890068 0.000000 0.449062
O O14 0.142998 0.500000 0.199489
O O15 0.684398 0.000000 0.418284
#
# Coordination Sequence:
#
# PCOD8101382 Si02
#       6
#     8   8   8   8   8   8
#     4  10  20  36  58  82 108 141 179 221 269 320
#     4  11  23  37  55  79 110 146 180 219 268 321
#     4  10  20  36  58  83 109 139 179 226 268 313
#     4   9  20  38  57  80 109 141 179 221 267 319
#     4  10  23  39  54  77 111 146 180 220 267 320
#     4  10  20  36  59  83 108 140 179 223 268 316
#
# _framework density 19.261326
#
# number of rings (size 3 to 8) (size 9 to 14) (size 15 to 20)
#    0.000    2.000    0.000    4.000    0.000    8.000 
#    0.000    5.000    0.000    0.000    0.000    0.000 
#    0.000    0.000    0.000    0.000    0.000    0.000 
#
# Total GULP energy -297711.160450 kJ/mol
# GULP energy per Si atom -12404.631685 kJ/mol
# Density = 1.921749 g / cm^3
# Si number density = 19.261326 Si / 1000 Ang^3
#
#
#
# Elastic Constant Matrix: (Units=GPa)
#
#
# Indices 1 2 3 4 5 6 
#
# 1 62.2501 14.3352 26.1277 0.0000 -1.5430 0.0000
# 2 14.3352 44.1950 23.3915 0.0000 1.4514 0.0000
# 3 26.1277 23.3915 72.9304 0.0000 -7.2083 0.0000
# 4 0.0000 0.0000 0.0000 37.7524 0.0000 2.9777
# 5 -1.5430 1.4514 -7.2083 0.0000 22.6288 0.0000
# 6 0.0000 0.0000 0.0000 2.9777 0.0000 28.0796
#
#
#
# Elastic Compliance Matrix: (Units=1/GPa)
#
#
# Indices 1 2 3 4 5 6 
#
# 1 0.019262 -0.003087 -0.005949 0.000000 -0.000384 0.000000
# 2 -0.003087 0.028237 -0.008416 0.000000 -0.004702 0.000000
# 3 -0.005949 -0.008416 0.019158 0.000000 0.006237 0.000000
# 4 0.000000 0.000000 0.000000 0.026712 0.000000 -0.002833
# 5 -0.000384 -0.004702 0.006237 0.000000 0.046454 0.000000
# 6 0.000000 0.000000 0.000000 -0.002833 0.000000 0.035913
#
#
# Mechanical properties :
#
#
# Convention : Reuss Voigt Hill
#
# Bulk Modulus (GPa) = 31.49051 34.12048 32.80549
# Shear Modulus (GPa) = 22.60155 25.39358 23.99756
#
# Velocity S-wave (km/s) = 3.42923 3.63488 3.53355
# Velocity P-wave (km/s) = 5.66252 5.94722 5.80661
#
# Compressibility (1/GPa) = 0.03175560
#
# Stress axis : x y z
#
# Youngs Moduli (GPa) = 51.91470 35.41470 52.19623
#
# Poissons Ratio (x) = 0.10932 0.31050
# Poissons Ratio (y) = 0.16025 0.43926
# Poissons Ratio (z) = 0.30882 0.29803
#
# Static dielectric constant tensor:
#      x y z
#    x 3.691430 0.000000 0.006060 
#    y 0.000000 3.519020 0.000000 
#    z 0.006060 0.000000 3.416540 
# 
# 
# High freq. dielectric constant tensor:
#      x y z
#    x 1.761030 0.000000 0.001480 
#    y 0.000000 1.756200 0.000000 
#    z 0.001480 0.000000 1.743100 
# 
# From -- ./inp_files/274607.got.cif
#   From: 2010.06.25/outbox.cif.g09.slc.cpg/sg12_138_cif.got.tgz:274607.got - 2010.06.28 00:19:55.
