data_PCOD8101126
_publ_section_title
;
Structure prediction by ZEFSAII (Michael W. Deem and Ramdas Pophale) SiO2 
 PCOD8101126
Probable space group: C 2/M
;
_chemical_formula_sum "Si O2"
_cell_formula_units_Z 40
_cell_length_a 17.878233
_cell_length_b 9.054805
_cell_length_c 13.618511
_cell_angle_alpha 90.000000
_cell_angle_beta 70.845216
_cell_angle_gamma 90.000000
_cell_volume 2082.560528
_symmetry_space_group_name_H-M "C 2/M"
_symmetry_group_IT_number 12
_symmetry_cell_setting 'monoclinic'
loop_
_space_group_symop_operation_xyz
x,y,z
-x,y,-z
-x,-y,-z
x,-y,z
1/2+x,1/2+y,z
1/2-x,1/2+y,-z
1/2-x,1/2-y,-z
1/2+x,1/2-y,z
loop_
_atom_site_type_symbol
_atom_site_label
_atom_site_fract_x
_atom_site_fract_y
_atom_site_fract_z
Si Si1 0.217546 0.175229 0.803081
Si Si2 0.487634 0.330480 0.390790
Si Si3 0.414792 0.671306 0.990397
Si Si4 0.111485 0.674952 0.202343
Si Si5 0.312606 0.674383 0.402940
O O1 0.150583 0.234314 0.906143
O O2 0.302230 0.234193 0.803103
O O3 0.200141 0.235721 0.701642
O O4 0.214609 0.000000 0.801973
O O5 0.500000 0.306959 0.500000
O O6 0.502204 0.500000 0.353233
O O7 0.548990 0.227244 0.309207
O O8 0.399798 0.279869 0.400011
O O9 0.399890 0.500000 0.972596
O O10 0.500000 0.696856 0.000000
O O11 0.410689 0.762529 0.893226
O O12 0.110321 0.500000 0.197993
O O13 0.299736 0.500000 0.414457
O O14 0.250000 0.750000 0.500000
#
# Coordination Sequence:
#
# PCOD8101126 Si02
#       5
#     8   8   8   8   8
#     4   9  19  35  54  78 108 143 180 218 267 324
#     4  10  21  37  57  81 109 144 186 225 263 317
#     4  10  20  37  60  80 104 143 184 221 267 323
#     4  11  22  35  54  81 112 142 176 224 275 321
#     4  10  20  36  57  80 108 141 179 222 267 318
#
# _framework density 19.207125999999999
#
# number of rings (size 3 to 8) (size 9 to 14) (size 15 to 20)
#    0.000    2.000    0.000    3.600    0.000    4.800 
#    0.000    3.000    0.000    0.000    0.000    0.000 
#    0.000    0.000    0.000    0.000    0.000    0.000 
#
# Total GULP energy -248083.101922 kJ/mol
# GULP energy per Si atom -12404.155096 kJ/mol
# Density = 1.916341 g / cm^3
# Si number density = 19.207126 Si / 1000 Ang^3
#
#
#
# Elastic Constant Matrix: (Units=GPa)
#
#
# Indices 1 2 3 4 5 6 
#
# 1 150.8033 51.4280 64.5580 0.0000 -10.6637 0.0000
# 2 51.4280 48.7557 42.2196 0.0000 -1.5240 0.0000
# 3 64.5580 42.2196 123.3694 0.0000 -7.0455 0.0000
# 4 0.0000 0.0000 0.0000 27.3453 0.0000 -17.3770
# 5 -10.6637 -1.5240 -7.0455 0.0000 39.8196 0.0000
# 6 0.0000 0.0000 0.0000 -17.3770 0.0000 0.1223
#
#
#
# Elastic Compliance Matrix: (Units=1/GPa)
#
#
# Indices 1 2 3 4 5 6 
#
# 1 0.011060 -0.009513 -0.002408 0.000000 0.002172 0.000000
# 2 -0.009513 0.037348 -0.007947 0.000000 -0.002524 0.000000
# 3 -0.002408 -0.007947 0.012154 0.000000 0.001202 0.000000
# 4 0.000000 0.000000 0.000000 -0.000410 0.000000 -0.058192
# 5 0.002172 -0.002524 0.001202 0.000000 0.025811 0.000000
# 6 0.000000 0.000000 0.000000 -0.058192 0.000000 -0.091574
#
#
# Mechanical properties :
#
#
# Convention : Reuss Voigt Hill
#
# Bulk Modulus (GPa) = 48.01848 71.03773 59.52810
# Shear Modulus (GPa) = 121.75323 24.43895 73.09609
#
# Velocity S-wave (km/s) = 7.97040 3.57093 6.17571
# Velocity P-wave (km/s) = 10.47653 7.35305 9.05055
#
# Compressibility (1/GPa) = 0.02082532
#
# Stress axis : x y z
#
# Youngs Moduli (GPa) = 90.41850 26.77535 82.27655
#
# Poissons Ratio (x) = 0.25471 0.19811
# Poissons Ratio (y) = 0.86014 0.65388
# Poissons Ratio (z) = 0.21772 0.21279
#
# Static dielectric constant tensor:
#      x y z
#    x 3.767550 0.000000 0.000380 
#    y 0.000000 3.265030 0.000000 
#    z 0.000380 0.000000 3.456450 
# 
# 
# High freq. dielectric constant tensor:
#      x y z
#    x 1.767980 0.000000 0.001290 
#    y 0.000000 1.720310 0.000000 
#    z 0.001290 0.000000 1.766140 
# 
# From -- ./inp_files/151675.got.cif
#   From: 2010.06.25/outbox.cif.g09.slc.cpg/sg12_76_cif.got.tgz:151675.got - 2010.06.28 00:19:55.
