data_PCOD8101021
_publ_section_title
;
Structure prediction by ZEFSAII (Michael W. Deem and Ramdas Pophale) SiO2 
 PCOD8101021
Probable space group: C 2/M
;
_chemical_formula_sum "Si O2"
_cell_formula_units_Z 64
_cell_length_a 29.980543
_cell_length_b 13.345545
_cell_length_c 9.651224
_cell_angle_alpha 90.000000
_cell_angle_beta 62.942230
_cell_angle_gamma 90.000000
_cell_volume 3438.869492
_symmetry_space_group_name_H-M "C 2/M"
_symmetry_group_IT_number 12
_symmetry_cell_setting 'monoclinic'
loop_
_space_group_symop_operation_xyz
x,y,z
-x,y,-z
-x,-y,-z
x,-y,z
1/2+x,1/2+y,z
1/2-x,1/2+y,-z
1/2-x,1/2-y,-z
1/2+x,1/2-y,z
loop_
_atom_site_type_symbol
_atom_site_label
_atom_site_fract_x
_atom_site_fract_y
_atom_site_fract_z
Si Si1 0.993507 0.883670 0.663722
Si Si2 0.723382 0.618479 0.155737
Si Si3 0.307589 0.722341 0.073298
Si Si4 0.927199 0.217150 0.259988
Si Si5 0.077433 0.234020 0.056651
Si Si6 0.753418 0.883171 0.389431
Si Si7 0.996869 0.608427 0.165882
Si Si8 0.683286 0.292960 0.471804
O O1 0.941881 0.850014 0.809794
O O2 0.000000 0.834762 0.500000
O O3 0.040123 0.861463 0.699454
O O4 0.988963 0.000000 0.649295
O O5 0.732272 0.500000 0.155945
O O6 0.775754 0.675617 0.108432
O O7 0.681303 0.659338 0.321718
O O8 0.702461 0.645471 0.035776
O O9 0.295090 0.658765 0.226639
O O10 0.364741 0.756644 0.999710
O O11 0.947145 0.327783 0.272940
O O12 0.870003 0.203302 0.381205
O O13 0.933810 0.199768 0.085769
O O14 0.046987 0.333956 0.141414
O O15 0.701504 0.822762 0.442437
O O16 0.775824 0.862814 0.509235
O O17 0.742222 0.000000 0.382364
O O18 0.993796 0.500000 0.245626
O O19 0.000000 0.590480 0.000000
#
# Coordination Sequence:
#
# PCOD8101021 Si02
#       8
#     8   8   8   8   8   8   8   8
#     4  10  23  39  56  81 109 142 183 224 273 332
#     4  10  22  38  56  81 114 150 189 231 275 327
#     4  10  21  38  58  81 111 149 189 230 277 331
#     4  10  20  37  57  81 115 144 178 229 275 324
#     4  10  20  37  58  82 112 143 179 231 276 323
#     4  10  20  36  56  81 114 148 185 229 276 330
#     4   8  16  32  56  82 105 135 178 224 274 326
#     4  10  21  36  54  83 115 147 185 228 278 329
#
# _framework density 18.610768
#
# number of rings (size 3 to 8) (size 9 to 14) (size 15 to 20)
#    0.000    2.250    1.250    1.875    1.750    4.000 
#    0.000    0.000    0.000    6.000    0.000    0.000 
#    0.000    0.000    0.000    0.000    0.000    0.000 
#
# Total GULP energy -396694.749802 kJ/mol
# GULP energy per Si atom -12396.710931 kJ/mol
# Density = 1.856841 g / cm^3
# Si number density = 18.610768 Si / 1000 Ang^3
#
#
#
# Elastic Constant Matrix: (Units=GPa)
#
#
# Indices 1 2 3 4 5 6 
#
# 1 69.0258 18.5905 29.8680 0.0000 1.4280 0.0000
# 2 18.5905 106.5395 25.3038 0.0000 5.1152 0.0000
# 3 29.8680 25.3038 96.1397 0.0000 -5.4315 0.0000
# 4 0.0000 0.0000 0.0000 18.0122 0.0000 3.2625
# 5 1.4280 5.1152 -5.4315 0.0000 18.9989 0.0000
# 6 0.0000 0.0000 0.0000 3.2625 0.0000 13.1363
#
#
#
# Elastic Compliance Matrix: (Units=1/GPa)
#
#
# Indices 1 2 3 4 5 6 
#
# 1 0.017160 -0.001695 -0.005013 0.000000 -0.002267 0.000000
# 2 -0.001695 0.010415 -0.002405 0.000000 -0.003364 0.000000
# 3 -0.005013 -0.002405 0.012857 0.000000 0.004700 0.000000
# 4 0.000000 0.000000 0.000000 0.058133 0.000000 -0.014438
# 5 -0.002267 -0.003364 0.004700 0.000000 0.055055 0.000000
# 6 0.000000 0.000000 0.000000 -0.014438 0.000000 0.079711
#
#
# Mechanical properties :
#
#
# Convention : Reuss Voigt Hill
#
# Bulk Modulus (GPa) = 45.03136 46.58110 45.80623
# Shear Modulus (GPa) = 19.30819 23.22565 21.26692
#
# Velocity S-wave (km/s) = 3.22448 3.53649 3.38408
# Velocity P-wave (km/s) = 6.17349 6.46213 6.31946
#
# Compressibility (1/GPa) = 0.02220675
#
# Stress axis : x y z
#
# Youngs Moduli (GPa) = 58.27542 96.01948 77.77636
#
# Poissons Ratio (x) = 0.16274 0.38990
# Poissons Ratio (y) = 0.09877 0.18702
# Poissons Ratio (z) = 0.29214 0.23089
#
# Static dielectric constant tensor:
#      x y z
#    x 3.387120 0.000000 -0.017940 
#    y 0.000000 3.471210 0.000000 
#    z -0.017940 0.000000 3.688070 
# 
# 
# High freq. dielectric constant tensor:
#      x y z
#    x 1.714230 0.000000 0.001970 
#    y 0.000000 1.716350 0.000000 
#    z 0.001970 0.000000 1.729990 
# 
# From -- ./inp_files/111622.got.cif
#   From: 2010.06.25/outbox.cif.g09.slc.cpg/sg12_56_cif.got.tgz:111622.got - 2010.06.28 00:19:55.
