data_PCOD8101704
_publ_section_title
;
Structure prediction by ZEFSAII (Michael W. Deem and Ramdas Pophale) SiO2 
 PCOD8101704
Probable space group: C 2/M
;
_chemical_formula_sum "Si O2"
_cell_formula_units_Z 60
_cell_length_a 18.075190
_cell_length_b 14.705398
_cell_length_c 12.710991
_cell_angle_alpha 90.000000
_cell_angle_beta 69.607899
_cell_angle_gamma 90.000000
_cell_volume 3166.879942
_symmetry_space_group_name_H-M "C 2/M"
_symmetry_group_IT_number 12
_symmetry_cell_setting 'monoclinic'
loop_
_space_group_symop_operation_xyz
x,y,z
-x,y,-z
-x,-y,-z
x,-y,z
1/2+x,1/2+y,z
1/2-x,1/2+y,-z
1/2-x,1/2-y,-z
1/2+x,1/2-y,z
loop_
_atom_site_type_symbol
_atom_site_label
_atom_site_fract_x
_atom_site_fract_y
_atom_site_fract_z
Si Si1 0.565349 0.729184 0.258528
Si Si2 0.515466 0.395442 0.874028
Si Si3 0.874660 0.603750 0.110831
Si Si4 0.332381 0.399043 0.524904
Si Si5 0.964606 0.397209 0.855127
Si Si6 0.311253 0.603493 0.293405
Si Si7 0.233044 0.780738 0.264890
Si Si8 0.000000 0.159513 0.500000
O O1 0.535107 0.662915 0.182329
O O2 0.556951 0.833738 0.231097
O O3 0.656773 0.705784 0.230490
O O4 0.515678 0.721371 0.390282
O O5 0.488739 0.500000 0.873543
O O6 0.607721 0.383939 0.808767
O O7 0.500000 0.360406 0.000000
O O8 0.847292 0.500000 0.144857
O O9 0.805137 0.673281 0.168866
O O10 0.948560 0.628896 0.147338
O O11 0.899829 0.615892 0.977869
O O12 0.298188 0.500000 0.560202
O O13 0.326767 0.371192 0.406503
O O14 0.279863 0.328606 0.616235
O O15 0.423740 0.401857 0.515280
O O16 0.963608 0.500000 0.814073
O O17 0.279460 0.500000 0.296590
O O18 0.248265 0.673653 0.276395
#
# Coordination Sequence:
#
# PCOD8101704 Si02
#       8
#     8   8   8   8   8   8   8   4
#     4  11  23  37  61  87 120 156 192 241 299 346
#     4  10  22  40  63  91 118 153 203 246 291 355
#     4   9  19  37  60  85 110 145 195 246 289 337
#     4  10  20  36  59  84 116 156 196 244 295 345
#     4   9  20  39  61  81 109 155 201 236 281 344
#     4  10  21  39  59  82 119 164 198 234 291 357
#     4  11  23  35  56  90 123 148 194 245 297 347
#     4  10  21  36  57  92 118 152 195 242 293 356
#
# _framework density 18.946092
#
# number of rings (size 3 to 8) (size 9 to 14) (size 15 to 20)
#    0.000    2.000    1.333    2.600    3.733    3.733 
#    0.000    0.333    0.000    0.000    0.000    0.000 
#    0.000    0.000    0.000    0.000    0.000    0.000 
#
# Total GULP energy -372053.862444 kJ/mol
# GULP energy per Si atom -12401.795415 kJ/mol
# Density = 1.890297 g / cm^3
# Si number density = 18.946092 Si / 1000 Ang^3
#
#
#
# Elastic Constant Matrix: (Units=GPa)
#
#
# Indices 1 2 3 4 5 6 
#
# 1 67.6604 42.1017 45.3951 0.0000 -6.6904 0.0000
# 2 42.1017 106.6540 59.8721 0.0000 -1.1159 0.0000
# 3 45.3951 59.8721 120.0122 0.0000 5.4337 0.0000
# 4 0.0000 0.0000 0.0000 20.7232 0.0000 2.5194
# 5 -6.6904 -1.1159 5.4337 0.0000 25.2739 0.0000
# 6 0.0000 0.0000 0.0000 2.5194 0.0000 26.5002
#
#
#
# Elastic Compliance Matrix: (Units=1/GPa)
#
#
# Indices 1 2 3 4 5 6 
#
# 1 0.023188 -0.005513 -0.006349 0.000000 0.007260 0.000000
# 2 -0.005513 0.014434 -0.005128 0.000000 0.000280 0.000000
# 3 -0.006349 -0.005128 0.013510 0.000000 -0.004812 0.000000
# 4 0.000000 0.000000 0.000000 0.048819 0.000000 -0.004641
# 5 0.007260 0.000280 -0.004812 0.000000 0.042535 0.000000
# 6 0.000000 0.000000 0.000000 -0.004641 0.000000 0.038177
#
#
# Mechanical properties :
#
#
# Convention : Reuss Voigt Hill
#
# Bulk Modulus (GPa) = 58.30513 65.45161 61.87837
# Shear Modulus (GPa) = 22.68986 24.29663 23.49325
#
# Velocity S-wave (km/s) = 3.46439 3.58496 3.52519
# Velocity P-wave (km/s) = 6.84425 7.19424 7.02143
#
# Compressibility (1/GPa) = 0.01715115
#
# Stress axis : x y z
#
# Youngs Moduli (GPa) = 43.12567 69.27947 74.01724
#
# Poissons Ratio (x) = 0.38196 0.46995
# Poissons Ratio (y) = 0.23777 0.37958
# Poissons Ratio (z) = 0.27381 0.35529
#
# Static dielectric constant tensor:
#      x y z
#    x 3.313020 0.000000 -0.029040 
#    y 0.000000 3.534720 0.000000 
#    z -0.029040 0.000000 3.503200 
# 
# 
# High freq. dielectric constant tensor:
#      x y z
#    x 1.723850 0.000000 -0.004560 
#    y 0.000000 1.743890 0.000000 
#    z -0.004560 0.000000 1.740230 
# 
# From -- ./inp_files/156591.got.cif
#   From: 2010.06.25/outbox.cif.g09.slc.cpg/sg12_79_cif.got.tgz:156591.got - 2010.06.28 00:19:55.
