data_PCOD8101198
_publ_section_title
;
Structure prediction by ZEFSAII (Michael W. Deem and Ramdas Pophale) SiO2 
 PCOD8101198
Probable space group: C 2/M
;
_chemical_formula_sum "Si O2"
_cell_formula_units_Z 64
_cell_length_a 32.609465
_cell_length_b 8.735707
_cell_length_c 25.232939
_cell_angle_alpha 90.000000
_cell_angle_beta 153.105069
_cell_angle_gamma 90.000000
_cell_volume 3251.544806
_symmetry_space_group_name_H-M "C 2/M"
_symmetry_group_IT_number 12
_symmetry_cell_setting 'monoclinic'
loop_
_space_group_symop_operation_xyz
x,y,z
-x,y,-z
-x,-y,-z
x,-y,z
1/2+x,1/2+y,z
1/2-x,1/2+y,-z
1/2-x,1/2-y,-z
1/2+x,1/2-y,z
loop_
_atom_site_type_symbol
_atom_site_label
_atom_site_fract_x
_atom_site_fract_y
_atom_site_fract_z
Si Si1 0.577410 0.832016 0.124678
Si Si2 0.809779 0.317622 0.917911
Si Si3 0.843859 0.176663 0.689342
Si Si4 0.743059 0.334048 0.731251
Si Si5 0.171203 0.817656 0.540671
Si Si6 0.996698 0.323410 0.181634
Si Si7 0.697191 0.681623 0.889896
Si Si8 0.984910 0.677411 0.289823
O O1 0.593601 0.706595 0.187926
O O2 0.661122 0.861771 0.184186
O O3 0.548935 0.000000 0.115811
O O4 0.500000 0.758616 0.000000
O O5 0.812003 0.500000 0.915193
O O6 0.763186 0.246440 0.810414
O O7 0.747274 0.265082 0.894334
O O8 0.914101 0.262343 0.048701
O O9 0.748088 0.262105 0.587561
O O10 0.906643 0.236729 0.713505
O O11 0.822051 0.000000 0.655471
O O12 0.698190 0.500000 0.692444
O O13 0.684385 0.250878 0.616646
O O14 0.075627 0.765128 0.409405
O O15 0.178720 0.000000 0.551780
O O16 0.016395 0.500000 0.192920
O O17 0.963412 0.299247 0.203236
O O18 0.694420 0.500000 0.892216
O O19 0.596195 0.748642 0.770305
O O20 0.750000 0.750000 0.000000
O O21 0.995186 0.500000 0.316514
#
# Coordination Sequence:
#
# PCOD8101198 Si02
#       8
#     8   8   8   8   8   8   8   8
#     4   9  16  29  51  75 104 148 195 235 275 329
#     4   9  17  33  58  87 114 144 185 236 282 329
#     4  11  22  34  51  80 116 151 187 235 289 339
#     4   8  15  29  53  81 107 139 188 235 272 320
#     4  10  21  39  60  82 110 152 197 236 279 335
#     4  10  20  36  57  82 112 148 193 237 283 340
#     4  11  21  37  61  89 119 149 184 230 287 345
#     4  11  23  40  61  85 112 149 191 238 289 341
#
# _framework density 19.682952
#
# number of rings (size 3 to 8) (size 9 to 14) (size 15 to 20)
#    0.000    2.125    1.250    3.750    0.000    3.750 
#    0.000    0.625    0.000   12.000    0.000    0.000 
#    0.000    0.000    0.000    0.000    0.000    0.000 
#
# Total GULP energy -396460.642317 kJ/mol
# GULP energy per Si atom -12389.395072 kJ/mol
# Density = 1.963815 g / cm^3
# Si number density = 19.682952 Si / 1000 Ang^3
#
#
#
# Elastic Constant Matrix: (Units=GPa)
#
#
# Indices 1 2 3 4 5 6 
#
# 1 74.0359 29.5807 23.6411 0.0000 -3.9699 0.0000
# 2 29.5807 70.4947 24.1855 0.0000 8.4512 0.0000
# 3 23.6411 24.1855 85.3625 0.0000 18.7614 0.0000
# 4 0.0000 0.0000 0.0000 29.0224 0.0000 1.3569
# 5 -3.9699 8.4512 18.7614 0.0000 23.1197 0.0000
# 6 0.0000 0.0000 0.0000 1.3569 0.0000 25.8233
#
#
#
# Elastic Compliance Matrix: (Units=1/GPa)
#
#
# Indices 1 2 3 4 5 6 
#
# 1 0.018644 -0.007205 -0.005360 0.000000 0.010185 0.000000
# 2 -0.007205 0.018626 -0.001842 0.000000 -0.006551 0.000000
# 3 -0.005360 -0.001842 0.016766 0.000000 -0.013852 0.000000
# 4 0.000000 0.000000 0.000000 0.034541 0.000000 -0.001815
# 5 0.010185 -0.006551 -0.013852 0.000000 0.058638 0.000000
# 6 0.000000 0.000000 0.000000 -0.001815 0.000000 0.038820
#
#
# Mechanical properties :
#
#
# Convention : Reuss Voigt Hill
#
# Bulk Modulus (GPa) = 39.65047 42.74531 41.19789
# Shear Modulus (GPa) = 22.39575 25.75879 24.07727
#
# Velocity S-wave (km/s) = 3.37683 3.62150 3.50130
# Velocity P-wave (km/s) = 5.94914 6.26507 6.10915
#
# Compressibility (1/GPa) = 0.02522038
#
# Stress axis : x y z
#
# Youngs Moduli (GPa) = 53.63780 53.68785 59.64525
#
# Poissons Ratio (x) = 0.38683 0.31973
# Poissons Ratio (y) = 0.38647 0.10987
# Poissons Ratio (z) = 0.28752 0.09889
#
# Static dielectric constant tensor:
#      x y z
#    x 3.638750 0.000000 0.038610 
#    y 0.000000 3.334960 0.000000 
#    z 0.038610 0.000000 3.530410 
# 
# 
# High freq. dielectric constant tensor:
#      x y z
#    x 1.766530 0.000000 -0.003370 
#    y 0.000000 1.732880 0.000000 
#    z -0.003370 0.000000 1.769880 
# 
# From -- ./inp_files/353494.got.cif
#   From: 2010.06.25/outbox.cif.g09.slc.cpg/sg12_177_cif.got.tgz:353494.got - 2010.06.28 00:19:55.
