data_PCOD8101393
_publ_section_title
;
Structure prediction by ZEFSAII (Michael W. Deem and Ramdas Pophale) SiO2 
 PCOD8101393
Probable space group: C 2/M
;
_chemical_formula_sum "Si O2"
_cell_formula_units_Z 64
_cell_length_a 19.774600
_cell_length_b 9.557580
_cell_length_c 32.617344
_cell_angle_alpha 90.000000
_cell_angle_beta 33.603156
_cell_angle_gamma 90.000000
_cell_volume 3411.715193
_symmetry_space_group_name_H-M "C 2/M"
_symmetry_group_IT_number 12
_symmetry_cell_setting 'monoclinic'
loop_
_space_group_symop_operation_xyz
x,y,z
-x,y,-z
-x,-y,-z
x,-y,z
1/2+x,1/2+y,z
1/2-x,1/2+y,-z
1/2-x,1/2-y,-z
1/2+x,1/2-y,z
loop_
_atom_site_type_symbol
_atom_site_label
_atom_site_fract_x
_atom_site_fract_y
_atom_site_fract_z
Si Si1 0.072529 0.336796 0.193125
Si Si2 0.791500 0.340552 0.204509
Si Si3 0.357152 0.837523 0.568437
Si Si4 0.772730 0.840298 0.027810
Si Si5 0.281263 0.336420 0.444199
Si Si6 0.687422 0.835352 0.713078
Si Si7 0.049293 0.158165 0.282289
Si Si8 0.529552 0.661223 0.939453
O O1 0.079948 0.500000 0.199005
O O2 0.180920 0.287480 0.108973
O O3 0.096150 0.256293 0.222812
O O4 0.943327 0.294648 0.239097
O O5 0.838167 0.500000 0.176686
O O6 0.813541 0.285149 0.239303
O O7 0.646392 0.330571 0.270030
O O8 0.862286 0.249023 0.135375
O O9 0.500000 0.804422 0.500000
O O10 0.309381 0.795942 0.547282
O O11 0.290816 0.746718 0.636343
O O12 0.328761 0.000000 0.591382
O O13 0.742966 0.000000 0.031840
O O14 0.750000 0.750000 0.000000
O O15 0.910852 0.820044 0.971790
O O16 0.272140 0.500000 0.459315
O O17 0.250000 0.250000 0.500000
O O18 0.417922 0.290603 0.363765
O O19 0.715238 0.000000 0.695703
O O20 0.039588 0.000000 0.270472
O O21 0.572116 0.500000 0.920368
O O22 0.500000 0.717057 0.000000
#
# Coordination Sequence:
#
# PCOD8101393 Si02
#       8
#     8   8   8   8   8   8   8   8
#     4  10  20  36  58  82 109 144 186 230 276 329
#     4  10  22  38  57  83 114 148 189 233 281 334
#     4  10  22  40  60  84 115 150 186 227 277 332
#     4  10  21  36  56  83 113 146 185 231 281 333
#     4  10  22  39  59  85 116 147 185 230 275 330
#     4  10  21  37  58  84 113 147 187 231 277 330
#     4  10  21  38  58  82 112 147 185 229 279 329
#     4  10  21  38  58  82 113 149 191 235 282 334
#
# _framework density 18.758893
#
# number of rings (size 3 to 8) (size 9 to 14) (size 15 to 20)
#    0.000    2.000    1.250    1.500    1.750    5.500 
#    0.000    0.000    0.000    0.000    0.000    0.000 
#    0.000    0.000    0.000    0.000    0.000    0.000 
#
# Total GULP energy -396922.490636 kJ/mol
# GULP energy per Si atom -12403.827832 kJ/mol
# Density = 1.871620 g / cm^3
# Si number density = 18.758893 Si / 1000 Ang^3
#
#
#
# Elastic Constant Matrix: (Units=GPa)
#
#
# Indices 1 2 3 4 5 6 
#
# 1 85.3703 30.6546 36.7745 0.0008 11.9641 0.0246
# 2 30.6546 52.4981 47.0313 0.0010 11.8839 0.0048
# 3 36.7745 47.0313 113.5703 0.0000 5.9167 0.0040
# 4 0.0008 0.0010 0.0000 36.6759 -0.0006 5.4532
# 5 11.9641 11.8839 5.9167 -0.0006 37.6328 -0.0008
# 6 0.0246 0.0048 0.0040 5.4532 -0.0008 29.6569
#
#
#
# Elastic Compliance Matrix: (Units=1/GPa)
#
#
# Indices 1 2 3 4 5 6 
#
# 1 0.015305 -0.006437 -0.002160 0.000002 -0.002493 -0.000012
# 2 -0.006437 0.035347 -0.012178 -0.000001 -0.007201 0.000001
# 3 -0.002160 -0.012178 0.014430 0.000000 0.002264 0.000002
# 4 0.000002 -0.000001 0.000000 0.028032 0.000000 -0.005154
# 5 -0.002493 -0.007201 0.002264 0.000000 0.029283 0.000004
# 6 -0.000012 0.000001 0.000002 -0.005154 0.000004 0.034667
#
#
# Mechanical properties :
#
#
# Convention : Reuss Voigt Hill
#
# Bulk Modulus (GPa) = 42.49751 53.37328 47.93540
# Shear Modulus (GPa) = 24.21778 29.92502 27.07140
#
# Velocity S-wave (km/s) = 3.59695 3.99838 3.80297
# Velocity P-wave (km/s) = 6.32096 7.05905 6.70017
#
# Compressibility (1/GPa) = 0.02353079
#
# Stress axis : x y z
#
# Youngs Moduli (GPa) = 65.33758 28.29062 69.30052
#
# Poissons Ratio (x) = 0.18211 0.14970
# Poissons Ratio (y) = 0.42060 0.84397
# Poissons Ratio (z) = 0.14114 0.34453
#
# Static dielectric constant tensor:
#      x y z
#    x 3.628990 -0.000050 -0.115070 
#    y -0.000050 3.381170 0.000000 
#    z -0.115070 0.000000 3.440500 
# 
# 
# High freq. dielectric constant tensor:
#      x y z
#    x 1.744300 0.000000 -0.006250 
#    y 0.000000 1.721720 0.000000 
#    z -0.006250 0.000000 1.733570 
# 
# From -- ./inp_files/378107.got.cif
#   From: 2010.06.25/outbox.cif.g09.slc.cpg/sg12_190_cif.got.tgz:378107.got - 2010.06.28 00:19:55.
