data_PCOD8101248
_publ_section_title
;
Structure prediction by ZEFSAII (Michael W. Deem and Ramdas Pophale) SiO2 
 PCOD8101248
Probable space group: C 2/M
;
_chemical_formula_sum "Si O2"
_cell_formula_units_Z 40
_cell_length_a 19.010466
_cell_length_b 9.636948
_cell_length_c 24.730796
_cell_angle_alpha 90.000000
_cell_angle_beta 151.901649
_cell_angle_gamma 90.000000
_cell_volume 2133.923401
_symmetry_space_group_name_H-M "C 2/M"
_symmetry_group_IT_number 12
_symmetry_cell_setting 'monoclinic'
loop_
_space_group_symop_operation_xyz
x,y,z
-x,y,-z
-x,-y,-z
x,-y,z
1/2+x,1/2+y,z
1/2-x,1/2+y,-z
1/2-x,1/2-y,-z
1/2+x,1/2-y,z
loop_
_atom_site_type_symbol
_atom_site_label
_atom_site_fract_x
_atom_site_fract_y
_atom_site_fract_z
Si Si1 0.634496 0.841973 0.056066
Si Si2 0.110259 0.343801 0.916657
Si Si3 0.915631 0.658708 0.275316
Si Si4 0.431749 0.838997 0.510976
Si Si5 0.858414 0.661056 0.663965
O O1 0.782947 0.753934 0.164399
O O2 0.671676 0.000000 0.098293
O O3 0.500000 0.779338 0.000000
O O4 0.571123 0.834860 0.952791
O O5 0.151107 0.500000 0.926381
O O6 0.968954 0.291694 0.786827
O O7 0.250000 0.250000 0.000000
O O8 0.867729 0.500000 0.232731
O O9 0.946159 0.686181 0.359275
O O10 0.064177 0.692232 0.341283
O O11 0.500000 0.789344 0.500000
O O12 0.288194 0.751439 0.429281
O O13 0.385097 0.000000 0.476491
O O14 0.813954 0.500000 0.639010
#
# Coordination Sequence:
#
# PCOD8101248 Si02
#       5
#     8   8   8   8   8
#     4  10  22  37  56  84 116 148 183 226 274 327
#     4  10  20  36  57  84 115 144 181 226 272 326
#     4  10  21  39  59  81 111 146 187 230 273 327
#     4  10  23  40  57  82 113 144 183 231 280 329
#     4  10  21  37  59  84 110 144 186 228 271 327
#
# _framework density 18.744814999999999
#
# number of rings (size 3 to 8) (size 9 to 14) (size 15 to 20)
#    0.000    2.000    2.000    0.600    2.800    3.200 
#    0.000    0.000    0.000    0.000    0.000    0.000 
#    0.000    0.000    0.000    0.000    0.000    0.000 
#
# Total GULP energy -248042.575566 kJ/mol
# GULP energy per Si atom -12402.128778 kJ/mol
# Density = 1.870215 g / cm^3
# Si number density = 18.744815 Si / 1000 Ang^3
#
#
#
# Elastic Constant Matrix: (Units=GPa)
#
#
# Indices 1 2 3 4 5 6 
#
# 1 107.4127 27.5618 28.9103 0.0002 -8.6640 0.0000
# 2 27.5618 56.2594 31.7423 0.0003 7.1034 0.0000
# 3 28.9103 31.7423 69.2984 0.0005 -7.7486 0.0002
# 4 0.0002 0.0003 0.0005 26.5095 0.0001 1.0284
# 5 -8.6640 7.1034 -7.7486 0.0001 35.2615 0.0000
# 6 0.0000 0.0000 0.0002 1.0284 0.0000 25.4556
#
#
#
# Elastic Compliance Matrix: (Units=1/GPa)
#
#
# Indices 1 2 3 4 5 6 
#
# 1 0.011386 -0.004742 -0.002213 0.000000 0.003267 0.000000
# 2 -0.004742 0.028003 -0.011902 0.000000 -0.009422 0.000000
# 3 -0.002213 -0.011902 0.021542 0.000000 0.006588 0.000000
# 4 0.000000 0.000000 0.000000 0.037781 0.000000 -0.001526
# 5 0.003267 -0.009422 0.006588 0.000000 0.032508 0.000000
# 6 0.000000 0.000000 0.000000 -0.001526 0.000000 0.039346
#
#
# Mechanical properties :
#
#
# Convention : Reuss Voigt Hill
#
# Bulk Modulus (GPa) = 43.07164 45.48881 44.28022
# Shear Modulus (GPa) = 23.14630 27.09572 25.12101
#
# Velocity S-wave (km/s) = 3.51780 3.80610 3.66479
# Velocity P-wave (km/s) = 6.28710 6.60570 6.44837
#
# Compressibility (1/GPa) = 0.02321713
#
# Stress axis : x y z
#
# Youngs Moduli (GPa) = 87.82958 35.71079 46.42152
#
# Poissons Ratio (x) = 0.16934 0.10271
# Poissons Ratio (y) = 0.41649 0.55251
# Poissons Ratio (z) = 0.19433 0.42503
#
# Static dielectric constant tensor:
#      x y z
#    x 3.850690 0.000000 -0.428350 
#    y 0.000000 3.445810 0.000000 
#    z -0.428350 0.000000 3.582660 
# 
# 
# High freq. dielectric constant tensor:
#      x y z
#    x 1.741280 0.000000 -0.014610 
#    y 0.000000 1.724400 0.000000 
#    z -0.014610 0.000000 1.726600 
# 
# From -- ./inp_files/151661.got.cif
#   From: 2010.06.25/outbox.cif.g09.slc.cpg/sg12_76_cif.got.tgz:151661.got - 2010.06.28 00:19:55.
