data_PCOD8101315
_publ_section_title
;
Structure prediction by ZEFSAII (Michael W. Deem and Ramdas Pophale) SiO2 
 PCOD8101315
Probable space group: C 2/M
;
_chemical_formula_sum "Si O2"
_cell_formula_units_Z 64
_cell_length_a 18.578973
_cell_length_b 8.547958
_cell_length_c 20.340981
_cell_angle_alpha 90.000000
_cell_angle_beta 89.487316
_cell_angle_gamma 90.000000
_cell_volume 3230.268265
_symmetry_space_group_name_H-M "C 2/M"
_symmetry_group_IT_number 12
_symmetry_cell_setting 'monoclinic'
loop_
_space_group_symop_operation_xyz
x,y,z
-x,y,-z
-x,-y,-z
x,-y,z
1/2+x,1/2+y,z
1/2-x,1/2+y,-z
1/2-x,1/2-y,-z
1/2+x,1/2-y,z
loop_
_atom_site_type_symbol
_atom_site_label
_atom_site_fract_x
_atom_site_fract_y
_atom_site_fract_z
Si Si1 0.169781 0.686727 0.116100
Si Si2 0.425903 0.181734 0.619082
Si Si3 0.919265 0.315033 0.007108
Si Si4 0.667835 0.316733 0.873769
Si Si5 0.425215 0.184300 0.765198
Si Si6 0.671076 0.182884 0.502126
Si Si7 0.087561 0.316677 0.756659
Si Si8 0.922688 0.181496 0.382507
O O1 0.168958 0.500000 0.118257
O O2 0.251520 0.748648 0.115721
O O3 0.127894 0.757704 0.179862
O O4 0.130346 0.751576 0.051293
O O5 0.399373 0.232923 0.692164
O O6 0.362304 0.216209 0.569148
O O7 0.495790 0.279275 0.597546
O O8 0.448849 0.000000 0.619163
O O9 0.922333 0.500000 0.002447
O O10 0.886696 0.267730 0.076888
O O11 0.000000 0.246156 0.000000
O O12 0.664956 0.500000 0.886773
O O13 0.644364 0.278065 0.799897
O O14 0.507075 0.241532 0.775919
O O15 0.423456 0.000000 0.773091
O O16 0.750000 0.250000 0.500000
O O17 0.627549 0.276646 0.556614
O O18 0.670400 0.000000 0.519054
O O19 0.097253 0.500000 0.769400
O O20 0.102732 0.279972 0.680444
O O21 0.915330 0.000000 0.365688
#
# Coordination Sequence:
#
# PCOD8101315 Si02
#       8
#     8   8   8   8   8   8   8   8
#     4   9  18  32  52  80 111 142 178 221 272 329
#     4   9  19  36  59  84 111 148 191 234 282 338
#     4  10  20  36  58  79 102 142 192 231 266 321
#     4  11  22  34  52  81 115 145 175 223 283 335
#     4   8  15  32  57  80 101 133 181 228 266 314
#     4  11  23  38  56  82 117 154 193 237 287 342
#     4  10  20  37  60  82 107 143 186 229 272 328
#     4  11  22  37  59  85 113 147 189 238 288 338
#
# _framework density 19.812597
#
# number of rings (size 3 to 8) (size 9 to 14) (size 15 to 20)
#    0.000    2.125    0.000    4.500    0.000    5.750 
#    0.000    3.125    0.000    8.250    0.000    0.000 
#    0.000    0.000    0.000    0.000    0.000    0.000 
#
# Total GULP energy -396861.168102 kJ/mol
# GULP energy per Si atom -12401.911503 kJ/mol
# Density = 1.976750 g / cm^3
# Si number density = 19.812597 Si / 1000 Ang^3
#
#
#
# Elastic Constant Matrix: (Units=GPa)
#
#
# Indices 1 2 3 4 5 6 
#
# 1 110.6882 30.9509 54.6879 0.0000 23.9531 0.0000
# 2 30.9509 27.6515 16.1862 0.0000 -3.0158 0.0000
# 3 54.6879 16.1862 105.2316 0.0000 12.9211 0.0000
# 4 0.0000 0.0000 0.0000 26.0259 0.0000 1.4614
# 5 23.9531 -3.0158 12.9211 0.0000 30.1032 0.0000
# 6 0.0000 0.0000 0.0000 1.4614 0.0000 25.1517
#
#
#
# Elastic Compliance Matrix: (Units=1/GPa)
#
#
# Indices 1 2 3 4 5 6 
#
# 1 0.022254 -0.023426 -0.005805 0.000000 -0.017562 0.000000
# 2 -0.023426 0.065840 -0.001110 0.000000 0.025713 0.000000
# 3 -0.005805 -0.001110 0.012812 0.000000 -0.000991 0.000000
# 4 0.000000 0.000000 0.000000 0.038549 0.000000 -0.002240
# 5 -0.017562 0.025713 -0.000991 0.000000 0.050195 0.000000
# 6 0.000000 0.000000 0.000000 -0.002240 0.000000 0.039889
#
#
# Mechanical properties :
#
#
# Convention : Reuss Voigt Hill
#
# Bulk Modulus (GPa) = 24.86147 49.69125 37.27636
# Shear Modulus (GPa) = 16.46748 25.70593 21.08670
#
# Velocity S-wave (km/s) = 2.88612 3.60593 3.26591
# Velocity P-wave (km/s) = 4.86639 6.51706 5.75125
#
# Compressibility (1/GPa) = 0.04022289
#
# Stress axis : x y z
#
# Youngs Moduli (GPa) = 44.93660 15.18837 78.05037
#
# Poissons Ratio (x) = 0.35580 0.45310
# Poissons Ratio (y) = 1.05269 0.08664
# Poissons Ratio (z) = 0.26087 0.01686
#
# Static dielectric constant tensor:
#      x y z
#    x 3.752690 0.000000 0.004860 
#    y 0.000000 3.330900 0.000000 
#    z 0.004860 0.000000 3.830020 
# 
# 
# High freq. dielectric constant tensor:
#      x y z
#    x 1.773410 0.000000 0.002670 
#    y 0.000000 1.746510 0.000000 
#    z 0.002670 0.000000 1.787140 
# 
# From -- ./inp_files/314175.got.cif
#   From: 2010.06.25/outbox.cif.g09.slc.cpg/sg12_158_cif.got.tgz:314175.got - 2010.06.28 00:19:55.
