data_PCOD8101691
_publ_section_title
;
Structure prediction by ZEFSAII (Michael W. Deem and Ramdas Pophale) SiO2 
 PCOD8101691
Probable space group: C 2/M
;
_chemical_formula_sum "Si O2"
_cell_formula_units_Z 40
_cell_length_a 25.946320
_cell_length_b 15.701124
_cell_length_c 8.940398
_cell_angle_alpha 90.000000
_cell_angle_beta 29.780237
_cell_angle_gamma 90.000000
_cell_volume 1808.986512
_symmetry_space_group_name_H-M "C 2/M"
_symmetry_group_IT_number 12
_symmetry_cell_setting 'monoclinic'
loop_
_space_group_symop_operation_xyz
x,y,z
-x,y,-z
-x,-y,-z
x,-y,z
1/2+x,1/2+y,z
1/2-x,1/2+y,-z
1/2-x,1/2-y,-z
1/2+x,1/2-y,z
loop_
_atom_site_type_symbol
_atom_site_label
_atom_site_fract_x
_atom_site_fract_y
_atom_site_fract_z
Si Si1 0.403810 0.901873 0.830011
Si Si2 0.396132 0.898039 0.182505
Si Si3 0.808442 0.901915 0.147543
Si Si4 0.487222 0.599895 0.207019
Si Si5 0.788707 0.843799 0.867204
O O1 0.500000 0.857706 0.500000
O O2 0.431321 0.000000 0.785094
O O3 0.392056 0.860950 0.024074
O O4 0.299658 0.894026 0.998312
O O5 0.296547 0.860079 0.521402
O O6 0.394537 0.000000 0.189934
O O7 0.500000 0.863292 0.000000
O O8 0.806892 0.000000 0.195781
O O9 0.814063 0.891590 0.956441
O O10 0.910881 0.863054 0.966544
O O11 0.467703 0.500000 0.291286
O O12 0.390989 0.655479 0.507919
O O13 0.500000 0.615882 0.000000
O O14 0.750000 0.750000 0.000000
#
# Coordination Sequence:
#
# PCOD8101691 Si02
#       5
#     8   8   8   8   8
#     4  10  20  36  59  84 112 151 199 247 293 350
#     4   9  17  32  57  89 119 146 188 248 307 358
#     4  10  20  37  63  90 115 151 202 257 306 356
#     4  10  21  41  69  94 117 153 207 264 307 352
#     4  12  25  39  56  85 125 163 195 240 304 370
#
# _framework density 22.111829
#
# number of rings (size 3 to 8) (size 9 to 14) (size 15 to 20)
#    0.000    1.800    0.000    4.800    0.000    9.600 
#    0.000    7.000    0.000    0.000    0.000    0.000 
#    0.000    0.000    0.000    0.000    0.000    0.000 
#
# Total GULP energy -248036.976296 kJ/mol
# GULP energy per Si atom -12401.848815 kJ/mol
# Density = 2.206150 g / cm^3
# Si number density = 22.111829 Si / 1000 Ang^3
#
#
#
# Elastic Constant Matrix: (Units=GPa)
#
#
# Indices 1 2 3 4 5 6 
#
# 1 197.2665 -0.8218 88.3897 0.0000 -6.8683 0.0000
# 2 -0.8218 30.0014 24.3428 0.0000 1.5263 0.0000
# 3 88.3897 24.3428 217.9551 0.0000 -6.3660 0.0000
# 4 0.0000 0.0000 0.0000 22.1432 0.0000 -1.0008
# 5 -6.8683 1.5263 -6.3660 0.0000 49.8841 0.0000
# 6 0.0000 0.0000 0.0000 -1.0008 0.0000 -1.9239
#
#
#
# Elastic Compliance Matrix: (Units=1/GPa)
#
#
# Indices 1 2 3 4 5 6 
#
# 1 0.006370 0.002461 -0.002845 0.000000 0.000439 0.000000
# 2 0.002461 0.037740 -0.005256 0.000000 -0.001487 0.000000
# 3 -0.002845 -0.005256 0.006346 0.000000 0.000579 0.000000
# 4 0.000000 0.000000 0.000000 0.044123 0.000000 -0.022952
# 5 0.000439 -0.001487 0.000579 0.000000 0.020226 0.000000
# 6 0.000000 0.000000 0.000000 -0.022952 0.000000 -0.507826
#
#
# Mechanical properties :
#
#
# Convention : Reuss Voigt Hill
#
# Bulk Modulus (GPa) = 25.52737 74.33827 49.93282
# Shear Modulus (GPa) = -13.56184 36.24149 11.33982
#
# Velocity S-wave (km/s) = -2.47924 4.05286 2.26705
# Velocity P-wave (km/s) = 1.83691 7.45608 5.42989
#
# Compressibility (1/GPa) = 0.03917365
#
# Stress axis : x y z
#
# Youngs Moduli (GPa) = 156.99446 26.49721 157.58158
#
# Poissons Ratio (x) = -0.06520 0.44835
# Poissons Ratio (y) = -0.38632 0.82831
# Poissons Ratio (z) = 0.44668 0.13928
#
# Static dielectric constant tensor:
#      x y z
#    x 4.307150 0.000000 0.016480 
#    y 0.000000 3.416230 0.000000 
#    z 0.016480 0.000000 4.308820 
# 
# 
# High freq. dielectric constant tensor:
#      x y z
#    x 1.887770 0.000000 -0.000140 
#    y 0.000000 1.821680 0.000000 
#    z -0.000140 0.000000 1.890570 
# 
# From -- ./inp_files/47147.got.cif
#   From: 2010.06.25/outbox.cif.g09.slc.cpg/sg12_24_cif.got.tgz:47147.got - 2010.06.28 00:19:55.
