data_PCOD8101346
_publ_section_title
;
Structure prediction by ZEFSAII (Michael W. Deem and Ramdas Pophale) SiO2 
 PCOD8101346
Probable space group: C 2/M
;
_chemical_formula_sum "Si O2"
_cell_formula_units_Z 48
_cell_length_a 20.469993
_cell_length_b 8.661177
_cell_length_c 14.246666
_cell_angle_alpha 90.000000
_cell_angle_beta 89.786674
_cell_angle_gamma 90.000000
_cell_volume 2525.834208
_symmetry_space_group_name_H-M "C 2/M"
_symmetry_group_IT_number 12
_symmetry_cell_setting 'monoclinic'
loop_
_space_group_symop_operation_xyz
x,y,z
-x,y,-z
-x,-y,-z
x,-y,z
1/2+x,1/2+y,z
1/2-x,1/2+y,-z
1/2-x,1/2-y,-z
1/2+x,1/2-y,z
loop_
_atom_site_type_symbol
_atom_site_label
_atom_site_fract_x
_atom_site_fract_y
_atom_site_fract_z
Si Si1 0.503392 0.822308 0.610149
Si Si2 0.426366 0.682877 0.101495
Si Si3 0.879576 0.819448 0.702751
Si Si4 0.757143 0.319372 0.602160
Si Si5 0.627144 0.317006 0.704533
Si Si6 0.427106 0.316738 0.897121
O O1 0.500000 0.797223 0.500000
O O2 0.450041 0.713526 0.658448
O O3 0.574799 0.770849 0.641909
O O4 0.490672 0.000000 0.637703
O O5 0.429600 0.500000 0.099102
O O6 0.379623 0.737155 0.186545
O O7 0.499413 0.748354 0.118379
O O8 0.400241 0.740868 0.999204
O O9 0.824984 0.726395 0.648278
O O10 0.880876 0.762024 0.811772
O O11 0.864232 0.000000 0.694389
O O12 0.755409 0.500000 0.589439
O O13 0.750000 0.250000 0.500000
O O14 0.698214 0.263620 0.669243
O O15 0.616441 0.500000 0.693995
O O16 0.430761 0.500000 0.894286
#
# Coordination Sequence:
#
# PCOD8101346 Si02
#       6
#     8   8   8   8   8   8
#     4  11  23  36  53  79 110 141 179 231 282 326
#     4   8  13  27  52  83 110 135 175 223 268 320
#     4  11  21  36  58  83 110 145 186 225 269 327
#     4  11  24  40  57  79 110 150 188 229 277 326
#     4  10  20  36  58  81 106 141 186 228 271 325
#     4   8  14  26  52  84 110 137 174 220 268 322
#
# _framework density 19.003623999999999
#
# number of rings (size 3 to 8) (size 9 to 14) (size 15 to 20)
#    0.000    2.167    1.667    3.500    0.000    5.333 
#    0.000    0.833    0.000    3.000    0.000    0.000 
#    0.000    0.000    0.000    0.000    0.000    0.000 
#
# Total GULP energy -297500.519258 kJ/mol
# GULP energy per Si atom -12395.854969 kJ/mol
# Density = 1.896037 g / cm^3
# Si number density = 19.003624 Si / 1000 Ang^3
#
#
#
# Elastic Constant Matrix: (Units=GPa)
#
#
# Indices 1 2 3 4 5 6 
#
# 1 66.7982 17.0904 36.9890 0.0000 1.9478 0.0000
# 2 17.0904 27.0898 29.3275 0.0000 -3.4928 0.0000
# 3 36.9890 29.3275 144.7817 0.0000 0.3604 0.0000
# 4 0.0000 0.0000 0.0000 16.1934 0.0000 -0.0236
# 5 1.9478 -3.4928 0.3604 0.0000 34.1794 0.0000
# 6 0.0000 0.0000 0.0000 -0.0236 0.0000 23.9146
#
#
#
# Elastic Compliance Matrix: (Units=1/GPa)
#
#
# Indices 1 2 3 4 5 6 
#
# 1 0.018999 -0.008954 -0.003035 0.000000 -0.001966 0.000000
# 2 -0.008954 0.052349 -0.008331 0.000000 0.005948 0.000000
# 3 -0.003035 -0.008331 0.009372 0.000000 -0.000777 0.000000
# 4 0.000000 0.000000 0.000000 0.061754 0.000000 0.000061
# 5 -0.001966 0.005948 -0.000777 0.000000 0.029985 0.000000
# 6 0.000000 0.000000 0.000000 0.000061 0.000000 0.041815
#
#
# Mechanical properties :
#
#
# Convention : Reuss Voigt Hill
#
# Bulk Modulus (GPa) = 24.95013 45.05373 35.00193
# Shear Modulus (GPa) = 18.63751 25.20833 21.92292
#
# Velocity S-wave (km/s) = 3.13507 3.64607 3.40018
# Velocity P-wave (km/s) = 5.12469 6.44085 5.82009
#
# Compressibility (1/GPa) = 0.04007995
#
# Stress axis : x y z
#
# Youngs Moduli (GPa) = 52.63326 19.10242 106.70053
#
# Poissons Ratio (x) = 0.17104 0.32388
# Poissons Ratio (y) = 0.47126 0.88897
# Poissons Ratio (z) = 0.15976 0.15915
#
# Static dielectric constant tensor:
#      x y z
#    x 3.414820 0.000000 0.015140 
#    y 0.000000 3.192390 0.000000 
#    z 0.015140 0.000000 4.248350 
# 
# 
# High freq. dielectric constant tensor:
#      x y z
#    x 1.718980 0.000000 0.000240 
#    y 0.000000 1.710250 0.000000 
#    z 0.000240 0.000000 1.764060 
# 
# From -- ./inp_files/221728.got.cif
#   From: 2010.06.25/outbox.cif.g09.slc.cpg/sg12_111_cif.got.tgz:221728.got - 2010.06.28 00:19:55.
