data_PCOD8101353
_publ_section_title
;
Structure prediction by ZEFSAII (Michael W. Deem and Ramdas Pophale) SiO2 
 PCOD8101353
Probable space group: C 2/M
;
_chemical_formula_sum "Si O2"
_cell_formula_units_Z 64
_cell_length_a 18.685210
_cell_length_b 9.384384
_cell_length_c 29.950766
_cell_angle_alpha 90.000000
_cell_angle_beta 38.931268
_cell_angle_gamma 90.000000
_cell_volume 3300.193052
_symmetry_space_group_name_H-M "C 2/M"
_symmetry_group_IT_number 12
_symmetry_cell_setting 'monoclinic'
loop_
_space_group_symop_operation_xyz
x,y,z
-x,y,-z
-x,-y,-z
x,-y,z
1/2+x,1/2+y,z
1/2-x,1/2+y,-z
1/2-x,1/2-y,-z
1/2+x,1/2-y,z
loop_
_atom_site_type_symbol
_atom_site_label
_atom_site_fract_x
_atom_site_fract_y
_atom_site_fract_z
Si Si1 0.587701 0.836596 0.920874
Si Si2 0.554243 0.833586 0.698699
Si Si3 0.437713 0.838192 0.167482
Si Si4 0.702024 0.669319 0.699014
Si Si5 0.314087 0.840676 0.933062
Si Si6 0.132788 0.333489 0.560609
Si Si7 0.036902 0.668452 0.434181
Si Si8 0.298248 0.837276 0.840738
O O1 0.533363 0.818332 0.898594
O O2 0.707632 0.756519 0.858429
O O3 0.612814 0.000000 0.921236
O O4 0.500000 0.771303 0.000000
O O5 0.641001 0.743018 0.686569
O O6 0.579151 0.804920 0.634923
O O7 0.425552 0.780871 0.770119
O O8 0.567449 0.000000 0.705102
O O9 0.345946 0.727194 0.230726
O O10 0.553710 0.801037 0.136893
O O11 0.396885 0.000000 0.197118
O O12 0.685317 0.500000 0.703627
O O13 0.833539 0.714606 0.636530
O O14 0.260302 0.821845 0.910590
O O15 0.303365 0.000000 0.956335
O O16 0.250000 0.750000 0.000000
O O17 0.157772 0.500000 0.541050
O O18 0.250000 0.250000 0.500000
O O19 0.044818 0.274167 0.565807
O O20 0.026122 0.500000 0.440307
O O21 0.000000 0.732830 0.500000
O O22 0.289243 0.000000 0.828645
#
# Coordination Sequence:
#
# PCOD8101353 Si02
#       8
#     8   8   8   8   8   8   8   8
#     4  10  22  39  59  82 112 152 193 239 294 347
#     4  10  21  39  60  82 117 159 192 234 295 347
#     4  10  21  39  58  80 117 157 187 232 297 350
#     4  11  22  36  61  90 114 149 197 244 283 337
#     4  10  20  36  58  81 108 147 191 236 289 343
#     4  10  21  38  62  88 118 157 193 232 284 341
#     4   9  19  36  58  86 119 151 185 232 285 330
#     4  10  21  37  58  82 112 151 192 237 289 344
#
# _framework density 19.392804000000002
#
# number of rings (size 3 to 8) (size 9 to 14) (size 15 to 20)
#    0.000    2.000    1.250    1.875    1.750    4.750 
#    0.000    1.250    0.000    3.375    0.000    0.000 
#    0.000    0.000    0.000    0.000    0.000    0.000 
#
# Total GULP energy -396802.772749 kJ/mol
# GULP energy per Si atom -12400.086648 kJ/mol
# Density = 1.934867 g / cm^3
# Si number density = 19.392804 Si / 1000 Ang^3
#
#
#
# Elastic Constant Matrix: (Units=GPa)
#
#
# Indices 1 2 3 4 5 6 
#
# 1 109.6384 36.9284 41.6084 0.0001 -2.0288 0.0002
# 2 36.9284 60.7453 45.7987 0.0003 -7.2009 0.0006
# 3 41.6084 45.7987 113.2355 -0.0001 7.1672 -0.0002
# 4 0.0001 0.0003 -0.0001 33.9004 0.0000 -3.1155
# 5 -2.0288 -7.2009 7.1672 0.0000 31.7799 0.0003
# 6 0.0002 0.0006 -0.0002 -3.1155 0.0003 28.3889
#
#
#
# Elastic Compliance Matrix: (Units=1/GPa)
#
#
# Indices 1 2 3 4 5 6 
#
# 1 0.011795 -0.005629 -0.002054 0.000000 -0.000059 0.000000
# 2 -0.005629 0.028350 -0.009923 0.000000 0.008302 -0.000001
# 3 -0.002054 -0.009923 0.013949 0.000000 -0.005525 0.000000
# 4 0.000000 0.000000 0.000000 0.029799 0.000000 0.003270
# 5 -0.000059 0.008302 -0.005525 0.000000 0.034590 -0.000001
# 6 0.000000 -0.000001 0.000000 0.003270 -0.000001 0.035584
#
#
# Mechanical properties :
#
#
# Convention : Reuss Voigt Hill
#
# Bulk Modulus (GPa) = 52.96078 59.14335 56.05206
# Shear Modulus (GPa) = 25.56580 29.43276 27.49928
#
# Velocity S-wave (km/s) = 3.63480 3.90001 3.76974
# Velocity P-wave (km/s) = 6.70705 7.13049 6.92201
#
# Compressibility (1/GPa) = 0.01888190
#
# Stress axis : x y z
#
# Youngs Moduli (GPa) = 84.78020 35.27302 71.68939
#
# Poissons Ratio (x) = 0.19856 0.14722
# Poissons Ratio (y) = 0.47725 0.71140
# Poissons Ratio (z) = 0.17410 0.35003
#
# Static dielectric constant tensor:
#      x y z
#    x 3.672890 0.000000 0.048100 
#    y 0.000000 3.389280 0.000000 
#    z 0.048100 0.000000 3.578950 
# 
# 
# High freq. dielectric constant tensor:
#      x y z
#    x 1.765860 0.000000 0.004480 
#    y 0.000000 1.732700 0.000000 
#    z 0.004480 0.000000 1.765230 
# 
# From -- ./inp_files/378239.got.cif
#   From: 2010.06.25/outbox.cif.g09.slc.cpg/sg12_190_cif.got.tgz:378239.got - 2010.06.28 00:19:55.
