data_PCOD8101469
_publ_section_title
;
Structure prediction by ZEFSAII (Michael W. Deem and Ramdas Pophale) SiO2 
 PCOD8101469
Probable space group: C 2/M
;
_chemical_formula_sum "Si O2"
_cell_formula_units_Z 56
_cell_length_a 21.097383
_cell_length_b 8.924563
_cell_length_c 15.061804
_cell_angle_alpha 90.000000
_cell_angle_beta 91.898823
_cell_angle_gamma 90.000000
_cell_volume 2834.353410
_symmetry_space_group_name_H-M "C 2/M"
_symmetry_group_IT_number 12
_symmetry_cell_setting 'monoclinic'
loop_
_space_group_symop_operation_xyz
x,y,z
-x,y,-z
-x,-y,-z
x,-y,z
1/2+x,1/2+y,z
1/2-x,1/2+y,-z
1/2-x,1/2-y,-z
1/2+x,1/2-y,z
loop_
_atom_site_type_symbol
_atom_site_label
_atom_site_fract_x
_atom_site_fract_y
_atom_site_fract_z
Si Si1 0.815064 0.176552 0.971967
Si Si2 0.466442 0.676624 0.409361
Si Si3 0.439902 0.824333 0.055061
Si Si4 0.336295 0.825756 0.432292
Si Si5 0.713238 0.827064 0.379778
Si Si6 0.504623 0.830173 0.236608
Si Si7 0.854192 0.670109 0.803193
O O1 0.821978 0.214619 0.868623
O O2 0.811227 0.000000 0.986154
O O3 0.750000 0.250000 0.000000
O O4 0.875558 0.239035 0.027906
O O5 0.500000 0.741369 0.500000
O O6 0.464208 0.500000 0.414155
O O7 0.396041 0.738688 0.397687
O O8 0.503125 0.723849 0.322046
O O9 0.451607 0.792309 0.160250
O O10 0.429703 0.000000 0.035705
O O11 0.500000 0.766369 0.000000
O O12 0.326349 0.783412 0.534698
O O13 0.275558 0.773963 0.373272
O O14 0.347701 0.000000 0.417746
O O15 0.668108 0.789733 0.296269
O O16 0.734244 0.000000 0.384946
O O17 0.570673 0.809629 0.188536
O O18 0.497134 0.000000 0.270902
O O19 0.835027 0.500000 0.827841
#
# Coordination Sequence:
#
# PCOD8101469 Si02
#       7
#     8   8   8   8   8   8   8
#     4  12  26  42  63  91 125 162 204 254 309 367
#     4  11  24  39  56  83 122 160 197 248 301 348
#     4  10  20  41  69  93 123 160 200 252 311 373
#     4  10  20  36  58  83 114 154 199 243 294 357
#     4   9  19  35  59  86 115 152 194 243 297 358
#     4  10  21  38  65  93 118 157 202 246 300 366
#     4  10  20  39  63  88 118 154 198 245 303 365
#
# _framework density 19.757591999999999
#
# number of rings (size 3 to 8) (size 9 to 14) (size 15 to 20)
#    0.000    1.714    1.429    3.000    0.000    6.000 
#    0.000    0.000    0.000    0.000    0.000    0.000 
#    0.000    0.000    0.000    0.000    0.000    0.000 
#
# Total GULP energy -347293.290854 kJ/mol
# GULP energy per Si atom -12403.331816 kJ/mol
# Density = 1.971262 g / cm^3
# Si number density = 19.757592 Si / 1000 Ang^3
#
#
#
# Elastic Constant Matrix: (Units=GPa)
#
#
# Indices 1 2 3 4 5 6 
#
# 1 108.8424 47.4856 37.0820 0.0000 4.0625 0.0000
# 2 47.4856 87.5233 34.5969 0.0000 1.5488 0.0000
# 3 37.0820 34.5969 80.1660 0.0000 8.1052 0.0000
# 4 0.0000 0.0000 0.0000 33.4478 0.0000 0.0795
# 5 4.0625 1.5488 8.1052 0.0000 30.0427 0.0000
# 6 0.0000 0.0000 0.0000 0.0795 0.0000 31.0235
#
#
#
# Elastic Compliance Matrix: (Units=1/GPa)
#
#
# Indices 1 2 3 4 5 6 
#
# 1 0.012822 -0.005574 -0.003474 0.000000 -0.000509 0.000000
# 2 -0.005574 0.016224 -0.004539 0.000000 0.001142 0.000000
# 3 -0.003474 -0.004539 0.016416 0.000000 -0.003725 0.000000
# 4 0.000000 0.000000 0.000000 0.029898 0.000000 -0.000077
# 5 -0.000509 0.001142 -0.003725 0.000000 0.034301 0.000000
# 6 0.000000 0.000000 0.000000 -0.000077 0.000000 0.032234
#
#
# Mechanical properties :
#
#
# Convention : Reuss Voigt Hill
#
# Bulk Modulus (GPa) = 54.67894 57.20674 55.94284
# Shear Modulus (GPa) = 28.54464 29.39395 28.96929
#
# Velocity S-wave (km/s) = 3.80510 3.86129 3.83330
# Velocity P-wave (km/s) = 6.85857 6.99261 6.92592
#
# Compressibility (1/GPa) = 0.01828858
#
# Stress axis : x y z
#
# Youngs Moduli (GPa) = 77.99015 61.63806 60.91509
#
# Poissons Ratio (x) = 0.34360 0.21161
# Poissons Ratio (y) = 0.43475 0.27646
# Poissons Ratio (z) = 0.27093 0.27974
#
# Static dielectric constant tensor:
#      x y z
#    x 3.609880 0.000000 0.100120 
#    y 0.000000 3.548530 0.000000 
#    z 0.100120 0.000000 3.627330 
# 
# 
# High freq. dielectric constant tensor:
#      x y z
#    x 1.774890 0.000000 0.007640 
#    y 0.000000 1.761920 0.000000 
#    z 0.007640 0.000000 1.776420 
# 
# From -- ./inp_files/231052.got.cif
#   From: 2010.06.25/outbox.cif.g09.slc.cpg/sg12_116_cif.got.tgz:231052.got - 2010.06.28 00:19:55.
