data_PCOD8101796
_publ_section_title
;
Structure prediction by ZEFSAII (Michael W. Deem and Ramdas Pophale) SiO2 
 PCOD8101796
Probable space group: C 2/M
;
_chemical_formula_sum "Si O2"
_cell_formula_units_Z 64
_cell_length_a 18.671523
_cell_length_b 8.959089
_cell_length_c 30.109207
_cell_angle_alpha 90.000000
_cell_angle_beta 39.192434
_cell_angle_gamma 90.000000
_cell_volume 3182.803299
_symmetry_space_group_name_H-M "C 2/M"
_symmetry_group_IT_number 12
_symmetry_cell_setting 'monoclinic'
loop_
_space_group_symop_operation_xyz
x,y,z
-x,y,-z
-x,-y,-z
x,-y,z
1/2+x,1/2+y,z
1/2-x,1/2+y,-z
1/2-x,1/2-y,-z
1/2+x,1/2-y,z
loop_
_atom_site_type_symbol
_atom_site_label
_atom_site_fract_x
_atom_site_fract_y
_atom_site_fract_z
Si Si1 0.544958 0.826975 0.304549
Si Si2 0.676883 0.675545 0.073736
Si Si3 0.545704 0.168929 0.841693
Si Si4 0.786235 0.323424 0.436911
Si Si5 0.792052 0.327990 0.850825
Si Si6 0.702366 0.676932 0.301072
Si Si7 0.372437 0.677485 0.566614
Si Si8 0.584783 0.831515 0.921697
O O1 0.414902 0.775662 0.364923
O O2 0.594079 0.795480 0.231736
O O3 0.610614 0.737944 0.310858
O O4 0.557135 0.000000 0.310892
O O5 0.686715 0.500000 0.063083
O O6 0.546086 0.725702 0.136965
O O7 0.723715 0.724008 0.098873
O O8 0.750000 0.750000 0.000000
O O9 0.671122 0.231515 0.771505
O O10 0.519564 0.171922 0.906515
O O11 0.532542 0.000000 0.829311
O O12 0.773728 0.500000 0.447421
O O13 0.750000 0.250000 0.500000
O O14 0.706508 0.262170 0.435438
O O15 0.784509 0.500000 0.868864
O O16 0.688877 0.282866 0.868245
O O17 0.695439 0.500000 0.301093
O O18 0.674914 0.735722 0.363626
O O19 0.500000 0.739487 0.500000
O O20 0.372063 0.500000 0.566048
O O21 0.627614 0.000000 0.911232
O O22 0.500000 0.773707 0.000000
#
# Coordination Sequence:
#
# PCOD8101796 Si02
#       8
#     8   8   8   8   8   8   8   8
#     4  10  22  38  59  87 123 161 195 245 305 357
#     4  12  26  43  63  87 119 158 203 254 308 365
#     4  10  21  37  59  88 120 156 200 246 300 360
#     4  10  21  38  60  87 120 158 200 247 301 355
#     4  11  23  39  61  88 120 159 202 247 300 362
#     4  10  20  36  62  88 116 158 201 244 291 353
#     4   9  18  33  57  88 117 152 198 243 287 344
#     4  10  20  36  59  86 117 153 194 244 298 351
#
# _framework density 20.108059999999998
#
# number of rings (size 3 to 8) (size 9 to 14) (size 15 to 20)
#    0.000    1.750    1.250    3.000    1.750    4.250 
#    0.000    0.625    0.000    2.250    0.000    0.000 
#    0.000    0.000    0.000    0.000    0.000    0.000 
#
# Total GULP energy -396873.045244 kJ/mol
# GULP energy per Si atom -12402.282664 kJ/mol
# Density = 2.006229 g / cm^3
# Si number density = 20.108060 Si / 1000 Ang^3
#
#
#
# Elastic Constant Matrix: (Units=GPa)
#
#
# Indices 1 2 3 4 5 6 
#
# 1 110.0696 35.2337 38.4648 0.0005 -2.5270 0.0011
# 2 35.2337 67.5691 34.6033 0.0016 -2.1688 0.0000
# 3 38.4648 34.6033 119.2464 -0.0001 0.0289 -0.0002
# 4 0.0005 0.0016 -0.0001 25.6394 0.0001 -1.5694
# 5 -2.5270 -2.1688 0.0289 0.0001 40.2499 0.0003
# 6 0.0011 0.0000 -0.0002 -1.5694 0.0003 33.7439
#
#
#
# Elastic Compliance Matrix: (Units=1/GPa)
#
#
# Indices 1 2 3 4 5 6 
#
# 1 0.011425 -0.004763 -0.002303 0.000000 0.000462 0.000000
# 2 -0.004763 0.019404 -0.004095 -0.000001 0.000749 0.000000
# 3 -0.002303 -0.004095 0.010317 0.000000 -0.000373 0.000000
# 4 0.000000 -0.000001 0.000000 0.039114 0.000000 0.001819
# 5 0.000462 0.000749 -0.000373 0.000000 0.024914 0.000000
# 6 0.000000 0.000000 0.000000 0.001819 0.000000 0.029720
#
#
# Mechanical properties :
#
#
# Convention : Reuss Voigt Hill
#
# Bulk Modulus (GPa) = 53.12172 57.05431 55.08801
# Shear Modulus (GPa) = 30.58247 32.49886 31.54067
#
# Velocity S-wave (km/s) = 3.90411 4.02457 3.96480
# Velocity P-wave (km/s) = 6.84092 7.07331 6.95809
#
# Compressibility (1/GPa) = 0.01882469
#
# Stress axis : x y z
#
# Youngs Moduli (GPa) = 87.52373 51.53462 96.92531
#
# Poissons Ratio (x) = 0.24548 0.22325
# Poissons Ratio (y) = 0.41691 0.39686
# Poissons Ratio (z) = 0.20160 0.21101
#
# Static dielectric constant tensor:
#      x y z
#    x 3.699880 0.000000 -0.036660 
#    y 0.000000 3.411710 0.000000 
#    z -0.036660 0.000000 3.910590 
# 
# 
# High freq. dielectric constant tensor:
#      x y z
#    x 1.793310 0.000000 0.000350 
#    y 0.000000 1.759090 0.000000 
#    z 0.000350 0.000000 1.800410 
# 
# From -- ./inp_files/378229.got.cif
#   From: 2010.06.25/outbox.cif.g09.slc.cpg/sg12_190_cif.got.tgz:378229.got - 2010.06.28 00:19:55.
