data_PCOD8102534
_publ_section_title
;
Structure prediction by ZEFSAII (Michael W. Deem and Ramdas Pophale) SiO2 
 PCOD8102534
Probable space group: C 2/M
;
_chemical_formula_sum "Si O2"
_cell_formula_units_Z 56
_cell_length_a 14.636892
_cell_length_b 24.773007
_cell_length_c 11.632665
_cell_angle_alpha 90.000000
_cell_angle_beta 138.577027
_cell_angle_gamma 90.000000
_cell_volume 2790.683371
_symmetry_space_group_name_H-M "C 2/M"
_symmetry_group_IT_number 12
_symmetry_cell_setting 'monoclinic'
loop_
_space_group_symop_operation_xyz
x,y,z
-x,y,-z
-x,-y,-z
x,-y,z
1/2+x,1/2+y,z
1/2-x,1/2+y,-z
1/2-x,1/2-y,-z
1/2+x,1/2-y,z
loop_
_atom_site_type_symbol
_atom_site_label
_atom_site_fract_x
_atom_site_fract_y
_atom_site_fract_z
Si Si1 0.413347 0.359101 0.658710
Si Si2 0.139775 0.650339 0.507856
Si Si3 0.582563 0.561767 0.963310
Si Si4 0.804981 0.698364 0.987135
Si Si5 0.907977 0.262910 0.724479
Si Si6 0.854157 0.199448 0.387505
Si Si7 0.845266 0.622383 0.229585
O O1 0.267055 0.380518 0.568983
O O2 0.531127 0.400706 0.809153
O O3 0.443488 0.299507 0.738521
O O4 0.398613 0.352811 0.506540
O O5 0.110498 0.707542 0.416828
O O6 0.173413 0.660554 0.674709
O O7 0.008691 0.609455 0.372958
O O8 0.557384 0.500000 0.904961
O O9 0.500000 0.578006 0.000000
O O10 0.745883 0.570267 0.143962
O O11 0.707711 0.679855 0.791477
O O12 0.750000 0.750000 0.000000
O O13 0.794761 0.651066 0.067916
O O14 0.961459 0.709395 0.089167
O O15 0.765603 0.266544 0.661196
O O16 0.000000 0.231483 0.500000
#
# Coordination Sequence:
#
# PCOD8102534 Si02
#       7
#     8   8   8   8   8   8   8
#     4  11  22  40  57  83 119 160 199 243 296 347
#     4   9  19  35  58  85 116 155 186 233 291 362
#     4  11  23  40  61  86 115 152 202 258 308 349
#     4  11  23  34  54  83 117 160 197 236 285 350
#     4  10  22  37  54  84 123 162 196 231 288 362
#     4  11  22  36  54  82 121 158 206 236 280 355
#     4  10  20  37  56  82 118 149 192 239 295 351
#
# _framework density 20.066769000000001
#
# number of rings (size 3 to 8) (size 9 to 14) (size 15 to 20)
#    0.000    1.571    1.429    4.714    4.000    2.286 
#    0.000    2.143    0.000    3.857    0.000    0.000 
#    0.000   17.143    0.000    0.000    0.000    0.000 
#
# Total GULP energy -346918.510666 kJ/mol
# GULP energy per Si atom -12389.946810 kJ/mol
# Density = 2.002110 g / cm^3
# Si number density = 20.066769 Si / 1000 Ang^3
#
#
#
# Elastic Constant Matrix: (Units=GPa)
#
#
# Indices 1 2 3 4 5 6 
#
# 1 111.5867 21.6533 61.2311 0.0000 10.6411 0.0000
# 2 21.6533 67.0986 42.2765 0.0000 -1.0025 0.0000
# 3 61.2311 42.2765 154.3369 0.0000 -3.9297 0.0000
# 4 0.0000 0.0000 0.0000 24.5322 0.0000 1.9077
# 5 10.6411 -1.0025 -3.9297 0.0000 51.2079 0.0000
# 6 0.0000 0.0000 0.0000 1.9077 0.0000 15.1617
#
#
#
# Elastic Compliance Matrix: (Units=1/GPa)
#
#
# Indices 1 2 3 4 5 6 
#
# 1 0.011911 -0.001043 -0.004512 0.000000 -0.002842 0.000000
# 2 -0.001043 0.018104 -0.004539 0.000000 0.000223 0.000000
# 3 -0.004512 -0.004539 0.009553 0.000000 0.001582 0.000000
# 4 0.000000 0.000000 0.000000 0.041166 0.000000 -0.005180
# 5 -0.002842 0.000223 0.001582 0.000000 0.020245 0.000000
# 6 0.000000 0.000000 0.000000 -0.005180 0.000000 0.066607
#
#
# Mechanical properties :
#
#
# Convention : Reuss Voigt Hill
#
# Bulk Modulus (GPa) = 51.60462 64.81601 58.21032
# Shear Modulus (GPa) = 25.74212 32.03778 28.88995
#
# Velocity S-wave (km/s) = 3.58554 4.00003 3.79844
# Velocity P-wave (km/s) = 6.55086 7.32830 6.95046
#
# Compressibility (1/GPa) = 0.01937811
#
# Stress axis : x y z
#
# Youngs Moduli (GPa) = 83.95574 55.23773 104.67722
#
# Poissons Ratio (x) = 0.05763 0.47231
# Poissons Ratio (y) = 0.08759 0.47517
# Poissons Ratio (z) = 0.37882 0.25075
#
# Static dielectric constant tensor:
#      x y z
#    x 4.069850 0.000000 0.237900 
#    y 0.000000 2.841220 0.000000 
#    z 0.237900 0.000000 4.175640 
# 
# 
# High freq. dielectric constant tensor:
#      x y z
#    x 1.802580 0.000000 0.015980 
#    y 0.000000 1.703230 0.000000 
#    z 0.015980 0.000000 1.811150 
# 
# From -- ./inp_files/149491.got.cif
#   From: 2010.06.25/outbox.cif.g09.slc.cpg/sg12_75_cif.got.tgz:149491.got - 2010.06.28 00:19:55.
