data_PCOD8102538
_publ_section_title
;
Structure prediction by ZEFSAII (Michael W. Deem and Ramdas Pophale) SiO2 
 PCOD8102538
Probable space group: C 2/M
;
_chemical_formula_sum "Si O2"
_cell_formula_units_Z 48
_cell_length_a 14.044461
_cell_length_b 18.218166
_cell_length_c 9.565933
_cell_angle_alpha 90.000000
_cell_angle_beta 79.395333
_cell_angle_gamma 90.000000
_cell_volume 2405.777164
_symmetry_space_group_name_H-M "C 2/M"
_symmetry_group_IT_number 12
_symmetry_cell_setting 'monoclinic'
loop_
_space_group_symop_operation_xyz
x,y,z
-x,y,-z
-x,-y,-z
x,-y,z
1/2+x,1/2+y,z
1/2-x,1/2+y,-z
1/2-x,1/2-y,-z
1/2+x,1/2-y,z
loop_
_atom_site_type_symbol
_atom_site_label
_atom_site_fract_x
_atom_site_fract_y
_atom_site_fract_z
Si Si1 0.275615 0.158297 0.374784
Si Si2 0.406955 0.294464 0.431467
Si Si3 0.786420 0.587773 0.845229
Si Si4 0.605105 0.083167 0.455735
Si Si5 0.583373 0.333373 0.878093
Si Si6 0.319677 0.804950 0.061031
O O1 0.343017 0.223087 0.417458
O O2 0.166065 0.154167 0.461195
O O3 0.332313 0.087149 0.418549
O O4 0.268310 0.159815 0.210235
O O5 0.500000 0.275553 0.500000
O O6 0.441482 0.335812 0.280440
O O7 0.788588 0.500000 0.861566
O O8 0.834010 0.617934 0.689099
O O9 0.677260 0.617279 0.881850
O O10 0.847958 0.626735 0.953250
O O11 0.500000 0.122259 0.500000
O O12 0.586335 0.000000 0.418324
O O13 0.591842 0.246675 0.915667
O O14 0.500000 0.367082 0.000000
O O15 0.250000 0.750000 0.000000
#
# Coordination Sequence:
#
# PCOD8102538 Si02
#       6
#     8   8   8   8   8   8
#     4  10  20  37  56  84 116 150 189 242 288 343
#     4  10  21  33  57  87 115 147 192 238 292 341
#     4  10  21  39  60  84 119 156 197 244 293 356
#     4  10  21  38  61  84 111 152 197 241 292 349
#     4  10  21  37  58  87 122 155 191 242 291 354
#     4   9  21  36  56  83 116 153 193 237 292 344
#
# _framework density 19.951972000000001
#
# number of rings (size 3 to 8) (size 9 to 14) (size 15 to 20)
#    0.000    2.167    1.667    0.500    7.000    3.667 
#    0.000    0.000    0.000    4.500    0.000    0.000 
#    0.000    0.000    0.000    0.000    0.000    0.000 
#
# Total GULP energy -297376.655733 kJ/mol
# GULP energy per Si atom -12390.693989 kJ/mol
# Density = 1.990656 g / cm^3
# Si number density = 19.951972 Si / 1000 Ang^3
#
#
#
# Elastic Constant Matrix: (Units=GPa)
#
#
# Indices 1 2 3 4 5 6 
#
# 1 92.3175 17.3978 59.0651 0.0000 -13.8479 0.0000
# 2 17.3978 64.7227 33.0840 0.0000 0.1525 0.0000
# 3 59.0651 33.0840 170.4865 0.0000 -4.9862 0.0000
# 4 0.0000 0.0000 0.0000 24.4732 0.0000 5.7987
# 5 -13.8479 0.1525 -4.9862 0.0000 42.4899 0.0000
# 6 0.0000 0.0000 0.0000 5.7987 0.0000 20.9852
#
#
#
# Elastic Compliance Matrix: (Units=1/GPa)
#
#
# Indices 1 2 3 4 5 6 
#
# 1 0.014768 -0.001586 -0.004684 0.000000 0.004269 0.000000
# 2 -0.001586 0.017331 -0.002841 0.000000 -0.000912 0.000000
# 3 -0.004684 -0.002841 0.008023 0.000000 -0.000575 0.000000
# 4 0.000000 0.000000 0.000000 0.043724 0.000000 -0.012082
# 5 0.004269 -0.000912 -0.000575 0.000000 0.024862 0.000000
# 6 0.000000 0.000000 0.000000 -0.012082 0.000000 0.050991
#
#
# Mechanical properties :
#
#
# Convention : Reuss Voigt Hill
#
# Bulk Modulus (GPa) = 45.65844 60.73560 53.19702
# Shear Modulus (GPa) = 26.99503 32.12165 29.55834
#
# Velocity S-wave (km/s) = 3.68231 4.01677 3.85317
# Velocity P-wave (km/s) = 6.40414 7.21246 6.82029
#
# Compressibility (1/GPa) = 0.02190176
#
# Stress axis : x y z
#
# Youngs Moduli (GPa) = 67.71341 57.70054 124.64635
#
# Poissons Ratio (x) = 0.09149 0.58383
# Poissons Ratio (y) = 0.10737 0.35406
# Poissons Ratio (z) = 0.31716 0.16390
#
# Static dielectric constant tensor:
#      x y z
#    x 3.580080 0.000000 0.008350 
#    y 0.000000 3.527570 0.000000 
#    z 0.008350 0.000000 4.058630 
# 
# 
# High freq. dielectric constant tensor:
#      x y z
#    x 1.768900 0.000000 -0.002880 
#    y 0.000000 1.747520 0.000000 
#    z -0.002880 0.000000 1.795640 
# 
# From -- ./inp_files/63333.got.cif
#   From: 2010.06.25/outbox.cif.g09.slc.cpg/sg12_32_cif.got.tgz:63333.got - 2010.06.28 00:19:55.
