data_PCOD8102811
_publ_section_title
;
Structure prediction by ZEFSAII (Michael W. Deem and Ramdas Pophale) SiO2 
 PCOD8102811
Probable space group: C 2/M
;
_chemical_formula_sum "Si O2"
_cell_formula_units_Z 48
_cell_length_a 25.067746
_cell_length_b 8.757752
_cell_length_c 12.399580
_cell_angle_alpha 90.000000
_cell_angle_beta 108.815734
_cell_angle_gamma 90.000000
_cell_volume 2576.697196
_symmetry_space_group_name_H-M "C 2/M"
_symmetry_group_IT_number 12
_symmetry_cell_setting 'monoclinic'
loop_
_space_group_symop_operation_xyz
x,y,z
-x,y,-z
-x,-y,-z
x,-y,z
1/2+x,1/2+y,z
1/2-x,1/2+y,-z
1/2-x,1/2-y,-z
1/2+x,1/2-y,z
loop_
_atom_site_type_symbol
_atom_site_label
_atom_site_fract_x
_atom_site_fract_y
_atom_site_fract_z
Si Si1 0.691874 0.174388 0.229745
Si Si2 0.307474 0.678385 0.995143
Si Si3 0.318437 0.323890 0.369757
Si Si4 0.116304 0.320139 0.781811
Si Si5 0.998744 0.319588 0.619705
Si Si6 0.376308 0.821895 0.606707
O O1 0.682114 0.284141 0.122561
O O2 0.751858 0.204855 0.323964
O O3 0.643899 0.212583 0.285635
O O4 0.687383 0.000000 0.186631
O O5 0.302102 0.500000 0.008513
O O6 0.250000 0.750000 0.000000
O O7 0.360406 0.738189 0.097227
O O8 0.333288 0.500000 0.356438
O O9 0.346964 0.219024 0.298645
O O10 0.339526 0.277012 0.501007
O O11 0.119030 0.500000 0.802559
O O12 0.052467 0.260184 0.722192
O O13 0.003594 0.500000 0.612996
O O14 0.000000 0.248463 0.500000
O O15 0.941490 0.270614 0.642178
O O16 0.368907 0.000000 0.572202
#
# Coordination Sequence:
#
# PCOD8102811 Si02
#       6
#     8   8   8   8   8   8
#     4  10  22  38  57  83 116 153 193 233 282 339
#     4  12  24  39  60  84 114 149 189 234 282 338
#     4  11  21  33  53  85 121 150 185 235 287 344
#     4  11  21  36  60  86 113 147 189 238 284 330
#     4   9  17  33  58  86 112 144 193 237 276 330
#     4  10  20  37  59  83 115 154 193 236 280 334
#
# _framework density 18.628499999999999
#
# number of rings (size 3 to 8) (size 9 to 14) (size 15 to 20)
#    0.000    1.500    3.333    3.000    0.000    1.333 
#    0.000    3.333    0.000    5.000    0.000    0.000 
#    0.000    0.000    0.000    0.000    0.000    0.000 
#
# Total GULP energy -297689.048068 kJ/mol
# GULP energy per Si atom -12403.710336 kJ/mol
# Density = 1.858610 g / cm^3
# Si number density = 18.628500 Si / 1000 Ang^3
#
#
#
# Elastic Constant Matrix: (Units=GPa)
#
#
# Indices 1 2 3 4 5 6 
#
# 1 147.1186 39.5100 69.4450 0.0000 5.5468 0.0000
# 2 39.5100 82.6503 48.5889 0.0000 8.0060 0.0000
# 3 69.4450 48.5889 123.7674 0.0000 15.0940 0.0000
# 4 0.0000 0.0000 0.0000 33.4269 0.0000 0.1388
# 5 5.5468 8.0060 15.0940 0.0000 32.9758 0.0000
# 6 0.0000 0.0000 0.0000 0.1388 0.0000 20.8961
#
#
#
# Elastic Compliance Matrix: (Units=1/GPa)
#
#
# Indices 1 2 3 4 5 6 
#
# 1 0.009484 -0.001860 -0.004715 0.000000 0.001014 0.000000
# 2 -0.001860 0.016129 -0.005135 0.000000 -0.001252 0.000000
# 3 -0.004715 -0.005135 0.013231 0.000000 -0.004016 0.000000
# 4 0.000000 0.000000 0.000000 0.029917 0.000000 -0.000199
# 5 0.001014 -0.001252 -0.004016 0.000000 0.032297 0.000000
# 6 0.000000 0.000000 0.000000 -0.000199 0.000000 0.047857
#
#
# Mechanical properties :
#
#
# Convention : Reuss Voigt Hill
#
# Bulk Modulus (GPa) = 64.83861 74.29156 69.56509
# Shear Modulus (GPa) = 28.17265 30.52593 29.34929
#
# Velocity S-wave (km/s) = 3.89310 4.05244 3.97357
# Velocity P-wave (km/s) = 7.42227 7.86534 7.64701
#
# Compressibility (1/GPa) = 0.01542291
#
# Stress axis : x y z
#
# Youngs Moduli (GPa) = 105.43880 62.00103 75.57970
#
# Poissons Ratio (x) = 0.11534 0.35635
# Poissons Ratio (y) = 0.19614 0.38813
# Poissons Ratio (z) = 0.49714 0.31840
#
# Static dielectric constant tensor:
#      x y z
#    x 3.579120 0.000000 0.160320 
#    y 0.000000 3.335160 0.000000 
#    z 0.160320 0.000000 3.514770 
# 
# 
# High freq. dielectric constant tensor:
#      x y z
#    x 1.724510 0.000000 0.005470 
#    y 0.000000 1.711770 0.000000 
#    z 0.005470 0.000000 1.724280 
# 
# From -- ./inp_files/172885.got.cif
#   From: 2010.06.25/outbox.cif.g09.slc.cpg/sg12_87_cif.got.tgz:172885.got - 2010.06.28 00:19:55.
