data_PCOD8102790
_publ_section_title
;
Structure prediction by ZEFSAII (Michael W. Deem and Ramdas Pophale) SiO2 
 PCOD8102790
Probable space group: C 2/M
;
_chemical_formula_sum "Si O2"
_cell_formula_units_Z 48
_cell_length_a 15.381721
_cell_length_b 8.596235
_cell_length_c 19.960425
_cell_angle_alpha 90.000000
_cell_angle_beta 68.700328
_cell_angle_gamma 90.000000
_cell_volume 2458.985507
_symmetry_space_group_name_H-M "C 2/M"
_symmetry_group_IT_number 12
_symmetry_cell_setting 'monoclinic'
loop_
_space_group_symop_operation_xyz
x,y,z
-x,y,-z
-x,-y,-z
x,-y,z
1/2+x,1/2+y,z
1/2-x,1/2+y,-z
1/2-x,1/2-y,-z
1/2+x,1/2-y,z
loop_
_atom_site_type_symbol
_atom_site_label
_atom_site_fract_x
_atom_site_fract_y
_atom_site_fract_z
Si Si1 0.202475 0.183561 0.078865
Si Si2 0.495464 0.816271 0.840855
Si Si3 0.252679 0.318605 0.333799
Si Si4 0.062017 0.683284 0.677963
Si Si5 0.317630 0.318130 0.168322
Si Si6 0.046914 0.685664 0.419275
O O1 0.249826 0.261037 0.129564
O O2 0.093742 0.226402 0.106430
O O3 0.215527 0.000000 0.078316
O O4 0.250000 0.250000 0.000000
O O5 0.514986 0.755970 0.759764
O O6 0.584004 0.772639 0.862282
O O7 0.477605 0.000000 0.848791
O O8 0.262345 0.500000 0.344996
O O9 0.330447 0.233240 0.356215
O O10 0.264521 0.280617 0.252183
O O11 0.152946 0.254412 0.385855
O O12 0.055962 0.500000 0.678286
O O13 0.008289 0.754251 0.629233
O O14 0.337914 0.500000 0.154273
O O15 0.044114 0.500000 0.418483
O O16 0.000000 0.750758 0.500000
#
# Coordination Sequence:
#
# PCOD8102790 Si02
#       6
#     8   8   8   8   8   8
#     4  12  25  40  58  83 113 146 181 219 269 325
#     4  10  20  37  59  83 110 142 183 229 275 323
#     4   9  18  33  54  78 104 137 178 223 268 315
#     4   9  18  33  54  78 104 137 178 223 268 315
#     4  10  20  37  59  83 110 142 183 229 275 323
#     4   9  17  30  49  74 106 145 182 215 261 321
#
# _framework density 19.520244999999999
#
# number of rings (size 3 to 8) (size 9 to 14) (size 15 to 20)
#    0.000    2.167    0.000    3.500    0.000    5.333 
#    0.000    4.167    0.000    1.000    0.000    0.000 
#    0.000    0.000    0.000    0.000    0.000    0.000 
#
# Total GULP energy -297662.675775 kJ/mol
# GULP energy per Si atom -12402.611491 kJ/mol
# Density = 1.947582 g / cm^3
# Si number density = 19.520245 Si / 1000 Ang^3
#
#
#
# Elastic Constant Matrix: (Units=GPa)
#
#
# Indices 1 2 3 4 5 6 
#
# 1 99.9067 10.9410 45.6084 0.0000 -29.1421 0.0000
# 2 10.9410 35.8531 22.8857 0.0000 0.1299 0.0000
# 3 45.6084 22.8857 84.4067 0.0000 -28.7234 0.0000
# 4 0.0000 0.0000 0.0000 18.7164 0.0000 -1.4763
# 5 -29.1421 0.1299 -28.7234 0.0000 24.4300 0.0000
# 6 0.0000 0.0000 0.0000 -1.4763 0.0000 36.3010
#
#
#
# Elastic Compliance Matrix: (Units=1/GPa)
#
#
# Indices 1 2 3 4 5 6 
#
# 1 0.016336 -0.003821 -0.001922 0.000000 0.017248 0.000000
# 2 -0.003821 0.040310 -0.017484 0.000000 -0.025330 0.000000
# 3 -0.001922 -0.017484 0.028135 0.000000 0.030880 0.000000
# 4 0.000000 0.000000 0.000000 0.053601 0.000000 0.002180
# 5 0.017248 -0.025330 0.030880 0.000000 0.097950 0.000000
# 6 0.000000 0.000000 0.000000 0.002180 0.000000 0.027636
#
#
# Mechanical properties :
#
#
# Convention : Reuss Voigt Hill
#
# Bulk Modulus (GPa) = 26.09145 42.11519 34.10332
# Shear Modulus (GPa) = 15.47041 25.27158 20.37100
#
# Velocity S-wave (km/s) = 2.81825 3.60201 3.23396
# Velocity P-wave (km/s) = 4.89749 6.23869 5.60833
#
# Compressibility (1/GPa) = 0.03832674
#
# Stress axis : x y z
#
# Youngs Moduli (GPa) = 61.21381 24.80769 35.54332
#
# Poissons Ratio (x) = 0.09479 0.06830
# Poissons Ratio (y) = 0.23391 0.62145
# Poissons Ratio (z) = 0.11762 0.43375
#
# Static dielectric constant tensor:
#      x y z
#    x 3.760480 0.000000 0.010320 
#    y 0.000000 3.375150 0.000000 
#    z 0.010320 0.000000 3.679270 
# 
# 
# High freq. dielectric constant tensor:
#      x y z
#    x 1.775760 0.000000 -0.002940 
#    y 0.000000 1.743710 0.000000 
#    z -0.002940 0.000000 1.755980 
# 
# From -- ./inp_files/308314.got.cif
#   From: 2010.06.25/outbox.cif.g09.slc.cpg/sg12_155_cif.got.tgz:308314.got - 2010.06.28 00:19:55.
