data_PCOD8102903
_publ_section_title
;
Structure prediction by ZEFSAII (Michael W. Deem and Ramdas Pophale) SiO2 
 PCOD8102903
Probable space group: C 2/M
;
_chemical_formula_sum "Si O2"
_cell_formula_units_Z 56
_cell_length_a 15.238405
_cell_length_b 23.142916
_cell_length_c 12.981767
_cell_angle_alpha 90.000000
_cell_angle_beta 38.742370
_cell_angle_gamma 90.000000
_cell_volume 2865.105174
_symmetry_space_group_name_H-M "C 2/M"
_symmetry_group_IT_number 12
_symmetry_cell_setting 'monoclinic'
loop_
_space_group_symop_operation_xyz
x,y,z
-x,y,-z
-x,-y,-z
x,-y,z
1/2+x,1/2+y,z
1/2-x,1/2+y,-z
1/2-x,1/2-y,-z
1/2+x,1/2-y,z
loop_
_atom_site_type_symbol
_atom_site_label
_atom_site_fract_x
_atom_site_fract_y
_atom_site_fract_z
Si Si1 0.024336 0.931559 0.685758
Si Si2 0.623073 0.431294 0.816203
Si Si3 0.477635 0.259622 0.404228
Si Si4 0.113275 0.563651 0.310256
Si Si5 0.014638 0.348766 0.231105
Si Si6 0.768031 0.859634 0.626703
Si Si7 0.713302 0.349768 0.152676
O O1 0.099391 0.909185 0.721917
O O2 0.124059 0.910798 0.501866
O O3 0.868812 0.904379 0.821197
O O4 0.006598 0.000000 0.699390
O O5 0.634515 0.500000 0.804098
O O6 0.759705 0.404585 0.745950
O O7 0.500000 0.408169 0.000000
O O8 0.500000 0.236980 0.500000
O O9 0.461318 0.205924 0.344018
O O10 0.337593 0.298837 0.528881
O O11 0.612003 0.294796 0.242134
O O12 0.157263 0.500000 0.227417
O O13 0.000000 0.554943 0.500000
O O14 0.058653 0.599854 0.265155
O O15 0.882921 0.369693 0.285241
O O16 0.146523 0.334152 0.038037
O O17 0.744716 0.864211 0.769418
#
# Coordination Sequence:
#
# PCOD8102903 Si02
#       7
#     8   8   8   8   8   8   8
#     4  10  20  37  60  80 106 152 194 221 266 331
#     4   9  17  31  51  76 106 137 173 220 268 312
#     4   9  20  39  59  80 107 143 185 225 273 332
#     4  10  21  35  51  78 114 144 174 220 276 329
#     4  12  21  35  60  84 110 145 183 224 277 333
#     4  10  22  38  56  81 113 147 184 228 271 319
#     4  10  22  38  56  82 114 143 181 234 278 313
#
# _framework density 19.545531
#
# number of rings (size 3 to 8) (size 9 to 14) (size 15 to 20)
#    0.000    2.000    0.000    4.714    0.000    4.571 
#    0.000    1.429    0.000    2.571    0.000    0.000 
#    0.000    0.000    0.000    0.000    0.000    0.000 
#
# Total GULP energy -347171.515396 kJ/mol
# GULP energy per Si atom -12398.982693 kJ/mol
# Density = 1.950104 g / cm^3
# Si number density = 19.545531 Si / 1000 Ang^3
#
#
#
# Elastic Constant Matrix: (Units=GPa)
#
#
# Indices 1 2 3 4 5 6 
#
# 1 144.1891 45.0194 42.7742 -0.0052 -3.5770 -0.0036
# 2 45.0194 67.2181 17.5279 -0.0040 6.7199 0.0002
# 3 42.7742 17.5279 85.9392 0.0011 -5.7014 -0.0030
# 4 -0.0052 -0.0040 0.0011 20.3150 -0.0014 3.7701
# 5 -3.5770 6.7199 -5.7014 -0.0014 36.6028 0.0051
# 6 -0.0036 0.0002 -0.0030 3.7701 0.0051 27.1502
#
#
#
# Elastic Compliance Matrix: (Units=1/GPa)
#
#
# Indices 1 2 3 4 5 6 
#
# 1 0.009860 -0.005804 -0.003626 0.000002 0.001464 0.000000
# 2 -0.005804 0.019565 -0.001392 0.000002 -0.004376 -0.000001
# 3 -0.003626 -0.001392 0.013862 -0.000002 0.002060 0.000001
# 4 0.000002 0.000002 -0.000002 0.050527 0.000002 -0.007016
# 5 0.001464 -0.004376 0.002060 0.000002 0.028588 -0.000005
# 6 0.000000 -0.000001 0.000001 -0.007016 -0.000005 0.037806
#
#
# Mechanical properties :
#
#
# Convention : Reuss Voigt Hill
#
# Bulk Modulus (GPa) = 46.20825 56.44324 51.32575
# Shear Modulus (GPa) = 26.44586 29.61528 28.03057
#
# Velocity S-wave (km/s) = 3.68236 3.89677 3.79108
# Velocity P-wave (km/s) = 6.46315 7.01334 6.74386
#
# Compressibility (1/GPa) = 0.02164116
#
# Stress axis : x y z
#
# Youngs Moduli (GPa) = 101.42286 51.11233 72.14153
#
# Poissons Ratio (x) = 0.29667 0.26162
# Poissons Ratio (y) = 0.58869 0.10040
# Poissons Ratio (z) = 0.36781 0.07113
#
# Static dielectric constant tensor:
#      x y z
#    x 3.736840 0.000000 -0.003560 
#    y 0.000000 3.344780 0.000010 
#    z -0.003560 0.000010 3.598080 
# 
# 
# High freq. dielectric constant tensor:
#      x y z
#    x 1.776240 0.000000 0.000100 
#    y 0.000000 1.740140 0.000000 
#    z 0.000100 0.000000 1.768240 
# 
# From -- ./inp_files/149454.got.cif
#   From: 2010.06.25/outbox.cif.g09.slc.cpg/sg12_75_cif.got.tgz:149454.got - 2010.06.28 00:19:55.
