data_PCOD8102782
_publ_section_title
;
Structure prediction by ZEFSAII (Michael W. Deem and Ramdas Pophale) SiO2 
 PCOD8102782
Probable space group: C 2/M
;
_chemical_formula_sum "Si O2"
_cell_formula_units_Z 64
_cell_length_a 19.352888
_cell_length_b 9.028300
_cell_length_c 30.951098
_cell_angle_alpha 90.000000
_cell_angle_beta 38.264210
_cell_angle_gamma 90.000000
_cell_volume 3349.044972
_symmetry_space_group_name_H-M "C 2/M"
_symmetry_group_IT_number 12
_symmetry_cell_setting 'monoclinic'
loop_
_space_group_symop_operation_xyz
x,y,z
-x,y,-z
-x,-y,-z
x,-y,z
1/2+x,1/2+y,z
1/2-x,1/2+y,-z
1/2-x,1/2-y,-z
1/2+x,1/2-y,z
loop_
_atom_site_type_symbol
_atom_site_label
_atom_site_fract_x
_atom_site_fract_y
_atom_site_fract_z
Si Si1 0.512494 0.174632 0.302506
Si Si2 0.416543 0.175177 0.181306
Si Si3 0.636710 0.324027 0.039773
Si Si4 0.121270 0.664578 0.959646
Si Si5 0.882685 0.328813 0.542023
Si Si6 0.161225 0.325887 0.684629
Si Si7 0.362035 0.831513 0.452934
Si Si8 0.250976 0.674109 0.811880
O O1 0.437645 0.229483 0.298628
O O2 0.455798 0.229423 0.374647
O O3 0.630977 0.249586 0.246226
O O4 0.530358 0.000000 0.291347
O O5 0.533099 0.259619 0.117730
O O6 0.369091 0.218775 0.251576
O O7 0.327871 0.229166 0.188730
O O8 0.439463 0.000000 0.166026
O O9 0.641675 0.500000 0.043377
O O10 0.750000 0.250000 0.000000
O O11 0.623655 0.285171 0.995965
O O12 0.156779 0.500000 0.959155
O O13 0.200259 0.720222 0.882651
O O14 0.000000 0.652071 0.000000
O O15 0.869175 0.500000 0.561742
O O16 0.778359 0.245213 0.613807
O O17 0.896640 0.306174 0.484568
O O18 0.000000 0.261860 0.500000
O O19 0.176719 0.500000 0.672234
O O20 0.250000 0.750000 0.500000
O O21 0.339670 0.000000 0.451944
O O22 0.266808 0.500000 0.799825
#
# Coordination Sequence:
#
# PCOD8102782 Si02
#       8
#     8   8   8   8   8   8   8   8
#     4  10  22  38  57  86 120 152 195 248 298 345
#     4  10  22  43  63  86 122 161 199 243 299 356
#     4  12  26  42  64  93 123 160 205 250 300 358
#     4  10  20  41  67  89 121 159 198 250 304 355
#     4  10  22  38  58  85 117 154 195 241 297 354
#     4  10  22  40  61  85 117 156 198 245 294 350
#     4  10  20  37  59  82 112 151 193 242 294 348
#     4  10  22  39  62  89 119 157 198 239 293 357
#
# _framework density 19.109926000000002
#
# number of rings (size 3 to 8) (size 9 to 14) (size 15 to 20)
#    0.000    1.750    2.500    1.125    3.500    3.000 
#    0.000    0.000    0.000    0.000    0.000    0.000 
#    0.000    0.000    0.000    0.000    0.000    0.000 
#
# Total GULP energy -396778.890768 kJ/mol
# GULP energy per Si atom -12399.340336 kJ/mol
# Density = 1.906643 g / cm^3
# Si number density = 19.109926 Si / 1000 Ang^3
#
#
#
# Elastic Constant Matrix: (Units=GPa)
#
#
# Indices 1 2 3 4 5 6 
#
# 1 97.1369 42.9360 66.0731 -0.0020 -12.3791 0.0029
# 2 42.9360 56.1805 55.5879 -0.0079 -0.7302 -0.0032
# 3 66.0731 55.5879 173.3901 0.0001 -6.9801 0.0037
# 4 -0.0020 -0.0079 0.0001 52.8428 0.0007 3.8742
# 5 -12.3791 -0.7302 -6.9801 0.0007 39.0645 0.0021
# 6 0.0029 -0.0032 0.0037 3.8742 0.0021 31.5340
#
#
#
# Elastic Compliance Matrix: (Units=1/GPa)
#
#
# Indices 1 2 3 4 5 6 
#
# 1 0.017626 -0.010185 -0.003258 -0.000001 0.004813 -0.000003
# 2 -0.010185 0.031994 -0.006529 0.000004 -0.003796 0.000005
# 3 -0.003258 -0.006529 0.009121 -0.000001 0.000475 -0.000001
# 4 -0.000001 0.000004 -0.000001 0.019096 -0.000001 -0.002346
# 5 0.004813 -0.003796 0.000475 -0.000001 0.027138 -0.000003
# 6 -0.000003 0.000005 -0.000001 -0.002346 -0.000003 0.032000
#
#
# Mechanical properties :
#
#
# Convention : Reuss Voigt Hill
#
# Bulk Modulus (GPa) = 53.19607 72.87796 63.03701
# Shear Modulus (GPa) = 27.29503 35.49561 31.39532
#
# Velocity S-wave (km/s) = 3.78341 4.31448 4.05764
# Velocity P-wave (km/s) = 6.85441 7.93969 7.41692
#
# Compressibility (1/GPa) = 0.01879838
#
# Stress axis : x y z
#
# Youngs Moduli (GPa) = 56.73504 31.25577 109.63693
#
# Poissons Ratio (x) = 0.31833 0.35716
# Poissons Ratio (y) = 0.57783 0.71581
# Poissons Ratio (z) = 0.18483 0.20407
#
# Static dielectric constant tensor:
#      x y z
#    x 4.095020 -0.000040 0.660440 
#    y -0.000040 3.517340 0.000060 
#    z 0.660440 0.000060 4.361970 
# 
# 
# High freq. dielectric constant tensor:
#      x y z
#    x 1.755840 0.000000 0.002680 
#    y 0.000000 1.730300 0.000000 
#    z 0.002680 0.000000 1.760580 
# 
# From -- ./inp_files/377962.got.cif
#   From: 2010.06.25/outbox.cif.g09.slc.cpg/sg12_189_cif.got.tgz:377962.got - 2010.06.28 00:19:55.
