data_PCOD8102663
_publ_section_title
;
Structure prediction by ZEFSAII (Michael W. Deem and Ramdas Pophale) SiO2 
 PCOD8102663
Probable space group: C 2/M
;
_chemical_formula_sum "Si O2"
_cell_formula_units_Z 64
_cell_length_a 20.456653
_cell_length_b 8.848070
_cell_length_c 31.823232
_cell_angle_alpha 90.000000
_cell_angle_beta 143.359670
_cell_angle_gamma 90.000000
_cell_volume 3437.548403
_symmetry_space_group_name_H-M "C 2/M"
_symmetry_group_IT_number 12
_symmetry_cell_setting 'monoclinic'
loop_
_space_group_symop_operation_xyz
x,y,z
-x,y,-z
-x,-y,-z
x,-y,z
1/2+x,1/2+y,z
1/2-x,1/2+y,-z
1/2-x,1/2-y,-z
1/2+x,1/2-y,z
loop_
_atom_site_type_symbol
_atom_site_label
_atom_site_fract_x
_atom_site_fract_y
_atom_site_fract_z
Si Si1 0.829498 0.679242 0.158887
Si Si2 0.239183 0.825853 0.449795
Si Si3 0.657507 0.675092 0.924452
Si Si4 0.398456 0.679688 0.921015
Si Si5 0.417922 0.674712 0.836252
Si Si6 0.313073 0.178533 0.705664
Si Si7 0.626179 0.178491 0.560077
Si Si8 0.041556 0.176453 0.289842
O O1 0.834929 0.500000 0.161590
O O2 0.849346 0.740041 0.122870
O O3 0.713740 0.738715 0.116300
O O4 0.925240 0.744065 0.238350
O O5 0.250000 0.750000 0.500000
O O6 0.329179 0.766657 0.462489
O O7 0.117865 0.793603 0.369474
O O8 0.260026 0.000000 0.468263
O O9 0.685020 0.500000 0.931355
O O10 0.543805 0.697143 0.889522
O O11 0.750000 0.750000 0.000000
O O12 0.404093 0.500000 0.924872
O O13 0.403953 0.737280 0.876155
O O14 0.500000 0.747115 0.000000
O O15 0.382668 0.500000 0.814223
O O16 0.337253 0.773581 0.765840
O O17 0.192476 0.236474 0.630793
O O18 0.404604 0.255098 0.723989
O O19 0.319313 0.000000 0.703759
O O20 0.500000 0.223398 0.500000
O O21 0.646262 0.000000 0.575633
O O22 0.024423 0.000000 0.272440
#
# Coordination Sequence:
#
# PCOD8102663 Si02
#       8
#     8   8   8   8   8   8   8   8
#     4  11  21  35  58  86 112 141 188 239 282 332
#     4   9  19  35  57  83 111 146 185 227 274 328
#     4  11  22  35  57  84 111 145 186 234 282 334
#     4   9  19  37  58  80 109 148 189 230 278 339
#     4  10  20  37  59  80 110 152 190 226 278 341
#     4  11  21  34  57  87 116 146 186 239 285 326
#     4   9  19  38  61  83 112 151 191 228 273 336
#     4  10  20  37  58  81 113 153 190 226 280 340
#
# _framework density 18.617919000000001
#
# number of rings (size 3 to 8) (size 9 to 14) (size 15 to 20)
#    0.000    2.000    1.250    3.750    0.000    5.250 
#    2.250    1.250    0.000    2.625    0.000    0.000 
#    0.000    0.000    0.000    0.000    0.000    0.000 
#
# Total GULP energy -396863.870969 kJ/mol
# GULP energy per Si atom -12401.995968 kJ/mol
# Density = 1.857554 g / cm^3
# Si number density = 18.617919 Si / 1000 Ang^3
#
#
#
# Elastic Constant Matrix: (Units=GPa)
#
#
# Indices 1 2 3 4 5 6 
#
# 1 88.6664 35.9622 58.2387 -0.0001 4.2096 0.0006
# 2 35.9622 77.8254 53.6340 -0.0003 3.6886 0.0013
# 3 58.2387 53.6340 137.6742 0.0000 5.2407 0.0002
# 4 -0.0001 -0.0003 0.0000 36.0944 0.0000 -1.1172
# 5 4.2096 3.6886 5.2407 0.0000 37.8676 -0.0001
# 6 0.0006 0.0013 0.0002 -1.1172 -0.0001 23.9569
#
#
#
# Elastic Compliance Matrix: (Units=1/GPa)
#
#
# Indices 1 2 3 4 5 6 
#
# 1 0.016429 -0.003810 -0.005439 0.000000 -0.000703 0.000000
# 2 -0.003810 0.018471 -0.005561 0.000000 -0.000606 -0.000001
# 3 -0.005439 -0.005561 0.011749 0.000000 -0.000480 0.000000
# 4 0.000000 0.000000 0.000000 0.027745 0.000000 0.001294
# 5 -0.000703 -0.000606 -0.000480 0.000000 0.026611 0.000000
# 6 0.000000 -0.000001 0.000000 0.001294 0.000000 0.041802
#
#
# Mechanical properties :
#
#
# Convention : Reuss Voigt Hill
#
# Bulk Modulus (GPa) = 58.72247 66.64843 62.68545
# Shear Modulus (GPa) = 28.07345 30.00585 29.03965
#
# Velocity S-wave (km/s) = 3.88735 4.01891 3.95368
# Velocity P-wave (km/s) = 7.19430 7.57702 7.38814
#
# Compressibility (1/GPa) = 0.01702926
#
# Stress axis : x y z
#
# Youngs Moduli (GPa) = 60.86662 54.13878 85.11472
#
# Poissons Ratio (x) = 0.20629 0.46292
# Poissons Ratio (y) = 0.23192 0.47331
# Poissons Ratio (z) = 0.33104 0.30106
#
# Static dielectric constant tensor:
#      x y z
#    x 3.453250 0.000000 0.050330 
#    y 0.000000 3.217000 0.000000 
#    z 0.050330 0.000000 3.529160 
# 
# 
# High freq. dielectric constant tensor:
#      x y z
#    x 1.713780 0.000000 0.001080 
#    y 0.000000 1.712940 0.000000 
#    z 0.001080 0.000000 1.737110 
# 
# From -- ./inp_files/378426.got.cif
#   From: 2010.06.25/outbox.cif.g09.slc.cpg/sg12_190_cif.got.tgz:378426.got - 2010.06.28 00:19:55.
