data_PCOD8102762
_publ_section_title
;
Structure prediction by ZEFSAII (Michael W. Deem and Ramdas Pophale) SiO2 
 PCOD8102762
Probable space group: C 2/M
;
_chemical_formula_sum "Si O2"
_cell_formula_units_Z 56
_cell_length_a 30.423540
_cell_length_b 8.860645
_cell_length_c 12.731974
_cell_angle_alpha 90.000000
_cell_angle_beta 65.619748
_cell_angle_gamma 90.000000
_cell_volume 3126.124289
_symmetry_space_group_name_H-M "C 2/M"
_symmetry_group_IT_number 12
_symmetry_cell_setting 'monoclinic'
loop_
_space_group_symop_operation_xyz
x,y,z
-x,y,-z
-x,-y,-z
x,-y,z
1/2+x,1/2+y,z
1/2-x,1/2+y,-z
1/2-x,1/2-y,-z
1/2+x,1/2-y,z
loop_
_atom_site_type_symbol
_atom_site_label
_atom_site_fract_x
_atom_site_fract_y
_atom_site_fract_z
Si Si1 0.147436 0.323750 0.403125
Si Si2 0.480208 0.179102 0.777830
Si Si3 0.089437 0.679174 0.660571
Si Si4 0.846318 0.678875 0.209659
Si Si5 0.097574 0.829972 0.262711
Si Si6 0.599366 0.329311 0.029452
Si Si7 0.248007 0.176819 0.615609
O O1 0.138179 0.500000 0.397574
O O2 0.114669 0.259203 0.530281
O O3 0.133795 0.241836 0.309517
O O4 0.202848 0.287854 0.371833
O O5 0.534865 0.239516 0.720092
O O6 0.452507 0.234387 0.698922
O O7 0.477935 0.000000 0.789105
O O8 0.453988 0.253279 0.905831
O O9 0.090440 0.500000 0.659036
O O10 0.118892 0.738699 0.732034
O O11 0.840701 0.500000 0.218311
O O12 0.867857 0.728935 0.077708
O O13 0.794180 0.752897 0.273201
O O14 0.084573 0.000000 0.309744
O O15 0.123523 0.829226 0.122229
O O16 0.594375 0.500000 0.990973
O O17 0.250000 0.250000 0.500000
O O18 0.239791 0.000000 0.609179
#
# Coordination Sequence:
#
# PCOD8102762 Si02
#       7
#     8   8   8   8   8   8   8
#     4  10  20  37  59  81 111 147 188 228 271 331
#     4   9  17  34  58  80 109 150 190 225 275 328
#     4   9  19  34  54  85 114 145 188 232 272 328
#     4  11  21  37  60  84 113 147 190 231 277 334
#     4   9  20  37  55  79 114 147 183 233 279 325
#     4   9  20  38  55  79 115 148 185 233 280 325
#     4  11  22  38  59  85 116 148 183 229 280 331
#
# _framework density 17.913556
#
# number of rings (size 3 to 8) (size 9 to 14) (size 15 to 20)
#    0.857    1.429    1.429    1.714    0.000    2.286 
#    0.000   10.714    0.000    0.000    0.000    0.000 
#    0.000    0.000    0.000    0.000    0.000    0.000 
#
# Total GULP energy -347078.450103 kJ/mol
# GULP energy per Si atom -12395.658932 kJ/mol
# Density = 1.787278 g / cm^3
# Si number density = 17.913556 Si / 1000 Ang^3
#
#
#
# Elastic Constant Matrix: (Units=GPa)
#
#
# Indices 1 2 3 4 5 6 
#
# 1 119.8104 61.7953 73.9102 0.0000 -17.5380 0.0000
# 2 61.7953 74.4362 33.4543 0.0000 -4.4872 0.0000
# 3 73.9102 33.4543 103.3148 0.0000 -7.4378 0.0000
# 4 0.0000 0.0000 0.0000 29.4184 0.0000 -0.8460
# 5 -17.5380 -4.4872 -7.4378 0.0000 27.5151 0.0000
# 6 0.0000 0.0000 0.0000 -0.8460 0.0000 26.4789
#
#
#
# Elastic Compliance Matrix: (Units=1/GPa)
#
#
# Indices 1 2 3 4 5 6 
#
# 1 0.025052 -0.014579 -0.012465 0.000000 0.010221 0.000000
# 2 -0.014579 0.024247 0.002238 0.000000 -0.004734 0.000000
# 3 -0.012465 0.002238 0.017670 0.000000 -0.002804 0.000000
# 4 0.000000 0.000000 0.000000 0.034024 0.000000 0.001087
# 5 0.010221 -0.004734 -0.002804 0.000000 0.041328 0.000000
# 6 0.000000 0.000000 0.000000 0.001087 0.000000 0.037801
#
#
# Mechanical properties :
#
#
# Convention : Reuss Voigt Hill
#
# Bulk Modulus (GPa) = 57.61889 70.65344 64.13617
# Shear Modulus (GPa) = 21.22967 25.24259 23.23613
#
# Velocity S-wave (km/s) = 3.44629 3.75791 3.60547
# Velocity P-wave (km/s) = 6.93330 7.63912 7.29475
#
# Compressibility (1/GPa) = 0.01735542
#
# Stress axis : x y z
#
# Youngs Moduli (GPa) = 39.91723 41.24303 56.59260
#
# Poissons Ratio (x) = 0.60129 0.70543
# Poissons Ratio (y) = 0.58196 -0.12664
# Poissons Ratio (z) = 0.49757 -0.09229
#
# Static dielectric constant tensor:
#      x y z
#    x 3.153030 0.000000 0.281010 
#    y 0.000000 3.298320 0.000000 
#    z 0.281010 0.000000 2.641400 
# 
# 
# High freq. dielectric constant tensor:
#      x y z
#    x 1.687080 0.000000 -0.002450 
#    y 0.000000 1.694640 0.000000 
#    z -0.002450 0.000000 1.687060 
# 
# From -- ./inp_files/186459.got.cif
#   From: 2010.06.25/outbox.cif.g09.slc.cpg/sg12_94_cif.got.tgz:186459.got - 2010.06.28 00:19:55.
