data_PCOD8102488
_publ_section_title
;
Structure prediction by ZEFSAII (Michael W. Deem and Ramdas Pophale) SiO2 
 PCOD8102488
Probable space group: C 2/M
;
_chemical_formula_sum "Si O2"
_cell_formula_units_Z 56
_cell_length_a 13.893722
_cell_length_b 18.093964
_cell_length_c 12.435390
_cell_angle_alpha 90.000000
_cell_angle_beta 115.330770
_cell_angle_gamma 90.000000
_cell_volume 2825.592300
_symmetry_space_group_name_H-M "C 2/M"
_symmetry_group_IT_number 12
_symmetry_cell_setting 'monoclinic'
loop_
_space_group_symop_operation_xyz
x,y,z
-x,y,-z
-x,-y,-z
x,-y,z
1/2+x,1/2+y,z
1/2-x,1/2+y,-z
1/2-x,1/2-y,-z
1/2+x,1/2-y,z
loop_
_atom_site_type_symbol
_atom_site_label
_atom_site_fract_x
_atom_site_fract_y
_atom_site_fract_z
Si Si1 0.610988 0.173813 0.756463
Si Si2 0.217505 0.086740 0.038023
Si Si3 0.125698 0.917963 0.574382
Si Si4 0.430181 0.233197 0.805787
Si Si5 0.272741 0.328623 0.183018
Si Si6 0.500000 0.654498 0.000000
Si Si7 0.000000 0.292483 0.500000
Si Si8 0.847851 0.200653 0.568941
O O1 0.686803 0.108608 0.835335
O O2 0.501390 0.175151 0.772743
O O3 0.672356 0.250059 0.804614
O O4 0.580841 0.159825 0.614696
O O5 0.224083 0.000000 0.018307
O O6 0.229520 0.128656 0.930611
O O7 0.105237 0.104342 0.042457
O O8 0.160262 0.874167 0.697255
O O9 0.173209 0.881041 0.488277
O O10 0.000000 0.920619 0.500000
O O11 0.173611 0.000000 0.605385
O O12 0.349080 0.184474 0.837930
O O13 0.366271 0.294119 0.704381
O O14 0.506046 0.288609 0.904813
O O15 0.052540 0.236191 0.442954
O O16 0.750000 0.250000 0.500000
#
# Coordination Sequence:
#
# PCOD8102488 Si02
#       8
#     8   8   8   8   8   4   4   8
#     4  11  21  41  68  96 124 166 218 262 316 383
#     4  12  27  44  63  93 133 170 207 264 329 385
#     4  11  22  37  60  95 134 167 208 263 326 380
#     4  11  22  36  69  96 117 156 225 267 305 369
#     4  12  21  42  65  94 127 169 216 267 318 377
#     4  12  23  42  64  96 123 162 212 266 313 388
#     4  10  20  36  68  96 120 158 216 262 308 354
#     4  11  19  36  61  93 125 162 206 254 308 370
#
# _framework density 19.818854000000002
#
# number of rings (size 3 to 8) (size 9 to 14) (size 15 to 20)
#    0.000    0.714    6.429    2.786    0.000    0.000 
#    0.000    3.214    0.000    0.000    0.000    0.000 
#    0.000    0.000    0.000    0.000    0.000    0.000 
#
# Total GULP energy -347029.991978 kJ/mol
# GULP energy per Si atom -12393.928285 kJ/mol
# Density = 1.977375 g / cm^3
# Si number density = 19.818854 Si / 1000 Ang^3
#
#
#
# Elastic Constant Matrix: (Units=GPa)
#
#
# Indices 1 2 3 4 5 6 
#
# 1 88.7789 32.6085 9.6505 0.0000 3.5554 0.0000
# 2 32.6085 87.8358 34.2876 0.0000 0.1351 0.0000
# 3 9.6505 34.2876 119.3123 0.0000 4.6845 0.0000
# 4 0.0000 0.0000 0.0000 22.4717 0.0000 2.6349
# 5 3.5554 0.1351 4.6845 0.0000 28.5888 0.0000
# 6 0.0000 0.0000 0.0000 2.6349 0.0000 19.0772
#
#
#
# Elastic Compliance Matrix: (Units=1/GPa)
#
#
# Indices 1 2 3 4 5 6 
#
# 1 0.013138 -0.005052 0.000455 0.000000 -0.001685 0.000000
# 2 -0.005052 0.014775 -0.003884 0.000000 0.001195 0.000000
# 3 0.000455 -0.003884 0.009524 0.000000 -0.001599 0.000000
# 4 0.000000 0.000000 0.000000 0.045233 0.000000 -0.006247
# 5 -0.001685 0.001195 -0.001599 0.000000 0.035445 0.000000
# 6 0.000000 0.000000 0.000000 -0.006247 0.000000 0.053281
#
#
# Mechanical properties :
#
#
# Convention : Reuss Voigt Hill
#
# Bulk Modulus (GPa) = 48.84316 49.89115 49.36715
# Shear Modulus (GPa) = 25.61710 28.65291 27.13501
#
# Velocity S-wave (km/s) = 3.59912 3.80641 3.70422
# Velocity P-wave (km/s) = 6.47842 6.67432 6.57710
#
# Compressibility (1/GPa) = 0.02047370
#
# Stress axis : x y z
#
# Youngs Moduli (GPa) = 76.11696 67.68189 105.00293
#
# Poissons Ratio (x) = 0.34196 -0.04783
# Poissons Ratio (y) = 0.38458 0.40786
# Poissons Ratio (z) = -0.03467 0.26289
#
# Static dielectric constant tensor:
#      x y z
#    x 3.760340 0.000000 0.024960 
#    y 0.000000 3.479330 0.000000 
#    z 0.024960 0.000000 3.989820 
# 
# 
# High freq. dielectric constant tensor:
#      x y z
#    x 1.779770 0.000000 0.003500 
#    y 0.000000 1.739670 0.000000 
#    z 0.003500 0.000000 1.794790 
# 
# From -- ./inp_files/146276.got.cif
#   From: 2010.06.25/outbox.cif.g09.slc.cpg/sg12_74_cif.got.tgz:146276.got - 2010.06.28 00:19:55.
