data_PCOD8102498
_publ_section_title
;
Structure prediction by ZEFSAII (Michael W. Deem and Ramdas Pophale) SiO2 
 PCOD8102498
Probable space group: C 2/M
;
_chemical_formula_sum "Si O2"
_cell_formula_units_Z 64
_cell_length_a 23.045877
_cell_length_b 22.195496
_cell_length_c 8.556289
_cell_angle_alpha 90.000000
_cell_angle_beta 54.556698
_cell_angle_gamma 90.000000
_cell_volume 3565.626091
_symmetry_space_group_name_H-M "C 2/M"
_symmetry_group_IT_number 12
_symmetry_cell_setting 'monoclinic'
loop_
_space_group_symop_operation_xyz
x,y,z
-x,y,-z
-x,-y,-z
x,-y,z
1/2+x,1/2+y,z
1/2-x,1/2+y,-z
1/2-x,1/2-y,-z
1/2+x,1/2-y,z
loop_
_atom_site_type_symbol
_atom_site_label
_atom_site_fract_x
_atom_site_fract_y
_atom_site_fract_z
Si Si1 0.567836 0.891856 0.501909
Si Si2 0.290823 0.929695 0.886027
Si Si3 0.090579 0.745983 0.994997
Si Si4 0.706376 0.322498 0.931883
Si Si5 0.426291 0.067201 0.176548
Si Si6 0.681851 0.137487 0.851322
Si Si7 0.305406 0.282136 0.698441
Si Si8 0.565067 0.764577 0.674362
O O1 0.500000 0.902382 0.500000
O O2 0.634514 0.908030 0.294371
O O3 0.568227 0.937720 0.646011
O O4 0.570101 0.825473 0.569532
O O5 0.227842 0.893014 0.895158
O O6 0.275799 0.000000 0.885500
O O7 0.294109 0.913208 0.063596
O O8 0.136230 0.807585 0.939411
O O9 0.131037 0.688806 0.012359
O O10 0.085974 0.726610 0.821671
O O11 0.016331 0.758671 0.198978
O O12 0.772761 0.285008 0.757933
O O13 0.686238 0.305553 0.139748
O O14 0.357980 0.105910 0.230745
O O15 0.419002 0.000000 0.117817
O O16 0.500000 0.097594 0.000000
O O17 0.752565 0.173301 0.683543
O O18 0.381552 0.282512 0.491828
#
# Coordination Sequence:
#
# PCOD8102498 Si02
#       8
#     8   8   8   8   8   8   8   8
#     4  12  24  34  51  74 110 140 185 221 261 310
#     4  11  22  37  55  76 106 146 185 220 261 311
#     4  10  21  34  55  79 115 136 179 216 280 320
#     4   9  19  36  52  80 106 139 176 227 261 327
#     4  11  22  36  51  70 102 145 188 221 254 301
#     4  10  20  37  54  77 105 143 178 226 262 321
#     4   9  19  33  55  77 109 133 175 218 281 313
#     4  11  21  34  53  84 105 146 169 221 272 333
#
# _framework density 17.949161
#
# number of rings (size 3 to 8) (size 9 to 14) (size 15 to 20)
#    0.000    1.625    2.500    3.750    1.750    5.000 
#    0.000    0.000    0.000    0.000    0.000    9.625 
#    0.000    0.000    0.000    0.000    0.000    0.000 
#
# Total GULP energy -396638.413379 kJ/mol
# GULP energy per Si atom -12394.950418 kJ/mol
# Density = 1.790831 g / cm^3
# Si number density = 17.949161 Si / 1000 Ang^3
#
#
#
# Elastic Constant Matrix: (Units=GPa)
#
#
# Indices 1 2 3 4 5 6 
#
# 1 85.1114 57.6168 19.2613 0.0000 -9.6479 0.0000
# 2 57.6168 105.1623 33.4301 0.0000 -10.9219 0.0000
# 3 19.2613 33.4301 75.9823 0.0000 -20.5738 0.0000
# 4 0.0000 0.0000 0.0000 5.1987 0.0000 19.7088
# 5 -9.6479 -10.9219 -20.5738 0.0000 29.1989 0.0000
# 6 0.0000 0.0000 0.0000 19.7088 0.0000 0.9006
#
#
#
# Elastic Compliance Matrix: (Units=1/GPa)
#
#
# Indices 1 2 3 4 5 6 
#
# 1 0.018855 -0.010187 0.000442 0.000000 0.002731 0.000000
# 2 -0.010187 0.016578 -0.004873 0.000000 -0.000599 0.000000
# 3 0.000442 -0.004873 0.018214 0.000000 0.011157 0.000000
# 4 0.000000 0.000000 0.000000 -0.002347 0.000000 0.051358
# 5 0.002731 -0.000599 0.011157 0.000000 0.042787 0.000000
# 6 0.000000 0.000000 0.000000 0.051358 0.000000 -0.013547
#
#
# Mechanical properties :
#
#
# Convention : Reuss Voigt Hill
#
# Bulk Modulus (GPa) = 40.96841 54.09694 47.53267
# Shear Modulus (GPa) = 42.40349 17.45616 29.92983
#
# Velocity S-wave (km/s) = 4.86575 3.12193 4.08791
# Velocity P-wave (km/s) = 7.37845 6.57265 6.98718
#
# Compressibility (1/GPa) = 0.02440905
#
# Stress axis : x y z
#
# Youngs Moduli (GPa) = 53.03561 60.32242 54.90257
#
# Poissons Ratio (x) = 0.61452 -0.02426
# Poissons Ratio (y) = 0.54029 0.26756
# Poissons Ratio (z) = -0.02343 0.29398
#
# Static dielectric constant tensor:
#      x y z
#    x 3.468160 0.000000 -0.039190 
#    y 0.000000 3.213530 0.000000 
#    z -0.039190 0.000000 3.262370 
# 
# 
# High freq. dielectric constant tensor:
#      x y z
#    x 1.695360 0.000000 0.004010 
#    y 0.000000 1.668870 0.000000 
#    z 0.004010 0.000000 1.687250 
# 
# From -- ./inp_files/99084.got.cif
#   From: 2010.06.25/outbox.cif.g09.slc.cpg/sg12_50_cif.got.tgz:99084.got - 2010.06.28 00:19:55.
