data_PCOD8102134
_publ_section_title
;
Structure prediction by ZEFSAII (Michael W. Deem and Ramdas Pophale) SiO2 
 PCOD8102134
Probable space group: C 2/M
;
_chemical_formula_sum "Si O2"
_cell_formula_units_Z 56
_cell_length_a 21.678779
_cell_length_b 12.802193
_cell_length_c 27.699443
_cell_angle_alpha 90.000000
_cell_angle_beta 21.580108
_cell_angle_gamma 90.000000
_cell_volume 2827.508973
_symmetry_space_group_name_H-M "C 2/M"
_symmetry_group_IT_number 12
_symmetry_cell_setting 'monoclinic'
loop_
_space_group_symop_operation_xyz
x,y,z
-x,y,-z
-x,-y,-z
x,-y,z
1/2+x,1/2+y,z
1/2-x,1/2+y,-z
1/2-x,1/2-y,-z
1/2+x,1/2-y,z
loop_
_atom_site_type_symbol
_atom_site_label
_atom_site_fract_x
_atom_site_fract_y
_atom_site_fract_z
Si Si1 0.207330 0.878008 0.076999
Si Si2 0.496220 0.738649 0.698352
Si Si3 0.056063 0.880993 0.907968
Si Si4 0.493788 0.725244 0.857117
Si Si5 0.131900 0.766268 0.444638
Si Si6 0.235934 0.119589 0.457416
Si Si7 0.433605 0.119042 0.653810
O O1 0.068684 0.859471 0.136450
O O2 0.152625 0.820657 0.166147
O O3 0.229256 0.000000 0.070861
O O4 0.386203 0.831418 0.930076
O O5 0.596739 0.809311 0.663989
O O6 0.619955 0.650697 0.587024
O O7 0.424004 0.813418 0.709446
O O8 0.256076 0.874242 0.756182
O O9 0.964618 0.819675 0.931822
O O10 0.992467 0.000000 0.951833
O O11 0.000000 0.831764 0.000000
O O12 0.688734 0.747964 0.709355
O O13 0.139300 0.861094 0.477517
O O14 0.000000 0.799934 0.500000
O O15 0.073342 0.661568 0.515176
O O16 0.287659 0.000000 0.424783
O O17 0.480237 0.000000 0.633285
#
# Coordination Sequence:
#
# PCOD8102134 Si02
#       7
#     8   8   8   8   8   8   8
#     4  11  24  42  66  90 121 164 209 257 310 367
#     4  10  20  39  60  92 123 161 207 261 305 361
#     4  10  20  36  60  90 122 160 203 252 312 369
#     4  11  23  42  61  91 124 162 205 258 307 366
#     4  11  22  40  61  91 128 167 206 255 306 368
#     4  10  21  37  60  89 126 167 206 251 306 366
#     4  10  21  35  61  95 126 164 204 252 312 368
#
# _framework density 19.805419000000001
#
# number of rings (size 3 to 8) (size 9 to 14) (size 15 to 20)
#    0.000    1.571    2.857    2.143    0.000    2.286 
#    0.000    1.429    0.000    1.286    0.000    0.000 
#    0.000    0.000    0.000    0.000    0.000    0.000 
#
# Total GULP energy -347305.348613 kJ/mol
# GULP energy per Si atom -12403.762450 kJ/mol
# Density = 1.976034 g / cm^3
# Si number density = 19.805419 Si / 1000 Ang^3
#
#
#
# Elastic Constant Matrix: (Units=GPa)
#
#
# Indices 1 2 3 4 5 6 
#
# 1 116.4893 39.5205 23.3155 0.0021 1.1185 -0.0034
# 2 39.5205 124.5561 35.3429 -0.0271 4.1603 0.0179
# 3 23.3155 35.3429 99.6650 -0.0789 1.5551 0.0158
# 4 0.0021 -0.0271 -0.0789 23.0946 0.0224 0.0293
# 5 1.1185 4.1603 1.5551 0.0224 31.8225 -0.0002
# 6 -0.0034 0.0179 0.0158 0.0293 -0.0002 21.8351
#
#
#
# Elastic Compliance Matrix: (Units=1/GPa)
#
#
# Indices 1 2 3 4 5 6 
#
# 1 0.009774 -0.002729 -0.001320 -0.000009 0.000078 0.000005
# 2 -0.002729 0.009722 -0.002793 0.000003 -0.001039 -0.000006
# 3 -0.001320 -0.002793 0.011335 0.000036 -0.000142 -0.000006
# 4 -0.000009 0.000003 0.000036 0.043300 -0.000032 -0.000058
# 5 0.000078 -0.001039 -0.000142 -0.000032 0.031564 0.000001
# 6 0.000005 -0.000006 -0.000006 -0.000058 0.000001 0.045798
#
#
# Mechanical properties :
#
#
# Convention : Reuss Voigt Hill
#
# Bulk Modulus (GPa) = 58.32025 59.67425 58.99725
# Shear Modulus (GPa) = 29.25819 31.51920 30.38870
#
# Velocity S-wave (km/s) = 3.84771 3.99362 3.92134
# Velocity P-wave (km/s) = 7.01786 7.17363 7.09617
#
# Compressibility (1/GPa) = 0.01714670
#
# Stress axis : x y z
#
# Youngs Moduli (GPa) = 102.31394 102.86352 88.22234
#
# Poissons Ratio (x) = 0.28074 0.11644
# Poissons Ratio (y) = 0.27924 0.24638
# Poissons Ratio (z) = 0.13504 0.28727
#
# Static dielectric constant tensor:
#      x y z
#    x 3.709120 -0.000020 0.038190 
#    y -0.000020 3.383130 0.000080 
#    z 0.038190 0.000080 3.530140 
# 
# 
# High freq. dielectric constant tensor:
#      x y z
#    x 1.782780 0.000000 0.004490 
#    y 0.000000 1.754210 0.000010 
#    z 0.004490 0.000010 1.775740 
# 
# From -- ./inp_files/174501.got.cif
#   From: 2010.06.25/outbox.cif.g09.slc.cpg/sg12_88_cif.got.tgz:174501.got - 2010.06.28 00:19:55.
