data_PCOD8102603
_publ_section_title
;
Structure prediction by ZEFSAII (Michael W. Deem and Ramdas Pophale) SiO2 
 PCOD8102603
Probable space group: C 2/M
;
_chemical_formula_sum "Si O2"
_cell_formula_units_Z 48
_cell_length_a 9.078195
_cell_length_b 13.264799
_cell_length_c 20.814861
_cell_angle_alpha 90.000000
_cell_angle_beta 73.733463
_cell_angle_gamma 90.000000
_cell_volume 2406.195590
_symmetry_space_group_name_H-M "C 2/M"
_symmetry_group_IT_number 12
_symmetry_cell_setting 'monoclinic'
loop_
_space_group_symop_operation_xyz
x,y,z
-x,y,-z
-x,-y,-z
x,-y,z
1/2+x,1/2+y,z
1/2-x,1/2+y,-z
1/2-x,1/2-y,-z
1/2+x,1/2-y,z
loop_
_atom_site_type_symbol
_atom_site_label
_atom_site_fract_x
_atom_site_fract_y
_atom_site_fract_z
Si Si1 0.846257 0.200454 0.236794
Si Si2 0.336146 0.112387 0.320637
Si Si3 0.055059 0.382867 0.920897
Si Si4 0.655365 0.749599 0.146266
Si Si5 0.638961 0.111038 0.358238
Si Si6 0.152155 0.214120 0.452682
O O1 0.808470 0.315726 0.263275
O O2 0.743600 0.179090 0.186405
O O3 0.801778 0.129781 0.302431
O O4 0.024363 0.184183 0.198414
O O5 0.512555 0.124191 0.318690
O O6 0.234671 0.136098 0.395801
O O7 0.296669 0.000000 0.302595
O O8 0.067687 0.500000 0.896581
O O9 0.221711 0.328645 0.898499
O O10 0.927938 0.323086 0.894545
O O11 0.000000 0.378043 0.000000
O O12 0.604536 0.186348 0.419694
O O13 0.639372 0.000000 0.388477
O O14 0.250000 0.250000 0.500000
O O15 0.000000 0.161708 0.500000
#
# Coordination Sequence:
#
# PCOD8102603 Si02
#       6
#     8   8   8   8   8   8
#     4  10  20  37  57  88 120 150 190 243 297 349
#     4  10  21  37  59  82 111 150 188 239 300 350
#     4  10  22  41  64  92 127 166 206 249 298 350
#     4  10  21  37  63  91 124 161 203 247 296 356
#     4  10  21  36  57  81 110 149 186 233 296 354
#     4  11  22  38  56  79 109 142 187 240 287 349
#
# _framework density 19.948504
#
# number of rings (size 3 to 8) (size 9 to 14) (size 15 to 20)
#    0.000    1.833    3.333    0.500    0.000    5.333 
#    0.000    4.167    0.000    9.000    0.000    0.000 
#    0.000    0.000    0.000    0.000    0.000    0.000 
#
# Total GULP energy -297501.235471 kJ/mol
# GULP energy per Si atom -12395.884811 kJ/mol
# Density = 1.990310 g / cm^3
# Si number density = 19.948504 Si / 1000 Ang^3
#
#
#
# Elastic Constant Matrix: (Units=GPa)
#
#
# Indices 1 2 3 4 5 6 
#
# 1 97.6846 28.6343 30.6622 0.0000 -14.7063 0.0000
# 2 28.6343 107.6866 26.2259 0.0000 -1.4728 0.0000
# 3 30.6622 26.2259 83.0927 0.0000 -18.0785 0.0000
# 4 0.0000 0.0000 0.0000 16.7869 0.0000 1.1815
# 5 -14.7063 -1.4728 -18.0785 0.0000 41.2421 0.0000
# 6 0.0000 0.0000 0.0000 1.1815 0.0000 26.7467
#
#
#
# Elastic Compliance Matrix: (Units=1/GPa)
#
#
# Indices 1 2 3 4 5 6 
#
# 1 0.012399 -0.002490 -0.003147 0.000000 0.002953 0.000000
# 2 -0.002490 0.010608 -0.002808 0.000000 -0.001740 0.000000
# 3 -0.003147 -0.002808 0.015273 0.000000 0.005472 0.000000
# 4 0.000000 0.000000 0.000000 0.059756 0.000000 -0.002640
# 5 0.002953 -0.001740 0.005472 0.000000 0.027637 0.000000
# 6 0.000000 0.000000 0.000000 -0.002640 0.000000 0.037504
#
#
# Mechanical properties :
#
#
# Convention : Reuss Voigt Hill
#
# Bulk Modulus (GPa) = 46.75006 51.05650 48.90328
# Shear Modulus (GPa) = 26.70963 30.48457 28.59710
#
# Velocity S-wave (km/s) = 3.66311 3.91341 3.79033
# Velocity P-wave (km/s) = 6.43253 6.78745 6.61237
#
# Compressibility (1/GPa) = 0.02139035
#
# Stress axis : x y z
#
# Youngs Moduli (GPa) = 80.64916 94.26497 65.47534
#
# Poissons Ratio (x) = 0.23474 0.20606
# Poissons Ratio (y) = 0.20083 0.18385
# Poissons Ratio (z) = 0.25381 0.26469
#
# Static dielectric constant tensor:
#      x y z
#    x 3.454840 0.000000 0.293980 
#    y 0.000000 3.574500 0.000000 
#    z 0.293980 0.000000 2.941440 
# 
# 
# High freq. dielectric constant tensor:
#      x y z
#    x 1.784080 0.000000 -0.007930 
#    y 0.000000 1.758350 0.000000 
#    z -0.007930 0.000000 1.790940 
# 
# From -- ./inp_files/299574.got.cif
#   From: 2010.06.25/outbox.cif.g09.slc.cpg/sg12_150_cif.got.tgz:299574.got - 2010.06.28 00:19:55.
