data_PCOD8102670
_publ_section_title
;
Structure prediction by ZEFSAII (Michael W. Deem and Ramdas Pophale) SiO2 
 PCOD8102670
Probable space group: C 2/M
;
_chemical_formula_sum "Si O2"
_cell_formula_units_Z 44
_cell_length_a 12.552206
_cell_length_b 8.245884
_cell_length_c 23.471961
_cell_angle_alpha 90.000000
_cell_angle_beta 121.582921
_cell_angle_gamma 90.000000
_cell_volume 2069.601120
_symmetry_space_group_name_H-M "C 2/M"
_symmetry_group_IT_number 12
_symmetry_cell_setting 'monoclinic'
loop_
_space_group_symop_operation_xyz
x,y,z
-x,y,-z
-x,-y,-z
x,-y,z
1/2+x,1/2+y,z
1/2-x,1/2+y,-z
1/2-x,1/2-y,-z
1/2+x,1/2-y,z
loop_
_atom_site_type_symbol
_atom_site_label
_atom_site_fract_x
_atom_site_fract_y
_atom_site_fract_z
Si Si1 0.296936 0.820070 0.698770
Si Si2 0.530001 0.821944 0.682933
Si Si3 0.538676 0.314475 0.571892
Si Si4 0.126516 0.000000 0.756775
Si Si5 0.500000 0.250023 0.000000
Si Si6 0.887119 0.000000 0.770941
Si Si7 0.937856 0.000000 0.075329
Si Si8 0.298327 0.000000 0.910328
O O1 0.425940 0.820813 0.701171
O O2 0.188280 0.798862 0.621625
O O3 0.302561 0.662903 0.741600
O O4 0.286111 0.000000 0.727539
O O5 0.472881 0.789916 0.603871
O O6 0.628266 0.669137 0.719531
O O7 0.596165 0.000000 0.703188
O O8 0.500000 0.240470 0.500000
O O9 0.492311 0.500000 0.563041
O O10 0.996310 0.000000 0.754263
O O11 0.242875 0.000000 0.831582
O O12 0.558547 0.345757 0.964095
O O13 0.384763 0.154661 0.941439
O O14 0.944075 0.000000 0.849828
O O15 0.808924 0.000000 0.072773
#
# Coordination Sequence:
#
# PCOD8102670 Si02
#       8
#     8   8   8   4   4   4   4   4
#     4   9  20  38  56  81 114 146 190 242 290 350
#     4  10  20  37  58  82 112 147 191 242 291 346
#     4  10  21  37  55  79 112 151 190 235 295 349
#     4   9  19  39  60  85 118 151 190 240 295 348
#     4  10  22  40  62  94 122 162 210 236 296 382
#     4   9  19  37  62  85 114 155 190 236 301 342
#     4  10  21  41  62  90 128 158 202 256 294 361
#     4  10  21  41  64  88 126 166 196 250 310 351
#
# _framework density 21.260135999999999
#
# number of rings (size 3 to 8) (size 9 to 14) (size 15 to 20)
#    0.000    2.364    0.909    0.545    1.273    2.545 
#    6.545    0.000    0.000    0.000    0.000    0.000 
#    0.000    0.000    0.000    0.000    0.000    0.000 
#
# Total GULP energy -272703.707583 kJ/mol
# GULP energy per Si atom -12395.623072 kJ/mol
# Density = 2.121175 g / cm^3
# Si number density = 21.260136 Si / 1000 Ang^3
#
#
#
# Elastic Constant Matrix: (Units=GPa)
#
#
# Indices 1 2 3 4 5 6 
#
# 1 52.0320 50.6131 16.5929 0.0000 6.4107 0.0000
# 2 50.6131 154.4221 62.6369 0.0000 5.7497 0.0000
# 3 16.5929 62.6369 137.4679 0.0000 9.7379 0.0000
# 4 0.0000 0.0000 0.0000 37.6243 0.0000 -0.6227
# 5 6.4107 5.7497 9.7379 0.0000 29.3556 0.0000
# 6 0.0000 0.0000 0.0000 -0.6227 0.0000 4.8865
#
#
#
# Elastic Compliance Matrix: (Units=1/GPa)
#
#
# Indices 1 2 3 4 5 6 
#
# 1 0.028981 -0.009861 0.001338 0.000000 -0.004841 0.000000
# 2 -0.009861 0.011303 -0.004051 0.000000 0.001283 0.000000
# 3 0.001338 -0.004051 0.009138 0.000000 -0.002530 0.000000
# 4 0.000000 0.000000 0.000000 0.026635 0.000000 0.003394
# 5 -0.004841 0.001283 -0.002530 0.000000 0.035710 0.000000
# 6 0.000000 0.000000 0.000000 0.003394 0.000000 0.205080
#
#
# Mechanical properties :
#
#
# Convention : Reuss Voigt Hill
#
# Bulk Modulus (GPa) = 41.19627 67.06754 54.13190
# Shear Modulus (GPa) = 14.28217 28.64522 21.46370
#
# Velocity S-wave (km/s) = 2.59469 3.67463 3.18083
# Velocity P-wave (km/s) = 5.32877 7.04404 6.24557
#
# Compressibility (1/GPa) = 0.02427404
#
# Stress axis : x y z
#
# Youngs Moduli (GPa) = 34.50521 88.47020 109.43414
#
# Poissons Ratio (x) = 0.87243 -0.14643
# Poissons Ratio (y) = 0.34027 0.44331
# Poissons Ratio (z) = -0.04617 0.35838
#
# Static dielectric constant tensor:
#      x y z
#    x 3.888580 0.000000 -0.097400 
#    y 0.000000 4.417020 0.000000 
#    z -0.097400 0.000000 3.762410 
# 
# 
# High freq. dielectric constant tensor:
#      x y z
#    x 1.854100 0.000000 -0.012600 
#    y 0.000000 1.853710 0.000000 
#    z -0.012600 0.000000 1.819510 
# 
# From -- ./inp_files/308680.got.cif
#   From: 2010.06.25/outbox.cif.g09.slc.cpg/sg12_155_cif.got.tgz:308680.got - 2010.06.28 00:19:55.
