data_PCOD8102370
_publ_section_title
;
Structure prediction by ZEFSAII (Michael W. Deem and Ramdas Pophale) SiO2 
 PCOD8102370
Probable space group: C 2/M
;
_chemical_formula_sum "Si O2"
_cell_formula_units_Z 56
_cell_length_a 12.701154
_cell_length_b 26.040437
_cell_length_c 9.302568
_cell_angle_alpha 90.000000
_cell_angle_beta 59.733213
_cell_angle_gamma 90.000000
_cell_volume 2657.364461
_symmetry_space_group_name_H-M "C 2/M"
_symmetry_group_IT_number 12
_symmetry_cell_setting 'monoclinic'
loop_
_space_group_symop_operation_xyz
x,y,z
-x,y,-z
-x,-y,-z
x,-y,z
1/2+x,1/2+y,z
1/2-x,1/2+y,-z
1/2-x,1/2-y,-z
1/2+x,1/2-y,z
loop_
_atom_site_type_symbol
_atom_site_label
_atom_site_fract_x
_atom_site_fract_y
_atom_site_fract_z
Si Si1 0.755409 0.556342 0.419610
Si Si2 0.091148 0.647150 0.639654
Si Si3 0.469199 0.376870 0.361806
Si Si4 0.634281 0.208845 0.879004
Si Si5 0.209684 0.188171 0.694815
Si Si6 0.701367 0.441321 0.129562
Si Si7 0.183190 0.643898 0.114312
O O1 0.770617 0.500000 0.473676
O O2 0.863854 0.589119 0.414780
O O3 0.625993 0.577195 0.559783
O O4 0.761202 0.555657 0.244022
O O5 0.124476 0.660221 0.781023
O O6 0.166084 0.684697 0.483170
O O7 0.946881 0.649858 0.715695
O O8 0.500000 0.355105 0.500000
O O9 0.410806 0.329839 0.310401
O O10 0.585259 0.402856 0.205707
O O11 0.708928 0.253031 0.747231
O O12 0.500000 0.231492 0.000000
O O13 0.697943 0.187515 0.979922
O O14 0.215785 0.153408 0.833717
O O15 0.671342 0.500000 0.098430
O O16 0.799712 0.413904 0.957433
#
# Coordination Sequence:
#
# PCOD8102370 Si02
#       7
#     8   8   8   8   8   8   8
#     4   9  17  34  63  90 117 161 208 252 304 358
#     4  10  21  41  59  89 122 159 206 255 291 365
#     4   9  20  38  60  92 123 156 207 260 299 365
#     4  10  22  40  62  89 120 158 205 258 303 354
#     4  11  23  40  64  86 121 170 205 245 315 365
#     4  10  20  36  62  92 125 162 203 254 309 361
#     4  11  23  39  60  90 130 159 200 255 304 364
#
# _framework density 21.073509000000001
#
# number of rings (size 3 to 8) (size 9 to 14) (size 15 to 20)
#    0.000    2.000    1.429    1.714    2.000    2.286 
#    0.000    5.714    0.000    4.286    0.000    0.000 
#    0.000    0.000    0.000    0.000    0.000    0.000 
#
# Total GULP energy -347115.798282 kJ/mol
# GULP energy per Si atom -12396.992796 kJ/mol
# Density = 2.102555 g / cm^3
# Si number density = 21.073509 Si / 1000 Ang^3
#
#
#
# Elastic Constant Matrix: (Units=GPa)
#
#
# Indices 1 2 3 4 5 6 
#
# 1 86.3268 42.6020 34.8147 0.0000 9.7832 0.0000
# 2 42.6020 98.9357 30.0441 0.0000 -8.1799 0.0000
# 3 34.8147 30.0441 78.6239 0.0000 -8.2897 0.0000
# 4 0.0000 0.0000 0.0000 20.6218 0.0000 -5.1858
# 5 9.7832 -8.1799 -8.2897 0.0000 29.5160 0.0000
# 6 0.0000 0.0000 0.0000 -5.1858 0.0000 16.7164
#
#
#
# Elastic Compliance Matrix: (Units=1/GPa)
#
#
# Indices 1 2 3 4 5 6 
#
# 1 0.018861 -0.006896 -0.006778 0.000000 -0.010066 0.000000
# 2 -0.006896 0.014071 -0.001722 0.000000 0.005701 0.000000
# 3 -0.006778 -0.001722 0.017070 0.000000 0.006564 0.000000
# 4 0.000000 0.000000 0.000000 0.052595 0.000000 0.016316
# 5 -0.010066 0.005701 0.006564 0.000000 0.040640 0.000000
# 6 0.000000 0.000000 0.000000 0.016316 0.000000 0.064883
#
#
# Mechanical properties :
#
#
# Convention : Reuss Voigt Hill
#
# Bulk Modulus (GPa) = 52.05500 53.20092 52.62796
# Shear Modulus (GPa) = 20.38177 23.79922 22.09050
#
# Velocity S-wave (km/s) = 3.11332 3.36422 3.24120
# Velocity P-wave (km/s) = 6.13832 6.35538 6.24779
#
# Compressibility (1/GPa) = 0.01921045
#
# Stress axis : x y z
#
# Youngs Moduli (GPa) = 53.01895 71.06655 58.58116
#
# Poissons Ratio (x) = 0.49005 0.39707
# Poissons Ratio (y) = 0.36560 0.10090
# Poissons Ratio (z) = 0.35937 0.12241
#
# Static dielectric constant tensor:
#      x y z
#    x 3.775660 0.000000 -0.029480 
#    y 0.000000 3.731590 0.000000 
#    z -0.029480 0.000000 3.870800 
# 
# 
# High freq. dielectric constant tensor:
#      x y z
#    x 1.811970 0.000000 -0.002760 
#    y 0.000000 1.818780 0.000000 
#    z -0.002760 0.000000 1.827940 
# 
# From -- ./inp_files/53146.got.cif
#   From: 2010.06.25/outbox.cif.g09.slc.cpg/sg12_27_cif.got.tgz:53146.got - 2010.06.28 00:19:55.
