data_PCOD8102340
_publ_section_title
;
Structure prediction by ZEFSAII (Michael W. Deem and Ramdas Pophale) SiO2 
 PCOD8102340
Probable space group: C 2/M
;
_chemical_formula_sum "Si O2"
_cell_formula_units_Z 40
_cell_length_a 9.846298
_cell_length_b 17.977557
_cell_length_c 11.438749
_cell_angle_alpha 90.000000
_cell_angle_beta 89.259532
_cell_angle_gamma 90.000000
_cell_volume 2024.631137
_symmetry_space_group_name_H-M "C 2/M"
_symmetry_group_IT_number 12
_symmetry_cell_setting 'monoclinic'
loop_
_space_group_symop_operation_xyz
x,y,z
-x,y,-z
-x,-y,-z
x,-y,z
1/2+x,1/2+y,z
1/2-x,1/2+y,-z
1/2-x,1/2-y,-z
1/2+x,1/2-y,z
loop_
_atom_site_type_symbol
_atom_site_label
_atom_site_fract_x
_atom_site_fract_y
_atom_site_fract_z
Si Si1 0.266912 0.915612 0.724217
Si Si2 0.013220 0.916015 0.875437
Si Si3 0.779359 0.087868 0.721498
Si Si4 0.982576 0.588153 0.132226
Si Si5 0.164052 0.175288 0.506519
O O1 0.168034 0.915198 0.836129
O O2 0.405316 0.882019 0.776471
O O3 0.202229 0.864662 0.626244
O O4 0.285278 0.000000 0.675935
O O5 0.916449 0.880078 0.778900
O O6 0.957070 0.000000 0.892177
O O7 0.000000 0.873916 0.000000
O O8 0.659396 0.112961 0.809946
O O9 0.772900 0.124957 0.595723
O O10 0.778385 0.000000 0.699552
O O11 0.997954 0.500000 0.124467
O O12 0.000000 0.621192 0.000000
O O13 0.250000 0.250000 0.500000
O O14 0.000000 0.186839 0.500000
#
# Coordination Sequence:
#
# PCOD8102340 Si02
#       5
#     8   8   8   8   8
#     4  10  20  36  62  90 118 153 194 241 288 341
#     4   9  16  29  55  90 118 143 184 239 294 341
#     4  10  20  36  62  90 118 153 194 241 288 341
#     4   9  18  33  57  94 130 153 182 233 294 351
#     4  12  27  43  60  82 116 157 200 249 297 349
#
# _framework density 19.756685999999998
#
# number of rings (size 3 to 8) (size 9 to 14) (size 15 to 20)
#    0.000    2.000    2.000    1.800    2.800    5.600 
#    0.000    3.000    0.000    7.200    0.000    0.000 
#    0.000    0.000    0.000    0.000    0.000    0.000 
#
# Total GULP energy -247868.039763 kJ/mol
# GULP energy per Si atom -12393.401988 kJ/mol
# Density = 1.971172 g / cm^3
# Si number density = 19.756686 Si / 1000 Ang^3
#
#
#
# Elastic Constant Matrix: (Units=GPa)
#
#
# Indices 1 2 3 4 5 6 
#
# 1 108.7976 30.9734 30.2169 0.0000 2.8333 0.0000
# 2 30.9734 55.7682 37.9138 0.0000 0.7521 0.0000
# 3 30.2169 37.9138 120.2085 0.0000 -2.1500 0.0000
# 4 0.0000 0.0000 0.0000 -2.8465 0.0000 -1.1216
# 5 2.8333 0.7521 -2.1500 0.0000 39.0338 0.0000
# 6 0.0000 0.0000 0.0000 -1.1216 0.0000 21.0348
#
#
#
# Elastic Compliance Matrix: (Units=1/GPa)
#
#
# Indices 1 2 3 4 5 6 
#
# 1 0.011047 -0.005382 -0.001093 0.000000 -0.000758 0.000000
# 2 -0.005382 0.025475 -0.006690 0.000000 -0.000469 0.000000
# 3 -0.001093 -0.006690 0.010718 0.000000 0.000799 0.000000
# 4 0.000000 0.000000 0.000000 -0.344077 0.000000 -0.018347
# 5 -0.000758 -0.000469 0.000799 0.000000 0.025727 0.000000
# 6 0.000000 0.000000 0.000000 -0.018347 0.000000 0.046562
#
#
# Mechanical properties :
#
#
# Convention : Reuss Voigt Hill
#
# Bulk Modulus (GPa) = 47.82541 53.66470 50.74506
# Shear Modulus (GPa) = -26.14425 23.82243 -1.16091
#
# Velocity S-wave (km/s) = -3.64168 3.47622 -0.76738
# Velocity P-wave (km/s) = 2.56462 6.58285 4.99556
#
# Compressibility (1/GPa) = 0.02090939
#
# Stress axis : x y z
#
# Youngs Moduli (GPa) = 90.52308 39.25358 93.30060
#
# Poissons Ratio (x) = 0.21127 0.10197
# Poissons Ratio (y) = 0.48721 0.62422
# Poissons Ratio (z) = 0.09893 0.26262
#
# Static dielectric constant tensor:
#      x y z
#    x 3.776650 0.000000 0.112690 
#    y 0.000000 3.136670 0.000000 
#    z 0.112690 0.000000 3.796380 
# 
# 
# High freq. dielectric constant tensor:
#      x y z
#    x 1.786800 0.000000 0.003180 
#    y 0.000000 1.710260 0.000000 
#    z 0.003180 0.000000 1.789400 
# 
# From -- ./inp_files/119141.got.cif
#   From: 2010.06.25/outbox.cif.g09.slc.cpg/sg12_60_cif.got.tgz:119141.got - 2010.06.28 00:19:55.
