data_PCOD8102262
_publ_section_title
;
Structure prediction by ZEFSAII (Michael W. Deem and Ramdas Pophale) SiO2 
 PCOD8102262
Probable space group: C 2/M
;
_chemical_formula_sum "Si O2"
_cell_formula_units_Z 56
_cell_length_a 26.733270
_cell_length_b 9.046810
_cell_length_c 12.545781
_cell_angle_alpha 90.000000
_cell_angle_beta 67.313805
_cell_angle_gamma 90.000000
_cell_volume 2799.453896
_symmetry_space_group_name_H-M "C 2/M"
_symmetry_group_IT_number 12
_symmetry_cell_setting 'monoclinic'
loop_
_space_group_symop_operation_xyz
x,y,z
-x,y,-z
-x,-y,-z
x,-y,z
1/2+x,1/2+y,z
1/2-x,1/2+y,-z
1/2-x,1/2-y,-z
1/2+x,1/2-y,z
loop_
_atom_site_type_symbol
_atom_site_label
_atom_site_fract_x
_atom_site_fract_y
_atom_site_fract_z
Si Si1 0.000931 0.329010 0.816055
Si Si2 0.388762 0.325493 0.219570
Si Si3 0.847445 0.826381 0.668959
Si Si4 0.199340 0.673315 0.095096
Si Si5 0.887565 0.330547 0.008912
Si Si6 0.307075 0.673831 0.469072
Si Si7 0.544041 0.833319 0.372683
O O1 0.018333 0.500000 0.803945
O O2 0.984203 0.278690 0.711834
O O3 0.050938 0.232220 0.811896
O O4 0.950889 0.299704 0.936497
O O5 0.390438 0.500000 0.215950
O O6 0.366634 0.267694 0.124354
O O7 0.348918 0.268146 0.345152
O O8 0.808035 0.740836 0.781817
O O9 0.830709 0.780926 0.563923
O O10 0.909131 0.779249 0.635292
O O11 0.841697 0.000000 0.693845
O O12 0.210411 0.500000 0.095840
O O13 0.250000 0.750000 0.000000
O O14 0.145763 0.708859 0.070077
O O15 0.877674 0.500000 0.048563
O O16 0.298579 0.500000 0.466366
O O17 0.250000 0.750000 0.500000
O O18 0.500000 0.831316 0.500000
O O19 0.567769 0.000000 0.337200
#
# Coordination Sequence:
#
# PCOD8102262 Si02
#       7
#     8   8   8   8   8   8   8
#     4  10  20  38  60  88 123 162 203 245 302 367
#     4  11  24  40  60  91 125 158 205 258 305 358
#     4  11  23  41  64  92 126 161 204 255 314 371
#     4  11  24  43  66  94 127 162 206 257 310 368
#     4  10  22  41  63  88 124 164 202 247 303 367
#     4  10  25  45  63  88 122 161 206 256 307 363
#     4  10  20  36  61  91 123 163 210 252 301 369
#
# _framework density 20.003900000000002
#
# number of rings (size 3 to 8) (size 9 to 14) (size 15 to 20)
#    0.000    1.571    1.429    2.571    2.000    6.571 
#    0.000    0.000    0.000    0.000    0.000    0.000 
#    0.000    0.000    0.000    0.000    0.000    0.000 
#
# Total GULP energy -347357.964283 kJ/mol
# GULP energy per Si atom -12405.641582 kJ/mol
# Density = 1.995837 g / cm^3
# Si number density = 20.003900 Si / 1000 Ang^3
#
#
#
# Elastic Constant Matrix: (Units=GPa)
#
#
# Indices 1 2 3 4 5 6 
#
# 1 63.6050 36.3665 32.2721 0.0000 -5.7550 0.0000
# 2 36.3665 76.8813 53.3777 0.0000 0.6479 0.0000
# 3 32.2721 53.3777 144.3970 0.0000 5.0903 0.0000
# 4 0.0000 0.0000 0.0000 35.4548 0.0000 0.0470
# 5 -5.7550 0.6479 5.0903 0.0000 35.1179 0.0000
# 6 0.0000 0.0000 0.0000 0.0470 0.0000 37.3476
#
#
#
# Elastic Compliance Matrix: (Units=1/GPa)
#
#
# Indices 1 2 3 4 5 6 
#
# 1 0.022330 -0.009460 -0.001637 0.000000 0.004071 0.000000
# 2 -0.009460 0.021519 -0.005801 0.000000 -0.001106 0.000000
# 3 -0.001637 -0.005801 0.009490 0.000000 -0.001537 0.000000
# 4 0.000000 0.000000 0.000000 0.028205 0.000000 -0.000036
# 5 0.004071 -0.001106 -0.001537 0.000000 0.029386 0.000000
# 6 0.000000 0.000000 0.000000 -0.000036 0.000000 0.026776
#
#
# Mechanical properties :
#
#
# Convention : Reuss Voigt Hill
#
# Bulk Modulus (GPa) = 51.17304 58.76843 54.97073
# Shear Modulus (GPa) = 28.08723 32.44187 30.26455
#
# Velocity S-wave (km/s) = 3.75118 4.03150 3.89386
# Velocity P-wave (km/s) = 6.66325 7.14933 6.91056
#
# Compressibility (1/GPa) = 0.01954154
#
# Stress axis : x y z
#
# Youngs Moduli (GPa) = 44.78286 46.47026 105.37449
#
# Poissons Ratio (x) = 0.43962 0.17251
# Poissons Ratio (y) = 0.42366 0.61132
# Poissons Ratio (z) = 0.07331 0.26959
#
# Static dielectric constant tensor:
#      x y z
#    x 3.803920 0.000000 0.045160 
#    y 0.000000 3.641370 0.000000 
#    z 0.045160 0.000000 3.972970 
# 
# 
# High freq. dielectric constant tensor:
#      x y z
#    x 1.783880 0.000000 0.002890 
#    y 0.000000 1.775720 0.000000 
#    z 0.002890 0.000000 1.802190 
# 
# From -- ./inp_files/180763.got.cif
#   From: 2010.06.25/outbox.cif.g09.slc.cpg/sg12_91_cif.got.tgz:180763.got - 2010.06.28 00:19:55.
