data_PCOD8102960
_publ_section_title
;
Structure prediction by ZEFSAII (Michael W. Deem and Ramdas Pophale) SiO2 
 PCOD8102960
Probable space group: C 2/M
;
_chemical_formula_sum "Si O2"
_cell_formula_units_Z 48
_cell_length_a 16.108532
_cell_length_b 8.460664
_cell_length_c 17.278805
_cell_angle_alpha 90.000000
_cell_angle_beta 90.035036
_cell_angle_gamma 90.000000
_cell_volume 2354.908485
_symmetry_space_group_name_H-M "C 2/M"
_symmetry_group_IT_number 12
_symmetry_cell_setting 'monoclinic'
loop_
_space_group_symop_operation_xyz
x,y,z
-x,y,-z
-x,-y,-z
x,-y,z
1/2+x,1/2+y,z
1/2-x,1/2+y,-z
1/2-x,1/2-y,-z
1/2+x,1/2-y,z
loop_
_atom_site_type_symbol
_atom_site_label
_atom_site_fract_x
_atom_site_fract_y
_atom_site_fract_z
Si Si1 0.410367 0.315363 0.823106
Si Si2 0.399843 0.681189 0.181619
Si Si3 0.244138 0.313020 0.085815
Si Si4 0.659828 0.187524 0.501150
Si Si5 0.074246 0.179874 0.649002
Si Si6 0.093901 0.678999 0.337156
O O1 0.409105 0.500000 0.838894
O O2 0.505977 0.248878 0.833365
O O3 0.345674 0.235547 0.881182
O O4 0.376806 0.282172 0.736041
O O5 0.406107 0.500000 0.157075
O O6 0.324384 0.759458 0.132341
O O7 0.372427 0.698101 0.271943
O O8 0.248886 0.500000 0.087651
O O9 0.250000 0.250000 0.000000
O O10 0.750000 0.250000 0.500000
O O11 0.622110 0.284835 0.571310
O O12 0.625040 0.245122 0.418996
O O13 0.649685 0.000000 0.513326
O O14 0.004475 0.311988 0.656199
O O15 0.038723 0.000000 0.645828
O O16 0.123910 0.500000 0.323841
#
# Coordination Sequence:
#
# PCOD8102960 Si02
#       6
#     8   8   8   8   8   8
#     4  10  21  40  64  91 118 155 202 247 295 356
#     4   8  19  39  62  85 118 159 195 236 297 359
#     4  11  23  41  63  90 122 157 194 241 299 361
#     4  11  24  37  52  80 117 156 197 243 293 343
#     4  10  20  37  60  84 111 151 198 243 292 350
#     4  10  21  38  58  82 115 155 194 240 296 349
#
# _framework density 20.382957999999999
#
# number of rings (size 3 to 8) (size 9 to 14) (size 15 to 20)
#    0.000    2.000    0.000    4.000    2.333    5.333 
#    0.000   12.500    0.000    0.000    0.000    0.000 
#    0.000    0.000    0.000    0.000    0.000    0.000 
#
# Total GULP energy -297325.116616 kJ/mol
# GULP energy per Si atom -12388.546526 kJ/mol
# Density = 2.033657 g / cm^3
# Si number density = 20.382958 Si / 1000 Ang^3
#
#
#
# Elastic Constant Matrix: (Units=GPa)
#
#
# Indices 1 2 3 4 5 6 
#
# 1 70.7522 15.2040 41.8427 0.0000 1.5958 0.0000
# 2 15.2040 47.9138 22.5940 0.0000 5.6438 0.0000
# 3 41.8427 22.5940 129.8239 0.0000 2.3411 0.0000
# 4 0.0000 0.0000 0.0000 35.8346 0.0000 -5.0633
# 5 1.5958 5.6438 2.3411 0.0000 39.5894 0.0000
# 6 0.0000 0.0000 0.0000 -5.0633 0.0000 30.1355
#
#
#
# Elastic Compliance Matrix: (Units=1/GPa)
#
#
# Indices 1 2 3 4 5 6 
#
# 1 0.017909 -0.003231 -0.005211 0.000000 0.000047 0.000000
# 2 -0.003231 0.023684 -0.003025 0.000000 -0.003067 0.000000
# 3 -0.005211 -0.003025 0.009908 0.000000 0.000055 0.000000
# 4 0.000000 0.000000 0.000000 0.028585 0.000000 0.004803
# 5 0.000047 -0.003067 0.000055 0.000000 0.025691 0.000000
# 6 0.000000 0.000000 0.000000 0.004803 0.000000 0.033990
#
#
# Mechanical properties :
#
#
# Convention : Reuss Voigt Hill
#
# Bulk Modulus (GPa) = 35.00610 45.30792 40.15701
# Shear Modulus (GPa) = 29.03224 32.36852 30.70038
#
# Velocity S-wave (km/s) = 3.77814 3.98932 3.88516
# Velocity P-wave (km/s) = 6.02029 6.59516 6.31427
#
# Compressibility (1/GPa) = 0.02856645
#
# Stress axis : x y z
#
# Youngs Moduli (GPa) = 55.83905 42.22275 100.93274
#
# Poissons Ratio (x) = 0.13643 0.52591
# Poissons Ratio (y) = 0.18043 0.30533
# Poissons Ratio (z) = 0.29095 0.12773
#
# Static dielectric constant tensor:
#      x y z
#    x 3.880480 0.000000 0.153820 
#    y 0.000000 1.957370 0.000000 
#    z 0.153820 0.000000 3.685080 
# 
# 
# High freq. dielectric constant tensor:
#      x y z
#    x 1.795430 0.000000 -0.000210 
#    y 0.000000 1.782210 0.000000 
#    z -0.000210 0.000000 1.807760 
# 
# From -- ./inp_files/267716.got.cif
#   From: 2010.06.25/outbox.cif.g09.slc.cpg/sg12_134_cif.got.tgz:267716.got - 2010.06.28 00:19:55.
