data_PCOD8102008
_publ_section_title
;
Structure prediction by ZEFSAII (Michael W. Deem and Ramdas Pophale) SiO2 
 PCOD8102008
Probable space group: C 2/M
;
_chemical_formula_sum "Si O2"
_cell_formula_units_Z 64
_cell_length_a 17.898255
_cell_length_b 8.775650
_cell_length_c 30.235604
_cell_angle_alpha 90.000000
_cell_angle_beta 138.045178
_cell_angle_gamma 90.000000
_cell_volume 3174.964732
_symmetry_space_group_name_H-M "C 2/M"
_symmetry_group_IT_number 12
_symmetry_cell_setting 'monoclinic'
loop_
_space_group_symop_operation_xyz
x,y,z
-x,y,-z
-x,-y,-z
x,-y,z
1/2+x,1/2+y,z
1/2-x,1/2+y,-z
1/2-x,1/2-y,-z
1/2+x,1/2-y,z
loop_
_atom_site_type_symbol
_atom_site_label
_atom_site_fract_x
_atom_site_fract_y
_atom_site_fract_z
Si Si1 0.714213 0.822157 0.810582
Si Si2 0.064847 0.823876 0.818907
Si Si3 0.071577 0.323401 0.422577
Si Si4 0.190164 0.825022 0.309121
Si Si5 0.344014 0.677913 0.307049
Si Si6 0.769057 0.823903 0.573832
Si Si7 0.528312 0.675230 0.062945
Si Si8 0.131149 0.322134 0.938625
O O1 0.653171 0.730860 0.822011
O O2 0.667904 0.771777 0.743077
O O3 0.844355 0.783016 0.870973
O O4 0.691197 0.000000 0.807339
O O5 0.078227 0.733794 0.869944
O O6 0.941439 0.794306 0.745947
O O7 0.086504 0.000000 0.838426
O O8 0.038805 0.500000 0.405912
O O9 0.133741 0.278066 0.404664
O O10 0.150638 0.287039 0.499134
O O11 0.960710 0.224448 0.380931
O O12 0.243706 0.716538 0.296082
O O13 0.242436 0.784155 0.379689
O O14 0.215369 0.000000 0.307282
O O15 0.341779 0.500000 0.295144
O O16 0.802805 0.000000 0.581631
O O17 0.502846 0.500000 0.063955
O O18 0.452113 0.783888 0.058473
O O19 0.500000 0.709236 0.000000
O O20 0.148971 0.500000 0.943453
O O21 0.250000 0.250000 0.000000
#
# Coordination Sequence:
#
# PCOD8102008 Si02
#       8
#     8   8   8   8   8   8   8   8
#     4  11  23  40  64  91 121 157 197 242 294 353
#     4  11  23  40  64  92 123 157 195 242 296 356
#     4  10  20  36  60  87 117 153 194 242 296 355
#     4  10  22  40  60  84 117 155 194 240 297 355
#     4  12  25  39  57  83 118 157 200 248 294 347
#     4   9  19  37  61  88 117 151 193 242 296 355
#     4  10  22  41  64  91 123 156 193 242 300 357
#     4  12  25  41  63  90 123 161 203 249 295 348
#
# _framework density 20.157703000000001
#
# number of rings (size 3 to 8) (size 9 to 14) (size 15 to 20)
#    0.000    1.375    0.000    5.625    0.000    8.750 
#    0.000    2.500    0.000    0.000    0.000    0.000 
#    0.000    0.000    0.000    0.000    0.000    0.000 
#
# Total GULP energy -397037.270333 kJ/mol
# GULP energy per Si atom -12407.414698 kJ/mol
# Density = 2.011182 g / cm^3
# Si number density = 20.157703 Si / 1000 Ang^3
#
#
#
# Elastic Constant Matrix: (Units=GPa)
#
#
# Indices 1 2 3 4 5 6 
#
# 1 103.9284 52.2348 39.5004 0.0000 1.1935 0.0000
# 2 52.2348 88.0165 46.9531 0.0000 7.8468 0.0000
# 3 39.5004 46.9531 102.6395 0.0000 -0.3572 0.0000
# 4 0.0000 0.0000 0.0000 29.0409 0.0000 0.3968
# 5 1.1935 7.8468 -0.3572 0.0000 30.8099 0.0000
# 6 0.0000 0.0000 0.0000 0.3968 0.0000 41.3970
#
#
#
# Elastic Compliance Matrix: (Units=1/GPa)
#
#
# Indices 1 2 3 4 5 6 
#
# 1 0.014099 -0.007398 -0.002037 0.000000 0.001314 0.000000
# 2 -0.007398 0.019396 -0.006042 0.000000 -0.004723 0.000000
# 3 -0.002037 -0.006042 0.013297 0.000000 0.001772 0.000000
# 4 0.000000 0.000000 0.000000 0.034439 0.000000 -0.000330
# 5 0.001314 -0.004723 0.001772 0.000000 0.033630 0.000000
# 6 0.000000 0.000000 0.000000 -0.000330 0.000000 0.024159
#
#
# Mechanical properties :
#
#
# Convention : Reuss Voigt Hill
#
# Bulk Modulus (GPa) = 63.14009 63.55123 63.34566
# Shear Modulus (GPa) = 28.52980 30.64265 29.58622
#
# Velocity S-wave (km/s) = 3.76617 3.90313 3.83526
# Velocity P-wave (km/s) = 7.09247 7.20473 7.14882
#
# Compressibility (1/GPa) = 0.01583780
#
# Stress axis : x y z
#
# Youngs Moduli (GPa) = 70.92476 51.55610 75.20392
#
# Poissons Ratio (x) = 0.38141 0.15322
# Poissons Ratio (y) = 0.52469 0.45441
# Poissons Ratio (z) = 0.14450 0.31152
#
# Static dielectric constant tensor:
#      x y z
#    x 3.638890 0.000000 0.012050 
#    y 0.000000 3.685550 0.000000 
#    z 0.012050 0.000000 3.847540 
# 
# 
# High freq. dielectric constant tensor:
#      x y z
#    x 1.791590 0.000000 0.000530 
#    y 0.000000 1.790340 0.000000 
#    z 0.000530 0.000000 1.804800 
# 
# From -- ./inp_files/378495.got.cif
#   From: 2010.06.25/outbox.cif.g09.slc.cpg/sg12_190_cif.got.tgz:378495.got - 2010.06.28 00:19:55.
