data_PCOD8102337
_publ_section_title
;
Structure prediction by ZEFSAII (Michael W. Deem and Ramdas Pophale) SiO2 
 PCOD8102337
Probable space group: C 2/M
;
_chemical_formula_sum "Si O2"
_cell_formula_units_Z 64
_cell_length_a 30.199409
_cell_length_b 14.375107
_cell_length_c 11.610368
_cell_angle_alpha 90.000000
_cell_angle_beta 137.687842
_cell_angle_gamma 90.000000
_cell_volume 3392.969151
_symmetry_space_group_name_H-M "C 2/M"
_symmetry_group_IT_number 12
_symmetry_cell_setting 'monoclinic'
loop_
_space_group_symop_operation_xyz
x,y,z
-x,y,-z
-x,-y,-z
x,-y,z
1/2+x,1/2+y,z
1/2-x,1/2+y,-z
1/2-x,1/2-y,-z
1/2+x,1/2-y,z
loop_
_atom_site_type_symbol
_atom_site_label
_atom_site_fract_x
_atom_site_fract_y
_atom_site_fract_z
Si Si1 0.802679 0.752895 0.703298
Si Si2 0.917863 0.391997 0.633069
Si Si3 0.067890 0.222489 0.186050
Si Si4 0.770513 0.398014 0.293074
Si Si5 0.388208 0.610837 0.513157
Si Si6 0.436183 0.229745 0.453771
Si Si7 0.301143 0.831667 0.105157
Si Si8 0.238163 0.395839 0.210695
O O1 0.750000 0.750000 0.500000
O O2 0.875605 0.774337 0.801253
O O3 0.783498 0.827815 0.763481
O O4 0.804088 0.655825 0.773518
O O5 0.939807 0.500000 0.690614
O O6 0.944897 0.325430 0.785775
O O7 0.839348 0.380573 0.489637
O O8 0.944068 0.352881 0.562104
O O9 0.088710 0.143861 0.317250
O O10 0.000000 0.188399 0.000000
O O11 0.743543 0.500000 0.269884
O O12 0.782094 0.392709 0.178804
O O13 0.398509 0.500000 0.516947
O O14 0.429535 0.668261 0.498525
O O15 0.312692 0.643371 0.349669
O O16 0.500000 0.231322 0.500000
O O17 0.374384 0.208765 0.253414
O O18 0.250000 0.750000 0.000000
O O19 0.296007 0.892275 0.979627
O O20 0.241018 0.500000 0.261003
#
# Coordination Sequence:
#
# PCOD8102337 Si02
#       8
#     8   8   8   8   8   8   8   8
#     4  12  21  38  61  87 116 151 200 247 287 343
#     4   9  19  38  60  83 115 154 191 234 295 357
#     4  11  24  40  58  82 117 157 196 241 295 349
#     4  10  20  36  62  90 115 151 196 242 294 348
#     4  10  21  40  60  82 116 159 196 238 299 351
#     4  10  21  37  61  89 118 156 192 236 292 354
#     4  11  19  38  62  85 121 155 189 242 294 346
#     4  11  22  37  63  93 118 151 198 249 295 344
#
# _framework density 18.862535999999999
#
# number of rings (size 3 to 8) (size 9 to 14) (size 15 to 20)
#    0.000    1.500    5.000    1.125    0.000    5.000 
#    0.000    1.250    0.000    0.000    0.000    0.000 
#    0.000    0.000    0.000    0.000    0.000    0.000 
#
# Total GULP energy -396821.867549 kJ/mol
# GULP energy per Si atom -12400.683361 kJ/mol
# Density = 1.881960 g / cm^3
# Si number density = 18.862536 Si / 1000 Ang^3
#
#
#
# Elastic Constant Matrix: (Units=GPa)
#
#
# Indices 1 2 3 4 5 6 
#
# 1 133.9250 40.8180 52.1156 0.0000 13.8343 0.0000
# 2 40.8180 97.4901 22.0185 0.0000 2.4097 0.0000
# 3 52.1156 22.0185 105.1759 0.0000 -1.3885 0.0000
# 4 0.0000 0.0000 0.0000 21.0975 0.0000 -4.1052
# 5 13.8343 2.4097 -1.3885 0.0000 29.8969 0.0000
# 6 0.0000 0.0000 0.0000 -4.1052 0.0000 12.1593
#
#
#
# Elastic Compliance Matrix: (Units=1/GPa)
#
#
# Indices 1 2 3 4 5 6 
#
# 1 0.010844 -0.003347 -0.004738 0.000000 -0.004968 0.000000
# 2 -0.003347 0.011828 -0.000810 0.000000 0.000558 0.000000
# 3 -0.004738 -0.000810 0.012063 0.000000 0.002818 0.000000
# 4 0.000000 0.000000 0.000000 0.050732 0.000000 0.017128
# 5 -0.004968 0.000558 0.002818 0.000000 0.035833 0.000000
# 6 0.000000 0.000000 0.000000 0.017128 0.000000 0.088025
#
#
# Mechanical properties :
#
#
# Convention : Reuss Voigt Hill
#
# Bulk Modulus (GPa) = 59.02043 62.94392 60.98217
# Shear Modulus (GPa) = 21.48103 27.40665 24.44384
#
# Velocity S-wave (km/s) = 3.37830 3.81592 3.60376
# Velocity P-wave (km/s) = 6.82458 7.27030 7.05096
#
# Compressibility (1/GPa) = 0.01694329
#
# Stress axis : x y z
#
# Youngs Moduli (GPa) = 92.21602 84.54408 82.90149
#
# Poissons Ratio (x) = 0.28300 0.39280
# Poissons Ratio (y) = 0.30868 0.06717
# Poissons Ratio (z) = 0.43694 0.06850
#
# Static dielectric constant tensor:
#      x y z
#    x 3.375150 0.000000 -0.209190 
#    y 0.000000 3.466810 0.000000 
#    z -0.209190 0.000000 3.656840 
# 
# 
# High freq. dielectric constant tensor:
#      x y z
#    x 1.725640 0.000000 -0.012460 
#    y 0.000000 1.740200 0.000000 
#    z -0.012460 0.000000 1.724710 
# 
# From -- ./inp_files/189461.got.cif
#   From: 2010.06.25/outbox.cif.g09.slc.cpg/sg12_95_cif.got.tgz:189461.got - 2010.06.28 00:19:55.
