data_PCOD8102566
_publ_section_title
;
Structure prediction by ZEFSAII (Michael W. Deem and Ramdas Pophale) SiO2 
 PCOD8102566
Probable space group: C 2/M
;
_chemical_formula_sum "Si O2"
_cell_formula_units_Z 56
_cell_length_a 23.273932
_cell_length_b 9.284178
_cell_length_c 31.333146
_cell_angle_alpha 90.000000
_cell_angle_beta 26.434258
_cell_angle_gamma 90.000000
_cell_volume 3014.003514
_symmetry_space_group_name_H-M "C 2/M"
_symmetry_group_IT_number 12
_symmetry_cell_setting 'monoclinic'
loop_
_space_group_symop_operation_xyz
x,y,z
-x,y,-z
-x,-y,-z
x,-y,z
1/2+x,1/2+y,z
1/2-x,1/2+y,-z
1/2-x,1/2-y,-z
1/2+x,1/2-y,z
loop_
_atom_site_type_symbol
_atom_site_label
_atom_site_fract_x
_atom_site_fract_y
_atom_site_fract_z
Si Si1 0.124049 0.666524 0.824960
Si Si2 0.410102 0.165579 0.249290
Si Si3 0.943670 0.331821 0.383465
Si Si4 0.332996 0.333104 0.910320
Si Si5 0.744820 0.834741 0.565829
Si Si6 0.651019 0.835637 0.953731
Si Si7 0.763143 0.670444 0.802974
O O1 0.154296 0.500000 0.814533
O O2 0.140811 0.701670 0.763909
O O3 0.225707 0.765975 0.781930
O O4 0.978898 0.707101 0.935102
O O5 0.524633 0.270030 0.186553
O O6 0.293265 0.192567 0.359806
O O7 0.459268 0.000000 0.219043
O O8 0.936841 0.500000 0.396922
O O9 0.872007 0.256334 0.470752
O O10 0.874795 0.288159 0.384955
O O11 0.091436 0.280448 0.282993
O O12 0.337266 0.500000 0.920565
O O13 0.270772 0.311589 0.905436
O O14 0.250000 0.250000 0.000000
O O15 0.779555 0.000000 0.534268
O O16 0.666363 0.734663 0.902548
O O17 0.644346 0.000000 0.942057
O O18 0.747225 0.500000 0.812998
#
# Coordination Sequence:
#
# PCOD8102566 Si02
#       7
#     8   8   8   8   8   8   8
#     4  10  21  38  55  74 109 150 183 223 270 323
#     4  10  20  37  57  81 113 146 181 224 274 323
#     4   9  19  36  55  80 112 137 168 223 279 321
#     4  11  21  34  54  81 112 145 180 220 268 321
#     4   9  18  34  60  85 105 136 176 219 270 328
#     4  10  21  37  55  78 108 146 184 222 273 322
#     4  11  23  37  55  80 107 142 186 230 273 318
#
# _framework density 18.579937999999999
#
# number of rings (size 3 to 8) (size 9 to 14) (size 15 to 20)
#    0.000    2.000    1.429    2.143    0.000    6.857 
#    0.000    3.571    0.000    4.286    0.000    0.000 
#    0.000    0.000    0.000    0.000    0.000    0.000 
#
# Total GULP energy -347318.209196 kJ/mol
# GULP energy per Si atom -12404.221757 kJ/mol
# Density = 1.853765 g / cm^3
# Si number density = 18.579938 Si / 1000 Ang^3
#
#
#
# Elastic Constant Matrix: (Units=GPa)
#
#
# Indices 1 2 3 4 5 6 
#
# 1 98.8396 44.8222 45.5410 0.0032 15.6478 -0.0182
# 2 44.8222 69.2583 38.8409 0.0066 4.3909 -0.0494
# 3 45.5410 38.8409 88.4730 0.0050 18.9407 0.0015
# 4 0.0032 0.0066 0.0050 33.2881 -0.0006 -1.4155
# 5 15.6478 4.3909 18.9407 -0.0006 27.6793 0.0025
# 6 -0.0182 -0.0494 0.0015 -1.4155 0.0025 30.9974
#
#
#
# Elastic Compliance Matrix: (Units=1/GPa)
#
#
# Indices 1 2 3 4 5 6 
#
# 1 0.016392 -0.008206 -0.003667 0.000000 -0.005456 -0.000003
# 2 -0.008206 0.023505 -0.007369 -0.000001 0.005953 0.000032
# 3 -0.003667 -0.007369 0.018432 -0.000002 -0.009371 -0.000014
# 4 0.000000 -0.000001 -0.000002 0.030099 0.000002 0.001375
# 5 -0.005456 0.005953 -0.009371 0.000002 0.044680 0.000003
# 6 -0.000003 0.000032 -0.000014 0.001375 0.000003 0.032324
#
#
# Mechanical properties :
#
#
# Convention : Reuss Voigt Hill
#
# Bulk Modulus (GPa) = 50.39421 57.21991 53.80706
# Shear Modulus (GPa) = 23.74935 26.88407 25.31671
#
# Velocity S-wave (km/s) = 3.57911 3.80799 3.69532
# Velocity P-wave (km/s) = 6.65295 7.08505 6.87240
#
# Compressibility (1/GPa) = 0.01984355
#
# Stress axis : x y z
#
# Youngs Moduli (GPa) = 61.00479 42.54422 54.25365
#
# Poissons Ratio (x) = 0.34912 0.19896
# Poissons Ratio (y) = 0.50061 0.39982
# Poissons Ratio (z) = 0.22372 0.31353
#
# Static dielectric constant tensor:
#      x y z
#    x 3.472550 -0.000010 0.006470 
#    y -0.000010 3.491310 0.000010 
#    z 0.006470 0.000010 3.379540 
# 
# 
# High freq. dielectric constant tensor:
#      x y z
#    x 1.720440 0.000000 0.006920 
#    y 0.000000 1.720130 0.000000 
#    z 0.006920 0.000000 1.714890 
# 
# From -- ./inp_files/237337.got.cif
#   From: 2010.06.25/outbox.cif.g09.slc.cpg/sg12_119_cif.got.tgz:237337.got - 2010.06.28 00:19:55.
