data_PCOD8102102
_publ_section_title
;
Structure prediction by ZEFSAII (Michael W. Deem and Ramdas Pophale) SiO2 
 PCOD8102102
Probable space group: C 2/M
;
_chemical_formula_sum "Si O2"
_cell_formula_units_Z 48
_cell_length_a 14.854500
_cell_length_b 8.431701
_cell_length_c 18.880485
_cell_angle_alpha 90.000000
_cell_angle_beta 90.636438
_cell_angle_gamma 90.000000
_cell_volume 2364.610361
_symmetry_space_group_name_H-M "C 2/M"
_symmetry_group_IT_number 12
_symmetry_cell_setting 'monoclinic'
loop_
_space_group_symop_operation_xyz
x,y,z
-x,y,-z
-x,-y,-z
x,-y,z
1/2+x,1/2+y,z
1/2-x,1/2+y,-z
1/2-x,1/2-y,-z
1/2+x,1/2-y,z
loop_
_atom_site_type_symbol
_atom_site_label
_atom_site_fract_x
_atom_site_fract_y
_atom_site_fract_z
Si Si1 0.131381 0.684467 0.811126
Si Si2 0.621547 0.818287 0.327329
Si Si3 0.179591 0.316049 0.170415
Si Si4 0.727013 0.184217 0.576134
Si Si5 0.070548 0.816784 0.664295
Si Si6 0.987245 0.687815 0.921653
O O1 0.112335 0.500000 0.795751
O O2 0.232661 0.708950 0.839125
O O3 0.118687 0.780380 0.738895
O O4 0.064305 0.753522 0.870032
O O5 0.631309 0.781491 0.244454
O O6 0.688671 0.707272 0.371199
O O7 0.519145 0.784957 0.348112
O O8 0.645310 0.000000 0.345066
O O9 0.206476 0.500000 0.164326
O O10 0.110592 0.263938 0.108427
O O11 0.750000 0.250000 0.500000
O O12 0.639508 0.276785 0.602482
O O13 0.703425 0.000000 0.571910
O O14 0.044306 0.000000 0.660751
O O15 0.997213 0.500000 0.925014
O O16 0.000000 0.762069 0.000000
#
# Coordination Sequence:
#
# PCOD8102102 Si02
#       6
#     8   8   8   8   8   8
#     4  11  21  36  60  90 120 160 210 258 309 369
#     4  11  22  40  65  95 126 163 208 258 311 369
#     4  10  20  36  60  89 121 159 205 254 308 368
#     4  12  26  45  67  95 129 165 204 255 312 370
#     4  12  24  40  64  94 126 165 210 258 307 367
#     4   9  19  37  59  85 122 165 205 252 311 370
#
# _framework density 20.299327000000002
#
# number of rings (size 3 to 8) (size 9 to 14) (size 15 to 20)
#    0.000    1.167    3.333    4.000    0.000    2.000 
#    0.000    3.333    0.000    3.500    0.000    0.000 
#    0.000    0.000    0.000    0.000    0.000    0.000 
#
# Total GULP energy -297754.014174 kJ/mol
# GULP energy per Si atom -12406.417257 kJ/mol
# Density = 2.025313 g / cm^3
# Si number density = 20.299327 Si / 1000 Ang^3
#
#
#
# Elastic Constant Matrix: (Units=GPa)
#
#
# Indices 1 2 3 4 5 6 
#
# 1 89.2635 6.4385 -2.0933 0.0000 -9.3810 0.0000
# 2 6.4385 63.4488 22.7275 0.0000 -1.7052 0.0000
# 3 -2.0933 22.7275 68.9071 0.0000 -9.1947 0.0000
# 4 0.0000 0.0000 0.0000 17.9271 0.0000 4.6902
# 5 -9.3810 -1.7052 -9.1947 0.0000 35.2854 0.0000
# 6 0.0000 0.0000 0.0000 4.6902 0.0000 34.6984
#
#
#
# Elastic Compliance Matrix: (Units=1/GPa)
#
#
# Indices 1 2 3 4 5 6 
#
# 1 0.011702 -0.001571 0.001325 0.000000 0.003381 0.000000
# 2 -0.001571 0.018100 -0.006171 0.000000 -0.001151 0.000000
# 3 0.001325 -0.006171 0.017193 0.000000 0.004534 0.000000
# 4 0.000000 0.000000 0.000000 0.057826 0.000000 -0.007816
# 5 0.003381 -0.001151 0.004534 0.000000 0.030365 0.000000
# 6 0.000000 0.000000 0.000000 -0.007816 0.000000 0.029876
#
#
# Mechanical properties :
#
#
# Convention : Reuss Voigt Hill
#
# Bulk Modulus (GPa) = 29.27389 30.64052 29.95720
# Shear Modulus (GPa) = 26.41524 30.55195 28.48360
#
# Velocity S-wave (km/s) = 3.61125 3.88373 3.74997
# Velocity P-wave (km/s) = 5.64275 5.93619 5.79132
#
# Compressibility (1/GPa) = 0.03416013
#
# Stress axis : x y z
#
# Youngs Moduli (GPa) = 85.45210 55.24935 58.16327
#
# Poissons Ratio (x) = 0.08681 -0.07706
# Poissons Ratio (y) = 0.13426 0.35893
# Poissons Ratio (z) = -0.11321 0.34095
#
# Static dielectric constant tensor:
#      x y z
#    x 3.740630 0.000000 -0.038710 
#    y 0.000000 3.521860 0.000000 
#    z -0.038710 0.000000 3.806170 
# 
# 
# High freq. dielectric constant tensor:
#      x y z
#    x 1.807210 0.000000 -0.001900 
#    y 0.000000 1.780990 0.000000 
#    z -0.001900 0.000000 1.790840 
# 
# From -- ./inp_files/267606.got.cif
#   From: 2010.06.25/outbox.cif.g09.slc.cpg/sg12_134_cif.got.tgz:267606.got - 2010.06.28 00:19:55.
