data_PCOD8102219
_publ_section_title
;
Structure prediction by ZEFSAII (Michael W. Deem and Ramdas Pophale) SiO2 
 PCOD8102219
Probable space group: C 2/M
;
_chemical_formula_sum "Si O2"
_cell_formula_units_Z 56
_cell_length_a 18.857010
_cell_length_b 8.747940
_cell_length_c 26.417329
_cell_angle_alpha 90.000000
_cell_angle_beta 42.427244
_cell_angle_gamma 90.000000
_cell_volume 2940.006390
_symmetry_space_group_name_H-M "C 2/M"
_symmetry_group_IT_number 12
_symmetry_cell_setting 'monoclinic'
loop_
_space_group_symop_operation_xyz
x,y,z
-x,y,-z
-x,-y,-z
x,-y,z
1/2+x,1/2+y,z
1/2-x,1/2+y,-z
1/2-x,1/2-y,-z
1/2+x,1/2-y,z
loop_
_atom_site_type_symbol
_atom_site_label
_atom_site_fract_x
_atom_site_fract_y
_atom_site_fract_z
Si Si1 0.834365 0.819243 0.418192
Si Si2 0.967214 0.180668 0.073745
Si Si3 0.858264 0.668877 0.950340
Si Si4 0.731926 0.179113 0.763904
Si Si5 0.527203 0.164563 0.211157
Si Si6 0.325132 0.326113 0.308643
Si Si7 0.061836 0.324555 0.303304
O O1 0.750000 0.750000 0.500000
O O2 0.793235 0.779959 0.382884
O O3 0.946057 0.744320 0.373001
O O4 0.844825 0.000000 0.419693
O O5 0.856641 0.246680 0.152942
O O6 0.060923 0.230370 0.060771
O O7 0.954935 0.000000 0.081288
O O8 0.000000 0.236955 0.000000
O O9 0.847920 0.500000 0.980810
O O10 0.890701 0.651150 0.875886
O O11 0.750000 0.750000 0.000000
O O12 0.723045 0.219637 0.709209
O O13 0.849457 0.229405 0.715017
O O14 0.718345 0.000000 0.777855
O O15 0.450601 0.305711 0.240512
O O16 0.591456 0.190864 0.228758
O O17 0.465475 0.000000 0.248193
O O18 0.295131 0.500000 0.311963
O O19 0.063217 0.500000 0.321569
#
# Coordination Sequence:
#
# PCOD8102219 Si02
#       7
#     8   8   8   8   8   8   8
#     4  10  21  39  64  95 126 157 195 239 290 351
#     4  11  25  43  61  83 116 158 203 251 306 359
#     4  11  23  38  57  84 115 149 196 247 299 355
#     4  12  24  39  60  88 122 157 200 249 299 355
#     4   9  19  36  57  81 110 148 193 242 293 346
#     4  10  20  36  61  88 116 154 197 236 285 348
#     4  10  21  38  61  88 120 157 198 242 293 350
#
# _framework density 19.047578999999999
#
# number of rings (size 3 to 8) (size 9 to 14) (size 15 to 20)
#    0.000    1.571    1.429    3.429    2.000    4.000 
#    0.000    0.714    0.000    4.286    0.000    0.000 
#    0.000    0.000    0.000    0.000    0.000    0.000 
#
# Total GULP energy -347004.171089 kJ/mol
# GULP energy per Si atom -12393.006110 kJ/mol
# Density = 1.900423 g / cm^3
# Si number density = 19.047579 Si / 1000 Ang^3
#
#
#
# Elastic Constant Matrix: (Units=GPa)
#
#
# Indices 1 2 3 4 5 6 
#
# 1 109.7131 48.1404 63.5871 0.0000 -0.8558 -0.0004
# 2 48.1404 109.2579 53.2975 0.0000 3.7064 -0.0010
# 3 63.5871 53.2975 115.7929 0.0000 6.5294 0.0000
# 4 0.0000 0.0000 0.0000 29.2345 0.0000 -7.4021
# 5 -0.8558 3.7064 6.5294 0.0000 24.9403 0.0000
# 6 -0.0004 -0.0010 0.0000 -7.4021 0.0000 28.1163
#
#
#
# Elastic Compliance Matrix: (Units=1/GPa)
#
#
# Indices 1 2 3 4 5 6 
#
# 1 0.014341 -0.003217 -0.006546 0.000000 0.002684 0.000000
# 2 -0.003217 0.012527 -0.003947 0.000000 -0.000939 0.000000
# 3 -0.006546 -0.003947 0.014237 0.000000 -0.003365 0.000000
# 4 0.000000 0.000000 0.000000 0.036649 0.000000 0.009649
# 5 0.002684 -0.000939 -0.003365 0.000000 0.041208 0.000000
# 6 0.000000 0.000000 0.000000 0.009649 0.000000 0.038107
#
#
# Mechanical properties :
#
#
# Convention : Reuss Voigt Hill
#
# Bulk Modulus (GPa) = 73.06450 73.86821 73.46636
# Shear Modulus (GPa) = 26.44799 27.77414 27.11106
#
# Velocity S-wave (km/s) = 3.73033 3.82271 3.77680
# Velocity P-wave (km/s) = 7.54957 7.63867 7.59425
#
# Compressibility (1/GPa) = 0.01368654
#
# Stress axis : x y z
#
# Youngs Moduli (GPa) = 69.73043 79.82753 70.23853
#
# Poissons Ratio (x) = 0.25677 0.45979
# Poissons Ratio (y) = 0.22429 0.27721
# Poissons Ratio (z) = 0.45646 0.31505
#
# Static dielectric constant tensor:
#      x y z
#    x 3.666260 0.000000 0.565010 
#    y 0.000000 3.882180 0.000000 
#    z 0.565010 0.000000 4.128440 
# 
# 
# High freq. dielectric constant tensor:
#      x y z
#    x 1.744540 0.000000 0.010070 
#    y 0.000000 1.757800 0.000000 
#    z 0.010070 0.000000 1.730220 
# 
# From -- ./inp_files/363021.got.cif
#   From: 2010.06.25/outbox.cif.g09.slc.cpg/sg12_182_cif.got.tgz:363021.got - 2010.06.28 00:19:55.
