data_PCOD8102360
_publ_section_title
;
Structure prediction by ZEFSAII (Michael W. Deem and Ramdas Pophale) SiO2 
 PCOD8102360
Probable space group: C 2/M
;
_chemical_formula_sum "Si O2"
_cell_formula_units_Z 64
_cell_length_a 30.737364
_cell_length_b 8.535418
_cell_length_c 14.429695
_cell_angle_alpha 90.000000
_cell_angle_beta 126.324052
_cell_angle_gamma 90.000000
_cell_volume 3050.078262
_symmetry_space_group_name_H-M "C 2/M"
_symmetry_group_IT_number 12
_symmetry_cell_setting 'monoclinic'
loop_
_space_group_symop_operation_xyz
x,y,z
-x,y,-z
-x,-y,-z
x,-y,z
1/2+x,1/2+y,z
1/2-x,1/2+y,-z
1/2-x,1/2-y,-z
1/2+x,1/2-y,z
loop_
_atom_site_type_symbol
_atom_site_label
_atom_site_fract_x
_atom_site_fract_y
_atom_site_fract_z
Si Si1 0.795120 0.182256 0.123257
Si Si2 0.897687 0.320534 0.166571
Si Si3 0.209223 0.181641 0.521958
Si Si4 0.055177 0.814626 0.116704
Si Si5 0.000053 0.815625 0.392005
Si Si6 0.136629 0.680548 0.077675
Si Si7 0.411178 0.684810 0.639323
Si Si8 0.750693 0.680950 0.242884
O O1 0.853976 0.204921 0.155270
O O2 0.792939 0.277051 0.216083
O O3 0.783963 0.000000 0.126926
O O4 0.750000 0.250000 0.000000
O O5 0.881881 0.500000 0.167891
O O6 0.954811 0.281619 0.282458
O O7 0.900444 0.291608 0.059597
O O8 0.250000 0.250000 0.500000
O O9 0.149144 0.258731 0.439608
O O10 0.234704 0.210046 0.653412
O O11 0.204092 0.000000 0.494984
O O12 0.105277 0.734954 0.128980
O O13 0.057610 0.761957 0.227535
O O14 0.060666 0.000000 0.112384
O O15 0.000000 0.753812 0.000000
O O16 0.000000 0.767740 0.500000
O O17 0.055896 0.765533 0.411680
O O18 0.988891 0.000000 0.366459
O O19 0.153221 0.500000 0.109378
O O20 0.190383 0.782450 0.132554
O O21 0.405618 0.500000 0.633123
O O22 0.755869 0.500000 0.277098
#
# Coordination Sequence:
#
# PCOD8102360 Si02
#       8
#     8   8   8   8   8   8   8   8
#     4  12  24  41  65  95 129 168 211 262 320 386
#     4  11  24  41  62  91 129 167 206 261 323 381
#     4  11  23  41  65  93 131 174 220 271 322 386
#     4  10  20  36  62  91 123 161 205 256 315 381
#     4  10  22  41  66  93 121 164 219 266 319 385
#     4  11  23  39  61  90 125 162 205 259 317 382
#     4   9  20  39  61  90 126 165 208 263 322 380
#     4  12  25  41  63  92 126 166 213 262 321 387
#
# _framework density 20.983069
#
# number of rings (size 3 to 8) (size 9 to 14) (size 15 to 20)
#    0.000    1.250    1.250    4.875    1.750    4.000 
#    0.000    2.500    0.000    0.000    0.000    0.000 
#    0.000    0.000    0.000    0.000    0.000    0.000 
#
# Total GULP energy -396917.122900 kJ/mol
# GULP energy per Si atom -12403.660091 kJ/mol
# Density = 2.093531 g / cm^3
# Si number density = 20.983069 Si / 1000 Ang^3
#
#
#
# Elastic Constant Matrix: (Units=GPa)
#
#
# Indices 1 2 3 4 5 6 
#
# 1 151.9806 25.8456 57.3458 0.0000 -11.9838 0.0000
# 2 25.8456 55.5333 20.2340 0.0000 2.7806 0.0000
# 3 57.3458 20.2340 129.8655 0.0000 -6.4671 0.0000
# 4 0.0000 0.0000 0.0000 27.8152 0.0000 2.6651
# 5 -11.9838 2.7806 -6.4671 0.0000 41.1112 0.0000
# 6 0.0000 0.0000 0.0000 2.6651 0.0000 30.2046
#
#
#
# Elastic Compliance Matrix: (Units=1/GPa)
#
#
# Indices 1 2 3 4 5 6 
#
# 1 0.008435 -0.002879 -0.003169 0.000000 0.002155 0.000000
# 2 -0.002879 0.020203 -0.002002 0.000000 -0.002521 0.000000
# 3 -0.003169 -0.002002 0.009446 0.000000 0.000698 0.000000
# 4 0.000000 0.000000 0.000000 0.036258 0.000000 -0.003199
# 5 0.002155 -0.002521 0.000698 0.000000 0.025233 0.000000
# 6 0.000000 0.000000 0.000000 -0.003199 0.000000 0.033390
#
#
# Mechanical properties :
#
#
# Convention : Reuss Voigt Hill
#
# Bulk Modulus (GPa) = 45.48678 60.47000 52.97839
# Shear Modulus (GPa) = 31.97089 35.42314 33.69701
#
# Velocity S-wave (km/s) = 3.90763 4.11320 4.01173
# Velocity P-wave (km/s) = 6.48725 7.17209 6.83825
#
# Compressibility (1/GPa) = 0.02198441
#
# Stress axis : x y z
#
# Youngs Moduli (GPa) = 118.55398 49.49815 105.86251
#
# Poissons Ratio (x) = 0.14251 0.33546
# Poissons Ratio (y) = 0.34132 0.21193
# Poissons Ratio (z) = 0.37568 0.09909
#
# Static dielectric constant tensor:
#      x y z
#    x 4.671510 0.000000 -0.092210 
#    y 0.000000 3.653460 0.000000 
#    z -0.092210 0.000000 2.160740 
# 
# 
# High freq. dielectric constant tensor:
#      x y z
#    x 1.835100 0.000000 -0.004960 
#    y 0.000000 1.808720 0.000000 
#    z -0.004960 0.000000 1.828640 
# 
# From -- ./inp_files/250116.got.cif
#   From: 2010.06.25/outbox.cif.g09.slc.cpg/sg12_126_cif.got.tgz:250116.got - 2010.06.28 00:19:55.
