data_PCOD8102189
_publ_section_title
;
Structure prediction by ZEFSAII (Michael W. Deem and Ramdas Pophale) SiO2 
 PCOD8102189
Probable space group: C 2/M
;
_chemical_formula_sum "Si O2"
_cell_formula_units_Z 40
_cell_length_a 20.732433
_cell_length_b 17.663859
_cell_length_c 13.072080
_cell_angle_alpha 90.000000
_cell_angle_beta 158.225083
_cell_angle_gamma 90.000000
_cell_volume 1775.861913
_symmetry_space_group_name_H-M "C 2/M"
_symmetry_group_IT_number 12
_symmetry_cell_setting 'monoclinic'
loop_
_space_group_symop_operation_xyz
x,y,z
-x,y,-z
-x,-y,-z
x,-y,z
1/2+x,1/2+y,z
1/2-x,1/2+y,-z
1/2-x,1/2-y,-z
1/2+x,1/2-y,z
loop_
_atom_site_type_symbol
_atom_site_label
_atom_site_fract_x
_atom_site_fract_y
_atom_site_fract_z
Si Si1 0.658034 0.411653 0.362001
Si Si2 0.758319 0.410802 0.946925
Si Si3 0.898321 0.912445 0.492850
Si Si4 0.425341 0.178546 0.621087
Si Si5 0.085864 0.218970 0.026485
O O1 0.633920 0.500000 0.301761
O O2 0.693926 0.397257 0.535447
O O3 0.821352 0.377872 0.542512
O O4 0.479768 0.368662 0.071030
O O5 0.790996 0.500000 0.006577
O O6 0.596583 0.380203 0.777092
O O7 0.725906 0.383698 0.781170
O O8 0.934776 0.368091 0.239617
O O9 0.927282 0.000000 0.512747
O O10 0.295021 0.219546 0.348896
O O11 0.522800 0.242373 0.830089
O O12 0.000000 0.258911 0.000000
#
# Coordination Sequence:
#
# PCOD8102189 Si02
#       5
#     8   8   8   8   8
#     4  10  20  36  61  87 112 146 191 235 282 337
#     4   9  18  34  59  87 116 148 188 233 283 332
#     4   8  17  34  56  87 120 147 176 235 296 328
#     4  11  23  37  61  83 115 152 192 232 279 339
#     4  10  23  39  55  83 119 154 179 236 294 328
#
# _framework density 22.524273000000001
#
# number of rings (size 3 to 8) (size 9 to 14) (size 15 to 20)
#    0.000    2.400    0.000    4.200    5.600    4.400 
#    0.000    5.000    0.000    3.600    0.000    0.000 
#    0.000    0.000    0.000    0.000    0.000    0.000 
#
# Total GULP energy -247894.917692 kJ/mol
# GULP energy per Si atom -12394.745885 kJ/mol
# Density = 2.247301 g / cm^3
# Si number density = 22.524273 Si / 1000 Ang^3
#
#
#
# Elastic Constant Matrix: (Units=GPa)
#
#
# Indices 1 2 3 4 5 6 
#
# 1 31.9260 10.8342 6.4607 0.0000 4.0774 0.0000
# 2 10.8342 84.3191 48.9526 0.0000 -0.4848 0.0000
# 3 6.4607 48.9526 143.8392 0.0000 13.2295 0.0000
# 4 0.0000 0.0000 0.0000 32.0098 0.0000 3.1542
# 5 4.0774 -0.4848 13.2295 0.0000 31.8619 0.0000
# 6 0.0000 0.0000 0.0000 3.1542 0.0000 10.5781
#
#
#
# Elastic Compliance Matrix: (Units=1/GPa)
#
#
# Indices 1 2 3 4 5 6 
#
# 1 0.033363 -0.004593 0.000482 0.000000 -0.004540 0.000000
# 2 -0.004593 0.015592 -0.005381 0.000000 0.003059 0.000000
# 3 0.000482 -0.005381 0.009124 0.000000 -0.003932 0.000000
# 4 0.000000 0.000000 0.000000 0.032186 0.000000 -0.009597
# 5 -0.004540 0.003059 -0.003932 0.000000 0.033646 0.000000
# 6 0.000000 0.000000 0.000000 -0.009597 0.000000 0.097396
#
#
# Mechanical properties :
#
#
# Convention : Reuss Voigt Hill
#
# Bulk Modulus (GPa) = 25.57925 43.61991 34.59958
# Shear Modulus (GPa) = 19.73771 27.81241 23.77506
#
# Velocity S-wave (km/s) = 2.96342 3.51775 3.25242
# Velocity P-wave (km/s) = 4.80522 5.99226 5.43127
#
# Compressibility (1/GPa) = 0.03909419
#
# Stress axis : x y z
#
# Youngs Moduli (GPa) = 29.97316 64.13682 109.60560
#
# Poissons Ratio (x) = 0.29457 -0.05283
# Poissons Ratio (y) = 0.13766 0.58983
# Poissons Ratio (z) = -0.01445 0.34514
#
# Static dielectric constant tensor:
#      x y z
#    x 3.936490 0.000000 -0.003400 
#    y 0.000000 3.930140 0.000000 
#    z -0.003400 0.000000 4.068420 
# 
# 
# High freq. dielectric constant tensor:
#      x y z
#    x 1.870030 0.000000 0.003320 
#    y 0.000000 1.881690 0.000000 
#    z 0.003320 0.000000 1.884390 
# 
# From -- ./inp_files/241331.got.cif
#   From: 2010.06.25/outbox.cif.g09.slc.cpg/sg12_121_cif.got.tgz:241331.got - 2010.06.28 00:19:55.
