data_PCOD8102472
_publ_section_title
;
Structure prediction by ZEFSAII (Michael W. Deem and Ramdas Pophale) SiO2 
 PCOD8102472
Probable space group: C 2/M
;
_chemical_formula_sum "Si O2"
_cell_formula_units_Z 44
_cell_length_a 21.483251
_cell_length_b 11.641362
_cell_length_c 9.253472
_cell_angle_alpha 90.000000
_cell_angle_beta 111.184015
_cell_angle_gamma 90.000000
_cell_volume 2157.855011
_symmetry_space_group_name_H-M "C 2/M"
_symmetry_group_IT_number 12
_symmetry_cell_setting 'monoclinic'
loop_
_space_group_symop_operation_xyz
x,y,z
-x,y,-z
-x,-y,-z
x,-y,z
1/2+x,1/2+y,z
1/2-x,1/2+y,-z
1/2-x,1/2-y,-z
1/2+x,1/2-y,z
loop_
_atom_site_type_symbol
_atom_site_label
_atom_site_fract_x
_atom_site_fract_y
_atom_site_fract_z
Si Si1 0.933000 0.755612 0.533012
Si Si2 0.439488 0.500000 0.642790
Si Si3 0.370869 0.500000 0.884355
Si Si4 0.941270 0.635785 0.843731
Si Si5 0.907862 0.000000 0.225667
Si Si6 0.169092 0.773090 0.772396
Si Si7 0.819100 0.751598 0.888791
O O1 0.907865 0.884386 0.551289
O O2 0.949859 0.684399 0.690537
O O3 0.873691 0.700549 0.383085
O O4 0.000000 0.756966 0.500000
O O5 0.423199 0.500000 0.798591
O O6 0.516552 0.500000 0.658558
O O7 0.324651 0.386493 0.853164
O O8 0.417347 0.500000 0.062482
O O9 0.943675 0.500000 0.837397
O O10 0.870053 0.676054 0.841176
O O11 0.000000 0.681888 0.000000
O O12 0.867732 0.106457 0.251922
O O13 0.244827 0.786340 0.781441
O O14 0.168457 0.719184 0.932458
#
# Coordination Sequence:
#
# PCOD8102472 Si02
#       7
#     8   4   4   8   4   8   8
#     4  12  23  40  65  95 128 162 207 267 321 375
#     4  12  21  36  63 104 132 154 203 275 318 377
#     4  10  21  37  64 100 124 163 209 259 327 364
#     4  11  26  45  64  89 125 171 216 257 314 383
#     4  10  20  36  64  99 131 162 205 258 322 379
#     4  10  22  39  63  96 128 167 207 256 320 377
#     4  10  22  44  65  92 128 168 212 261 311 381
#
# _framework density 20.390619999999998
#
# number of rings (size 3 to 8) (size 9 to 14) (size 15 to 20)
#    0.000    1.273    3.636    2.182    3.818    1.091 
#    3.273    0.000    0.000    0.000    0.000    0.000 
#    0.000    0.000    0.000    0.000    0.000    0.000 
#
# Total GULP energy -272683.072333 kJ/mol
# GULP energy per Si atom -12394.685106 kJ/mol
# Density = 2.034421 g / cm^3
# Si number density = 20.390620 Si / 1000 Ang^3
#
#
#
# Elastic Constant Matrix: (Units=GPa)
#
#
# Indices 1 2 3 4 5 6 
#
# 1 118.2456 28.1590 67.6534 0.0000 -7.6538 0.0000
# 2 28.1590 63.3070 43.1270 0.0000 -8.0270 0.0000
# 3 67.6534 43.1270 164.5662 0.0000 5.5016 0.0000
# 4 0.0000 0.0000 0.0000 -30.1145 0.0000 36.7775
# 5 -7.6538 -8.0270 5.5016 0.0000 31.0209 0.0000
# 6 0.0000 0.0000 0.0000 36.7775 0.0000 10.6491
#
#
#
# Elastic Compliance Matrix: (Units=1/GPa)
#
#
# Indices 1 2 3 4 5 6 
#
# 1 0.011610 -0.001746 -0.004422 0.000000 0.003197 0.000000
# 2 -0.001746 0.020630 -0.004882 0.000000 0.005773 0.000000
# 3 -0.004422 -0.004882 0.009308 0.000000 -0.004005 0.000000
# 4 0.000000 0.000000 0.000000 -0.006364 0.000000 0.021979
# 5 0.003197 0.005773 -0.004005 0.000000 0.035229 0.000000
# 6 0.000000 0.000000 0.000000 0.021979 0.000000 0.017997
#
#
# Mechanical properties :
#
#
# Convention : Reuss Voigt Hill
#
# Bulk Modulus (GPa) = 51.41915 69.33308 60.37612
# Shear Modulus (GPa) = 42.73775 16.12306 29.43041
#
# Velocity S-wave (km/s) = 4.58312 2.81501 3.80324
# Velocity P-wave (km/s) = 7.29921 6.68146 6.99716
#
# Compressibility (1/GPa) = 0.01944801
#
# Stress axis : x y z
#
# Youngs Moduli (GPa) = 86.13418 48.47238 107.43813
#
# Poissons Ratio (x) = 0.08464 0.47510
# Poissons Ratio (y) = 0.15041 0.52447
# Poissons Ratio (z) = 0.38089 0.23662
#
# Static dielectric constant tensor:
#      x y z
#    x 3.661360 0.000000 0.002910 
#    y 0.000000 3.660170 0.000000 
#    z 0.002910 0.000000 4.241980 
# 
# 
# High freq. dielectric constant tensor:
#      x y z
#    x 1.800380 0.000000 -0.007880 
#    y 0.000000 1.776370 0.000000 
#    z -0.007880 0.000000 1.818810 
# 
# From -- ./inp_files/84289.got.cif
#   From: 2010.06.25/outbox.cif.g09.slc.cpg/sg12_43_cif.got.tgz:84289.got - 2010.06.28 00:19:55.
