data_PCOD8102993
_publ_section_title
;
Structure prediction by ZEFSAII (Michael W. Deem and Ramdas Pophale) SiO2 
 PCOD8102993
Probable space group: C 2/M
;
_chemical_formula_sum "Si O2"
_cell_formula_units_Z 48
_cell_length_a 12.813730
_cell_length_b 9.028862
_cell_length_c 18.444804
_cell_angle_alpha 90.000000
_cell_angle_beta 73.777539
_cell_angle_gamma 90.000000
_cell_volume 2048.977564
_symmetry_space_group_name_H-M "C 2/M"
_symmetry_group_IT_number 12
_symmetry_cell_setting 'monoclinic'
loop_
_space_group_symop_operation_xyz
x,y,z
-x,y,-z
-x,-y,-z
x,-y,z
1/2+x,1/2+y,z
1/2-x,1/2+y,-z
1/2-x,1/2-y,-z
1/2+x,1/2-y,z
loop_
_atom_site_type_symbol
_atom_site_label
_atom_site_fract_x
_atom_site_fract_y
_atom_site_fract_z
Si Si1 0.163635 0.170331 0.814128
Si Si2 0.752587 0.323394 0.077242
Si Si3 0.971183 0.667332 0.360370
Si Si4 0.350021 0.826152 0.520606
Si Si5 0.065473 0.833432 0.217044
Si Si6 0.736644 0.328824 0.333201
O O1 0.148663 0.254196 0.894610
O O2 0.051106 0.182512 0.795587
O O3 0.255174 0.258357 0.749314
O O4 0.198894 0.000000 0.818003
O O5 0.760323 0.500000 0.067914
O O6 0.648568 0.262735 0.143050
O O7 0.750000 0.250000 0.000000
O O8 0.009610 0.500000 0.341016
O O9 0.959190 0.700102 0.449816
O O10 0.059666 0.766590 0.300064
O O11 0.852092 0.692718 0.349749
O O12 0.250000 0.750000 0.500000
O O13 0.355886 0.758060 0.601156
O O14 0.325788 0.000000 0.531266
O O15 0.102690 0.000000 0.221589
O O16 0.704320 0.500000 0.333908
#
# Coordination Sequence:
#
# PCOD8102993 Si02
#       6
#     8   8   8   8   8   8
#     4  10  20  37  60  85 112 147 185 226 274 328
#     4  11  24  42  61  85 113 143 179 224 276 334
#     4   8  15  26  44  72 106 142 184 227 269 316
#     4   9  15  23  38  67 105 144 185 230 272 318
#     4   9  20  37  58  82 112 147 184 224 273 329
#     4   9  16  27  45  73 107 145 185 227 271 322
#
# _framework density 23.426317000000001
#
# number of rings (size 3 to 8) (size 9 to 14) (size 15 to 20)
#    0.000    2.667    0.000    3.000    0.000    7.333 
#    0.000    3.333    0.000    1.000    0.000    7.000 
#    0.000    0.000    0.000    0.000    0.000    0.000 
#
# Total GULP energy -297551.236606 kJ/mol
# GULP energy per Si atom -12397.968192 kJ/mol
# Density = 2.337300 g / cm^3
# Si number density = 23.426317 Si / 1000 Ang^3
#
#
#
# Elastic Constant Matrix: (Units=GPa)
#
#
# Indices 1 2 3 4 5 6 
#
# 1 28.3324 17.0414 47.1591 0.0000 12.6146 0.0000
# 2 17.0414 134.8963 86.5874 0.0000 12.2540 0.0000
# 3 47.1591 86.5874 212.0640 0.0000 33.0580 0.0000
# 4 0.0000 0.0000 0.0000 50.8547 0.0000 2.1581
# 5 12.6146 12.2540 33.0580 0.0000 47.8090 0.0000
# 6 0.0000 0.0000 0.0000 2.1581 0.0000 17.4868
#
#
#
# Elastic Compliance Matrix: (Units=1/GPa)
#
#
# Indices 1 2 3 4 5 6 
#
# 1 0.058299 0.001207 -0.012342 0.000000 -0.007158 0.000000
# 2 0.001207 0.010075 -0.004405 0.000000 0.000145 0.000000
# 3 -0.012342 -0.004405 0.009611 0.000000 -0.002260 0.000000
# 4 0.000000 0.000000 0.000000 0.019767 0.000000 -0.002440
# 5 -0.007158 0.000145 -0.002260 0.000000 0.024331 0.000000
# 6 0.000000 0.000000 0.000000 -0.002440 0.000000 0.057487
#
#
# Mechanical properties :
#
#
# Convention : Reuss Voigt Hill
#
# Bulk Modulus (GPa) = 21.31913 75.20762 48.26338
# Shear Modulus (GPa) = 22.09621 38.19708 30.14664
#
# Velocity S-wave (km/s) = 3.07452 4.04235 3.59119
# Velocity P-wave (km/s) = 4.66089 7.34582 6.15162
#
# Compressibility (1/GPa) = 0.04690623
#
# Stress axis : x y z
#
# Youngs Moduli (GPa) = 17.15304 99.25880 104.04873
#
# Poissons Ratio (x) = -0.11983 1.28413
# Poissons Ratio (y) = -0.02071 0.45829
# Poissons Ratio (z) = 0.21170 0.43720
#
# Static dielectric constant tensor:
#      x y z
#    x 4.232730 0.000000 0.123040 
#    y 0.000000 4.217980 0.000000 
#    z 0.123040 0.000000 4.671600 
# 
# 
# High freq. dielectric constant tensor:
#      x y z
#    x 1.963020 0.000000 0.013450 
#    y 0.000000 1.916680 0.000000 
#    z 0.013450 0.000000 1.940170 
# 
# From -- ./inp_files/313605.got.cif
#   From: 2010.06.25/outbox.cif.g09.slc.cpg/sg12_157_cif.got.tgz:313605.got - 2010.06.28 00:19:55.
