data_PCOD8102036
_publ_section_title
;
Structure prediction by ZEFSAII (Michael W. Deem and Ramdas Pophale) SiO2 
 PCOD8102036
Probable space group: C 2/M
;
_chemical_formula_sum "Si O2"
_cell_formula_units_Z 64
_cell_length_a 31.529883
_cell_length_b 8.982364
_cell_length_c 17.788856
_cell_angle_alpha 90.000000
_cell_angle_beta 138.432850
_cell_angle_gamma 90.000000
_cell_volume 3342.721761
_symmetry_space_group_name_H-M "C 2/M"
_symmetry_group_IT_number 12
_symmetry_cell_setting 'monoclinic'
loop_
_space_group_symop_operation_xyz
x,y,z
-x,y,-z
-x,-y,-z
x,-y,z
1/2+x,1/2+y,z
1/2-x,1/2+y,-z
1/2-x,1/2-y,-z
1/2+x,1/2-y,z
loop_
_atom_site_type_symbol
_atom_site_label
_atom_site_fract_x
_atom_site_fract_y
_atom_site_fract_z
Si Si1 0.049358 0.673388 0.501379
Si Si2 0.275120 0.671442 0.638876
Si Si3 0.395849 0.831193 0.067548
Si Si4 0.185288 0.670570 0.891950
Si Si5 0.201555 0.172483 0.162272
Si Si6 0.031210 0.327749 0.306873
Si Si7 0.842473 0.825348 0.577976
Si Si8 0.830303 0.176938 0.279231
O O1 0.065517 0.500000 0.534943
O O2 0.019632 0.704666 0.379961
O O3 0.115206 0.765994 0.591965
O O4 0.000000 0.728566 0.500000
O O5 0.256706 0.500000 0.603358
O O6 0.309057 0.700218 0.763359
O O7 0.208839 0.761235 0.548901
O O8 0.323139 0.724441 0.636900
O O9 0.363209 0.818425 0.104589
O O10 0.468886 0.782203 0.176702
O O11 0.391118 0.000000 0.031050
O O12 0.363418 0.722364 0.964490
O O13 0.199525 0.500000 0.888664
O O14 0.152900 0.755442 0.779649
O O15 0.250000 0.750000 0.000000
O O16 0.260477 0.269055 0.211079
O O17 0.215197 0.000000 0.162749
O O18 0.047904 0.500000 0.317969
O O19 0.087866 0.233009 0.347570
O O20 0.842907 0.000000 0.568997
O O21 0.829949 0.000000 0.275428
#
# Coordination Sequence:
#
# PCOD8102036 Si02
#       8
#     8   8   8   8   8   8   8   8
#     4  10  21  39  60  81 109 149 191 233 282 336
#     4   9  20  38  59  85 115 145 181 227 283 341
#     4  10  22  39  58  81 112 148 190 236 279 333
#     4  11  21  36  57  81 110 148 192 237 281 328
#     4  11  22  37  58  82 110 146 187 233 282 334
#     4  10  21  38  59  82 112 151 189 227 280 342
#     4  10  20  36  60  88 114 144 183 229 279 335
#     4  12  24  36  54  83 117 149 185 234 284 338
#
# _framework density 19.146073999999999
#
# number of rings (size 3 to 8) (size 9 to 14) (size 15 to 20)
#    0.000    1.625    1.250    3.750    0.000    8.250 
#    0.000    1.875    0.000    3.750    0.000    0.000 
#    0.000    0.000    0.000    0.000    0.000    0.000 
#
# Total GULP energy -396928.482072 kJ/mol
# GULP energy per Si atom -12404.015065 kJ/mol
# Density = 1.910250 g / cm^3
# Si number density = 19.146074 Si / 1000 Ang^3
#
#
#
# Elastic Constant Matrix: (Units=GPa)
#
#
# Indices 1 2 3 4 5 6 
#
# 1 88.7284 40.4766 47.7998 0.0000 4.9669 0.0000
# 2 40.4766 102.1276 54.7445 0.0000 -0.8249 0.0000
# 3 47.7998 54.7445 118.1303 0.0000 -3.1188 0.0000
# 4 0.0000 0.0000 0.0000 35.4063 0.0000 1.0101
# 5 4.9669 -0.8249 -3.1188 0.0000 31.1855 0.0000
# 6 0.0000 0.0000 0.0000 1.0101 0.0000 27.7975
#
#
#
# Elastic Compliance Matrix: (Units=1/GPa)
#
#
# Indices 1 2 3 4 5 6 
#
# 1 0.015668 -0.003716 -0.004699 0.000000 -0.003064 0.000000
# 2 -0.003716 0.013911 -0.004931 0.000000 0.000467 0.000000
# 3 -0.004699 -0.004931 0.012702 0.000000 0.001888 0.000000
# 4 0.000000 0.000000 0.000000 0.028273 0.000000 -0.001027
# 5 -0.003064 0.000467 0.001888 0.000000 0.032755 0.000000
# 6 0.000000 0.000000 0.000000 -0.001027 0.000000 0.036012
#
#
# Mechanical properties :
#
#
# Convention : Reuss Voigt Hill
#
# Bulk Modulus (GPa) = 64.14419 66.11423 65.12921
# Shear Modulus (GPa) = 29.20403 29.94221 29.57312
#
# Velocity S-wave (km/s) = 3.90978 3.95889 3.93441
# Velocity P-wave (km/s) = 7.34555 7.45007 7.39799
#
# Compressibility (1/GPa) = 0.01558988
#
# Stress axis : x y z
#
# Youngs Moduli (GPa) = 63.82302 71.88360 78.73059
#
# Poissons Ratio (x) = 0.26711 0.36994
# Poissons Ratio (y) = 0.23716 0.38822
# Poissons Ratio (z) = 0.29989 0.35446
#
# Static dielectric constant tensor:
#      x y z
#    x 3.474080 0.000000 -0.319050 
#    y 0.000000 3.413750 0.000000 
#    z -0.319050 0.000000 3.937040 
# 
# 
# High freq. dielectric constant tensor:
#      x y z
#    x 1.739550 0.000000 -0.004610 
#    y 0.000000 1.746320 0.000000 
#    z -0.004610 0.000000 1.748950 
# 
# From -- ./inp_files/295688.got.cif
#   From: 2010.06.25/outbox.cif.g09.slc.cpg/sg12_148_cif.got.tgz:295688.got - 2010.06.28 00:19:55.
