data_PCOD8102746
_publ_section_title
;
Structure prediction by ZEFSAII (Michael W. Deem and Ramdas Pophale) SiO2 
 PCOD8102746
Probable space group: C 2/M
;
_chemical_formula_sum "Si O2"
_cell_formula_units_Z 56
_cell_length_a 26.706556
_cell_length_b 13.432399
_cell_length_c 12.677550
_cell_angle_alpha 90.000000
_cell_angle_beta 42.431411
_cell_angle_gamma 90.000000
_cell_volume 3068.471538
_symmetry_space_group_name_H-M "C 2/M"
_symmetry_group_IT_number 12
_symmetry_cell_setting 'monoclinic'
loop_
_space_group_symop_operation_xyz
x,y,z
-x,y,-z
-x,-y,-z
x,-y,z
1/2+x,1/2+y,z
1/2-x,1/2+y,-z
1/2-x,1/2-y,-z
1/2+x,1/2-y,z
loop_
_atom_site_type_symbol
_atom_site_label
_atom_site_fract_x
_atom_site_fract_y
_atom_site_fract_z
Si Si1 0.583668 0.735877 0.855471
Si Si2 0.807489 0.615329 0.402696
Si Si3 0.352246 0.615776 0.419843
Si Si4 0.342495 0.384754 0.073232
Si Si5 0.174785 0.385103 0.379420
Si Si6 0.408794 0.696727 0.540809
Si Si7 0.068886 0.116262 0.273138
O O1 0.632717 0.834185 0.765772
O O2 0.585003 0.668746 0.747745
O O3 0.612269 0.676139 0.911514
O O4 0.500000 0.771575 0.000000
O O5 0.809342 0.500000 0.371960
O O6 0.725671 0.657035 0.503831
O O7 0.826276 0.636664 0.494609
O O8 0.361856 0.500000 0.386950
O O9 0.358130 0.641879 0.533440
O O10 0.352651 0.500000 0.087252
O O11 0.255599 0.357716 0.207848
O O12 0.374603 0.359451 0.908343
O O13 0.154223 0.500000 0.387094
O O14 0.113165 0.313871 0.421492
O O15 0.495082 0.683154 0.376060
O O16 0.390767 0.645864 0.680823
O O17 0.046026 0.000000 0.309993
#
# Coordination Sequence:
#
# PCOD8102746 Si02
#       7
#     8   8   8   8   8   8   8
#     4  12  22  32  53  83 112 141 179 223 275 326
#     4  10  21  38  55  77 112 149 184 221 266 326
#     4  11  20  33  57  85 109 140 182 226 270 322
#     4  10  21  37  55  79 114 145 176 224 275 324
#     4  10  20  37  59  80 106 146 188 224 268 319
#     4  11  20  35  59  82 110 145 184 223 269 325
#     4  10  22  39  56  81 116 147 177 219 278 331
#
# _framework density 18.250128
#
# number of rings (size 3 to 8) (size 9 to 14) (size 15 to 20)
#    0.000    1.429    2.857    4.286    0.000    3.143 
#    0.000    1.429    0.000    0.857    0.000    0.000 
#    0.000    0.000    0.000    0.000    0.000    0.000 
#
# Total GULP energy -347296.054681 kJ/mol
# GULP energy per Si atom -12403.430524 kJ/mol
# Density = 1.820859 g / cm^3
# Si number density = 18.250128 Si / 1000 Ang^3
#
#
#
# Elastic Constant Matrix: (Units=GPa)
#
#
# Indices 1 2 3 4 5 6 
#
# 1 77.4567 38.1326 38.6616 0.0000 6.3527 0.0000
# 2 38.1326 49.8582 45.1473 0.0000 -5.4547 0.0000
# 3 38.6616 45.1473 119.4877 0.0000 -0.6649 0.0000
# 4 0.0000 0.0000 0.0000 26.0640 0.0000 -3.2728
# 5 6.3527 -5.4547 -0.6649 0.0000 30.8609 0.0000
# 6 0.0000 0.0000 0.0000 -3.2728 0.0000 33.2195
#
#
#
# Elastic Compliance Matrix: (Units=1/GPa)
#
#
# Indices 1 2 3 4 5 6 
#
# 1 0.022451 -0.017324 -0.000761 0.000000 -0.007700 0.000000
# 2 -0.017324 0.044694 -0.011219 0.000000 0.011224 0.000000
# 3 -0.000761 -0.011219 0.012846 0.000000 -0.001550 0.000000
# 4 0.000000 0.000000 0.000000 0.038848 0.000000 0.003827
# 5 -0.007700 0.011224 -0.001550 0.000000 0.035939 0.000000
# 6 0.000000 0.000000 0.000000 0.003827 0.000000 0.030480
#
#
# Mechanical properties :
#
#
# Convention : Reuss Voigt Hill
#
# Bulk Modulus (GPa) = 46.76976 54.52062 50.64519
# Shear Modulus (GPa) = 19.92092 26.35294 23.13693
#
# Velocity S-wave (km/s) = 3.30745 3.80410 3.56444
# Velocity P-wave (km/s) = 6.34573 7.01669 6.68963
#
# Compressibility (1/GPa) = 0.02138134
#
# Stress axis : x y z
#
# Youngs Moduli (GPa) = 44.54232 22.37459 77.84565
#
# Poissons Ratio (x) = 0.38761 0.05927
# Poissons Ratio (y) = 0.77163 0.87338
# Poissons Ratio (z) = 0.03392 0.25103
#
# Static dielectric constant tensor:
#      x y z
#    x 3.323660 0.000000 0.071960 
#    y 0.000000 3.409470 0.000000 
#    z 0.071960 0.000000 3.430100 
# 
# 
# High freq. dielectric constant tensor:
#      x y z
#    x 1.699960 0.000000 0.005100 
#    y 0.000000 1.711100 0.000000 
#    z 0.005100 0.000000 1.708060 
# 
# From -- ./inp_files/156175.got.cif
#   From: 2010.06.25/outbox.cif.g09.slc.cpg/sg12_79_cif.got.tgz:156175.got - 2010.06.28 00:19:55.
