data_PCOD8102826
_publ_section_title
;
Structure prediction by ZEFSAII (Michael W. Deem and Ramdas Pophale) SiO2 
 PCOD8102826
Probable space group: C 2/M
;
_chemical_formula_sum "Si O2"
_cell_formula_units_Z 40
_cell_length_a 24.951457
_cell_length_b 9.084762
_cell_length_c 19.060631
_cell_angle_alpha 90.000000
_cell_angle_beta 150.674004
_cell_angle_gamma 90.000000
_cell_volume 2116.148188
_symmetry_space_group_name_H-M "C 2/M"
_symmetry_group_IT_number 12
_symmetry_cell_setting 'monoclinic'
loop_
_space_group_symop_operation_xyz
x,y,z
-x,y,-z
-x,-y,-z
x,-y,z
1/2+x,1/2+y,z
1/2-x,1/2+y,-z
1/2-x,1/2-y,-z
1/2+x,1/2-y,z
loop_
_atom_site_type_symbol
_atom_site_label
_atom_site_fract_x
_atom_site_fract_y
_atom_site_fract_z
Si Si1 0.940575 0.328372 0.617265
Si Si2 0.688647 0.172686 0.866424
Si Si3 0.260569 0.827650 0.673769
Si Si4 0.446068 0.825091 0.781790
Si Si5 0.318782 0.827197 0.898547
O O1 0.914288 0.500000 0.585602
O O2 0.855965 0.247440 0.470273
O O3 0.928913 0.267177 0.683255
O O4 0.060499 0.293996 0.725366
O O5 0.727749 0.238502 0.837458
O O6 0.713225 0.000000 0.898378
O O7 0.750000 0.250000 0.000000
O O8 0.348640 0.762903 0.719035
O O9 0.303785 0.790883 0.800124
O O10 0.245238 0.000000 0.645115
O O11 0.447520 0.000000 0.786206
O O12 0.562099 0.767984 0.943092
O O13 0.305508 0.000000 0.899593
#
# Coordination Sequence:
#
# PCOD8102826 Si02
#       5
#     8   8   8   8   8
#     4  10  21  37  57  80 113 149 182 229 283 332
#     4  11  22  38  60  84 109 145 188 231 278 331
#     4  10  21  35  57  86 114 147 187 230 274 326
#     4   9  17  35  59  82 110 149 190 226 273 329
#     4  10  20  37  59  84 114 147 186 231 276 326
#
# _framework density 18.902266999999998
#
# number of rings (size 3 to 8) (size 9 to 14) (size 15 to 20)
#    0.000    2.000    2.000    1.800    0.000    5.600 
#    0.000    5.000    0.000    2.400    0.000    0.000 
#    0.000    0.000    0.000    0.000    0.000    0.000 
#
# Total GULP energy -248072.669237 kJ/mol
# GULP energy per Si atom -12403.633462 kJ/mol
# Density = 1.885924 g / cm^3
# Si number density = 18.902267 Si / 1000 Ang^3
#
#
#
# Elastic Constant Matrix: (Units=GPa)
#
#
# Indices 1 2 3 4 5 6 
#
# 1 97.1152 33.7329 26.2289 0.0000 20.5066 0.0000
# 2 33.7329 42.0449 33.5147 0.0000 8.3932 0.0000
# 3 26.2289 33.5147 107.3659 0.0000 8.4689 0.0000
# 4 0.0000 0.0000 0.0000 31.3963 0.0000 -0.7584
# 5 20.5066 8.3932 8.4689 0.0000 24.0372 0.0000
# 6 0.0000 0.0000 0.0000 -0.7584 0.0000 30.2265
#
#
#
# Elastic Compliance Matrix: (Units=1/GPa)
#
#
# Indices 1 2 3 4 5 6 
#
# 1 0.016252 -0.011318 0.000354 0.000000 -0.010038 0.000000
# 2 -0.011318 0.041029 -0.009951 0.000000 -0.001165 0.000000
# 3 0.000354 -0.009951 0.012429 0.000000 -0.001207 0.000000
# 4 0.000000 0.000000 0.000000 0.031870 0.000000 0.000800
# 5 -0.010038 -0.001165 -0.001207 0.000000 0.050998 0.000000
# 6 0.000000 0.000000 0.000000 0.000800 0.000000 0.033104
#
#
# Mechanical properties :
#
#
# Convention : Reuss Voigt Hill
#
# Bulk Modulus (GPa) = 35.86590 48.16431 42.01511
# Shear Modulus (GPa) = 21.11458 27.33530 24.22494
#
# Velocity S-wave (km/s) = 3.34584 3.80694 3.58381
# Velocity P-wave (km/s) = 5.82596 6.69774 6.27700
#
# Compressibility (1/GPa) = 0.02788163
#
# Stress axis : x y z
#
# Youngs Moduli (GPa) = 61.53012 24.37310 80.45926
#
# Poissons Ratio (x) = 0.27585 -0.02851
# Poissons Ratio (y) = 0.69639 0.80061
# Poissons Ratio (z) = -0.02181 0.24253
#
# Static dielectric constant tensor:
#      x y z
#    x 3.738830 0.000000 0.082440 
#    y 0.000000 3.245610 0.000000 
#    z 0.082440 0.000000 3.478040 
# 
# 
# High freq. dielectric constant tensor:
#      x y z
#    x 1.749080 0.000000 0.002590 
#    y 0.000000 1.708010 0.000000 
#    z 0.002590 0.000000 1.743450 
# 
# From -- ./inp_files/151695.got.cif
#   From: 2010.06.25/outbox.cif.g09.slc.cpg/sg12_76_cif.got.tgz:151695.got - 2010.06.28 00:19:55.
