data_PCOD8102739
_publ_section_title
;
Structure prediction by ZEFSAII (Michael W. Deem and Ramdas Pophale) SiO2 
 PCOD8102739
Probable space group: C 2/M
;
_chemical_formula_sum "Si O2"
_cell_formula_units_Z 64
_cell_length_a 28.887965
_cell_length_b 9.120180
_cell_length_c 14.606302
_cell_angle_alpha 90.000000
_cell_angle_beta 61.818540
_cell_angle_gamma 90.000000
_cell_volume 3392.043623
_symmetry_space_group_name_H-M "C 2/M"
_symmetry_group_IT_number 12
_symmetry_cell_setting 'monoclinic'
loop_
_space_group_symop_operation_xyz
x,y,z
-x,y,-z
-x,-y,-z
x,-y,z
1/2+x,1/2+y,z
1/2-x,1/2+y,-z
1/2-x,1/2-y,-z
1/2+x,1/2-y,z
loop_
_atom_site_type_symbol
_atom_site_label
_atom_site_fract_x
_atom_site_fract_y
_atom_site_fract_z
Si Si1 0.976159 0.330790 0.264993
Si Si2 0.582569 0.671446 0.161095
Si Si3 0.552056 0.172161 0.506455
Si Si4 0.763468 0.334171 0.765143
Si Si5 0.148294 0.828957 0.924507
Si Si6 0.280039 0.668392 0.392717
Si Si7 0.131483 0.173490 0.305490
Si Si8 0.878990 0.329096 0.228075
O O1 0.991119 0.500000 0.260945
O O2 0.954115 0.275150 0.383194
O O3 0.934478 0.302415 0.224432
O O4 0.028103 0.246526 0.186850
O O5 0.572269 0.500000 0.173614
O O6 0.603566 0.728350 0.238821
O O7 0.625419 0.712230 0.044497
O O8 0.500000 0.217766 0.500000
O O9 0.602194 0.255406 0.419037
O O10 0.563319 0.000000 0.488326
O O11 0.779893 0.500000 0.775089
O O12 0.709987 0.289148 0.867418
O O13 0.755061 0.319212 0.664847
O O14 0.808368 0.223737 0.754844
O O15 0.117463 0.735090 0.877402
O O16 0.141079 0.000000 0.906202
O O17 0.289789 0.500000 0.410733
O O18 0.250000 0.750000 0.500000
O O19 0.335798 0.745254 0.327622
O O20 0.129847 0.000000 0.316712
O O21 0.864341 0.500000 0.237980
#
# Coordination Sequence:
#
# PCOD8102739 Si02
#       8
#     8   8   8   8   8   8   8   8
#     4  10  22  38  57  84 115 149 190 231 279 341
#     4  10  22  39  59  83 114 148 188 238 288 336
#     4  10  20  37  59  79 109 153 191 226 274 340
#     4   9  20  38  58  79 110 150 189 228 276 337
#     4   9  20  41  62  81 110 151 192 233 284 341
#     4  10  21  37  57  82 113 150 191 233 279 336
#     4  11  23  36  55  87 118 145 185 237 286 334
#     4  10  21  37  57  84 116 147 186 238 285 332
#
# _framework density 18.867681000000001
#
# number of rings (size 3 to 8) (size 9 to 14) (size 15 to 20)
#    0.000    2.125    1.250    1.875    1.750    6.250 
#    0.000    2.500    0.000    0.000    0.000    0.000 
#    0.000    0.000    0.000    0.000    0.000    0.000 
#
# Total GULP energy -396939.811859 kJ/mol
# GULP energy per Si atom -12404.369121 kJ/mol
# Density = 1.882474 g / cm^3
# Si number density = 18.867681 Si / 1000 Ang^3
#
#
#
# Elastic Constant Matrix: (Units=GPa)
#
#
# Indices 1 2 3 4 5 6 
#
# 1 95.0566 46.4626 37.6147 0.0000 -15.7802 0.0000
# 2 46.4626 77.1037 42.4670 0.0000 -9.8354 0.0000
# 3 37.6147 42.4670 108.7326 0.0000 -17.5882 0.0000
# 4 0.0000 0.0000 0.0000 31.7909 0.0000 -3.6671
# 5 -15.7802 -9.8354 -17.5882 0.0000 19.7163 0.0000
# 6 0.0000 0.0000 0.0000 -3.6671 0.0000 34.4277
#
#
#
# Elastic Compliance Matrix: (Units=1/GPa)
#
#
# Indices 1 2 3 4 5 6 
#
# 1 0.016286 -0.008162 -0.001164 0.000000 0.007924 0.000000
# 2 -0.008162 0.020758 -0.005452 0.000000 -0.001041 0.000000
# 3 -0.001164 -0.005452 0.013017 0.000000 0.007960 0.000000
# 4 0.000000 0.000000 0.000000 0.031847 0.000000 0.003392
# 5 0.007924 -0.001041 0.007960 0.000000 0.063643 0.000000
# 6 0.000000 0.000000 0.000000 0.003392 0.000000 0.029408
#
#
# Mechanical properties :
#
#
# Convention : Reuss Voigt Hill
#
# Bulk Modulus (GPa) = 48.77147 59.33128 54.05138
# Shear Modulus (GPa) = 23.65755 27.47689 25.56722
#
# Velocity S-wave (km/s) = 3.54484 3.82028 3.68513
# Velocity P-wave (km/s) = 6.53145 7.13958 6.84228
#
# Compressibility (1/GPa) = 0.02050379
#
# Stress axis : x y z
#
# Youngs Moduli (GPa) = 61.40398 48.17447 76.82433
#
# Poissons Ratio (x) = 0.39318 0.08945
# Poissons Ratio (y) = 0.50115 0.41887
# Poissons Ratio (z) = 0.07150 0.26266
#
# Static dielectric constant tensor:
#      x y z
#    x 3.405570 0.000000 0.054550 
#    y 0.000000 3.456900 0.000000 
#    z 0.054550 0.000000 3.650080 
# 
# 
# High freq. dielectric constant tensor:
#      x y z
#    x 1.732730 0.000000 -0.002820 
#    y 0.000000 1.733600 0.000000 
#    z -0.002820 0.000000 1.738950 
# 
# From -- ./inp_files/249032.got.cif
#   From: 2010.06.25/outbox.cif.g09.slc.cpg/sg12_125_cif.got.tgz:249032.got - 2010.06.28 00:19:55.
