data_PCOD8102626
_publ_section_title
;
Structure prediction by ZEFSAII (Michael W. Deem and Ramdas Pophale) SiO2 
 PCOD8102626
Probable space group: C 2/M
;
_chemical_formula_sum "Si O2"
_cell_formula_units_Z 56
_cell_length_a 20.621439
_cell_length_b 8.946074
_cell_length_c 31.322218
_cell_angle_alpha 90.000000
_cell_angle_beta 147.832179
_cell_angle_gamma 90.000000
_cell_volume 3076.399837
_symmetry_space_group_name_H-M "C 2/M"
_symmetry_group_IT_number 12
_symmetry_cell_setting 'monoclinic'
loop_
_space_group_symop_operation_xyz
x,y,z
-x,y,-z
-x,-y,-z
x,-y,z
1/2+x,1/2+y,z
1/2-x,1/2+y,-z
1/2-x,1/2-y,-z
1/2+x,1/2-y,z
loop_
_atom_site_type_symbol
_atom_site_label
_atom_site_fract_x
_atom_site_fract_y
_atom_site_fract_z
Si Si1 0.199638 0.176385 0.762641
Si Si2 0.834201 0.676150 0.011421
Si Si3 0.668955 0.675043 0.841134
Si Si4 0.912713 0.177354 0.829320
Si Si5 0.915819 0.177613 0.734701
Si Si6 0.429436 0.326025 0.587339
Si Si7 0.238910 0.824065 0.428948
O O1 0.199497 0.236683 0.811187
O O2 0.299534 0.271099 0.793900
O O3 0.070885 0.215120 0.669125
O O4 0.228765 0.000000 0.776315
O O5 0.839680 0.500000 0.023204
O O6 0.967283 0.745820 0.085422
O O7 0.750000 0.750000 0.000000
O O8 0.779464 0.711955 0.934387
O O9 0.646501 0.500000 0.823969
O O10 0.544230 0.746366 0.790061
O O11 0.890317 0.232870 0.768390
O O12 0.928990 0.000000 0.840863
O O13 0.807051 0.232662 0.643009
O O14 0.924478 0.000000 0.738365
O O15 0.410137 0.500000 0.570353
O O16 0.369933 0.246591 0.512968
O O17 0.362101 0.271992 0.592911
O O18 0.254983 0.000000 0.438130
#
# Coordination Sequence:
#
# PCOD8102626 Si02
#       7
#     8   8   8   8   8   8   8
#     4  10  20  37  58  79 107 146 187 220 264 326
#     4  11  21  36  59  85 110 140 182 227 271 319
#     4   9  17  33  59  81 102 140 187 223 256 317
#     4  11  23  38  56  79 113 146 178 226 277 322
#     4   9  16  32  56  80 102 139 186 221 257 315
#     4   9  17  30  51  79 109 136 168 221 276 315
#     4   9  16  29  54  81 103 133 180 224 259 313
#
# _framework density 18.203095000000001
#
# number of rings (size 3 to 8) (size 9 to 14) (size 15 to 20)
#    0.000    2.286    2.857    0.857    0.000    1.143 
#    0.000    6.429    0.000    4.286    0.000    0.000 
#    0.000    0.000    0.000    0.000    0.000    0.000 
#
# Total GULP energy -347167.822250 kJ/mol
# GULP energy per Si atom -12398.850795 kJ/mol
# Density = 1.816166 g / cm^3
# Si number density = 18.203095 Si / 1000 Ang^3
#
#
#
# Elastic Constant Matrix: (Units=GPa)
#
#
# Indices 1 2 3 4 5 6 
#
# 1 124.9637 33.3646 76.9080 0.0001 -7.1249 0.0001
# 2 33.3646 46.4088 50.8110 0.0003 0.8440 0.0002
# 3 76.9080 50.8110 159.0141 0.0000 -9.2392 0.0000
# 4 0.0001 0.0003 0.0000 30.9845 0.0000 3.1346
# 5 -7.1249 0.8440 -9.2392 0.0000 30.0106 0.0001
# 6 0.0001 0.0002 0.0000 3.1346 0.0001 27.7266
#
#
#
# Elastic Compliance Matrix: (Units=1/GPa)
#
#
# Indices 1 2 3 4 5 6 
#
# 1 0.011804 -0.003631 -0.004460 0.000000 0.001532 0.000000
# 2 -0.003631 0.034805 -0.009645 0.000000 -0.004810 0.000000
# 3 -0.004460 -0.009645 0.011691 0.000000 0.002812 0.000000
# 4 0.000000 0.000000 0.000000 0.032648 0.000000 -0.003691
# 5 0.001532 -0.004810 0.002812 0.000000 0.034686 0.000000
# 6 0.000000 0.000000 0.000000 -0.003691 0.000000 0.036484
#
#
# Mechanical properties :
#
#
# Convention : Reuss Voigt Hill
#
# Bulk Modulus (GPa) = 43.80461 72.50599 58.15530
# Shear Modulus (GPa) = 24.36661 29.03122 26.69891
#
# Velocity S-wave (km/s) = 3.66265 3.99789 3.83394
# Velocity P-wave (km/s) = 6.48100 7.82490 7.18444
#
# Compressibility (1/GPa) = 0.02282865
#
# Stress axis : x y z
#
# Youngs Moduli (GPa) = 84.71814 28.73111 85.53615
#
# Poissons Ratio (x) = 0.10433 0.38146
# Poissons Ratio (y) = 0.30763 0.82499
# Poissons Ratio (z) = 0.37782 0.27711
#
# Static dielectric constant tensor:
#      x y z
#    x 3.350460 0.000000 -0.049910 
#    y 0.000000 2.672170 0.000010 
#    z -0.049910 0.000010 4.042400 
# 
# 
# High freq. dielectric constant tensor:
#      x y z
#    x 1.691810 0.000000 -0.005920 
#    y 0.000000 1.677100 0.000000 
#    z -0.005920 0.000000 1.723850 
# 
# From -- ./inp_files/363098.got.cif
#   From: 2010.06.25/outbox.cif.g09.slc.cpg/sg12_182_cif.got.tgz:363098.got - 2010.06.28 00:19:55.
