data_PCOD8102954
_publ_section_title
;
Structure prediction by ZEFSAII (Michael W. Deem and Ramdas Pophale) SiO2 
 PCOD8102954
Probable space group: C 2/M
;
_chemical_formula_sum "Si O2"
_cell_formula_units_Z 48
_cell_length_a 30.526625
_cell_length_b 8.911773
_cell_length_c 8.891699
_cell_angle_alpha 90.000000
_cell_angle_beta 89.974131
_cell_angle_gamma 90.000000
_cell_volume 2418.954034
_symmetry_space_group_name_H-M "C 2/M"
_symmetry_group_IT_number 12
_symmetry_cell_setting 'monoclinic'
loop_
_space_group_symop_operation_xyz
x,y,z
-x,y,-z
-x,-y,-z
x,-y,z
1/2+x,1/2+y,z
1/2-x,1/2+y,-z
1/2-x,1/2-y,-z
1/2+x,1/2-y,z
loop_
_atom_site_type_symbol
_atom_site_label
_atom_site_fract_x
_atom_site_fract_y
_atom_site_fract_z
Si Si1 0.325295 0.177673 0.836698
Si Si2 0.507297 0.677038 0.170255
Si Si3 0.741182 0.677768 0.659021
Si Si4 0.336722 0.175178 0.173944
Si Si5 0.927315 0.326193 0.330268
Si Si6 0.411330 0.177348 0.671580
O O1 0.279020 0.234749 0.772525
O O2 0.364495 0.237050 0.730962
O O3 0.326880 0.000000 0.839924
O O4 0.331073 0.238746 0.005646
O O5 0.511259 0.500000 0.179441
O O6 0.467656 0.728391 0.275113
O O7 0.551910 0.747879 0.227485
O O8 0.500000 0.732610 0.000000
O O9 0.741721 0.500000 0.642528
O O10 0.750000 0.750000 0.500000
O O11 0.694467 0.731604 0.717386
O O12 0.386393 0.204729 0.222454
O O13 0.324649 0.000000 0.187600
O O14 0.941160 0.500000 0.327026
O O15 0.915531 0.274394 0.498483
O O16 0.415458 0.000000 0.690396
#
# Coordination Sequence:
#
# PCOD8102954 Si02
#       6
#     8   8   8   8   8   8
#     4   9  19  36  59  84 111 145 185 229 274 328
#     4  11  24  39  55  80 114 148 184 229 279 329
#     4  11  22  37  57  83 115 150 188 229 275 326
#     4  10  20  37  60  85 112 144 184 229 278 328
#     4  10  21  37  60  86 111 144 186 229 274 331
#     4  10  20  37  60  84 109 142 186 229 273 329
#
# _framework density 19.843287
#
# number of rings (size 3 to 8) (size 9 to 14) (size 15 to 20)
#    0.000    1.833    0.000    4.000    0.000    8.667 
#    0.000    5.000    0.000    0.000    0.000    0.000 
#    0.000    0.000    0.000    0.000    0.000    0.000 
#
# Total GULP energy -297712.233922 kJ/mol
# GULP energy per Si atom -12404.676413 kJ/mol
# Density = 1.979812 g / cm^3
# Si number density = 19.843287 Si / 1000 Ang^3
#
#
#
# Elastic Constant Matrix: (Units=GPa)
#
#
# Indices 1 2 3 4 5 6 
#
# 1 67.3101 17.0275 -5.2120 0.0000 -4.9578 0.0000
# 2 17.0275 40.5748 16.3035 0.0000 -1.1460 0.0000
# 3 -5.2120 16.3035 85.2443 0.0000 -2.2015 0.0000
# 4 0.0000 0.0000 0.0000 30.1160 0.0000 -1.8540
# 5 -4.9578 -1.1460 -2.2015 0.0000 44.5521 0.0000
# 6 0.0000 0.0000 0.0000 -1.8540 0.0000 21.7959
#
#
#
# Elastic Compliance Matrix: (Units=1/GPa)
#
#
# Indices 1 2 3 4 5 6 
#
# 1 0.017297 -0.008288 0.002690 0.000000 0.001845 0.000000
# 2 -0.008288 0.030677 -0.006385 0.000000 -0.000449 0.000000
# 3 0.002690 -0.006385 0.013137 0.000000 0.000784 0.000000
# 4 0.000000 0.000000 0.000000 0.033380 0.000000 0.002839
# 5 0.001845 -0.000449 0.000784 0.000000 0.022678 0.000000
# 6 0.000000 0.000000 0.000000 0.002839 0.000000 0.046122
#
#
# Mechanical properties :
#
#
# Convention : Reuss Voigt Hill
#
# Bulk Modulus (GPa) = 26.92127 27.70746 27.31437
# Shear Modulus (GPa) = 25.04521 30.29346 27.66934
#
# Velocity S-wave (km/s) = 3.55653 3.91146 3.73821
# Velocity P-wave (km/s) = 5.51920 5.86454 5.69449
#
# Compressibility (1/GPa) = 0.03714534
#
# Stress axis : x y z
#
# Youngs Moduli (GPa) = 57.81212 32.59768 76.12084
#
# Poissons Ratio (x) = 0.27017 -0.20479
# Poissons Ratio (y) = 0.47914 0.48607
# Poissons Ratio (z) = -0.15553 0.20815
#
# Static dielectric constant tensor:
#      x y z
#    x 3.765710 0.000000 0.045850 
#    y 0.000000 3.362580 0.000000 
#    z 0.045850 0.000000 4.190460 
# 
# 
# High freq. dielectric constant tensor:
#      x y z
#    x 1.789170 0.000000 0.001210 
#    y 0.000000 1.749740 0.000000 
#    z 0.001210 0.000000 1.793880 
# 
# From -- ./inp_files/108573.got.cif
#   From: 2010.06.25/outbox.cif.g09.slc.cpg/sg12_55_cif.got.tgz:108573.got - 2010.06.28 00:19:55.
