data_PCOD8102027
_publ_section_title
;
Structure prediction by ZEFSAII (Michael W. Deem and Ramdas Pophale) SiO2 
 PCOD8102027
Probable space group: C 2/M
;
_chemical_formula_sum "Si O2"
_cell_formula_units_Z 56
_cell_length_a 19.685275
_cell_length_b 21.882328
_cell_length_c 8.491262
_cell_angle_alpha 90.000000
_cell_angle_beta 134.702623
_cell_angle_gamma 90.000000
_cell_volume 2599.768474
_symmetry_space_group_name_H-M "C 2/M"
_symmetry_group_IT_number 12
_symmetry_cell_setting 'monoclinic'
loop_
_space_group_symop_operation_xyz
x,y,z
-x,y,-z
-x,-y,-z
x,-y,z
1/2+x,1/2+y,z
1/2-x,1/2+y,-z
1/2-x,1/2-y,-z
1/2+x,1/2-y,z
loop_
_atom_site_type_symbol
_atom_site_label
_atom_site_fract_x
_atom_site_fract_y
_atom_site_fract_z
Si Si1 0.593746 0.760753 0.247851
Si Si2 0.689534 0.326137 0.188966
Si Si3 0.873060 0.336175 0.278906
Si Si4 0.744223 0.066811 0.501728
Si Si5 0.560114 0.888231 0.309172
Si Si6 0.466609 0.715371 0.288608
Si Si7 0.852213 0.428921 0.975780
O O1 0.682739 0.731118 0.299308
O O2 0.604667 0.833596 0.273704
O O3 0.569137 0.732709 0.378648
O O4 0.500000 0.742295 0.000000
O O5 0.787086 0.315892 0.254386
O O6 0.687045 0.386679 0.293325
O O7 0.600515 0.328497 0.923592
O O8 0.952556 0.365502 0.529036
O O9 0.911508 0.278695 0.242201
O O10 0.830007 0.387089 0.090755
O O11 0.641766 0.060778 0.425057
O O12 0.792608 0.000000 0.588713
O O13 0.725002 0.084403 0.287122
O O14 0.458134 0.912090 0.082515
O O15 0.500000 0.679747 0.500000
O O16 0.850231 0.500000 0.022876
#
# Coordination Sequence:
#
# PCOD8102027 Si02
#       7
#     8   8   8   8   8   8   8
#     4  10  20  36  60  87 122 159 202 246 298 368
#     4  10  25  39  60  90 120 167 202 251 314 362
#     4  11  22  37  55  89 132 163 198 252 300 354
#     4  10  23  40  58  84 120 160 210 258 299 354
#     4  11  20  36  60  88 127 168 200 243 292 372
#     4  11  20  40  61  87 125 155 200 254 311 365
#     4  11  22  37  60  89 125 172 209 240 291 363
#
# _framework density 21.540379999999999
#
# number of rings (size 3 to 8) (size 9 to 14) (size 15 to 20)
#    0.000    1.429    2.857    2.571    2.000    8.000 
#    0.000    0.000    0.000    4.286    0.000    0.000 
#    0.000    0.000    0.000    0.000    0.000    0.000 
#
# Total GULP energy -347000.400943 kJ/mol
# GULP energy per Si atom -12392.871462 kJ/mol
# Density = 2.149135 g / cm^3
# Si number density = 21.540380 Si / 1000 Ang^3
#
#
#
# Elastic Constant Matrix: (Units=GPa)
#
#
# Indices 1 2 3 4 5 6 
#
# 1 93.1522 40.9267 11.5745 0.0000 -18.1646 0.0000
# 2 40.9267 108.9610 65.9415 0.0000 -10.1178 0.0000
# 3 11.5745 65.9415 140.0426 0.0000 -17.2766 0.0000
# 4 0.0000 0.0000 0.0000 39.8144 0.0000 -1.6415
# 5 -18.1646 -10.1178 -17.2766 0.0000 23.3510 0.0000
# 6 0.0000 0.0000 0.0000 -1.6415 0.0000 23.9702
#
#
#
# Elastic Compliance Matrix: (Units=1/GPa)
#
#
# Indices 1 2 3 4 5 6 
#
# 1 0.015577 -0.006796 0.003350 0.000000 0.011651 0.000000
# 2 -0.006796 0.015831 -0.007371 0.000000 -0.003881 0.000000
# 3 0.003350 -0.007371 0.011293 0.000000 0.007767 0.000000
# 4 0.000000 0.000000 0.000000 0.025188 0.000000 0.001725
# 5 0.011651 -0.003881 0.007767 0.000000 0.055953 0.000000
# 6 0.000000 0.000000 0.000000 0.001725 0.000000 0.041837
#
#
# Mechanical properties :
#
#
# Convention : Reuss Voigt Hill
#
# Bulk Modulus (GPa) = 47.47106 64.33792 55.90449
# Shear Modulus (GPa) = 25.72877 32.34133 29.03505
#
# Velocity S-wave (km/s) = 3.45982 3.87903 3.67541
# Velocity P-wave (km/s) = 6.16818 7.07077 6.63485
#
# Compressibility (1/GPa) = 0.02106547
#
# Stress axis : x y z
#
# Youngs Moduli (GPa) = 64.19825 63.16726 88.55070
#
# Poissons Ratio (x) = 0.42930 -0.29665
# Poissons Ratio (y) = 0.43631 0.65274
# Poissons Ratio (z) = -0.21507 0.46563
#
# Static dielectric constant tensor:
#      x y z
#    x 4.327410 0.000000 -0.361670 
#    y 0.000000 3.661940 0.000000 
#    z -0.361670 0.000000 4.182330 
# 
# 
# High freq. dielectric constant tensor:
#      x y z
#    x 1.838860 0.000000 -0.029320 
#    y 0.000000 1.816560 0.000000 
#    z -0.029320 0.000000 1.854660 
# 
# From -- ./inp_files/89667.got.cif
#   From: 2010.06.25/outbox.cif.g09.slc.cpg/sg12_45_cif.got.tgz:89667.got - 2010.06.28 00:19:55.
