data_PCOD8102996
_publ_section_title
;
Structure prediction by ZEFSAII (Michael W. Deem and Ramdas Pophale) SiO2 
 PCOD8102996
Probable space group: C 2/M
;
_chemical_formula_sum "Si O2"
_cell_formula_units_Z 56
_cell_length_a 13.170216
_cell_length_b 8.990524
_cell_length_c 21.685192
_cell_angle_alpha 90.000000
_cell_angle_beta 68.186760
_cell_angle_gamma 90.000000
_cell_volume 2383.835590
_symmetry_space_group_name_H-M "C 2/M"
_symmetry_group_IT_number 12
_symmetry_cell_setting 'monoclinic'
loop_
_space_group_symop_operation_xyz
x,y,z
-x,y,-z
-x,-y,-z
x,-y,z
1/2+x,1/2+y,z
1/2-x,1/2+y,-z
1/2-x,1/2-y,-z
1/2+x,1/2-y,z
loop_
_atom_site_type_symbol
_atom_site_label
_atom_site_fract_x
_atom_site_fract_y
_atom_site_fract_z
Si Si1 0.175752 0.823157 0.068110
Si Si2 0.735558 0.331345 0.189840
Si Si3 0.487591 0.828726 0.162716
Si Si4 0.644912 0.669532 0.447923
Si Si5 0.443589 0.329246 0.293015
Si Si6 0.810879 0.331095 0.681199
Si Si7 0.600516 0.830011 0.577379
O O1 0.218791 0.768098 0.125096
O O2 0.054110 0.752691 0.092410
O O3 0.174425 0.000000 0.059831
O O4 0.250000 0.750000 0.000000
O O5 0.696028 0.500000 0.201484
O O6 0.665308 0.249325 0.258857
O O7 0.862457 0.314145 0.174333
O O8 0.512729 0.740796 0.220880
O O9 0.523481 0.000000 0.161518
O O10 0.609689 0.500000 0.445814
O O11 0.619405 0.759888 0.390742
O O12 0.575467 0.736340 0.520851
O O13 0.772240 0.682797 0.435106
O O14 0.477710 0.500000 0.294763
O O15 0.316269 0.315500 0.305936
O O16 0.469145 0.236681 0.349675
O O17 0.848049 0.500000 0.679422
O O18 0.566135 0.000000 0.574347
#
# Coordination Sequence:
#
# PCOD8102996 Si02
#       7
#     8   8   8   8   8   8   8
#     4  11  24  42  62  87 117 148 183 225 274 332
#     4   9  20  38  59  82 113 151 187 225 276 334
#     4  10  20  37  60  85 113 148 188 230 276 328
#     4   9  15  22  34  56  92 136 179 225 278 330
#     4   9  16  27  44  69 101 138 180 226 276 329
#     4   9  16  26  44  70 100 135 180 230 275 323
#     4   9  15  22  34  57  92 134 180 229 277 324
#
# _framework density 23.491554000000001
#
# number of rings (size 3 to 8) (size 9 to 14) (size 15 to 20)
#    0.000    2.571    0.000    2.571    0.000    9.143 
#    0.000    2.857    0.000    0.000    0.000    1.000 
#    0.000    8.000    0.000    0.857    0.000    0.286 
#
# Total GULP energy -347323.657799 kJ/mol
# GULP energy per Si atom -12404.416350 kJ/mol
# Density = 2.343809 g / cm^3
# Si number density = 23.491554 Si / 1000 Ang^3
#
#
#
# Elastic Constant Matrix: (Units=GPa)
#
#
# Indices 1 2 3 4 5 6 
#
# 1 12.6714 1.1506 29.2713 0.0000 5.2133 0.0000
# 2 1.1506 159.4349 90.5102 0.0000 4.8025 0.0000
# 3 29.2713 90.5102 215.0961 0.0000 -15.6816 0.0000
# 4 0.0000 0.0000 0.0000 53.0496 0.0000 4.3828
# 5 5.2133 4.8025 -15.6816 0.0000 42.3050 0.0000
# 6 0.0000 0.0000 0.0000 4.3828 0.0000 13.9250
#
#
#
# Elastic Compliance Matrix: (Units=1/GPa)
#
#
# Indices 1 2 3 4 5 6 
#
# 1 0.169436 0.018925 -0.033608 0.000000 -0.035486 0.000000
# 2 0.018925 0.010575 -0.007485 0.000000 -0.006307 0.000000
# 3 -0.033608 -0.007485 0.013090 0.000000 0.009844 0.000000
# 4 0.000000 0.000000 0.000000 0.019354 0.000000 -0.006091
# 5 -0.035486 -0.006307 0.009844 0.000000 0.032376 0.000000
# 6 0.000000 0.000000 0.000000 -0.006091 0.000000 0.073731
#
#
# Mechanical properties :
#
#
# Convention : Reuss Voigt Hill
#
# Bulk Modulus (GPa) = 6.72204 69.89629 38.30917
# Shear Modulus (GPa) = 12.12167 39.60727 25.86447
#
# Velocity S-wave (km/s) = 2.27403 4.11057 3.32175
# Velocity P-wave (km/s) = 3.12452 7.23516 5.57271
#
# Compressibility (1/GPa) = 0.14876425
#
# Stress axis : x y z
#
# Youngs Moduli (GPa) = 5.90195 94.56478 76.39451
#
# Poissons Ratio (x) = -1.78967 2.56749
# Poissons Ratio (y) = -0.11170 0.57182
# Poissons Ratio (z) = 0.19835 0.70782
#
# Static dielectric constant tensor:
#      x y z
#    x 4.113250 0.000000 -0.029280 
#    y 0.000000 4.203550 0.000000 
#    z -0.029280 0.000000 4.376830 
# 
# 
# High freq. dielectric constant tensor:
#      x y z
#    x 1.957660 0.000000 -0.013330 
#    y 0.000000 1.928000 0.000000 
#    z -0.013330 0.000000 1.934920 
# 
# From -- ./inp_files/337893.got.cif
#   From: 2010.06.25/outbox.cif.g09.slc.cpg/sg12_169_cif.got.tgz:337893.got - 2010.06.28 00:19:55.
