data_PCOD8102470
_publ_section_title
;
Structure prediction by ZEFSAII (Michael W. Deem and Ramdas Pophale) SiO2 
 PCOD8102470
Probable space group: C 2/M
;
_chemical_formula_sum "Si O2"
_cell_formula_units_Z 64
_cell_length_a 17.912789
_cell_length_b 28.225449
_cell_length_c 12.412588
_cell_angle_alpha 90.000000
_cell_angle_beta 151.741752
_cell_angle_gamma 90.000000
_cell_volume 2971.236992
_symmetry_space_group_name_H-M "C 2/M"
_symmetry_group_IT_number 12
_symmetry_cell_setting 'monoclinic'
loop_
_space_group_symop_operation_xyz
x,y,z
-x,y,-z
-x,-y,-z
x,-y,z
1/2+x,1/2+y,z
1/2-x,1/2+y,-z
1/2-x,1/2-y,-z
1/2+x,1/2-y,z
loop_
_atom_site_type_symbol
_atom_site_label
_atom_site_fract_x
_atom_site_fract_y
_atom_site_fract_z
Si Si1 0.142383 0.329831 0.606948
Si Si2 0.144639 0.948823 0.122466
Si Si3 0.350712 0.715772 0.051564
Si Si4 0.733636 0.556948 0.003152
Si Si5 0.403429 0.920637 0.581810
Si Si6 0.644485 0.121726 0.262639
Si Si7 0.892120 0.717445 0.653741
Si Si8 0.505615 0.631596 0.383316
O O1 0.183645 0.375935 0.588891
O O2 0.098435 0.289933 0.463488
O O3 0.000000 0.344771 0.500000
O O4 0.272576 0.312053 0.854489
O O5 0.198613 0.924400 0.079596
O O6 0.297324 0.960773 0.391876
O O7 0.075426 0.000000 0.000083
O O8 0.000000 0.921354 0.000000
O O9 0.458449 0.751959 0.122720
O O10 0.442784 0.676591 0.237908
O O11 0.250000 0.750000 0.000000
O O12 0.720614 0.500000 0.969731
O O13 0.910300 0.573948 0.199194
O O14 0.605772 0.584932 0.768773
O O15 0.365312 0.919347 0.659972
O O16 0.610415 0.170535 0.279532
O O17 0.814276 0.119874 0.421241
O O18 0.500000 0.111612 0.000000
O O19 0.750000 0.750000 0.500000
O O20 0.500000 0.646822 0.500000
#
# Coordination Sequence:
#
# PCOD8102470 Si02
#       8
#     8   8   8   8   8   8   8   8
#     4  11  23  39  61  91 128 170 218 271 321 388
#     4  10  20  36  64  98 135 172 213 271 335 406
#     4  12  26  40  70  97 134 183 229 278 334 404
#     4  11  24  44  72 104 136 179 229 288 352 417
#     4  11  22  41  67  96 135 172 225 278 345 401
#     4  11  26  45  67  94 136 181 225 285 342 410
#     4  11  25  43  61  94 131 174 226 280 331 389
#     4  12  27  46  70  99 135 181 232 285 349 416
#
# _framework density 21.539849
#
# number of rings (size 3 to 8) (size 9 to 14) (size 15 to 20)
#    0.000    0.875    2.500    4.500    7.000    1.250 
#    0.000    0.625    0.000    2.625    0.000    0.000 
#    0.000    0.000    0.000    0.000    0.000    0.000 
#
# Total GULP energy -396465.595702 kJ/mol
# GULP energy per Si atom -12389.549866 kJ/mol
# Density = 2.149082 g / cm^3
# Si number density = 21.539849 Si / 1000 Ang^3
#
#
#
# Elastic Constant Matrix: (Units=GPa)
#
#
# Indices 1 2 3 4 5 6 
#
# 1 127.4863 12.8185 46.8189 0.0000 8.2001 0.0000
# 2 12.8185 73.0890 27.3160 0.0000 -0.0914 0.0000
# 3 46.8189 27.3160 137.5893 0.0000 5.1809 0.0000
# 4 0.0000 0.0000 0.0000 59.3888 0.0000 -26.6046
# 5 8.2001 -0.0914 5.1809 0.0000 51.9191 0.0000
# 6 0.0000 0.0000 0.0000 -26.6046 0.0000 54.3010
#
#
#
# Elastic Compliance Matrix: (Units=1/GPa)
#
#
# Indices 1 2 3 4 5 6 
#
# 1 0.009045 -0.000490 -0.002938 0.000000 -0.001136 0.000000
# 2 -0.000490 0.014810 -0.002788 0.000000 0.000382 0.000000
# 3 -0.002938 -0.002788 0.008837 0.000000 -0.000423 0.000000
# 4 0.000000 0.000000 0.000000 0.021573 0.000000 0.010570
# 5 -0.001136 0.000382 -0.000423 0.000000 0.019483 0.000000
# 6 0.000000 0.000000 0.000000 0.010570 0.000000 0.023594
#
#
# Mechanical properties :
#
#
# Convention : Reuss Voigt Hill
#
# Bulk Modulus (GPa) = 49.35525 56.89680 53.12602
# Shear Modulus (GPa) = 42.90793 49.86919 46.38856
#
# Velocity S-wave (km/s) = 4.46805 4.81688 4.64574
# Velocity P-wave (km/s) = 7.04139 7.57684 7.31402
#
# Compressibility (1/GPa) = 0.02026127
#
# Stress axis : x y z
#
# Youngs Moduli (GPa) = 110.55528 67.52050 113.15866
#
# Poissons Ratio (x) = 0.03307 0.33245
# Poissons Ratio (y) = 0.05415 0.31549
# Poissons Ratio (z) = 0.32480 0.18825
#
# Static dielectric constant tensor:
#      x y z
#    x 4.121140 0.000000 -0.028510 
#    y 0.000000 3.966870 0.000000 
#    z -0.028510 0.000000 3.945620 
# 
# 
# High freq. dielectric constant tensor:
#      x y z
#    x 1.859960 0.000000 0.004710 
#    y 0.000000 1.848520 0.000000 
#    z 0.004710 0.000000 1.851760 
# 
# From -- ./inp_files/161269.got.cif
#   From: 2010.06.25/outbox.cif.g09.slc.cpg/sg12_81_cif.got.tgz:161269.got - 2010.06.28 00:19:55.
