data_PCOD8102926
_publ_section_title
;
Structure prediction by ZEFSAII (Michael W. Deem and Ramdas Pophale) SiO2 
 PCOD8102926
Probable space group: C 2/M
;
_chemical_formula_sum "Si O2"
_cell_formula_units_Z 64
_cell_length_a 20.488765
_cell_length_b 8.927210
_cell_length_c 23.440013
_cell_angle_alpha 90.000000
_cell_angle_beta 49.050002
_cell_angle_gamma 90.000000
_cell_volume 3238.160869
_symmetry_space_group_name_H-M "C 2/M"
_symmetry_group_IT_number 12
_symmetry_cell_setting 'monoclinic'
loop_
_space_group_symop_operation_xyz
x,y,z
-x,y,-z
-x,-y,-z
x,-y,z
1/2+x,1/2+y,z
1/2-x,1/2+y,-z
1/2-x,1/2-y,-z
1/2+x,1/2-y,z
loop_
_atom_site_type_symbol
_atom_site_label
_atom_site_fract_x
_atom_site_fract_y
_atom_site_fract_z
Si Si1 0.000255 0.321795 0.672289
Si Si2 0.703293 0.174905 0.907865
Si Si3 0.306557 0.823216 0.418963
Si Si4 0.045041 0.674111 0.080832
Si Si5 0.376967 0.177358 0.843346
Si Si6 0.750985 0.826445 0.336721
Si Si7 0.058897 0.677221 0.415422
Si Si8 0.634512 0.674147 0.837427
O O1 0.997802 0.500000 0.673340
O O2 0.935013 0.262184 0.757921
O O3 0.972219 0.255423 0.627126
O O4 0.095850 0.263162 0.631354
O O5 0.783842 0.247070 0.894182
O O6 0.691664 0.243845 0.852100
O O7 0.720226 0.000000 0.891945
O O8 0.619020 0.209665 0.993148
O O9 0.250000 0.750000 0.500000
O O10 0.271127 0.778028 0.378124
O O11 0.302262 0.000000 0.428752
O O12 0.019490 0.500000 0.095579
O O13 0.076154 0.726211 0.125266
O O14 0.962622 0.767206 0.108407
O O15 0.363809 0.000000 0.848759
O O16 0.657805 0.777065 0.367088
O O17 0.821862 0.794368 0.248233
O O18 0.750636 0.000000 0.355843
O O19 0.047479 0.500000 0.420499
O O20 0.000000 0.744812 0.500000
O O21 0.634336 0.500000 0.852668
#
# Coordination Sequence:
#
# PCOD8102926 Si02
#       8
#     8   8   8   8   8   8   8   8
#     4   9  18  33  55  81 107 143 188 229 274 330
#     4  11  23  38  57  83 116 151 188 235 292 348
#     4  11  22  37  59  85 115 151 189 230 278 332
#     4  10  22  39  58  82 114 151 190 237 291 347
#     4  10  20  37  60  83 110 146 192 240 286 345
#     4  10  21  37  57  83 113 143 182 233 283 333
#     4   9  16  29  52  78 104 137 178 221 264 319
#     4  11  23  38  59  85 114 151 194 240 287 340
#
# _framework density 19.764305
#
# number of rings (size 3 to 8) (size 9 to 14) (size 15 to 20)
#    0.000    1.875    0.000    4.125    0.000    9.000 
#    0.000    1.250    0.000    4.125    0.000    0.000 
#    0.000    0.000    0.000    0.000    0.000    0.000 
#
# Total GULP energy -396948.544611 kJ/mol
# GULP energy per Si atom -12404.642019 kJ/mol
# Density = 1.971932 g / cm^3
# Si number density = 19.764305 Si / 1000 Ang^3
#
#
#
# Elastic Constant Matrix: (Units=GPa)
#
#
# Indices 1 2 3 4 5 6 
#
# 1 90.6143 28.5892 19.9374 0.0000 4.5171 0.0002
# 2 28.5892 49.1503 31.9559 -0.0001 -2.4018 0.0010
# 3 19.9374 31.9559 75.1993 0.0000 2.9687 -0.0001
# 4 0.0000 -0.0001 0.0000 23.4369 0.0000 1.4132
# 5 4.5171 -2.4018 2.9687 0.0000 41.1288 0.0000
# 6 0.0002 0.0010 -0.0001 1.4132 0.0000 29.4294
#
#
#
# Elastic Compliance Matrix: (Units=1/GPa)
#
#
# Indices 1 2 3 4 5 6 
#
# 1 0.013676 -0.007935 -0.000177 0.000000 -0.001953 0.000000
# 2 -0.007935 0.032978 -0.012055 0.000000 0.003667 -0.000001
# 3 -0.000177 -0.012055 0.018548 0.000000 -0.002023 0.000000
# 4 0.000000 0.000000 0.000000 0.042792 0.000000 -0.002055
# 5 -0.001953 0.003667 -0.002023 0.000000 0.024889 0.000000
# 6 0.000000 -0.000001 0.000000 -0.002055 0.000000 0.034078
#
#
# Mechanical properties :
#
#
# Convention : Reuss Voigt Hill
#
# Bulk Modulus (GPa) = 40.21290 41.76986 40.99138
# Shear Modulus (GPa) = 23.19289 27.76444 25.47867
#
# Velocity S-wave (km/s) = 3.42932 3.75210 3.59433
# Velocity P-wave (km/s) = 6.00589 6.32067 6.16529
#
# Compressibility (1/GPa) = 0.02486764
#
# Stress axis : x y z
#
# Youngs Moduli (GPa) = 73.12300 30.32279 53.91557
#
# Poissons Ratio (x) = 0.24062 0.00952
# Poissons Ratio (y) = 0.58025 0.64996
# Poissons Ratio (z) = 0.01291 0.36554
#
# Static dielectric constant tensor:
#      x y z
#    x 3.722490 0.000000 -0.000040 
#    y 0.000000 3.314230 0.000000 
#    z -0.000040 0.000000 3.621510 
# 
# 
# High freq. dielectric constant tensor:
#      x y z
#    x 1.788110 0.000000 0.000920 
#    y 0.000000 1.741370 0.000000 
#    z 0.000920 0.000000 1.789290 
# 
# From -- ./inp_files/345947.got.cif
#   From: 2010.06.25/outbox.cif.g09.slc.cpg/sg12_173_cif.got.tgz:345947.got - 2010.06.28 00:19:55.
