data_PCOD8102194
_publ_section_title
;
Structure prediction by ZEFSAII (Michael W. Deem and Ramdas Pophale) SiO2 
 PCOD8102194
Probable space group: C 2/M
;
_chemical_formula_sum "Si O2"
_cell_formula_units_Z 56
_cell_length_a 27.128256
_cell_length_b 9.431578
_cell_length_c 17.713647
_cell_angle_alpha 90.000000
_cell_angle_beta 142.226851
_cell_angle_gamma 90.000000
_cell_volume 2776.171737
_symmetry_space_group_name_H-M "C 2/M"
_symmetry_group_IT_number 12
_symmetry_cell_setting 'monoclinic'
loop_
_space_group_symop_operation_xyz
x,y,z
-x,y,-z
-x,-y,-z
x,-y,z
1/2+x,1/2+y,z
1/2-x,1/2+y,-z
1/2-x,1/2-y,-z
1/2+x,1/2-y,z
loop_
_atom_site_type_symbol
_atom_site_label
_atom_site_fract_x
_atom_site_fract_y
_atom_site_fract_z
Si Si1 0.405350 0.836715 0.080922
Si Si2 0.139109 0.836363 0.544676
Si Si3 0.460405 0.166618 0.875439
Si Si4 0.388703 0.156074 0.344558
Si Si5 0.784776 0.334369 0.613608
Si Si6 0.264148 0.658432 0.943677
Si Si7 0.503606 0.838333 0.661748
O O1 0.480944 0.793478 0.121768
O O2 0.426298 0.806760 0.193719
O O3 0.380785 0.000000 0.036982
O O4 0.330293 0.735979 0.970725
O O5 0.134423 0.772224 0.622454
O O6 0.226331 0.811794 0.614241
O O7 0.072579 0.760233 0.411870
O O8 0.117046 0.000000 0.523640
O O9 0.371677 0.226229 0.746361
O O10 0.450733 0.000000 0.875410
O O11 0.500000 0.231970 0.000000
O O12 0.318011 0.147598 0.199557
O O13 0.468296 0.193065 0.390838
O O14 0.399614 0.000000 0.395749
O O15 0.790216 0.500000 0.597536
O O16 0.750000 0.250000 0.500000
O O17 0.293729 0.500000 0.001254
O O18 0.250000 0.750000 0.000000
O O19 0.475915 0.000000 0.638585
#
# Coordination Sequence:
#
# PCOD8102194 Si02
#       7
#     8   8   8   8   8   8   8
#     4  10  20  36  61  87 114 154 199 239 287 343
#     4  11  24  37  57  90 119 146 191 247 299 340
#     4   9  19  36  61  89 117 154 201 248 295 353
#     4  10  22  39  57  81 116 157 197 231 282 357
#     4  10  22  41  63  89 118 155 201 248 299 357
#     4  11  22  38  59  86 119 154 194 236 286 347
#     4  10  20  38  59  82 115 159 201 232 279 356
#
# _framework density 20.171662999999999
#
# number of rings (size 3 to 8) (size 9 to 14) (size 15 to 20)
#    0.000    1.857    1.429    2.143    2.000    6.286 
#    0.000    0.714    0.000    0.857    0.000    0.000 
#    0.000    0.000    0.000    0.000    0.000    0.000 
#
# Total GULP energy -347161.598383 kJ/mol
# GULP energy per Si atom -12398.628514 kJ/mol
# Density = 2.012575 g / cm^3
# Si number density = 20.171663 Si / 1000 Ang^3
#
#
#
# Elastic Constant Matrix: (Units=GPa)
#
#
# Indices 1 2 3 4 5 6 
#
# 1 96.5055 52.2111 23.2693 0.0000 10.9977 0.0000
# 2 52.2111 95.9586 30.7360 0.0000 9.7862 0.0000
# 3 23.2693 30.7360 76.2829 0.0000 5.5550 0.0000
# 4 0.0000 0.0000 0.0000 29.2041 0.0000 2.9961
# 5 10.9977 9.7862 5.5550 0.0000 39.1064 0.0000
# 6 0.0000 0.0000 0.0000 2.9961 0.0000 29.0542
#
#
#
# Elastic Compliance Matrix: (Units=1/GPa)
#
#
# Indices 1 2 3 4 5 6 
#
# 1 0.014998 -0.007493 -0.001400 0.000000 -0.002144 0.000000
# 2 -0.007493 0.015924 -0.004035 0.000000 -0.001304 0.000000
# 3 -0.001400 -0.004035 0.015217 0.000000 -0.000758 0.000000
# 4 0.000000 0.000000 0.000000 0.034608 0.000000 -0.003569
# 5 -0.002144 -0.001304 -0.000758 0.000000 0.026608 0.000000
# 6 0.000000 0.000000 0.000000 -0.003569 0.000000 0.034786
#
#
# Mechanical properties :
#
#
# Convention : Reuss Voigt Hill
#
# Bulk Modulus (GPa) = 49.30404 53.46443 51.38424
# Shear Modulus (GPa) = 28.61083 30.30832 29.45957
#
# Velocity S-wave (km/s) = 3.77021 3.88044 3.82572
# Velocity P-wave (km/s) = 6.59150 6.82930 6.71145
#
# Compressibility (1/GPa) = 0.02028231
#
# Stress axis : x y z
#
# Youngs Moduli (GPa) = 66.67573 62.79873 65.71542
#
# Poissons Ratio (x) = 0.47058 0.09197
# Poissons Ratio (y) = 0.49963 0.26518
# Poissons Ratio (z) = 0.09332 0.25341
#
# Static dielectric constant tensor:
#      x y z
#    x 3.707170 0.000000 0.130210 
#    y 0.000000 3.681670 0.000000 
#    z 0.130210 0.000000 3.909300 
# 
# 
# High freq. dielectric constant tensor:
#      x y z
#    x 1.793360 0.000000 0.008200 
#    y 0.000000 1.764790 0.000000 
#    z 0.008200 0.000000 1.801260 
# 
# From -- ./inp_files/292589.got.cif
#   From: 2010.06.25/outbox.cif.g09.slc.cpg/sg12_147_cif.got.tgz:292589.got - 2010.06.28 00:19:55.
