data_PCOD8102438
_publ_section_title
;
Structure prediction by ZEFSAII (Michael W. Deem and Ramdas Pophale) SiO2 
 PCOD8102438
Probable space group: C 2/M
;
_chemical_formula_sum "Si O2"
_cell_formula_units_Z 52
_cell_length_a 9.214379
_cell_length_b 25.987379
_cell_length_c 11.012695
_cell_angle_alpha 90.000000
_cell_angle_beta 106.925361
_cell_angle_gamma 90.000000
_cell_volume 2522.847761
_symmetry_space_group_name_H-M "C 2/M"
_symmetry_group_IT_number 12
_symmetry_cell_setting 'monoclinic'
loop_
_space_group_symop_operation_xyz
x,y,z
-x,y,-z
-x,-y,-z
x,-y,z
1/2+x,1/2+y,z
1/2-x,1/2+y,-z
1/2-x,1/2-y,-z
1/2+x,1/2-y,z
loop_
_atom_site_type_symbol
_atom_site_label
_atom_site_fract_x
_atom_site_fract_y
_atom_site_fract_z
Si Si1 0.500000 0.357891 0.500000
Si Si2 0.291940 0.556868 0.095241
Si Si3 0.061540 0.783737 0.146905
Si Si4 0.423247 0.440897 0.673196
Si Si5 0.294736 0.697430 0.267177
Si Si6 0.946230 0.620036 0.864736
Si Si7 0.764625 0.889040 0.843939
O O1 0.408072 0.396834 0.566683
O O2 0.615735 0.316868 0.588354
O O3 0.305231 0.500000 0.045782
O O4 0.411124 0.566821 0.230554
O O5 0.121901 0.565124 0.106545
O O6 0.327247 0.594044 0.990466
O O7 0.171574 0.743272 0.241919
O O8 0.157955 0.835356 0.166112
O O9 0.911870 0.790969 0.189238
O O10 0.000000 0.765609 0.000000
O O11 0.401063 0.500000 0.619217
O O12 0.299613 0.430401 0.747842
O O13 0.200879 0.646279 0.223581
O O14 0.081484 0.615505 0.801169
O O15 0.000000 0.650328 0.000000
#
# Coordination Sequence:
#
# PCOD8102438 Si02
#       7
#     4   8   8   8   8   8   8
#     4  12  25  46  66  88 132 174 225 266 306 384
#     4  10  20  36  63  96 132 169 209 265 331 386
#     4  12  23  41  69  98 130 161 212 268 332 386
#     4  11  22  41  67  93 126 176 224 264 316 380
#     4  12  25  44  66  95 128 173 217 262 324 382
#     4  10  20  37  62  93 135 165 207 263 329 383
#     4  11  21  37  64 101 132 164 207 273 326 384
#
# _framework density 20.611626999999999
#
# number of rings (size 3 to 8) (size 9 to 14) (size 15 to 20)
#    0.000    0.923    3.077    5.769    0.000    5.231 
#    0.000    0.769    0.000    0.923    0.000    0.000 
#    0.000    0.000    0.000    0.000    0.000    0.000 
#
# Total GULP energy -322197.910516 kJ/mol
# GULP energy per Si atom -12392.227328 kJ/mol
# Density = 2.056471 g / cm^3
# Si number density = 20.611627 Si / 1000 Ang^3
#
#
#
# Elastic Constant Matrix: (Units=GPa)
#
#
# Indices 1 2 3 4 5 6 
#
# 1 132.6347 33.0252 28.7821 0.0000 -0.0484 0.0000
# 2 33.0252 99.0249 36.1602 0.0000 8.4414 0.0000
# 3 28.7821 36.1602 88.1897 0.0000 18.9017 0.0000
# 4 0.0000 0.0000 0.0000 50.1249 0.0000 -16.6085
# 5 -0.0484 8.4414 18.9017 0.0000 29.5159 0.0000
# 6 0.0000 0.0000 0.0000 -16.6085 0.0000 62.4113
#
#
#
# Elastic Compliance Matrix: (Units=1/GPa)
#
#
# Indices 1 2 3 4 5 6 
#
# 1 0.008599 -0.002185 -0.002373 0.000000 0.002159 0.000000
# 2 -0.002185 0.012435 -0.004199 0.000000 -0.000871 0.000000
# 3 -0.002373 -0.004199 0.015739 0.000000 -0.008882 0.000000
# 4 0.000000 0.000000 0.000000 0.021879 0.000000 0.005822
# 5 0.002159 -0.000871 -0.008882 0.000000 0.039821 0.000000
# 6 0.000000 0.000000 0.000000 0.005822 0.000000 0.017572
#
#
# Mechanical properties :
#
#
# Convention : Reuss Voigt Hill
#
# Bulk Modulus (GPa) = 51.92456 57.30937 54.61697
# Shear Modulus (GPa) = 35.71951 43.20255 39.46103
#
# Velocity S-wave (km/s) = 4.16742 4.58321 4.38025
# Velocity P-wave (km/s) = 6.95723 7.47479 7.22065
#
# Compressibility (1/GPa) = 0.01925871
#
# Stress axis : x y z
#
# Youngs Moduli (GPa) = 116.28678 80.41982 63.53642
#
# Poissons Ratio (x) = 0.17575 0.15079
# Poissons Ratio (y) = 0.25413 0.26677
# Poissons Ratio (z) = 0.27597 0.33765
#
# Static dielectric constant tensor:
#      x y z
#    x 3.952100 0.000000 0.020030 
#    y 0.000000 3.873360 0.000000 
#    z 0.020030 0.000000 3.675020 
# 
# 
# High freq. dielectric constant tensor:
#      x y z
#    x 1.817630 0.000000 0.001400 
#    y 0.000000 1.814380 0.000000 
#    z 0.001400 0.000000 1.783920 
# 
# From -- ./inp_files/123751.got.cif
#   From: 2010.06.25/outbox.cif.g09.slc.cpg/sg12_62_cif.got.tgz:123751.got - 2010.06.28 00:19:55.
