data_PCOD8102233
_publ_section_title
;
Structure prediction by ZEFSAII (Michael W. Deem and Ramdas Pophale) SiO2 
 PCOD8102233
Probable space group: C 2/M
;
_chemical_formula_sum "Si O2"
_cell_formula_units_Z 48
_cell_length_a 16.296538
_cell_length_b 17.848893
_cell_length_c 20.340556
_cell_angle_alpha 90.000000
_cell_angle_beta 156.587316
_cell_angle_gamma 90.000000
_cell_volume 2350.952346
_symmetry_space_group_name_H-M "C 2/M"
_symmetry_group_IT_number 12
_symmetry_cell_setting 'monoclinic'
loop_
_space_group_symop_operation_xyz
x,y,z
-x,y,-z
-x,-y,-z
x,-y,z
1/2+x,1/2+y,z
1/2-x,1/2+y,-z
1/2-x,1/2-y,-z
1/2+x,1/2-y,z
loop_
_atom_site_type_symbol
_atom_site_label
_atom_site_fract_x
_atom_site_fract_y
_atom_site_fract_z
Si Si1 0.931196 0.085895 0.752906
Si Si2 0.819130 0.797179 0.772463
Si Si3 0.395931 0.320596 0.603957
Si Si4 0.392535 0.085384 0.134452
Si Si5 0.218472 0.294019 0.843986
Si Si6 0.803541 0.853544 0.390806
O O1 0.809895 0.128480 0.721662
O O2 0.848094 0.116324 0.622520
O O3 0.868732 0.000000 0.713611
O O4 0.178373 0.097648 0.938580
O O5 0.698082 0.813241 0.751307
O O6 0.723280 0.728816 0.660692
O O7 0.053650 0.780804 0.962928
O O8 0.250000 0.250000 0.500000
O O9 0.621941 0.287509 0.785144
O O10 0.377213 0.356430 0.519534
O O11 0.400954 0.140509 0.203850
O O12 0.584488 0.102784 0.226184
O O13 0.408430 0.000000 0.171449
O O14 0.000000 0.893651 0.500000
#
# Coordination Sequence:
#
# PCOD8102233 Si02
#       6
#     8   8   8   8   8   8
#     4  10  22  40  61  86 120 157 191 234 293 355
#     4  10  20  36  61  90 118 150 195 237 289 345
#     4  12  21  36  61  86 116 154 197 243 291 343
#     4  10  22  40  59  84 120 160 197 234 286 350
#     4  10  20  36  61  89 117 154 193 239 285 348
#     4  12  23  37  60  86 117 153 198 250 290 337
#
# _framework density 20.417258
#
# number of rings (size 3 to 8) (size 9 to 14) (size 15 to 20)
#    0.000    1.333    5.000    1.000    0.000    4.333 
#    0.000    3.333    0.000    3.500    0.000    0.000 
#    0.000    0.000    0.000    0.000    0.000    0.000 
#
# Total GULP energy -297501.179529 kJ/mol
# GULP energy per Si atom -12395.882480 kJ/mol
# Density = 2.037079 g / cm^3
# Si number density = 20.417258 Si / 1000 Ang^3
#
#
#
# Elastic Constant Matrix: (Units=GPa)
#
#
# Indices 1 2 3 4 5 6 
#
# 1 95.9660 19.0396 22.3605 0.0899 -10.0783 -0.0505
# 2 19.0396 71.8482 20.7661 0.0156 -10.5934 -0.0397
# 3 22.3605 20.7661 44.6240 0.1112 -13.6368 0.0060
# 4 0.0899 0.0156 0.1112 29.1471 0.0395 -3.2686
# 5 -10.0783 -10.5934 -13.6368 0.0395 41.9088 0.0058
# 6 -0.0505 -0.0397 0.0060 -3.2686 0.0058 18.7629
#
#
#
# Elastic Compliance Matrix: (Units=1/GPa)
#
#
# Indices 1 2 3 4 5 6 
#
# 1 0.011994 -0.001607 -0.005002 -0.000015 0.000850 0.000028
# 2 -0.001607 0.016421 -0.006314 0.000022 0.001710 0.000036
# 3 -0.005002 -0.006314 0.029980 -0.000111 0.006957 -0.000058
# 4 -0.000015 0.000022 -0.000111 0.034993 -0.000068 0.006096
# 5 0.000850 0.001710 0.006957 -0.000068 0.026762 -0.000016
# 6 0.000028 0.000036 -0.000058 0.006096 -0.000016 0.054359
#
#
# Mechanical properties :
#
#
# Convention : Reuss Voigt Hill
#
# Bulk Modulus (GPa) = 30.72297 37.41895 34.07096
# Shear Modulus (GPa) = 23.67361 27.98188 25.82775
#
# Velocity S-wave (km/s) = 3.40882 3.70604 3.56054
# Velocity P-wave (km/s) = 5.52934 6.05640 5.79886
#
# Compressibility (1/GPa) = 0.03254894
#
# Stress axis : x y z
#
# Youngs Moduli (GPa) = 83.37424 60.89708 33.35508
#
# Poissons Ratio (x) = 0.09787 0.16685
# Poissons Ratio (y) = 0.13400 0.21060
# Poissons Ratio (z) = 0.41706 0.38450
#
# Static dielectric constant tensor:
#      x y z
#    x 3.967470 0.046930 0.362040 
#    y 0.046930 4.721360 -0.055530 
#    z 0.362040 -0.055530 3.505790 
# 
# 
# High freq. dielectric constant tensor:
#      x y z
#    x 1.802770 -0.000010 0.004130 
#    y -0.000010 1.775630 -0.000020 
#    z 0.004130 -0.000020 1.811300 
# 
# From -- ./inp_files/87726.got.cif
#   From: 2010.06.25/outbox.cif.g09.slc.cpg/sg12_44_cif.got.tgz:87726.got - 2010.06.28 00:19:55.
