data_PCOD8102366
_publ_section_title
;
Structure prediction by ZEFSAII (Michael W. Deem and Ramdas Pophale) SiO2 
 PCOD8102366
Probable space group: C 2/M
;
_chemical_formula_sum "Si O2"
_cell_formula_units_Z 48
_cell_length_a 12.054854
_cell_length_b 16.414607
_cell_length_c 12.641647
_cell_angle_alpha 90.000000
_cell_angle_beta 109.102414
_cell_angle_gamma 90.000000
_cell_volume 2363.731245
_symmetry_space_group_name_H-M "C 2/M"
_symmetry_group_IT_number 12
_symmetry_cell_setting 'monoclinic'
loop_
_space_group_symop_operation_xyz
x,y,z
-x,y,-z
-x,-y,-z
x,-y,z
1/2+x,1/2+y,z
1/2-x,1/2+y,-z
1/2-x,1/2-y,-z
1/2+x,1/2-y,z
loop_
_atom_site_type_symbol
_atom_site_label
_atom_site_fract_x
_atom_site_fract_y
_atom_site_fract_z
Si Si1 0.102492 0.159102 0.860436
Si Si2 0.234887 0.905465 0.094263
Si Si3 0.023662 0.335241 0.884046
Si Si4 0.219856 0.596082 0.250256
Si Si5 0.863196 0.092858 0.722774
Si Si6 0.625880 0.403618 0.504036
O O1 0.053882 0.250424 0.837174
O O2 0.213142 0.146457 0.818705
O O3 0.000762 0.097445 0.794361
O O4 0.144862 0.143827 0.992878
O O5 0.367839 0.896037 0.098117
O O6 0.214854 0.868641 0.206627
O O7 0.199953 0.000000 0.078285
O O8 0.914308 0.375709 0.790283
O O9 0.000000 0.323522 0.000000
O O10 0.229745 0.500000 0.229099
O O11 0.273830 0.618800 0.380966
O O12 0.839763 0.134176 0.600549
O O13 0.825089 0.000000 0.702026
O O14 0.500000 0.366828 0.500000
O O15 0.611516 0.500000 0.487323
#
# Coordination Sequence:
#
# PCOD8102366 Si02
#       6
#     8   8   8   8   8   8
#     4  12  23  37  63  91 125 159 203 259 312 363
#     4  11  23  39  62  91 124 161 210 257 306 367
#     4  12  26  40  60  88 132 170 200 248 321 378
#     4  11  23  41  68  94 120 162 216 256 296 369
#     4  10  20  36  62  92 122 155 204 263 310 356
#     4   9  17  35  63  93 118 155 209 261 301 352
#
# _framework density 20.306878000000001
#
# number of rings (size 3 to 8) (size 9 to 14) (size 15 to 20)
#    0.000    1.167    3.333    4.000    2.333    2.000 
#    0.000    1.667    3.667    4.000    0.000    0.000 
#    0.000    0.000    0.000    0.000    0.000    0.000 
#
# Total GULP energy -297623.797213 kJ/mol
# GULP energy per Si atom -12400.991551 kJ/mol
# Density = 2.026066 g / cm^3
# Si number density = 20.306878 Si / 1000 Ang^3
#
#
#
# Elastic Constant Matrix: (Units=GPa)
#
#
# Indices 1 2 3 4 5 6 
#
# 1 93.3541 24.4247 56.6005 0.0000 2.7968 0.0000
# 2 24.4247 53.2435 31.9467 0.0000 -2.5689 0.0000
# 3 56.6005 31.9467 168.3441 0.0000 -8.6230 0.0000
# 4 0.0000 0.0000 0.0000 10.9742 0.0000 1.5808
# 5 2.7968 -2.5689 -8.6230 0.0000 40.4986 0.0000
# 6 0.0000 0.0000 0.0000 1.5808 0.0000 32.5359
#
#
#
# Elastic Compliance Matrix: (Units=1/GPa)
#
#
# Indices 1 2 3 4 5 6 
#
# 1 0.014395 -0.004217 -0.004150 0.000000 -0.002145 0.000000
# 2 -0.004217 0.022440 -0.002783 0.000000 0.001122 0.000000
# 3 -0.004150 -0.002783 0.007956 0.000000 0.001804 0.000000
# 4 0.000000 0.000000 0.000000 0.091765 0.000000 -0.004459
# 5 -0.002145 0.001122 0.001804 0.000000 0.025296 0.000000
# 6 0.000000 0.000000 0.000000 -0.004459 0.000000 0.030952
#
#
# Mechanical properties :
#
#
# Convention : Reuss Voigt Hill
#
# Bulk Modulus (GPa) = 44.46101 60.09839 52.27970
# Shear Modulus (GPa) = 22.46163 30.26639 26.36401
#
# Velocity S-wave (km/s) = 3.32943 3.86482 3.60707
# Velocity P-wave (km/s) = 6.05989 7.04096 6.56877
#
# Compressibility (1/GPa) = 0.02249162
#
# Stress axis : x y z
#
# Youngs Moduli (GPa) = 69.46630 44.56271 125.69239
#
# Poissons Ratio (x) = 0.18794 0.52157
# Poissons Ratio (y) = 0.29297 0.34981
# Poissons Ratio (z) = 0.28826 0.12402
#
# Static dielectric constant tensor:
#      x y z
#    x 3.762940 0.000000 -0.199050 
#    y 0.000000 3.364940 0.000000 
#    z -0.199050 0.000000 4.002540 
# 
# 
# High freq. dielectric constant tensor:
#      x y z
#    x 1.795900 0.000000 -0.007630 
#    y 0.000000 1.767680 0.000000 
#    z -0.007630 0.000000 1.801390 
# 
# From -- ./inp_files/131089.got.cif
#   From: 2010.06.25/outbox.cif.g09.slc.cpg/sg12_66_cif.got.tgz:131089.got - 2010.06.28 00:19:55.
