data_PCOD8102481
_publ_section_title
;
Structure prediction by ZEFSAII (Michael W. Deem and Ramdas Pophale) SiO2 
 PCOD8102481
Probable space group: C 2/M
;
_chemical_formula_sum "Si O2"
_cell_formula_units_Z 56
_cell_length_a 12.249233
_cell_length_b 14.770628
_cell_length_c 32.025308
_cell_angle_alpha 90.000000
_cell_angle_beta 27.202750
_cell_angle_gamma 90.000000
_cell_volume 2648.811054
_symmetry_space_group_name_H-M "C 2/M"
_symmetry_group_IT_number 12
_symmetry_cell_setting 'monoclinic'
loop_
_space_group_symop_operation_xyz
x,y,z
-x,y,-z
-x,-y,-z
x,-y,z
1/2+x,1/2+y,z
1/2-x,1/2+y,-z
1/2-x,1/2-y,-z
1/2+x,1/2-y,z
loop_
_atom_site_type_symbol
_atom_site_label
_atom_site_fract_x
_atom_site_fract_y
_atom_site_fract_z
Si Si1 0.856683 0.600378 0.661302
Si Si2 0.345125 0.821203 0.861703
Si Si3 0.870827 0.842926 0.794857
Si Si4 0.091052 0.105006 0.027045
Si Si5 0.362260 0.713583 0.704979
Si Si6 0.919685 0.399856 0.984641
Si Si7 0.316104 0.895931 0.527522
O O1 0.880395 0.500000 0.674122
O O2 0.611591 0.599818 0.718084
O O3 0.858312 0.679846 0.694861
O O4 0.073392 0.615947 0.555793
O O5 0.332364 0.720748 0.847998
O O6 0.627663 0.842217 0.769465
O O7 0.196429 0.884509 0.879520
O O8 0.219601 0.830845 0.949396
O O9 0.884459 0.788406 0.747200
O O10 0.634962 0.905320 0.877407
O O11 0.162524 0.000000 0.995614
O O12 0.186048 0.140507 0.040072
O O13 0.581206 0.664963 0.608075
O O14 0.842236 0.500000 0.024938
O O15 0.000000 0.347562 0.000000
O O16 0.500000 0.860592 0.500000
O O17 0.247252 0.000000 0.560253
#
# Coordination Sequence:
#
# PCOD8102481 Si02
#       7
#     8   8   8   8   8   8   8
#     4  10  22  41  63  92 129 166 207 258 322 381
#     4  10  22  36  56  88 116 157 204 250 314 367
#     4  11  22  37  59  89 121 157 210 260 314 370
#     4  10  21  40  59  81 120 161 204 259 317 378
#     4  11  22  39  62  96 127 166 211 263 314 380
#     4  10  22  38  59  87 118 159 207 259 317 373
#     4  10  20  36  65  99 126 161 206 263 319 373
#
# _framework density 21.141559000000001
#
# number of rings (size 3 to 8) (size 9 to 14) (size 15 to 20)
#    0.000    1.714    2.857    1.714    2.000    4.571 
#    0.000    2.857    0.000    1.286    0.000    0.000 
#    0.000    0.000    0.000    0.000    0.000    0.000 
#
# Total GULP energy -346916.666039 kJ/mol
# GULP energy per Si atom -12389.880930 kJ/mol
# Density = 2.109344 g / cm^3
# Si number density = 21.141559 Si / 1000 Ang^3
#
#
#
# Elastic Constant Matrix: (Units=GPa)
#
#
# Indices 1 2 3 4 5 6 
#
# 1 135.9127 39.9233 43.6876 -0.0682 -8.8442 -0.0114
# 2 39.9233 84.1002 40.7880 0.0343 -1.9151 -0.0044
# 3 43.6876 40.7880 102.7671 -0.1026 -16.5974 -0.0398
# 4 -0.0682 0.0343 -0.1026 22.7804 0.0252 -3.1557
# 5 -8.8442 -1.9151 -16.5974 0.0252 37.2818 0.0034
# 6 -0.0114 -0.0044 -0.0398 -3.1557 0.0034 23.0515
#
#
#
# Elastic Compliance Matrix: (Units=1/GPa)
#
#
# Indices 1 2 3 4 5 6 
#
# 1 0.009132 -0.003098 -0.002509 0.000020 0.000890 0.000002
# 2 -0.003098 0.015914 -0.005372 -0.000057 -0.002309 -0.000015
# 3 -0.002509 -0.005372 0.013780 0.000061 0.005263 0.000029
# 4 0.000020 -0.000057 0.000061 0.044746 -0.000002 0.006126
# 5 0.000890 -0.002309 0.005263 -0.000002 0.029259 0.000005
# 6 0.000002 -0.000015 0.000029 0.006126 0.000005 0.044220
#
#
# Mechanical properties :
#
#
# Convention : Reuss Voigt Hill
#
# Bulk Modulus (GPa) = 59.28481 63.50861 61.39671
# Shear Modulus (GPa) = 27.08099 29.84814 28.46456
#
# Velocity S-wave (km/s) = 3.58290 3.76150 3.67329
# Velocity P-wave (km/s) = 6.72450 6.99786 6.86254
#
# Compressibility (1/GPa) = 0.01686773
#
# Stress axis : x y z
#
# Youngs Moduli (GPa) = 109.50441 62.83677 72.57110
#
# Poissons Ratio (x) = 0.19468 0.18206
# Poissons Ratio (y) = 0.33926 0.38987
# Poissons Ratio (z) = 0.27471 0.33758
#
# Static dielectric constant tensor:
#      x y z
#    x 4.046650 0.000010 -0.250410 
#    y 0.000010 3.611460 -0.000020 
#    z -0.250410 -0.000020 3.863180 
# 
# 
# High freq. dielectric constant tensor:
#      x y z
#    x 1.833040 0.000000 -0.009530 
#    y 0.000000 1.818280 0.000000 
#    z -0.009530 0.000000 1.823450 
# 
# From -- ./inp_files/374205.got.cif
#   From: 2010.06.25/outbox.cif.g09.slc.cpg/sg12_188_cif.got.tgz:374205.got - 2010.06.28 00:19:55.
