data_PCOD8102206
_publ_section_title
;
Structure prediction by ZEFSAII (Michael W. Deem and Ramdas Pophale) SiO2 
 PCOD8102206
Probable space group: C 2/M
;
_chemical_formula_sum "Si O2"
_cell_formula_units_Z 36
_cell_length_a 24.121498
_cell_length_b 12.929569
_cell_length_c 6.107017
_cell_angle_alpha 90.000000
_cell_angle_beta 65.535491
_cell_angle_gamma 90.000000
_cell_volume 1733.655726
_symmetry_space_group_name_H-M "C 2/M"
_symmetry_group_IT_number 12
_symmetry_cell_setting 'monoclinic'
loop_
_space_group_symop_operation_xyz
x,y,z
-x,y,-z
-x,-y,-z
x,-y,z
1/2+x,1/2+y,z
1/2-x,1/2+y,-z
1/2-x,1/2-y,-z
1/2+x,1/2-y,z
loop_
_atom_site_type_symbol
_atom_site_label
_atom_site_fract_x
_atom_site_fract_y
_atom_site_fract_z
Si Si1 0.531145 0.000000 0.202960
Si Si2 0.261740 0.382940 0.260663
Si Si3 0.836942 0.767417 0.485900
Si Si4 0.565253 0.789830 0.002910
Si Si5 0.881087 0.882405 0.800056
O O1 0.500000 0.000000 0.500000
O O2 0.500000 0.000000 0.000000
O O3 0.569566 0.893715 0.144079
O O4 0.239471 0.500000 0.327598
O O5 0.202680 0.312875 0.303989
O O6 0.291747 0.345228 0.437048
O O7 0.310792 0.373928 0.988033
O O8 0.879872 0.700125 0.258461
O O9 0.882176 0.837982 0.554166
O O10 0.500000 0.779171 0.000000
O O11 0.573713 0.686140 0.129748
O O12 0.904922 0.000000 0.769462
#
# Coordination Sequence:
#
# PCOD8102206 Si02
#       5
#     4   8   8   8   8
#     4  10  24  44  70  92 132 176 214 274 329 382
#     4   9  19  36  57  86 123 160 206 260 321 387
#     4  10  20  36  61  87 124 160 210 260 322 387
#     4  10  24  41  62  90 125 165 214 263 329 388
#     4  10  21  38  62  91 123 166 210 265 325 386
#
# _framework density 20.765370999999998
#
# number of rings (size 3 to 8) (size 9 to 14) (size 15 to 20)
#    0.000    2.222    0.000    1.333    7.778    1.333 
#    2.000    1.111    0.000    0.000    0.000    0.000 
#    0.000    0.000    0.000    0.000    0.000    0.000 
#
# Total GULP energy -223035.538294 kJ/mol
# GULP energy per Si atom -12390.863239 kJ/mol
# Density = 2.071811 g / cm^3
# Si number density = 20.765371 Si / 1000 Ang^3
#
#
#
# Elastic Constant Matrix: (Units=GPa)
#
#
# Indices 1 2 3 4 5 6 
#
# 1 63.0196 47.7065 11.1826 0.0000 2.5230 0.0000
# 2 47.7065 194.2950 55.6573 0.0000 -5.4127 0.0000
# 3 11.1826 55.6573 83.6397 0.0000 8.9533 0.0000
# 4 0.0000 0.0000 0.0000 22.3584 0.0000 -2.4146
# 5 2.5230 -5.4127 8.9533 0.0000 18.7544 0.0000
# 6 0.0000 0.0000 0.0000 -2.4146 0.0000 33.2909
#
#
#
# Elastic Compliance Matrix: (Units=1/GPa)
#
#
# Indices 1 2 3 4 5 6 
#
# 1 0.019937 -0.005465 0.001504 0.000000 -0.004977 0.000000
# 2 -0.005465 0.008165 -0.005305 0.000000 0.005624 0.000000
# 3 0.001504 -0.005305 0.016304 0.000000 -0.009517 0.000000
# 4 0.000000 0.000000 0.000000 0.045079 0.000000 0.003270
# 5 -0.004977 0.005624 -0.009517 0.000000 0.060157 0.000000
# 6 0.000000 0.000000 0.000000 0.003270 0.000000 0.030275
#
#
# Mechanical properties :
#
#
# Convention : Reuss Voigt Hill
#
# Bulk Modulus (GPa) = 38.64822 63.33858 50.99340
# Shear Modulus (GPa) = 24.14606 29.97461 27.06034
#
# Velocity S-wave (km/s) = 3.41369 3.80345 3.61383
# Velocity P-wave (km/s) = 5.84722 7.06092 6.48254
#
# Compressibility (1/GPa) = 0.02587441
#
# Stress axis : x y z
#
# Youngs Moduli (GPa) = 50.15698 122.47655 61.33605
#
# Poissons Ratio (x) = 0.66930 -0.09223
# Poissons Ratio (y) = 0.27409 0.32536
# Poissons Ratio (z) = -0.07542 0.64969
#
# Static dielectric constant tensor:
#      x y z
#    x 3.594770 0.000000 0.055510 
#    y 0.000000 4.208620 0.000000 
#    z 0.055510 0.000000 3.936100 
# 
# 
# High freq. dielectric constant tensor:
#      x y z
#    x 1.788730 0.000000 0.000670 
#    y 0.000000 1.831440 0.000000 
#    z 0.000670 0.000000 1.812080 
# 
# From -- ./inp_files/23658.got.cif
#   From: 2010.06.25/outbox.cif.g09.slc.cpg/sg12_12_cif.got.tgz:23658.got - 2010.06.28 00:19:55.
