data_PCOD8102636
_publ_section_title
;
Structure prediction by ZEFSAII (Michael W. Deem and Ramdas Pophale) SiO2 
 PCOD8102636
Probable space group: C 2/M
;
_chemical_formula_sum "Si O2"
_cell_formula_units_Z 48
_cell_length_a 29.043996
_cell_length_b 9.093557
_cell_length_c 9.903259
_cell_angle_alpha 90.000000
_cell_angle_beta 100.411155
_cell_angle_gamma 90.000000
_cell_volume 2572.519617
_symmetry_space_group_name_H-M "C 2/M"
_symmetry_group_IT_number 12
_symmetry_cell_setting 'monoclinic'
loop_
_space_group_symop_operation_xyz
x,y,z
-x,y,-z
-x,-y,-z
x,-y,z
1/2+x,1/2+y,z
1/2-x,1/2+y,-z
1/2-x,1/2-y,-z
1/2+x,1/2-y,z
loop_
_atom_site_type_symbol
_atom_site_label
_atom_site_fract_x
_atom_site_fract_y
_atom_site_fract_z
Si Si1 0.131498 0.674766 0.224431
Si Si2 0.785528 0.171140 0.116541
Si Si3 0.058657 0.673441 0.406546
Si Si4 0.114365 0.825664 0.936409
Si Si5 0.735135 0.171313 0.357286
Si Si6 0.454106 0.174363 0.300870
O O1 0.127664 0.500000 0.201193
O O2 0.100070 0.731810 0.332930
O O3 0.184419 0.725887 0.280604
O O4 0.112570 0.755215 0.082664
O O5 0.838110 0.222684 0.114309
O O6 0.773422 0.211368 0.264324
O O7 0.778816 0.000000 0.085968
O O8 0.750000 0.250000 0.000000
O O9 0.059093 0.500000 0.411612
O O10 0.066133 0.727660 0.564499
O O11 0.008413 0.722344 0.321716
O O12 0.071285 0.762585 0.829957
O O13 0.109986 0.000000 0.946420
O O14 0.750000 0.250000 0.500000
O O15 0.733139 0.000000 0.387549
O O16 0.447489 0.000000 0.275919
#
# Coordination Sequence:
#
# PCOD8102636 Si02
#       6
#     8   8   8   8   8   8
#     4  10  20  37  58  80 107 141 183 225 264 313
#     4  10  21  38  56  77 108 144 180 219 261 313
#     4   8  17  35  59  84 106 134 180 230 267 309
#     4  11  23  36  53  81 113 144 179 218 265 320
#     4  10  22  37  55  81 110 140 176 220 269 319
#     4   9  18  36  60  82 106 139 179 222 269 320
#
# _framework density 18.658749
#
# number of rings (size 3 to 8) (size 9 to 14) (size 15 to 20)
#    0.000    2.333    1.667    1.500    2.333    2.667 
#    0.000    6.667    0.000    0.000    0.000    0.000 
#    0.000    0.000    0.000    0.000    0.000    0.000 
#
# Total GULP energy -297608.034481 kJ/mol
# GULP energy per Si atom -12400.334770 kJ/mol
# Density = 1.861628 g / cm^3
# Si number density = 18.658749 Si / 1000 Ang^3
#
#
#
# Elastic Constant Matrix: (Units=GPa)
#
#
# Indices 1 2 3 4 5 6 
#
# 1 66.4915 16.0370 31.5216 0.0000 -3.3533 0.0000
# 2 16.0370 36.2040 32.6802 0.0000 5.2775 0.0000
# 3 31.5216 32.6802 116.1090 0.0000 9.2452 0.0000
# 4 0.0000 0.0000 0.0000 31.9698 0.0000 3.9411
# 5 -3.3533 5.2775 9.2452 0.0000 40.2069 0.0000
# 6 0.0000 0.0000 0.0000 3.9411 0.0000 23.0827
#
#
#
# Elastic Compliance Matrix: (Units=1/GPa)
#
#
# Indices 1 2 3 4 5 6 
#
# 1 0.018205 -0.005132 -0.003741 0.000000 0.003052 0.000000
# 2 -0.005132 0.038726 -0.009237 0.000000 -0.003387 0.000000
# 3 -0.003741 -0.009237 0.012383 0.000000 -0.001947 0.000000
# 4 0.000000 0.000000 0.000000 0.031952 0.000000 -0.005455
# 5 0.003052 -0.003387 -0.001947 0.000000 0.026018 0.000000
# 6 0.000000 0.000000 0.000000 -0.005455 0.000000 0.044254
#
#
# Mechanical properties :
#
#
# Convention : Reuss Voigt Hill
#
# Bulk Modulus (GPa) = 30.21685 42.14246 36.17965
# Shear Modulus (GPa) = 22.85305 28.28960 25.57133
#
# Velocity S-wave (km/s) = 3.50350 3.89801 3.70601
# Velocity P-wave (km/s) = 5.70926 6.54937 6.14369
#
# Compressibility (1/GPa) = 0.03309412
#
# Stress axis : x y z
#
# Youngs Moduli (GPa) = 54.93098 25.82230 80.75576
#
# Poissons Ratio (x) = 0.13252 0.30209
# Poissons Ratio (y) = 0.28192 0.74594
# Poissons Ratio (z) = 0.20548 0.23852
#
# Static dielectric constant tensor:
#      x y z
#    x 3.994330 0.000000 -0.341040 
#    y 0.000000 3.233970 0.000000 
#    z -0.341040 0.000000 3.562810 
# 
# 
# High freq. dielectric constant tensor:
#      x y z
#    x 1.732600 0.000000 -0.004560 
#    y 0.000000 1.700230 0.000000 
#    z -0.004560 0.000000 1.734810 
# 
# From -- ./inp_files/108645.got.cif
#   From: 2010.06.25/outbox.cif.g09.slc.cpg/sg12_55_cif.got.tgz:108645.got - 2010.06.28 00:19:55.
