data_PCOD8102302
_publ_section_title
;
Structure prediction by ZEFSAII (Michael W. Deem and Ramdas Pophale) SiO2 
 PCOD8102302
Probable space group: C 2/M
;
_chemical_formula_sum "Si O2"
_cell_formula_units_Z 48
_cell_length_a 26.684327
_cell_length_b 13.248694
_cell_length_c 11.773633
_cell_angle_alpha 90.000000
_cell_angle_beta 30.615754
_cell_angle_gamma 90.000000
_cell_volume 2119.799519
_symmetry_space_group_name_H-M "C 2/M"
_symmetry_group_IT_number 12
_symmetry_cell_setting 'monoclinic'
loop_
_space_group_symop_operation_xyz
x,y,z
-x,y,-z
-x,-y,-z
x,-y,z
1/2+x,1/2+y,z
1/2-x,1/2+y,-z
1/2-x,1/2-y,-z
1/2+x,1/2-y,z
loop_
_atom_site_type_symbol
_atom_site_label
_atom_site_fract_x
_atom_site_fract_y
_atom_site_fract_z
Si Si1 0.980868 0.764701 0.905408
Si Si2 0.828741 0.115798 0.491872
Si Si3 0.094765 0.381474 0.557189
Si Si4 0.608591 0.243865 0.306180
Si Si5 0.288761 0.381458 0.316907
Si Si6 0.768296 0.382014 0.087814
O O1 0.068540 0.830911 0.680201
O O2 0.993290 0.658635 0.813695
O O3 0.000000 0.747753 0.000000
O O4 0.877039 0.819050 0.085570
O O5 0.780581 0.148098 0.465917
O O6 0.749174 0.138910 0.744724
O O7 0.857884 0.000000 0.431367
O O8 0.083659 0.500000 0.565639
O O9 0.116294 0.335328 0.393318
O O10 0.186208 0.349801 0.460151
O O11 0.500000 0.286639 0.500000
O O12 0.676429 0.341391 0.192600
O O13 0.637004 0.181542 0.136916
O O14 0.310631 0.500000 0.257644
O O15 0.782399 0.500000 0.034467
#
# Coordination Sequence:
#
# PCOD8102302 Si02
#       6
#     8   8   8   8   8   8
#     4  10  20  36  61  94 128 165 204 250 305 371
#     4   9  17  36  64  98 129 156 201 257 315 371
#     4  11  24  43  61  89 128 168 213 254 307 372
#     4  11  25  46  66  90 126 167 210 259 317 369
#     4   9  20  39  66  93 127 166 201 254 314 371
#     4  10  22  43  70  97 123 158 209 262 310 372
#
# _framework density 22.643651999999999
#
# number of rings (size 3 to 8) (size 9 to 14) (size 15 to 20)
#    0.000    2.000    1.667    1.000    0.000    9.333 
#    3.000    0.000    0.000    1.000    0.000    0.000 
#    0.000    0.000    0.000    0.000    0.000    0.000 
#
# Total GULP energy -297644.860726 kJ/mol
# GULP energy per Si atom -12401.869197 kJ/mol
# Density = 2.259211 g / cm^3
# Si number density = 22.643652 Si / 1000 Ang^3
#
#
#
# Elastic Constant Matrix: (Units=GPa)
#
#
# Indices 1 2 3 4 5 6 
#
# 1 45.1064 -0.1946 10.7577 0.0000 0.8160 0.0000
# 2 -0.1946 43.5318 15.2850 0.0000 1.5644 0.0000
# 3 10.7577 15.2850 102.5996 0.0000 6.4531 0.0000
# 4 0.0000 0.0000 0.0000 38.8026 0.0000 4.7615
# 5 0.8160 1.5644 6.4531 0.0000 28.6397 0.0000
# 6 0.0000 0.0000 0.0000 4.7615 0.0000 21.9155
#
#
#
# Elastic Compliance Matrix: (Units=1/GPa)
#
#
# Indices 1 2 3 4 5 6 
#
# 1 0.022779 0.000994 -0.002528 0.000000 -0.000134 0.000000
# 2 0.000994 0.024291 -0.003690 0.000000 -0.000524 0.000000
# 3 -0.002528 -0.003690 0.010696 0.000000 -0.002136 0.000000
# 4 0.000000 0.000000 0.000000 0.026477 0.000000 -0.005753
# 5 -0.000134 -0.000524 -0.002136 0.000000 0.035430 0.000000
# 6 0.000000 0.000000 0.000000 -0.005753 0.000000 0.046880
#
#
# Mechanical properties :
#
#
# Convention : Reuss Voigt Hill
#
# Bulk Modulus (GPa) = 21.13355 26.99267 24.06311
# Shear Modulus (GPa) = 25.93713 28.89754 27.41734
#
# Velocity S-wave (km/s) = 3.38812 3.57625 3.48346
# Velocity P-wave (km/s) = 4.96580 5.38510 5.17969
#
# Compressibility (1/GPa) = 0.04731813
#
# Stress axis : x y z
#
# Youngs Moduli (GPa) = 43.89919 41.16809 93.49450
#
# Poissons Ratio (x) = -0.04094 0.23637
# Poissons Ratio (y) = -0.04365 0.34500
# Poissons Ratio (z) = 0.11099 0.15191
#
# Static dielectric constant tensor:
#      x y z
#    x 3.990490 0.000000 0.142290 
#    y 0.000000 4.151710 0.000000 
#    z 0.142290 0.000000 4.260810 
# 
# 
# High freq. dielectric constant tensor:
#      x y z
#    x 1.885810 0.000000 0.009200 
#    y 0.000000 1.902730 0.000000 
#    z 0.009200 0.000000 1.899550 
# 
# From -- ./inp_files/142986.got.cif
#   From: 2010.06.25/outbox.cif.g09.slc.cpg/sg12_72_cif.got.tgz:142986.got - 2010.06.28 00:19:55.
