data_PCOD8102423
_publ_section_title
;
Structure prediction by ZEFSAII (Michael W. Deem and Ramdas Pophale) SiO2 
 PCOD8102423
Probable space group: C 2/M
;
_chemical_formula_sum "Si O2"
_cell_formula_units_Z 44
_cell_length_a 22.362528
_cell_length_b 14.459598
_cell_length_c 8.439079
_cell_angle_alpha 90.000000
_cell_angle_beta 50.231711
_cell_angle_gamma 90.000000
_cell_volume 2097.460740
_symmetry_space_group_name_H-M "C 2/M"
_symmetry_group_IT_number 12
_symmetry_cell_setting 'monoclinic'
loop_
_space_group_symop_operation_xyz
x,y,z
-x,y,-z
-x,-y,-z
x,-y,z
1/2+x,1/2+y,z
1/2-x,1/2+y,-z
1/2-x,1/2-y,-z
1/2+x,1/2-y,z
loop_
_atom_site_type_symbol
_atom_site_label
_atom_site_fract_x
_atom_site_fract_y
_atom_site_fract_z
Si Si1 0.144241 0.264082 0.411815
Si Si2 0.751705 0.102424 0.745717
Si Si3 0.579413 0.899381 0.062737
Si Si4 0.500000 0.157700 0.500000
Si Si5 0.082762 0.218034 0.855369
Si Si6 0.233054 0.108240 0.647990
O O1 0.192768 0.176413 0.264008
O O2 0.102352 0.234858 0.642007
O O3 0.201369 0.351054 0.346179
O O4 0.077952 0.282662 0.395057
O O5 0.740790 0.128359 0.577498
O O6 0.788692 0.000000 0.698377
O O7 0.668525 0.107721 0.972797
O O8 0.519011 0.901658 0.311842
O O9 0.569768 0.000000 0.992998
O O10 0.564123 0.815580 0.971235
O O11 0.150787 0.158839 0.823868
O O12 0.000000 0.163070 0.000000
O O13 0.224045 0.000000 0.698547
#
# Coordination Sequence:
#
# PCOD8102423 Si02
#       6
#     8   8   8   4   8   8
#     4  11  21  39  62  87 121 155 196 240 290 352
#     4   9  18  37  66  90 112 152 200 245 288 342
#     4  11  22  39  59  86 118 154 196 239 291 348
#     4  12  27  38  55  86 126 162 187 240 297 348
#     4  11  20  39  64  88 116 152 199 243 292 344
#     4  10  20  36  63  93 117 149 196 246 292 343
#
# _framework density 20.977747000000001
#
# number of rings (size 3 to 8) (size 9 to 14) (size 15 to 20)
#    0.000    1.455    5.455    1.364    0.000    2.909 
#    0.000    0.455    0.000    0.000    0.000    0.000 
#    0.000    0.000    0.000    0.000    0.000    0.000 
#
# Total GULP energy -272708.515992 kJ/mol
# GULP energy per Si atom -12395.841636 kJ/mol
# Density = 2.093000 g / cm^3
# Si number density = 20.977747 Si / 1000 Ang^3
#
#
#
# Elastic Constant Matrix: (Units=GPa)
#
#
# Indices 1 2 3 4 5 6 
#
# 1 117.7197 38.5505 1.7643 0.0000 -33.8208 0.0000
# 2 38.5505 104.5149 14.6762 0.0000 -18.1646 0.0000
# 3 1.7643 14.6762 66.7681 0.0000 -25.8312 0.0000
# 4 0.0000 0.0000 0.0000 20.6485 0.0000 -3.0879
# 5 -33.8208 -18.1646 -25.8312 0.0000 31.5485 0.0000
# 6 0.0000 0.0000 0.0000 -3.0879 0.0000 -7.2840
#
#
#
# Elastic Compliance Matrix: (Units=1/GPa)
#
#
# Indices 1 2 3 4 5 6 
#
# 1 0.015898 -0.003206 0.009022 0.000000 0.022584 0.000000
# 2 -0.003206 0.011278 -0.001773 0.000000 0.001605 0.000000
# 3 0.009022 -0.001773 0.027041 0.000000 0.030791 0.000000
# 4 0.000000 0.000000 0.000000 0.045543 0.000000 -0.019307
# 5 0.022584 0.001605 0.030791 0.000000 0.082043 0.000000
# 6 0.000000 0.000000 0.000000 -0.019307 0.000000 -0.129103
#
#
# Mechanical properties :
#
#
# Convention : Reuss Voigt Hill
#
# Bulk Modulus (GPa) = 16.05068 44.33162 30.19115
# Shear Modulus (GPa) = 76.47384 24.58338 50.52861
#
# Velocity S-wave (km/s) = 6.04433 3.42699 4.91315
# Velocity P-wave (km/s) = 7.50864 6.06939 6.82705
#
# Compressibility (1/GPa) = 0.06230265
#
# Stress axis : x y z
#
# Youngs Moduli (GPa) = 62.90244 88.66479 36.98075
#
# Poissons Ratio (x) = 0.28423 -0.33363
# Poissons Ratio (y) = 0.20164 0.06558
# Poissons Ratio (z) = -0.56749 0.15723
#
# Static dielectric constant tensor:
#      x y z
#    x 3.731570 0.000000 -0.466310 
#    y 0.000000 3.887080 0.000000 
#    z -0.466310 0.000000 3.878580 
# 
# 
# High freq. dielectric constant tensor:
#      x y z
#    x 1.803370 0.000000 -0.030400 
#    y 0.000000 1.816660 0.000000 
#    z -0.030400 0.000000 1.819240 
# 
# From -- ./inp_files/96129.got.cif
#   From: 2010.06.25/outbox.cif.g09.slc.cpg/sg12_49_cif.got.tgz:96129.got - 2010.06.28 00:19:55.
