data_PCOD8102274
_publ_section_title
;
Structure prediction by ZEFSAII (Michael W. Deem and Ramdas Pophale) SiO2 
 PCOD8102274
Probable space group: C 2/M
;
_chemical_formula_sum "Si O2"
_cell_formula_units_Z 40
_cell_length_a 23.366910
_cell_length_b 17.582412
_cell_length_c 8.343281
_cell_angle_alpha 90.000000
_cell_angle_beta 147.789562
_cell_angle_gamma 90.000000
_cell_volume 1827.126463
_symmetry_space_group_name_H-M "C 2/M"
_symmetry_group_IT_number 12
_symmetry_cell_setting 'monoclinic'
loop_
_space_group_symop_operation_xyz
x,y,z
-x,y,-z
-x,-y,-z
x,-y,z
1/2+x,1/2+y,z
1/2-x,1/2+y,-z
1/2-x,1/2-y,-z
1/2+x,1/2-y,z
loop_
_atom_site_type_symbol
_atom_site_label
_atom_site_fract_x
_atom_site_fract_y
_atom_site_fract_z
Si Si1 0.901265 0.696899 0.873338
Si Si2 0.413785 0.087599 0.174003
Si Si3 0.196627 0.834742 0.177197
Si Si4 0.999246 0.086962 0.172679
Si Si5 0.698278 0.410369 0.850095
O O1 0.870529 0.759131 0.936126
O O2 0.806159 0.670186 0.532773
O O3 0.934646 0.622789 0.049979
O O4 0.000000 0.726636 0.000000
O O5 0.500000 0.123734 0.500000
O O6 0.439833 0.000000 0.212935
O O7 0.292880 0.101866 0.946978
O O8 0.220838 0.851095 0.048149
O O9 0.120785 0.905695 0.044213
O O10 0.089029 0.119861 0.506722
O O11 0.031501 0.000000 0.226636
O O12 0.000000 0.127801 0.000000
O O13 0.692129 0.500000 0.888761
#
# Coordination Sequence:
#
# PCOD8102274 Si02
#       5
#     8   8   8   8   8
#     4  11  25  42  60  86 119 158 205 248 295 353
#     4  10  22  40  61  87 119 156 201 248 294 351
#     4  11  23  39  60  86 122 158 197 247 295 351
#     4  10  20  36  61  92 124 157 195 243 299 358
#     4  10  21  38  63  95 124 154 196 243 298 361
#
# _framework density 21.892299000000001
#
# number of rings (size 3 to 8) (size 9 to 14) (size 15 to 20)
#    0.000    1.600    0.000    4.200    0.000    9.200 
#    0.000    0.000    0.000    0.000    0.000    0.000 
#    0.000    0.000    0.000    0.000    0.000    0.000 
#
# Total GULP energy -247918.531844 kJ/mol
# GULP energy per Si atom -12395.926592 kJ/mol
# Density = 2.184247 g / cm^3
# Si number density = 21.892299 Si / 1000 Ang^3
#
#
#
# Elastic Constant Matrix: (Units=GPa)
#
#
# Indices 1 2 3 4 5 6 
#
# 1 75.7334 42.2332 34.5805 0.0000 -14.1861 0.0000
# 2 42.2332 59.9302 47.0111 0.0000 -15.0698 0.0000
# 3 34.5805 47.0111 144.0413 0.0000 -6.7845 0.0000
# 4 0.0000 0.0000 0.0000 29.2894 0.0000 -2.9376
# 5 -14.1861 -15.0698 -6.7845 0.0000 43.1068 0.0000
# 6 0.0000 0.0000 0.0000 -2.9376 0.0000 22.9314
#
#
#
# Elastic Compliance Matrix: (Units=1/GPa)
#
#
# Indices 1 2 3 4 5 6 
#
# 1 0.021923 -0.014629 -0.000393 0.000000 0.002039 0.000000
# 2 -0.014629 0.034316 -0.007405 0.000000 0.006017 0.000000
# 3 -0.000393 -0.007405 0.009395 0.000000 -0.001239 0.000000
# 4 0.000000 0.000000 0.000000 0.034586 0.000000 0.004431
# 5 0.002039 0.006017 -0.001239 0.000000 0.025778 0.000000
# 6 0.000000 0.000000 0.000000 0.004431 0.000000 0.044176
#
#
# Mechanical properties :
#
#
# Convention : Reuss Voigt Hill
#
# Bulk Modulus (GPa) = 48.11696 58.59494 53.35595
# Shear Modulus (GPa) = 22.52716 29.45753 25.99235
#
# Velocity S-wave (km/s) = 3.21128 3.67218 3.44944
# Velocity P-wave (km/s) = 5.98134 6.69351 6.34742
#
# Compressibility (1/GPa) = 0.02078269
#
# Stress axis : x y z
#
# Youngs Moduli (GPa) = 45.61367 29.14054 106.43939
#
# Poissons Ratio (x) = 0.42629 0.04180
# Poissons Ratio (y) = 0.66727 0.78814
# Poissons Ratio (z) = 0.01791 0.21577
#
# Static dielectric constant tensor:
#      x y z
#    x 3.904410 0.000000 -0.085920 
#    y 0.000000 3.805180 0.000000 
#    z -0.085920 0.000000 4.073630 
# 
# 
# High freq. dielectric constant tensor:
#      x y z
#    x 1.862110 0.000000 -0.000590 
#    y 0.000000 1.848920 0.000000 
#    z -0.000590 0.000000 1.874230 
# 
# From -- ./inp_files/46963.got.cif
#   From: 2010.06.25/outbox.cif.g09.slc.cpg/sg12_24_cif.got.tgz:46963.got - 2010.06.28 00:19:55.
