data_PCOD8102704
_publ_section_title
;
Structure prediction by ZEFSAII (Michael W. Deem and Ramdas Pophale) SiO2 
 PCOD8102704
Probable space group: C 2/M
;
_chemical_formula_sum "Si O2"
_cell_formula_units_Z 56
_cell_length_a 10.051822
_cell_length_b 15.692397
_cell_length_c 17.837748
_cell_angle_alpha 90.000000
_cell_angle_beta 88.570883
_cell_angle_gamma 90.000000
_cell_volume 2812.800883
_symmetry_space_group_name_H-M "C 2/M"
_symmetry_group_IT_number 12
_symmetry_cell_setting 'monoclinic'
loop_
_space_group_symop_operation_xyz
x,y,z
-x,y,-z
-x,-y,-z
x,-y,z
1/2+x,1/2+y,z
1/2-x,1/2+y,-z
1/2-x,1/2-y,-z
1/2+x,1/2-y,z
loop_
_atom_site_type_symbol
_atom_site_label
_atom_site_fract_x
_atom_site_fract_y
_atom_site_fract_z
Si Si1 0.886637 0.600377 0.055171
Si Si2 0.638156 0.399379 0.963598
Si Si3 0.878992 0.243821 0.448555
Si Si4 0.527303 0.178395 0.793067
Si Si5 0.979235 0.596030 0.361764
Si Si6 0.716911 0.405275 0.648759
Si Si7 0.220578 0.172541 0.802669
O O1 0.899108 0.500000 0.060634
O O2 0.903961 0.637604 0.136304
O O3 0.746577 0.629569 0.022871
O O4 0.000000 0.638058 0.000000
O O5 0.639294 0.500000 0.951601
O O6 0.666265 0.358384 0.883053
O O7 0.500000 0.366499 0.000000
O O8 0.750000 0.250000 0.500000
O O9 0.894335 0.335309 0.408590
O O10 0.872363 0.167668 0.387910
O O11 0.000000 0.220350 0.500000
O O12 0.537489 0.110234 0.726568
O O13 0.373193 0.205457 0.809076
O O14 0.619529 0.257872 0.771206
O O15 0.930010 0.500000 0.381439
O O16 0.132832 0.607393 0.382961
O O17 0.665014 0.500000 0.627875
O O18 0.715597 0.400539 0.739535
#
# Coordination Sequence:
#
# PCOD8102704 Si02
#       7
#     8   8   8   8   8   8   8
#     4  10  20  37  58  84 119 157 210 267 313 367
#     4  10  22  39  58  85 121 162 210 265 320 373
#     4  12  24  42  69 100 137 164 206 266 320 381
#     4  11  23  38  63  90 122 164 212 266 316 370
#     4  10  22  43  70  97 128 174 221 255 312 389
#     4  10  22  43  70  97 129 172 217 260 318 383
#     4  11  23  39  63  88 123 165 213 263 315 376
#
# _framework density 19.908982000000002
#
# number of rings (size 3 to 8) (size 9 to 14) (size 15 to 20)
#    0.000    1.429    4.286    0.857    2.000    3.429 
#    0.000    0.000    0.000    0.000    0.000    0.000 
#    0.000    0.000    0.000    0.000    0.000    0.000 
#
# Total GULP energy -347177.651934 kJ/mol
# GULP energy per Si atom -12399.201855 kJ/mol
# Density = 1.986367 g / cm^3
# Si number density = 19.908982 Si / 1000 Ang^3
#
#
#
# Elastic Constant Matrix: (Units=GPa)
#
#
# Indices 1 2 3 4 5 6 
#
# 1 134.4673 58.9729 47.6799 0.0000 -3.0415 0.0000
# 2 58.9729 119.5992 59.9254 0.0000 6.2133 0.0000
# 3 47.6799 59.9254 106.3437 0.0000 -1.2471 0.0000
# 4 0.0000 0.0000 0.0000 27.7590 0.0000 -1.5253
# 5 -3.0415 6.2133 -1.2471 0.0000 32.0078 0.0000
# 6 0.0000 0.0000 0.0000 -1.5253 0.0000 24.2250
#
#
#
# Elastic Compliance Matrix: (Units=1/GPa)
#
#
# Indices 1 2 3 4 5 6 
#
# 1 0.009974 -0.003860 -0.002278 0.000000 0.001608 0.000000
# 2 -0.003860 0.013351 -0.005830 0.000000 -0.003186 0.000000
# 3 -0.002278 -0.005830 0.013727 0.000000 0.001450 0.000000
# 4 0.000000 0.000000 0.000000 0.036149 0.000000 0.002276
# 5 0.001608 -0.003186 0.001450 0.000000 0.032070 0.000000
# 6 0.000000 0.000000 0.000000 0.002276 0.000000 0.041423
#
#
# Mechanical properties :
#
#
# Convention : Reuss Voigt Hill
#
# Bulk Modulus (GPa) = 76.24290 77.06296 76.65293
# Shear Modulus (GPa) = 28.57095 29.72049 29.14572
#
# Velocity S-wave (km/s) = 3.79235 3.86789 3.83031
# Velocity P-wave (km/s) = 7.58649 7.66414 7.62541
#
# Compressibility (1/GPa) = 0.01311598
#
# Stress axis : x y z
#
# Youngs Moduli (GPa) = 100.26335 74.89825 72.84892
#
# Poissons Ratio (x) = 0.28913 0.16592
# Poissons Ratio (y) = 0.38704 0.42472
# Poissons Ratio (z) = 0.22836 0.43667
#
# Static dielectric constant tensor:
#      x y z
#    x 3.729870 0.000000 0.000770 
#    y 0.000000 3.654250 0.000000 
#    z 0.000770 0.000000 3.654420 
# 
# 
# High freq. dielectric constant tensor:
#      x y z
#    x 1.774320 0.000000 0.002220 
#    y 0.000000 1.773870 0.000000 
#    z 0.002220 0.000000 1.789920 
# 
# From -- ./inp_files/300142.got.cif
#   From: 2010.06.25/outbox.cif.g09.slc.cpg/sg12_151_cif.got.tgz:300142.got - 2010.06.28 00:19:55.
