data_PCOD8102436
_publ_section_title
;
Structure prediction by ZEFSAII (Michael W. Deem and Ramdas Pophale) SiO2 
 PCOD8102436
Probable space group: C 2/M
;
_chemical_formula_sum "Si O2"
_cell_formula_units_Z 64
_cell_length_a 20.864384
_cell_length_b 13.624286
_cell_length_c 18.786867
_cell_angle_alpha 90.000000
_cell_angle_beta 32.137867
_cell_angle_gamma 90.000000
_cell_volume 2840.869560
_symmetry_space_group_name_H-M "C 2/M"
_symmetry_group_IT_number 12
_symmetry_cell_setting 'monoclinic'
loop_
_space_group_symop_operation_xyz
x,y,z
-x,y,-z
-x,-y,-z
x,-y,z
1/2+x,1/2+y,z
1/2-x,1/2+y,-z
1/2-x,1/2-y,-z
1/2+x,1/2-y,z
loop_
_atom_site_type_symbol
_atom_site_label
_atom_site_fract_x
_atom_site_fract_y
_atom_site_fract_z
Si Si1 0.347689 0.892183 0.269703
Si Si2 0.019479 0.893144 0.230564
Si Si3 0.673497 0.891522 0.402449
Si Si4 0.629971 0.689795 0.389166
Si Si5 0.754120 0.363452 0.505185
Si Si6 0.424569 0.763175 0.940729
Si Si7 0.209561 0.886123 0.169505
Si Si8 0.634906 0.395150 0.892557
O O1 0.215451 0.857230 0.368798
O O2 0.341176 0.904112 0.361452
O O3 0.452434 0.815750 0.147633
O O4 0.376992 0.000000 0.209879
O O5 0.044588 0.803012 0.155473
O O6 0.088567 0.870033 0.238497
O O7 0.879090 0.905836 0.378508
O O8 0.063880 0.000000 0.158597
O O9 0.593697 0.800929 0.448790
O O10 0.691423 0.891597 0.470039
O O11 0.799817 0.871507 0.243456
O O12 0.620625 0.000000 0.431952
O O13 0.500000 0.635927 0.500000
O O14 0.700986 0.679760 0.248423
O O15 0.750000 0.250000 0.500000
O O16 0.326182 0.847409 0.015480
O O17 0.357198 0.694764 0.061106
O O18 0.229502 0.000000 0.170421
O O19 0.684843 0.500000 0.877221
O O20 0.500000 0.413102 0.000000
#
# Coordination Sequence:
#
# PCOD8102436 Si02
#       8
#     8   8   8   8   8   8   8   8
#     4  12  26  42  67 100 134 176 224 273 334 402
#     4  11  23  42  68  97 131 176 229 277 328 394
#     4  11  23  42  67 100 134 170 220 278 336 391
#     4  12  25  44  69  93 132 178 225 272 331 394
#     4  12  22  42  68  98 133 172 222 278 334 388
#     4  12  23  42  69  97 137 170 217 277 345 396
#     4  11  26  44  64  95 136 181 225 270 326 400
#     4  10  20  36  63  96 128 165 214 268 326 395
#
# _framework density 22.528314000000002
#
# number of rings (size 3 to 8) (size 9 to 14) (size 15 to 20)
#    0.000    0.625    3.750    4.875    0.000    3.250 
#    0.000    1.250    0.000    0.750    0.000    0.000 
#    0.000    0.000    0.000    0.000    0.000    0.000 
#
# Total GULP energy -396526.308437 kJ/mol
# GULP energy per Si atom -12391.447139 kJ/mol
# Density = 2.247704 g / cm^3
# Si number density = 22.528314 Si / 1000 Ang^3
#
#
#
# Elastic Constant Matrix: (Units=GPa)
#
#
# Indices 1 2 3 4 5 6 
#
# 1 92.2065 45.8889 23.7708 0.0000 -5.5746 0.0000
# 2 45.8889 152.1834 16.0473 0.0001 4.2834 0.0000
# 3 23.7708 16.0473 70.8048 0.0001 -1.0111 -0.0001
# 4 0.0000 0.0001 0.0001 11.7565 -0.0002 12.9018
# 5 -5.5746 4.2834 -1.0111 -0.0002 31.1725 0.0001
# 6 0.0000 0.0000 -0.0001 12.9018 0.0001 15.0319
#
#
#
# Elastic Compliance Matrix: (Units=1/GPa)
#
#
# Indices 1 2 3 4 5 6 
#
# 1 0.013921 -0.003884 -0.003752 0.000003 0.002901 -0.000003
# 2 -0.003884 0.007845 -0.000500 -0.000002 -0.001789 0.000001
# 3 -0.003752 -0.000500 0.015495 -0.000005 -0.000100 0.000004
# 4 0.000003 -0.000002 -0.000005 1.464160 0.000014 -1.256680
# 5 0.002901 -0.001789 -0.000100 0.000014 0.032841 -0.000012
# 6 -0.000003 0.000001 0.000004 -1.256680 -0.000012 1.145126
#
#
# Mechanical properties :
#
#
# Convention : Reuss Voigt Hill
#
# Bulk Modulus (GPa) = 47.64158 54.06761 50.85460
# Shear Modulus (GPa) = 1.85003 26.89137 14.37070
#
# Velocity S-wave (km/s) = 0.90719 3.45870 2.52840
# Velocity P-wave (km/s) = 4.72130 6.32472 5.58089
#
# Compressibility (1/GPa) = 0.02099007
#
# Stress axis : x y z
#
# Youngs Moduli (GPa) = 71.83575 127.46786 64.53793
#
# Poissons Ratio (x) = 0.49504 0.24214
# Poissons Ratio (y) = 0.27898 0.03225
# Poissons Ratio (z) = 0.26952 0.06370
#
# Static dielectric constant tensor:
#      x y z
#    x 3.926990 0.000000 0.386750 
#    y 0.000000 4.741950 0.000000 
#    z 0.386750 0.000000 4.376490 
# 
# 
# High freq. dielectric constant tensor:
#      x y z
#    x 1.869380 0.000000 0.004960 
#    y 0.000000 1.916550 0.000000 
#    z 0.004960 0.000000 1.879550 
# 
# From -- ./inp_files/278155.got.cif
#   From: 2010.06.25/outbox.cif.g09.slc.cpg/sg12_140_cif.got.tgz:278155.got - 2010.06.28 00:19:55.
