data_PCOD8102562
_publ_section_title
;
Structure prediction by ZEFSAII (Michael W. Deem and Ramdas Pophale) SiO2 
 PCOD8102562
Probable space group: C 2/M
;
_chemical_formula_sum "Si O2"
_cell_formula_units_Z 56
_cell_length_a 14.307128
_cell_length_b 26.929802
_cell_length_c 8.820811
_cell_angle_alpha 90.000000
_cell_angle_beta 76.841706
_cell_angle_gamma 90.000000
_cell_volume 3309.324231
_symmetry_space_group_name_H-M "C 2/M"
_symmetry_group_IT_number 12
_symmetry_cell_setting 'monoclinic'
loop_
_space_group_symop_operation_xyz
x,y,z
-x,y,-z
-x,-y,-z
x,-y,z
1/2+x,1/2+y,z
1/2-x,1/2+y,-z
1/2-x,1/2-y,-z
1/2+x,1/2-y,z
loop_
_atom_site_type_symbol
_atom_site_label
_atom_site_fract_x
_atom_site_fract_y
_atom_site_fract_z
Si Si1 0.219651 0.144008 0.910280
Si Si2 0.911771 0.710199 0.339505
Si Si3 0.069184 0.877180 0.332826
Si Si4 0.953988 0.193403 0.170955
Si Si5 0.777609 0.195598 0.772802
Si Si6 0.902979 0.057455 0.942325
Si Si7 0.624145 0.197455 0.301609
O O1 0.144577 0.166863 0.823175
O O2 0.319545 0.149535 0.783215
O O3 0.229206 0.177221 0.054705
O O4 0.188453 0.087463 0.956402
O O5 0.931692 0.768591 0.314057
O O6 0.831172 0.694983 0.248512
O O7 0.873733 0.696803 0.518217
O O8 0.017616 0.687419 0.274116
O O9 0.162360 0.845102 0.349603
O O10 0.088957 0.929650 0.241330
O O11 0.000000 0.885978 0.500000
O O12 0.028831 0.845961 0.206532
O O13 0.000000 0.217035 0.000000
O O14 0.828104 0.249602 0.761220
O O15 0.877665 0.000000 0.967744
O O16 0.000000 0.070525 0.000000
#
# Coordination Sequence:
#
# PCOD8102562 Si02
#       7
#     8   8   8   8   8   8   8
#     4  11  21  34  53  75  99 143 175 215 263 306
#     4  11  24  32  47  75 109 146 178 216 245 300
#     4  11  21  33  53  79 108 145 175 209 263 310
#     4  12  19  33  50  73 111 142 182 209 245 307
#     4  11  21  32  49  75 101 145 181 210 245 304
#     4  10  20  37  57  80 105 132 173 220 268 323
#     4  11  22  35  47  73 110 144 179 213 255 301
#
# _framework density 16.921883999999999
#
# number of rings (size 3 to 8) (size 9 to 14) (size 15 to 20)
#    0.000    1.000    7.143    1.714    4.000    0.286 
#    0.000    0.000    0.000    0.000    0.000   10.000 
#    0.000    0.000    0.000    0.000    0.000    0.000 
#
# Total GULP energy -346935.448300 kJ/mol
# GULP energy per Si atom -12390.551725 kJ/mol
# Density = 1.688337 g / cm^3
# Si number density = 16.921884 Si / 1000 Ang^3
#
#
#
# Elastic Constant Matrix: (Units=GPa)
#
#
# Indices 1 2 3 4 5 6 
#
# 1 109.8058 37.0990 35.4800 0.0000 -6.6247 0.0000
# 2 37.0990 80.7135 42.8009 0.0000 -14.0697 0.0000
# 3 35.4800 42.8009 83.6383 0.0000 -17.4165 0.0000
# 4 0.0000 0.0000 0.0000 16.0311 0.0000 -1.8948
# 5 -6.6247 -14.0697 -17.4165 0.0000 25.1929 0.0000
# 6 0.0000 0.0000 0.0000 -1.8948 0.0000 18.8609
#
#
#
# Elastic Compliance Matrix: (Units=1/GPa)
#
#
# Indices 1 2 3 4 5 6 
#
# 1 0.011315 -0.003759 -0.003147 0.000000 -0.001299 0.000000
# 2 -0.003759 0.018616 -0.006978 0.000000 0.004585 0.000000
# 3 -0.003147 -0.006978 0.018548 0.000000 0.008099 0.000000
# 4 0.000000 0.000000 0.000000 0.063128 0.000000 0.006342
# 5 -0.001299 0.004585 0.008099 0.000000 0.047511 0.000000
# 6 0.000000 0.000000 0.000000 0.006342 0.000000 0.053657
#
#
# Mechanical properties :
#
#
# Convention : Reuss Voigt Hill
#
# Bulk Modulus (GPa) = 48.27792 56.10192 52.18992
# Shear Modulus (GPa) = 20.20630 22.60218 21.40424
#
# Velocity S-wave (km/s) = 3.45931 3.65866 3.56038
# Velocity P-wave (km/s) = 6.67440 7.14655 6.91450
#
# Compressibility (1/GPa) = 0.02071340
#
# Stress axis : x y z
#
# Youngs Moduli (GPa) = 88.37521 53.71625 53.91294
#
# Poissons Ratio (x) = 0.20190 0.16968
# Poissons Ratio (y) = 0.33216 0.37618
# Poissons Ratio (z) = 0.27814 0.37481
#
# Static dielectric constant tensor:
#      x y z
#    x 3.405680 0.000000 -0.042720 
#    y 0.000000 2.924520 0.000000 
#    z -0.042720 0.000000 3.177050 
# 
# 
# High freq. dielectric constant tensor:
#      x y z
#    x 1.660590 0.000000 0.000950 
#    y 0.000000 1.605400 0.000000 
#    z 0.000950 0.000000 1.661550 
# 
# From -- ./inp_files/66480.got.cif
#   From: 2010.06.25/outbox.cif.g09.slc.cpg/sg12_34_cif.got.tgz:66480.got - 2010.06.28 00:19:55.
