data_PCOD8102885
_publ_section_title
;
Structure prediction by ZEFSAII (Michael W. Deem and Ramdas Pophale) SiO2 
 PCOD8102885
Probable space group: C 2/M
;
_chemical_formula_sum "Si O2"
_cell_formula_units_Z 44
_cell_length_a 23.886806
_cell_length_b 10.497870
_cell_length_c 24.719634
_cell_angle_alpha 90.000000
_cell_angle_beta 19.497542
_cell_angle_gamma 90.000000
_cell_volume 2068.921195
_symmetry_space_group_name_H-M "C 2/M"
_symmetry_group_IT_number 12
_symmetry_cell_setting 'monoclinic'
loop_
_space_group_symop_operation_xyz
x,y,z
-x,y,-z
-x,-y,-z
x,-y,z
1/2+x,1/2+y,z
1/2-x,1/2+y,-z
1/2-x,1/2-y,-z
1/2+x,1/2-y,z
loop_
_atom_site_type_symbol
_atom_site_label
_atom_site_fract_x
_atom_site_fract_y
_atom_site_fract_z
Si Si1 0.099696 0.138520 0.235360
Si Si2 0.808563 0.860776 0.077499
Si Si3 0.011332 0.856994 0.199366
Si Si4 0.500000 0.266252 0.000000
Si Si5 0.768099 0.642766 0.388907
Si Si6 0.686210 0.350271 0.342965
O O1 0.175882 0.246661 0.204862
O O2 0.130274 0.162487 0.143557
O O3 0.902868 0.135366 0.423030
O O4 0.176478 0.000000 0.182213
O O5 0.953173 0.852008 0.990978
O O6 0.722309 0.000000 0.161571
O O7 0.881486 0.842853 0.951889
O O8 0.876490 0.744524 0.322815
O O9 0.930224 0.000000 0.275435
O O10 0.332208 0.187258 0.167651
O O11 0.850323 0.500000 0.313410
O O12 0.741586 0.693733 0.352172
O O13 0.500000 0.290836 0.500000
O O14 0.666810 0.500000 0.358562
#
# Coordination Sequence:
#
# PCOD8102885 Si02
#       6
#     8   8   8   4   8   8
#     4  10  22  39  63  90 120 156 200 250 308 368
#     4  11  24  40  60  87 123 160 203 252 301 362
#     4  10  21  39  60  88 122 159 198 246 304 368
#     4  12  22  40  64  84 125 168 209 250 317 356
#     4  10  20  37  59  89 121 154 199 253 304 365
#     4  10  21  37  59  90 125 161 208 258 305 366
#
# _framework density 21.267122000000001
#
# number of rings (size 3 to 8) (size 9 to 14) (size 15 to 20)
#    0.000    1.636    1.818    2.727    0.000    5.091 
#    0.000    0.000    0.000    2.727    0.000    0.000 
#    0.000    0.000    0.000    0.000    0.000    0.000 
#
# Total GULP energy -272655.291616 kJ/mol
# GULP energy per Si atom -12393.422346 kJ/mol
# Density = 2.121872 g / cm^3
# Si number density = 21.267122 Si / 1000 Ang^3
#
#
#
# Elastic Constant Matrix: (Units=GPa)
#
#
# Indices 1 2 3 4 5 6 
#
# 1 84.4544 51.4478 12.1626 -0.0014 -4.2368 0.0036
# 2 51.4478 132.8211 18.6117 0.0151 -28.7823 -0.0194
# 3 12.1626 18.6117 67.9128 0.0060 -4.6835 -0.0052
# 4 -0.0014 0.0151 0.0060 28.0182 -0.0074 -6.2203
# 5 -4.2368 -28.7823 -4.6835 -0.0074 32.5103 0.0072
# 6 0.0036 -0.0194 -0.0052 -6.2203 0.0072 19.5979
#
#
#
# Elastic Compliance Matrix: (Units=1/GPa)
#
#
# Indices 1 2 3 4 5 6 
#
# 1 0.016050 -0.006962 -0.001260 0.000002 -0.004254 -0.000008
# 2 -0.006962 0.012614 -0.001518 -0.000002 0.010042 0.000009
# 3 -0.001260 -0.001518 0.015415 -0.000002 0.000713 0.000002
# 4 0.000002 -0.000002 -0.000002 0.038397 0.000004 0.012187
# 5 -0.004254 0.010042 0.000713 0.000004 0.039198 -0.000002
# 6 -0.000008 0.000009 0.000002 0.012187 -0.000002 0.054894
#
#
# Mechanical properties :
#
#
# Convention : Reuss Voigt Hill
#
# Bulk Modulus (GPa) = 40.64909 49.95916 45.30413
# Shear Modulus (GPa) = 24.48000 29.55633 27.01816
#
# Velocity S-wave (km/s) = 3.39643 3.73200 3.56816
# Velocity P-wave (km/s) = 5.87674 6.48943 6.19067
#
# Compressibility (1/GPa) = 0.02460079
#
# Stress axis : x y z
#
# Youngs Moduli (GPa) = 62.30565 79.27427 64.86992
#
# Poissons Ratio (x) = 0.55192 0.08172
# Poissons Ratio (y) = 0.43378 0.09845
# Poissons Ratio (z) = 0.07849 0.12031
#
# Static dielectric constant tensor:
#      x y z
#    x 4.059500 0.000000 0.130410 
#    y 0.000000 4.047690 0.000010 
#    z 0.130410 0.000010 3.608860 
# 
# 
# High freq. dielectric constant tensor:
#      x y z
#    x 1.847600 0.000000 0.017340 
#    y 0.000000 1.832730 0.000000 
#    z 0.017340 0.000000 1.814730 
# 
# From -- ./inp_files/369001.got.cif
#   From: 2010.06.25/outbox.cif.g09.slc.cpg/sg12_185_cif.got.tgz:369001.got - 2010.06.28 00:19:55.
