data_PCOD8102159
_publ_section_title
;
Structure prediction by ZEFSAII (Michael W. Deem and Ramdas Pophale) SiO2 
 PCOD8102159
Probable space group: C 2/M
;
_chemical_formula_sum "Si O2"
_cell_formula_units_Z 48
_cell_length_a 17.345018
_cell_length_b 16.366330
_cell_length_c 14.607371
_cell_angle_alpha 90.000000
_cell_angle_beta 147.357882
_cell_angle_gamma 90.000000
_cell_volume 2236.665031
_symmetry_space_group_name_H-M "C 2/M"
_symmetry_group_IT_number 12
_symmetry_cell_setting 'monoclinic'
loop_
_space_group_symop_operation_xyz
x,y,z
-x,y,-z
-x,-y,-z
x,-y,z
1/2+x,1/2+y,z
1/2-x,1/2+y,-z
1/2-x,1/2-y,-z
1/2+x,1/2-y,z
loop_
_atom_site_type_symbol
_atom_site_label
_atom_site_fract_x
_atom_site_fract_y
_atom_site_fract_z
Si Si1 0.840444 0.000000 0.875455
Si Si2 0.408904 0.000000 0.503636
Si Si3 0.592008 0.594013 0.675086
Si Si4 0.422807 0.338251 0.017875
Si Si5 0.099172 0.639167 0.356263
Si Si6 0.908144 0.826797 0.637673
Si Si7 0.399293 0.158735 0.987582
O O1 0.815863 0.082475 0.912907
O O2 0.751662 0.000000 0.693317
O O3 0.000000 0.000000 0.000000
O O4 0.500000 0.000000 0.500000
O O5 0.436400 0.920777 0.594638
O O6 0.500000 0.632059 0.500000
O O7 0.554821 0.500000 0.647815
O O8 0.540429 0.637633 0.714588
O O9 0.760876 0.604559 0.829944
O O10 0.500000 0.336959 0.000000
O O11 0.552186 0.343039 0.218073
O O12 0.342312 0.251438 0.949930
O O13 0.101744 0.731189 0.397576
O O14 0.257691 0.625958 0.470582
O O15 0.983108 0.625096 0.160320
O O16 0.500000 0.153533 0.000000
#
# Coordination Sequence:
#
# PCOD8102159 Si02
#       7
#     4   4   8   8   8   8   8
#     4  10  20  36  60  91 127 170 210 257 310 383
#     4  12  28  42  61 101 140 174 211 265 339 399
#     4  11  26  42  62  95 124 166 225 277 331 385
#     4   9  19  36  64  98 127 167 219 259 320 393
#     4  10  23  43  67  99 131 175 219 265 337 398
#     4  10  22  42  69  95 130 174 222 273 324 393
#     4  10  22  43  68  94 129 174 218 273 336 392
#
# _framework density 21.460522999999998
#
# number of rings (size 3 to 8) (size 9 to 14) (size 15 to 20)
#    0.000    1.833    0.000    3.000    3.500   10.333 
#    0.000    0.000    0.000    0.000    0.000    0.000 
#    0.000    0.000    0.000    0.000    0.000    0.000 
#
# Total GULP energy -297464.707519 kJ/mol
# GULP energy per Si atom -12394.362813 kJ/mol
# Density = 2.141168 g / cm^3
# Si number density = 21.460523 Si / 1000 Ang^3
#
#
#
# Elastic Constant Matrix: (Units=GPa)
#
#
# Indices 1 2 3 4 5 6 
#
# 1 113.4112 47.9377 54.4122 0.0000 -0.3610 0.0000
# 2 47.9377 107.3659 48.0960 0.0000 -21.0450 0.0000
# 3 54.4122 48.0960 148.8550 0.0000 -13.9183 0.0000
# 4 0.0000 0.0000 0.0000 31.4348 0.0000 -4.8475
# 5 -0.3610 -21.0450 -13.9183 0.0000 33.4273 0.0000
# 6 0.0000 0.0000 0.0000 -4.8475 0.0000 33.4664
#
#
#
# Elastic Compliance Matrix: (Units=1/GPa)
#
#
# Indices 1 2 3 4 5 6 
#
# 1 0.012513 -0.004926 -0.003392 0.000000 -0.004378 0.000000
# 2 -0.004926 0.013943 -0.001965 0.000000 0.007907 0.000000
# 3 -0.003392 -0.001965 0.008817 0.000000 0.002397 0.000000
# 4 0.000000 0.000000 0.000000 0.032539 0.000000 0.004713
# 5 -0.004378 0.007907 0.002397 0.000000 0.035844 0.000000
# 6 0.000000 0.000000 0.000000 0.004713 0.000000 0.030563
#
#
# Mechanical properties :
#
#
# Convention : Reuss Voigt Hill
#
# Bulk Modulus (GPa) = 67.99196 74.50267 71.24731
# Shear Modulus (GPa) = 31.31106 34.27812 32.79459
#
# Velocity S-wave (km/s) = 3.82384 4.00091 3.91338
# Velocity P-wave (km/s) = 7.15869 7.49230 7.32739
#
# Compressibility (1/GPa) = 0.01470762
#
# Stress axis : x y z
#
# Youngs Moduli (GPa) = 79.91780 71.71818 113.41793
#
# Poissons Ratio (x) = 0.35326 0.38469
# Poissons Ratio (y) = 0.39365 0.22291
# Poissons Ratio (z) = 0.27106 0.14095
#
# Static dielectric constant tensor:
#      x y z
#    x 3.632810 0.000000 -0.282710 
#    y 0.000000 12.796660 0.000000 
#    z -0.282710 0.000000 4.161530 
# 
# 
# High freq. dielectric constant tensor:
#      x y z
#    x 1.824010 0.000000 -0.013390 
#    y 0.000000 1.850610 0.000000 
#    z -0.013390 0.000000 1.851990 
# 
# From -- ./inp_files/226961.got.cif
#   From: 2010.06.25/outbox.cif.g09.slc.cpg/sg12_114_cif.got.tgz:226961.got - 2010.06.28 00:19:55.
