data_PCOD8102776
_publ_section_title
;
Structure prediction by ZEFSAII (Michael W. Deem and Ramdas Pophale) SiO2 
 PCOD8102776
Probable space group: C 2/M
;
_chemical_formula_sum "Si O2"
_cell_formula_units_Z 64
_cell_length_a 27.524158
_cell_length_b 9.226958
_cell_length_c 22.119052
_cell_angle_alpha 90.000000
_cell_angle_beta 36.867370
_cell_angle_gamma 90.000000
_cell_volume 3370.270812
_symmetry_space_group_name_H-M "C 2/M"
_symmetry_group_IT_number 12
_symmetry_cell_setting 'monoclinic'
loop_
_space_group_symop_operation_xyz
x,y,z
-x,y,-z
-x,-y,-z
x,-y,z
1/2+x,1/2+y,z
1/2-x,1/2+y,-z
1/2-x,1/2-y,-z
1/2+x,1/2-y,z
loop_
_atom_site_type_symbol
_atom_site_label
_atom_site_fract_x
_atom_site_fract_y
_atom_site_fract_z
Si Si1 0.147556 0.333191 0.489634
Si Si2 0.593339 0.833135 0.675968
Si Si3 0.692886 0.170518 0.694596
Si Si4 0.409175 0.828264 0.090560
Si Si5 0.169203 0.329736 0.956801
Si Si6 0.355192 0.330916 0.786168
Si Si7 0.926428 0.828788 0.843577
Si Si8 0.987025 0.669979 0.581980
O O1 0.161331 0.500000 0.458666
O O2 0.145425 0.310174 0.563692
O O3 0.219696 0.242887 0.388704
O O4 0.063764 0.276541 0.544443
O O5 0.649508 0.786521 0.675569
O O6 0.517087 0.728841 0.750598
O O7 0.564219 0.000000 0.711060
O O8 0.638837 0.231669 0.803474
O O9 0.705970 0.000000 0.687020
O O10 0.362636 0.779492 0.076755
O O11 0.414029 0.000000 0.090154
O O12 0.500000 0.762918 0.000000
O O13 0.155311 0.500000 0.981358
O O14 0.262582 0.286458 0.868680
O O15 0.119796 0.243118 0.055398
O O16 0.369252 0.500000 0.761807
O O17 0.380852 0.283522 0.827714
O O18 0.406843 0.247846 0.684927
O O19 0.927932 0.000000 0.851334
O O20 0.973498 0.500000 0.603468
O O21 0.000000 0.714509 0.500000
#
# Coordination Sequence:
#
# PCOD8102776 Si02
#       8
#     8   8   8   8   8   8   8   8
#     4  10  21  37  56  82 115 150 187 228 280 336
#     4  10  20  37  59  82 111 151 191 227 278 338
#     4  10  21  35  58  87 111 144 191 236 279 328
#     4   9  18  35  57  82 110 142 184 228 270 328
#     4  10  21  37  58  81 111 149 186 228 284 340
#     4  10  22  38  57  85 114 145 188 238 282 327
#     4  11  22  36  56  85 115 144 186 236 284 330
#     4  10  22  39  59  83 115 155 191 226 277 338
#
# _framework density 18.989571000000002
#
# number of rings (size 3 to 8) (size 9 to 14) (size 15 to 20)
#    0.000    2.000    1.250    1.875    1.750    4.750 
#    0.000    0.625    0.000    1.500    0.000    0.000 
#    0.000    0.000    0.000    0.000    0.000    0.000 
#
# Total GULP energy -396946.311697 kJ/mol
# GULP energy per Si atom -12404.572241 kJ/mol
# Density = 1.894635 g / cm^3
# Si number density = 18.989571 Si / 1000 Ang^3
#
#
#
# Elastic Constant Matrix: (Units=GPa)
#
#
# Indices 1 2 3 4 5 6 
#
# 1 78.3333 18.8320 35.1675 0.0173 5.7035 -0.0153
# 2 18.8320 34.2419 32.7122 -0.0287 -1.9690 0.0173
# 3 35.1675 32.7122 122.5049 -0.0047 0.2883 0.0012
# 4 0.0173 -0.0287 -0.0047 42.5341 0.0080 -12.6483
# 5 5.7035 -1.9690 0.2883 0.0080 36.6522 -0.0091
# 6 -0.0153 0.0173 0.0012 -12.6483 -0.0091 29.5129
#
#
#
# Elastic Compliance Matrix: (Units=1/GPa)
#
#
# Indices 1 2 3 4 5 6 
#
# 1 0.015716 -0.006038 -0.002893 -0.000008 -0.002747 0.000008
# 2 -0.006038 0.041701 -0.009410 0.000024 0.003254 -0.000016
# 3 -0.002893 -0.009410 0.011506 -0.000003 -0.000146 0.000002
# 4 -0.000008 0.000024 -0.000003 0.026944 0.000000 0.011548
# 5 -0.002747 0.003254 -0.000146 0.000000 0.027887 0.000005
# 6 0.000008 -0.000016 0.000002 0.011548 0.000005 0.038832
#
#
# Mechanical properties :
#
#
# Convention : Reuss Voigt Hill
#
# Bulk Modulus (GPa) = 31.01459 45.38928 38.20193
# Shear Modulus (GPa) = 23.80769 31.63107 27.71938
#
# Velocity S-wave (km/s) = 3.54464 4.08574 3.82477
# Velocity P-wave (km/s) = 5.75504 6.79792 6.29811
#
# Compressibility (1/GPa) = 0.03224289
#
# Stress axis : x y z
#
# Youngs Moduli (GPa) = 63.62815 23.98021 86.90795
#
# Poissons Ratio (x) = 0.14479 0.25142
# Poissons Ratio (y) = 0.38417 0.81778
# Poissons Ratio (z) = 0.18408 0.22565
#
# Static dielectric constant tensor:
#      x y z
#    x 3.694280 -0.000030 0.034670 
#    y -0.000030 3.256780 0.000030 
#    z 0.034670 0.000030 3.531580 
# 
# 
# High freq. dielectric constant tensor:
#      x y z
#    x 1.753480 0.000000 0.001400 
#    y 0.000000 1.715710 0.000000 
#    z 0.001400 0.000000 1.750300 
# 
# From -- ./inp_files/353268.got.cif
#   From: 2010.06.25/outbox.cif.g09.slc.cpg/sg12_177_cif.got.tgz:353268.got - 2010.06.28 00:19:55.
