data_PCOD8102428
_publ_section_title
;
Structure prediction by ZEFSAII (Michael W. Deem and Ramdas Pophale) SiO2 
 PCOD8102428
Probable space group: C 2/M
;
_chemical_formula_sum "Si O2"
_cell_formula_units_Z 40
_cell_length_a 11.392212
_cell_length_b 25.024207
_cell_length_c 14.291595
_cell_angle_alpha 90.000000
_cell_angle_beta 29.213541
_cell_angle_gamma 90.000000
_cell_volume 1988.509136
_symmetry_space_group_name_H-M "C 2/M"
_symmetry_group_IT_number 12
_symmetry_cell_setting 'monoclinic'
loop_
_space_group_symop_operation_xyz
x,y,z
-x,y,-z
-x,-y,-z
x,-y,z
1/2+x,1/2+y,z
1/2-x,1/2+y,-z
1/2-x,1/2-y,-z
1/2+x,1/2-y,z
loop_
_atom_site_type_symbol
_atom_site_label
_atom_site_fract_x
_atom_site_fract_y
_atom_site_fract_z
Si Si1 0.801708 0.216127 0.705969
Si Si2 0.479889 0.143489 0.227519
Si Si3 0.522325 0.684446 0.082344
Si Si4 0.691149 0.939480 0.949398
Si Si5 0.924335 0.145562 0.345609
O O1 0.698183 0.163155 0.729268
O O2 0.589115 0.258096 0.867809
O O3 0.000000 0.242570 0.500000
O O4 0.925512 0.195910 0.716054
O O5 0.332567 0.136938 0.426260
O O6 0.692526 0.187181 0.093121
O O7 0.591139 0.087654 0.114316
O O8 0.377178 0.658329 0.269158
O O9 0.500000 0.650599 0.000000
O O10 0.927627 0.909127 0.748301
O O11 0.760822 0.000000 0.926229
O O12 0.500000 0.937486 0.000000
#
# Coordination Sequence:
#
# PCOD8102428 Si02
#       5
#     8   8   8   8   8
#     4  10  22  36  57  84 120 159 199 235 289 348
#     4  10  22  40  58  84 120 160 192 239 291 352
#     4  11  26  35  57  84 117 164 207 240 283 339
#     4  10  20  36  63  94 120 148 187 240 303 359
#     4  10  23  41  57  85 125 156 194 245 293 346
#
# _framework density 20.115573000000001
#
# number of rings (size 3 to 8) (size 9 to 14) (size 15 to 20)
#    0.000    1.800    2.000    0.600   11.200    2.400 
#    0.000    2.000    0.000    9.600    0.000   11.200 
#    0.000    0.000    0.000    0.000    0.000    0.000 
#
# Total GULP energy -247890.590230 kJ/mol
# GULP energy per Si atom -12394.529511 kJ/mol
# Density = 2.006979 g / cm^3
# Si number density = 20.115573 Si / 1000 Ang^3
#
#
#
# Elastic Constant Matrix: (Units=GPa)
#
#
# Indices 1 2 3 4 5 6 
#
# 1 84.5118 26.5739 36.4003 0.0824 24.2131 -0.0643
# 2 26.5739 110.0807 59.7247 0.0076 2.3782 -0.0047
# 3 36.4003 59.7247 165.9906 0.0811 18.8831 -0.0694
# 4 0.0824 0.0076 0.0811 13.2857 -0.0347 8.5995
# 5 24.2131 2.3782 18.8831 -0.0347 36.3304 0.0312
# 6 -0.0643 -0.0047 -0.0694 8.5995 0.0312 7.3599
#
#
#
# Elastic Compliance Matrix: (Units=1/GPa)
#
#
# Indices 1 2 3 4 5 6 
#
# 1 0.016182 -0.002955 -0.001360 -0.000924 -0.009887 0.001249
# 2 -0.002955 0.011901 -0.004007 0.000368 0.003274 -0.000500
# 3 -0.001360 -0.004007 0.008111 -0.000391 -0.003048 0.000532
# 4 -0.000924 0.000368 -0.000391 0.308945 0.001401 -0.360996
# 5 -0.009887 0.003274 -0.003048 0.001401 0.035487 -0.001900
# 6 0.001249 -0.000500 0.000532 -0.360996 -0.001900 0.557692
#
#
# Mechanical properties :
#
#
# Convention : Reuss Voigt Hill
#
# Bulk Modulus (GPa) = 51.14771 67.33121 59.23946
# Shear Modulus (GPa) = 5.20033 27.25416 16.22725
#
# Velocity S-wave (km/s) = 1.60961 3.68486 2.84333
# Velocity P-wave (km/s) = 5.37927 7.18673 6.34766
#
# Compressibility (1/GPa) = 0.01955122
#
# Stress axis : x y z
#
# Youngs Moduli (GPa) = 61.79764 84.02865 123.28232
#
# Poissons Ratio (x) = 0.24830 0.16762
# Poissons Ratio (y) = 0.18261 0.49396
# Poissons Ratio (z) = 0.08402 0.33668
#
# Static dielectric constant tensor:
#      x y z
#    x 3.786600 -0.000010 0.122480 
#    y -0.000010 3.385630 0.000020 
#    z 0.122480 0.000020 3.916680 
# 
# 
# High freq. dielectric constant tensor:
#      x y z
#    x 1.783090 0.000000 0.012260 
#    y 0.000000 1.742270 0.000000 
#    z 0.012260 0.000000 1.806160 
# 
# From -- ./inp_files/208521.got.cif
#   From: 2010.06.25/outbox.cif.g09.slc.cpg/sg12_105_cif.got.tgz:208521.got - 2010.06.28 00:19:55.
