data_PCOD8102220
_publ_section_title
;
Structure prediction by ZEFSAII (Michael W. Deem and Ramdas Pophale) SiO2 
 PCOD8102220
Probable space group: C 2/M
;
_chemical_formula_sum "Si O2"
_cell_formula_units_Z 56
_cell_length_a 18.777333
_cell_length_b 8.636358
_cell_length_c 20.692063
_cell_angle_alpha 90.000000
_cell_angle_beta 121.711329
_cell_angle_gamma 90.000000
_cell_volume 2854.620902
_symmetry_space_group_name_H-M "C 2/M"
_symmetry_group_IT_number 12
_symmetry_cell_setting 'monoclinic'
loop_
_space_group_symop_operation_xyz
x,y,z
-x,y,-z
-x,-y,-z
x,-y,z
1/2+x,1/2+y,z
1/2-x,1/2+y,-z
1/2-x,1/2-y,-z
1/2+x,1/2-y,z
loop_
_atom_site_type_symbol
_atom_site_label
_atom_site_fract_x
_atom_site_fract_y
_atom_site_fract_z
Si Si1 0.501588 0.681922 0.926403
Si Si2 0.659481 0.670131 0.809635
Si Si3 0.472077 0.329369 0.679945
Si Si4 0.029671 0.317641 0.583344
Si Si5 0.785084 0.317748 0.286668
Si Si6 0.614932 0.817475 0.239526
Si Si7 0.838085 0.320650 0.058646
O O1 0.485067 0.500000 0.913435
O O2 0.432377 0.762681 0.848131
O O3 0.593532 0.721182 0.945882
O O4 0.500000 0.739039 0.000000
O O5 0.690761 0.500000 0.849295
O O6 0.569832 0.650704 0.736002
O O7 0.723509 0.734883 0.786969
O O8 0.650874 0.799326 0.860127
O O9 0.429436 0.500000 0.659551
O O10 0.465565 0.250751 0.606369
O O11 0.434154 0.226312 0.718891
O O12 0.019596 0.500000 0.583179
O O13 0.127235 0.270605 0.638067
O O14 0.000000 0.253419 0.500000
O O15 0.778988 0.500000 0.273772
O O16 0.706514 0.258387 0.290549
O O17 0.623426 0.000000 0.239942
O O18 0.846089 0.500000 0.043669
O O19 0.750000 0.250000 0.000000
#
# Coordination Sequence:
#
# PCOD8102220 Si02
#       7
#     8   8   8   8   8   8   8
#     4  11  25  44  63  85 118 157 202 253 309 362
#     4  10  20  37  59  83 113 149 196 247 295 350
#     4  10  20  36  61  88 118 154 196 241 294 353
#     4   9  19  38  64  93 124 157 196 243 296 355
#     4  10  21  37  60  88 121 156 197 243 297 354
#     4  12  24  39  61  87 121 159 203 249 298 359
#     4  12  25  40  60  84 116 153 199 249 301 356
#
# _framework density 19.617315000000001
#
# number of rings (size 3 to 8) (size 9 to 14) (size 15 to 20)
#    0.000    1.429    1.429    4.286    2.000    3.143 
#    0.000    0.714    0.000    0.000    0.000    0.000 
#    0.000    0.000    0.000    0.000    0.000    0.000 
#
# Total GULP energy -347143.809622 kJ/mol
# GULP energy per Si atom -12397.993201 kJ/mol
# Density = 1.957267 g / cm^3
# Si number density = 19.617315 Si / 1000 Ang^3
#
#
#
# Elastic Constant Matrix: (Units=GPa)
#
#
# Indices 1 2 3 4 5 6 
#
# 1 97.9817 27.6615 45.3739 0.0000 -3.9747 0.0000
# 2 27.6615 81.9249 34.2293 0.0000 -0.2473 0.0000
# 3 45.3739 34.2293 119.8507 0.0000 -20.0617 0.0000
# 4 0.0000 0.0000 0.0000 26.1432 0.0000 -3.9944
# 5 -3.9747 -0.2473 -20.0617 0.0000 25.6967 0.0000
# 6 0.0000 0.0000 0.0000 -3.9944 0.0000 29.1493
#
#
#
# Elastic Compliance Matrix: (Units=1/GPa)
#
#
# Indices 1 2 3 4 5 6 
#
# 1 0.012900 -0.002517 -0.004411 0.000000 -0.001473 0.000000
# 2 -0.002517 0.014615 -0.003753 0.000000 -0.003179 0.000000
# 3 -0.004411 -0.003753 0.012614 0.000000 0.009129 0.000000
# 4 0.000000 0.000000 0.000000 0.039069 0.000000 0.005354
# 5 -0.001473 -0.003179 0.009129 0.000000 0.045784 0.000000
# 6 0.000000 0.000000 0.000000 0.005354 0.000000 0.035040
#
#
# Mechanical properties :
#
#
# Convention : Reuss Voigt Hill
#
# Bulk Modulus (GPa) = 53.28973 57.14298 55.21635
# Shear Modulus (GPa) = 26.64690 29.03068 27.83879
#
# Velocity S-wave (km/s) = 3.68956 3.85105 3.77117
# Velocity P-wave (km/s) = 6.73603 6.99759 6.86805
#
# Compressibility (1/GPa) = 0.01876534
#
# Stress axis : x y z
#
# Youngs Moduli (GPa) = 77.52171 68.42457 79.27777
#
# Poissons Ratio (x) = 0.17221 0.34973
# Poissons Ratio (y) = 0.19511 0.29755
# Poissons Ratio (z) = 0.34198 0.25681
#
# Static dielectric constant tensor:
#      x y z
#    x 3.590170 0.000000 -0.093810 
#    y 0.000000 3.831650 0.000000 
#    z -0.093810 0.000000 3.613510 
# 
# 
# High freq. dielectric constant tensor:
#      x y z
#    x 1.765550 0.000000 -0.012130 
#    y 0.000000 1.777640 0.000000 
#    z -0.012130 0.000000 1.753320 
# 
# From -- ./inp_files/275674.got.cif
#   From: 2010.06.25/outbox.cif.g09.slc.cpg/sg12_138_cif.got.tgz:275674.got - 2010.06.28 00:19:55.
