data_PCOD8102938
_publ_section_title
;
Structure prediction by ZEFSAII (Michael W. Deem and Ramdas Pophale) SiO2 
 PCOD8102938
Probable space group: C 2/M
;
_chemical_formula_sum "Si O2"
_cell_formula_units_Z 64
_cell_length_a 19.385012
_cell_length_b 13.931588
_cell_length_c 25.640187
_cell_angle_alpha 90.000000
_cell_angle_beta 153.453055
_cell_angle_gamma 90.000000
_cell_volume 3094.769367
_symmetry_space_group_name_H-M "C 2/M"
_symmetry_group_IT_number 12
_symmetry_cell_setting 'monoclinic'
loop_
_space_group_symop_operation_xyz
x,y,z
-x,y,-z
-x,-y,-z
x,-y,z
1/2+x,1/2+y,z
1/2-x,1/2+y,-z
1/2-x,1/2-y,-z
1/2+x,1/2-y,z
loop_
_atom_site_type_symbol
_atom_site_label
_atom_site_fract_x
_atom_site_fract_y
_atom_site_fract_z
Si Si1 0.715010 0.109217 0.934633
Si Si2 0.488977 0.389205 0.930634
Si Si3 0.024256 0.393179 0.710499
Si Si4 0.676251 0.609771 0.486629
Si Si5 0.330801 0.885398 0.980607
Si Si6 0.324908 0.390373 0.398390
Si Si7 0.627423 0.697777 0.753886
Si Si8 0.843662 0.701621 0.807856
O O1 0.554907 0.119146 0.793720
O O2 0.753813 0.000000 0.973169
O O3 0.698270 0.157305 0.980514
O O4 0.854270 0.147647 0.992108
O O5 0.448968 0.500000 0.890156
O O6 0.357173 0.317392 0.820455
O O7 0.500000 0.374430 0.000000
O O8 0.082086 0.500000 0.732603
O O9 0.125310 0.313897 0.749231
O O10 0.844653 0.380436 0.574808
O O11 0.622557 0.500000 0.454204
O O12 0.685705 0.652990 0.550999
O O13 0.550324 0.664175 0.367021
O O14 0.196725 0.840935 0.854502
O O15 0.326114 0.000000 0.974718
O O16 0.494821 0.849508 0.070299
O O17 0.500000 0.383019 0.500000
O O18 0.264004 0.500000 0.354294
O O19 0.215815 0.325131 0.289261
O O20 0.723515 0.660412 0.769410
#
# Coordination Sequence:
#
# PCOD8102938 Si02
#       8
#     8   8   8   8   8   8   8   8
#     4   9  19  38  60  84 115 150 191 237 289 347
#     4  10  21  39  62  89 121 157 198 244 294 346
#     4  10  21  38  60  82 108 147 200 250 286 337
#     4  10  21  39  61  85 112 151 199 243 296 358
#     4  11  24  38  56  88 124 155 186 235 301 360
#     4  10  20  37  60  83 112 151 191 239 294 352
#     4  12  24  37  56  85 121 156 194 241 299 355
#     4  12  23  36  59  89 118 153 202 243 289 355
#
# _framework density 20.680054999999999
#
# number of rings (size 3 to 8) (size 9 to 14) (size 15 to 20)
#    0.000    1.500    1.250    4.500    0.000    8.500 
#    0.000    0.000    0.000    1.125    0.000    0.000 
#    0.000    0.000    0.000    0.000    0.000    0.000 
#
# Total GULP energy -396763.303137 kJ/mol
# GULP energy per Si atom -12398.853223 kJ/mol
# Density = 2.063299 g / cm^3
# Si number density = 20.680055 Si / 1000 Ang^3
#
#
#
# Elastic Constant Matrix: (Units=GPa)
#
#
# Indices 1 2 3 4 5 6 
#
# 1 82.1098 21.8591 27.8321 0.0037 -0.0110 -0.0010
# 2 21.8591 97.6539 48.3337 0.0102 -2.3528 -0.0009
# 3 27.8321 48.3337 126.4279 0.0850 -14.8248 -0.0071
# 4 0.0037 0.0102 0.0850 30.1564 0.0123 2.9804
# 5 -0.0110 -2.3528 -14.8248 0.0123 22.3584 -0.0031
# 6 -0.0010 -0.0009 -0.0071 2.9804 -0.0031 19.8045
#
#
#
# Elastic Compliance Matrix: (Units=1/GPa)
#
#
# Indices 1 2 3 4 5 6 
#
# 1 0.013511 -0.001838 -0.002487 0.000007 -0.001836 -0.000002
# 2 -0.001838 0.012966 -0.004763 0.000010 -0.001794 -0.000003
# 3 -0.002487 -0.004763 0.011081 -0.000033 0.006845 0.000010
# 4 0.000007 0.000010 -0.000033 0.033661 -0.000040 -0.005066
# 5 -0.001836 -0.001794 0.006845 -0.000040 0.049074 0.000016
# 6 -0.000002 -0.000003 0.000010 -0.005066 0.000016 0.051256
#
#
# Mechanical properties :
#
#
# Convention : Reuss Voigt Hill
#
# Bulk Modulus (GPa) = 51.59330 55.80460 53.69895
# Shear Modulus (GPa) = 25.48628 28.34164 26.91396
#
# Velocity S-wave (km/s) = 3.51438 3.70602 3.61147
# Velocity P-wave (km/s) = 6.43974 6.73469 6.58887
#
# Compressibility (1/GPa) = 0.01938236
#
# Stress axis : x y z
#
# Youngs Moduli (GPa) = 74.01500 77.12700 90.24819
#
# Poissons Ratio (x) = 0.14172 0.22445
# Poissons Ratio (y) = 0.13601 0.42982
# Poissons Ratio (z) = 0.18408 0.36733
#
# Static dielectric constant tensor:
#      x y z
#    x 3.753780 -0.000010 0.031380 
#    y -0.000010 3.792390 -0.000020 
#    z 0.031380 -0.000020 3.691190 
# 
# 
# High freq. dielectric constant tensor:
#      x y z
#    x 1.802850 0.000000 0.008490 
#    y 0.000000 1.809490 0.000000 
#    z 0.008490 0.000000 1.805180 
# 
# From -- ./inp_files/344093.got.cif
#   From: 2010.06.25/outbox.cif.g09.slc.cpg/sg12_173_cif.got.tgz:344093.got - 2010.06.28 00:19:55.
