data_PCOD8102641
_publ_section_title
;
Structure prediction by ZEFSAII (Michael W. Deem and Ramdas Pophale) SiO2 
 PCOD8102641
Probable space group: C 2/M
;
_chemical_formula_sum "Si O2"
_cell_formula_units_Z 48
_cell_length_a 26.145871
_cell_length_b 15.723864
_cell_length_c 9.086063
_cell_angle_alpha 90.000000
_cell_angle_beta 38.513115
_cell_angle_gamma 90.000000
_cell_volume 2326.015743
_symmetry_space_group_name_H-M "C 2/M"
_symmetry_group_IT_number 12
_symmetry_cell_setting 'monoclinic'
loop_
_space_group_symop_operation_xyz
x,y,z
-x,y,-z
-x,-y,-z
x,-y,z
1/2+x,1/2+y,z
1/2-x,1/2+y,-z
1/2-x,1/2-y,-z
1/2+x,1/2-y,z
loop_
_atom_site_type_symbol
_atom_site_label
_atom_site_fract_x
_atom_site_fract_y
_atom_site_fract_z
Si Si1 0.154584 0.184802 0.409904
Si Si2 0.168075 0.000000 0.370595
Si Si3 0.092882 0.825460 0.239864
Si Si4 0.662839 0.000000 0.872835
Si Si5 0.159811 0.682729 0.898027
Si Si6 0.326928 0.500000 0.977529
Si Si7 0.908576 0.329718 0.260436
Si Si8 0.338546 0.000000 0.471446
O O1 0.118879 0.087886 0.510367
O O2 0.151573 0.203514 0.242309
O O3 0.246840 0.197491 0.260738
O O4 0.093319 0.247373 0.631609
O O5 0.203459 0.000000 0.123543
O O6 0.240461 0.000000 0.323119
O O7 0.000000 0.832981 0.500000
O O8 0.119248 0.916073 0.112473
O O9 0.100359 0.753619 0.098455
O O10 0.627288 0.911951 0.021424
O O11 0.652601 0.000000 0.722875
O O12 0.154322 0.686447 0.733097
O O13 0.252071 0.500000 0.259137
O O14 0.882930 0.411809 0.417952
O O15 0.000000 0.344987 0.000000
#
# Coordination Sequence:
#
# PCOD8102641 Si02
#       8
#     8   4   8   4   8   4   8   4
#     4  10  20  37  58  80 110 150 187 223 268 329
#     4   8  18  35  55  79 107 138 180 228 266 311
#     4  11  22  37  56  84 115 144 180 231 280 322
#     4   8  18  35  55  79 107 138 180 228 266 311
#     4  10  20  37  58  80 110 150 187 223 268 329
#     4  10  21  37  58  81 107 146 189 224 268 331
#     4  11  22  37  56  84 115 144 180 231 280 322
#     4  10  21  37  58  81 107 146 189 224 268 331
#
# _framework density 20.636144999999999
#
# number of rings (size 3 to 8) (size 9 to 14) (size 15 to 20)
#    0.000    2.000    0.000    3.500    0.000    5.333 
#    0.000    0.833    0.000    0.000    0.000    0.000 
#    0.000    0.000    0.000    0.000    0.000    0.000 
#
# Total GULP energy -297418.317424 kJ/mol
# GULP energy per Si atom -12392.429893 kJ/mol
# Density = 2.058918 g / cm^3
# Si number density = 20.636145 Si / 1000 Ang^3
#
#
#
# Elastic Constant Matrix: (Units=GPa)
#
#
# Indices 1 2 3 4 5 6 
#
# 1 53.6063 12.2065 2.0619 0.0000 -3.5432 0.0000
# 2 12.2065 205.2497 78.4779 0.0000 5.4251 0.0000
# 3 2.0619 78.4779 104.1685 0.0000 -19.6436 0.0000
# 4 0.0000 0.0000 0.0000 42.6458 0.0000 6.4716
# 5 -3.5432 5.4251 -19.6436 0.0000 21.3062 0.0000
# 6 0.0000 0.0000 0.0000 6.4716 0.0000 18.6230
#
#
#
# Elastic Compliance Matrix: (Units=1/GPa)
#
#
# Indices 1 2 3 4 5 6 
#
# 1 0.019477 -0.002263 0.002468 0.000000 0.006090 0.000000
# 2 -0.002263 0.008400 -0.008180 0.000000 -0.010057 0.000000
# 3 0.002468 -0.008180 0.019590 0.000000 0.020554 0.000000
# 4 0.000000 0.000000 0.000000 0.024754 0.000000 -0.008602
# 5 0.006090 -0.010057 0.020554 0.000000 0.069459 0.000000
# 6 0.000000 0.000000 0.000000 -0.008602 0.000000 0.056686
#
#
# Mechanical properties :
#
#
# Convention : Reuss Voigt Hill
#
# Bulk Modulus (GPa) = 31.72914 60.94634 46.33774
# Shear Modulus (GPa) = 22.23966 34.53355 28.38661
#
# Velocity S-wave (km/s) = 3.28640 4.09522 3.71290
# Velocity P-wave (km/s) = 5.45981 7.20826 6.39408
#
# Compressibility (1/GPa) = 0.03151677
#
# Stress axis : x y z
#
# Youngs Moduli (GPa) = 51.34145 119.04346 51.04675
#
# Poissons Ratio (x) = 0.26938 -0.12597
# Poissons Ratio (y) = 0.11618 0.41758
# Poissons Ratio (z) = -0.12670 0.97381
#
# Static dielectric constant tensor:
#      x y z
#    x 3.797620 0.000000 0.125240 
#    y 0.000000 4.471760 0.000000 
#    z 0.125240 0.000000 3.227730 
# 
# 
# High freq. dielectric constant tensor:
#      x y z
#    x 1.805820 0.000000 0.002670 
#    y 0.000000 1.839300 0.000000 
#    z 0.002670 0.000000 1.764910 
# 
# From -- ./inp_files/112788.got.cif
#   From: 2010.06.25/outbox.cif.g09.slc.cpg/sg12_57_cif.got.tgz:112788.got - 2010.06.28 00:19:55.
