data_PCOD8102639
_publ_section_title
;
Structure prediction by ZEFSAII (Michael W. Deem and Ramdas Pophale) SiO2 
 PCOD8102639
Probable space group: C 2/M
;
_chemical_formula_sum "Si O2"
_cell_formula_units_Z 56
_cell_length_a 18.820212
_cell_length_b 8.780374
_cell_length_c 26.155836
_cell_angle_alpha 90.000000
_cell_angle_beta 140.042498
_cell_angle_gamma 90.000000
_cell_volume 2775.808112
_symmetry_space_group_name_H-M "C 2/M"
_symmetry_group_IT_number 12
_symmetry_cell_setting 'monoclinic'
loop_
_space_group_symop_operation_xyz
x,y,z
-x,y,-z
-x,-y,-z
x,-y,z
1/2+x,1/2+y,z
1/2-x,1/2+y,-z
1/2-x,1/2-y,-z
1/2+x,1/2-y,z
loop_
_atom_site_type_symbol
_atom_site_label
_atom_site_fract_x
_atom_site_fract_y
_atom_site_fract_z
Si Si1 0.911100 0.673306 0.226314
Si Si2 0.711756 0.675908 0.748991
Si Si3 0.017592 0.176150 0.568461
Si Si4 0.139482 0.679497 0.917282
Si Si5 0.192668 0.321219 0.516577
Si Si6 0.352062 0.175469 0.679621
Si Si7 0.417509 0.678101 0.819443
O O1 0.875004 0.500000 0.217218
O O2 0.857258 0.780269 0.238917
O O3 0.871323 0.725587 0.148140
O O4 0.044447 0.688648 0.302272
O O5 0.741900 0.500000 0.769669
O O6 0.640686 0.708315 0.657986
O O7 0.827063 0.767404 0.811093
O O8 0.937122 0.283490 0.557279
O O9 0.000000 0.223483 0.500000
O O10 0.985805 0.000000 0.559420
O O11 0.140984 0.500000 0.924652
O O12 0.036112 0.742224 0.893191
O O13 0.250000 0.750000 0.000000
O O14 0.214571 0.500000 0.530770
O O15 0.250000 0.250000 0.500000
O O16 0.241278 0.237095 0.592959
O O17 0.371613 0.279924 0.738895
O O18 0.335635 0.000000 0.688005
O O19 0.435137 0.500000 0.834871
#
# Coordination Sequence:
#
# PCOD8102639 Si02
#       7
#     8   8   8   8   8   8   8
#     4   9  20  37  58  84 115 151 186 230 287 342
#     4  11  22  36  57  84 115 152 195 241 286 338
#     4  10  22  39  57  78 110 152 195 243 297 345
#     4  10  21  40  65  92 121 151 187 230 280 338
#     4  12  24  36  53  78 109 146 191 242 294 345
#     4  10  20  37  58  80 110 146 190 241 289 341
#     4  11  22  37  60  87 116 151 189 228 276 338
#
# _framework density 20.174303999999999
#
# number of rings (size 3 to 8) (size 9 to 14) (size 15 to 20)
#    0.000    1.571    0.000    6.429    0.000    8.286 
#    0.000    0.714    0.000    4.286    0.000    0.000 
#    0.000    0.000    0.000    0.000    0.000    0.000 
#
# Total GULP energy -347274.797174 kJ/mol
# GULP energy per Si atom -12402.671328 kJ/mol
# Density = 2.012839 g / cm^3
# Si number density = 20.174304 Si / 1000 Ang^3
#
#
#
# Elastic Constant Matrix: (Units=GPa)
#
#
# Indices 1 2 3 4 5 6 
#
# 1 84.3115 38.8328 14.8647 0.0000 15.2917 0.0000
# 2 38.8328 107.0806 36.1036 0.0000 8.5207 0.0000
# 3 14.8647 36.1036 79.6776 0.0000 19.3827 0.0000
# 4 0.0000 0.0000 0.0000 33.3542 0.0000 4.0947
# 5 15.2917 8.5207 19.3827 0.0000 27.5642 0.0000
# 6 0.0000 0.0000 0.0000 4.0947 0.0000 38.2573
#
#
#
# Elastic Compliance Matrix: (Units=1/GPa)
#
#
# Indices 1 2 3 4 5 6 
#
# 1 0.015596 -0.005541 0.001555 0.000000 -0.008033 0.000000
# 2 -0.005541 0.012992 -0.005578 0.000000 0.002980 0.000000
# 3 0.001555 -0.005578 0.017587 0.000000 -0.011505 0.000000
# 4 0.000000 0.000000 0.000000 0.030380 0.000000 -0.003252
# 5 -0.008033 0.002980 -0.011505 0.000000 0.047904 0.000000
# 6 0.000000 0.000000 0.000000 -0.003252 0.000000 0.026487
#
#
# Mechanical properties :
#
#
# Convention : Reuss Voigt Hill
#
# Bulk Modulus (GPa) = 36.97328 50.07467 43.52398
# Shear Modulus (GPa) = 27.91908 31.91969 29.91938
#
# Velocity S-wave (km/s) = 3.72411 3.98200 3.85521
# Velocity P-wave (km/s) = 6.07113 6.78356 6.43721
#
# Compressibility (1/GPa) = 0.02704656
#
# Stress axis : x y z
#
# Youngs Moduli (GPa) = 64.12078 76.97173 56.86070
#
# Poissons Ratio (x) = 0.42650 -0.08843
# Poissons Ratio (y) = 0.35529 0.31718
# Poissons Ratio (z) = -0.09973 0.42936
#
# Static dielectric constant tensor:
#      x y z
#    x 3.670080 0.000000 0.230820 
#    y 0.000000 3.635080 0.000000 
#    z 0.230820 0.000000 3.713560 
# 
# 
# High freq. dielectric constant tensor:
#      x y z
#    x 1.791480 0.000000 0.014520 
#    y 0.000000 1.792620 0.000000 
#    z 0.014520 0.000000 1.776200 
# 
# From -- ./inp_files/363169.got.cif
#   From: 2010.06.25/outbox.cif.g09.slc.cpg/sg12_182_cif.got.tgz:363169.got - 2010.06.28 00:19:55.
