data_PCOD8102919
_publ_section_title
;
Structure prediction by ZEFSAII (Michael W. Deem and Ramdas Pophale) SiO2 
 PCOD8102919
Probable space group: C 2/M
;
_chemical_formula_sum "Si O2"
_cell_formula_units_Z 56
_cell_length_a 17.986789
_cell_length_b 28.011579
_cell_length_c 9.281524
_cell_angle_alpha 90.000000
_cell_angle_beta 139.424381
_cell_angle_gamma 90.000000
_cell_volume 3041.761458
_symmetry_space_group_name_H-M "C 2/M"
_symmetry_group_IT_number 12
_symmetry_cell_setting 'monoclinic'
loop_
_space_group_symop_operation_xyz
x,y,z
-x,y,-z
-x,-y,-z
x,-y,z
1/2+x,1/2+y,z
1/2-x,1/2+y,-z
1/2-x,1/2-y,-z
1/2+x,1/2-y,z
loop_
_atom_site_type_symbol
_atom_site_label
_atom_site_fract_x
_atom_site_fract_y
_atom_site_fract_z
Si Si1 0.758068 0.804742 0.381631
Si Si2 0.178311 0.293515 0.962023
Si Si3 0.785311 0.946310 0.817209
Si Si4 0.991384 0.053487 0.321677
Si Si5 0.914265 0.716530 0.644091
Si Si6 0.875616 0.637294 0.362556
Si Si7 0.599910 0.383060 0.247812
O O1 0.848511 0.762552 0.488765
O O2 0.633550 0.789198 0.262733
O O3 0.810423 0.843383 0.568740
O O4 0.733519 0.819863 0.181769
O O5 0.185537 0.334560 0.855046
O O6 0.049949 0.276167 0.817744
O O7 0.250000 0.250000 0.000000
O O8 0.677576 0.913741 0.687068
O O9 0.849835 0.925741 0.773395
O O10 0.745574 0.000000 0.722170
O O11 0.861967 0.945995 0.073789
O O12 0.059691 0.093161 0.335593
O O13 0.000000 0.068900 0.500000
O O14 0.042682 0.000000 0.376635
O O15 0.872288 0.669696 0.498929
O O16 0.000000 0.623253 0.500000
O O17 0.500000 0.359255 0.000000
#
# Coordination Sequence:
#
# PCOD8102919 Si02
#       7
#     8   8   8   8   8   8   8
#     4  11  22  37  61  84 115 156 194 231 284 344
#     4  11  23  38  59  86 118 156 190 238 291 342
#     4  10  20  37  60  82 111 152 195 238 289 345
#     4   9  19  35  55  83 116 145 180 236 294 339
#     4  10  22  40  57  82 117 154 193 234 283 342
#     4  10  21  39  58  82 117 149 190 242 284 340
#     4  10  21  36  56  87 115 150 192 236 281 342
#
# _framework density 18.410385000000002
#
# number of rings (size 3 to 8) (size 9 to 14) (size 15 to 20)
#    0.000    1.857    2.857    0.857    2.000    6.571 
#    0.000    0.000    0.000    0.000    0.000    2.000 
#    0.000    0.000    0.000    0.000    0.000    0.000 
#
# Total GULP energy -346916.129413 kJ/mol
# GULP energy per Si atom -12389.861765 kJ/mol
# Density = 1.836848 g / cm^3
# Si number density = 18.410385 Si / 1000 Ang^3
#
#
#
# Elastic Constant Matrix: (Units=GPa)
#
#
# Indices 1 2 3 4 5 6 
#
# 1 92.3629 43.4370 52.6605 0.0000 -1.4804 0.0000
# 2 43.4370 96.6504 41.0117 0.0000 16.1908 0.0000
# 3 52.6605 41.0117 86.5821 0.0000 -5.0900 0.0000
# 4 0.0000 0.0000 0.0000 11.1850 0.0000 -15.4202
# 5 -1.4804 16.1908 -5.0900 0.0000 24.1785 0.0000
# 6 0.0000 0.0000 0.0000 -15.4202 0.0000 9.5755
#
#
#
# Elastic Compliance Matrix: (Units=1/GPa)
#
#
# Indices 1 2 3 4 5 6 
#
# 1 0.018021 -0.004951 -0.008461 0.000000 0.002638 0.000000
# 2 -0.004951 0.017301 -0.005956 0.000000 -0.013142 0.000000
# 3 -0.008461 -0.005956 0.019968 0.000000 0.007674 0.000000
# 4 0.000000 0.000000 0.000000 -0.073274 0.000000 -0.117999
# 5 0.002638 -0.013142 0.007674 0.000000 0.051937 0.000000
# 6 0.000000 0.000000 0.000000 -0.117999 0.000000 -0.085591
#
#
# Mechanical properties :
#
#
# Convention : Reuss Voigt Hill
#
# Bulk Modulus (GPa) = 60.40691 61.09041 60.74866
# Shear Modulus (GPa) = -677.07934 18.22021 -329.42956
#
# Velocity S-wave (km/s) = -19.19814 3.14932 -13.39124
# Velocity P-wave (km/s) = 21.41360 6.81754 14.35381
#
# Compressibility (1/GPa) = 0.01655440
#
# Stress axis : x y z
#
# Youngs Moduli (GPa) = 55.48990 57.80140 50.07996
#
# Poissons Ratio (x) = 0.28617 0.42371
# Poissons Ratio (y) = 0.27473 0.29829
# Poissons Ratio (z) = 0.46948 0.34428
#
# Static dielectric constant tensor:
#      x y z
#    x 3.477820 0.000000 -0.079790 
#    y 0.000000 3.301420 0.000000 
#    z -0.079790 0.000000 3.417640 
# 
# 
# High freq. dielectric constant tensor:
#      x y z
#    x 1.725820 0.000000 -0.010570 
#    y 0.000000 1.705640 0.000000 
#    z -0.010570 0.000000 1.711600 
# 
# From -- ./inp_files/54335.got.cif
#   From: 2010.06.25/outbox.cif.g09.slc.cpg/sg12_28_cif.got.tgz:54335.got - 2010.06.28 00:19:55.
