data_PCOD8102594
_publ_section_title
;
Structure prediction by ZEFSAII (Michael W. Deem and Ramdas Pophale) SiO2 
 PCOD8102594
Probable space group: C 2/M
;
_chemical_formula_sum "Si O2"
_cell_formula_units_Z 64
_cell_length_a 24.519982
_cell_length_b 9.511073
_cell_length_c 31.247461
_cell_angle_alpha 90.000000
_cell_angle_beta 27.339516
_cell_angle_gamma 90.000000
_cell_volume 3346.764883
_symmetry_space_group_name_H-M "C 2/M"
_symmetry_group_IT_number 12
_symmetry_cell_setting 'monoclinic'
loop_
_space_group_symop_operation_xyz
x,y,z
-x,y,-z
-x,-y,-z
x,-y,z
1/2+x,1/2+y,z
1/2-x,1/2+y,-z
1/2-x,1/2-y,-z
1/2+x,1/2-y,z
loop_
_atom_site_type_symbol
_atom_site_label
_atom_site_fract_x
_atom_site_fract_y
_atom_site_fract_z
Si Si1 0.570534 0.159899 0.493027
Si Si2 0.823565 0.837795 0.809653
Si Si3 0.507802 0.654868 0.754732
Si Si4 0.411802 0.156711 0.978692
Si Si5 0.647510 0.346577 0.055387
Si Si6 0.694834 0.836425 0.667627
Si Si7 0.170945 0.343576 0.782627
Si Si8 0.355035 0.838832 0.703870
O O1 0.500000 0.206794 0.500000
O O2 0.677125 0.266420 0.425617
O O3 0.485757 0.171376 0.593089
O O4 0.618056 0.000000 0.454408
O O5 0.907926 0.793708 0.790576
O O6 0.858489 0.740844 0.746133
O O7 0.843940 0.000000 0.783022
O O8 0.683901 0.811917 0.917469
O O9 0.556981 0.500000 0.706706
O O10 0.451362 0.638991 0.840219
O O11 0.612919 0.767305 0.687574
O O12 0.407758 0.279450 0.947638
O O13 0.550520 0.160734 0.895617
O O14 0.382316 0.000000 0.980402
O O15 0.698615 0.500000 0.007969
O O16 0.750000 0.250000 0.000000
O O17 0.643412 0.814386 0.751533
O O18 0.705542 0.000000 0.648825
O O19 0.227237 0.500000 0.747944
O O20 0.261522 0.228506 0.736406
O O21 0.317285 0.000000 0.737479
#
# Coordination Sequence:
#
# PCOD8102594 Si02
#       8
#     8   8   8   8   8   8   8   8
#     4  10  21  40  64  88 117 151 187 238 303 362
#     4  10  22  41  61  81 116 165 206 239 283 346
#     4  10  21  37  58  84 119 162 198 236 294 352
#     4  10  20  37  57  84 120 158 201 239 290 348
#     4  11  20  31  52  82 115 152 198 246 288 335
#     4  11  22  35  60  96 124 147 186 247 299 345
#     4  10  21  36  58  88 122 155 189 239 296 350
#     4  11  24  41  62  86 115 153 198 245 293 353
#
# _framework density 19.122944
#
# number of rings (size 3 to 8) (size 9 to 14) (size 15 to 20)
#    0.000    1.625    3.750    1.125    0.000    4.250 
#    0.000    3.125    0.000    0.000    0.000    0.000 
#    0.000    0.000    0.000    0.000    0.000    0.000 
#
# Total GULP energy -396671.005722 kJ/mol
# GULP energy per Si atom -12395.968929 kJ/mol
# Density = 1.907942 g / cm^3
# Si number density = 19.122944 Si / 1000 Ang^3
#
#
#
# Elastic Constant Matrix: (Units=GPa)
#
#
# Indices 1 2 3 4 5 6 
#
# 1 54.1285 44.4924 28.4861 -0.0142 -1.4324 0.0397
# 2 44.4924 128.1107 50.0270 -0.0081 -7.1004 0.0374
# 3 28.4861 50.0270 92.3893 0.0015 -7.6446 0.0021
# 4 -0.0142 -0.0081 0.0015 31.4237 -0.0009 -0.3130
# 5 -1.4324 -7.1004 -7.6446 -0.0009 31.7126 -0.0065
# 6 0.0397 0.0374 0.0021 -0.3130 -0.0065 27.4141
#
#
#
# Elastic Compliance Matrix: (Units=1/GPa)
#
#
# Indices 1 2 3 4 5 6 
#
# 1 0.027115 -0.007848 -0.004240 0.000010 -0.001554 -0.000028
# 2 -0.007848 0.012198 -0.004070 0.000000 0.001396 -0.000005
# 3 -0.004240 -0.004070 0.014533 -0.000003 0.002401 0.000011
# 4 0.000010 0.000000 -0.000003 0.031827 0.000001 0.000363
# 5 -0.001554 0.001396 0.002401 0.000001 0.032354 0.000008
# 6 -0.000028 -0.000005 0.000011 0.000363 0.000008 0.036482
#
#
# Mechanical properties :
#
#
# Convention : Reuss Voigt Hill
#
# Bulk Modulus (GPa) = 46.44188 57.84883 52.14536
# Shear Modulus (GPa) = 25.77315 28.21826 26.99571
#
# Velocity S-wave (km/s) = 3.67517 3.84555 3.76133
# Velocity P-wave (km/s) = 6.50752 7.07350 6.79640
#
# Compressibility (1/GPa) = 0.02153229
#
# Stress axis : x y z
#
# Youngs Moduli (GPa) = 36.87973 81.98222 68.80749
#
# Poissons Ratio (x) = 0.64336 0.29172
# Poissons Ratio (y) = 0.28942 0.28003
# Poissons Ratio (z) = 0.15636 0.33365
#
# Static dielectric constant tensor:
#      x y z
#    x 3.421880 -0.000150 -0.039030 
#    y -0.000150 3.687340 0.000020 
#    z -0.039030 0.000020 3.455130 
# 
# 
# High freq. dielectric constant tensor:
#      x y z
#    x 1.726140 0.000000 -0.009560 
#    y 0.000000 1.755110 0.000000 
#    z -0.009560 0.000000 1.735690 
# 
# From -- ./inp_files/382242.got.cif
#   From: 2010.06.25/outbox.cif.g09.slc.cpg/sg12_192_cif.got.tgz:382242.got - 2010.06.28 00:19:55.
