data_PCOD8102208
_publ_section_title
;
Structure prediction by ZEFSAII (Michael W. Deem and Ramdas Pophale) SiO2 
 PCOD8102208
Probable space group: C 2/M
;
_chemical_formula_sum "Si O2"
_cell_formula_units_Z 64
_cell_length_a 24.038196
_cell_length_b 8.975499
_cell_length_c 31.267244
_cell_angle_alpha 90.000000
_cell_angle_beta 29.728482
_cell_angle_gamma 90.000000
_cell_volume 3345.305506
_symmetry_space_group_name_H-M "C 2/M"
_symmetry_group_IT_number 12
_symmetry_cell_setting 'monoclinic'
loop_
_space_group_symop_operation_xyz
x,y,z
-x,y,-z
-x,-y,-z
x,-y,z
1/2+x,1/2+y,z
1/2-x,1/2+y,-z
1/2-x,1/2-y,-z
1/2+x,1/2-y,z
loop_
_atom_site_type_symbol
_atom_site_label
_atom_site_fract_x
_atom_site_fract_y
_atom_site_fract_z
Si Si1 0.657069 0.173984 0.591761
Si Si2 0.345507 0.826946 0.234171
Si Si3 0.776278 0.823417 0.368372
Si Si4 0.684976 0.173756 0.278410
Si Si5 0.405137 0.171254 0.915864
Si Si6 0.902755 0.329965 0.754038
Si Si7 0.323067 0.325333 0.890808
Si Si8 0.024947 0.675921 0.529586
O O1 0.750000 0.250000 0.500000
O O2 0.652323 0.243918 0.642432
O O3 0.533068 0.200979 0.655087
O O4 0.685943 0.000000 0.575288
O O5 0.307146 0.735143 0.301037
O O6 0.286919 0.766125 0.230509
O O7 0.477884 0.802982 0.138059
O O8 0.316209 0.000000 0.260684
O O9 0.647620 0.779544 0.464168
O O10 0.796865 0.000000 0.356114
O O11 0.676787 0.202096 0.233394
O O12 0.568672 0.235336 0.375565
O O13 0.702916 0.000000 0.277055
O O14 0.407640 0.259489 0.869533
O O15 0.386835 0.000000 0.915935
O O16 0.304257 0.227483 0.013731
O O17 0.890815 0.500000 0.777245
O O18 0.857430 0.225396 0.821163
O O19 0.335187 0.500000 0.884488
O O20 0.016793 0.500000 0.531395
O O21 0.000000 0.748195 0.500000
#
# Coordination Sequence:
#
# PCOD8102208 Si02
#       8
#     8   8   8   8   8   8   8   8
#     4  11  23  39  57  81 113 148 185 226 276 328
#     4  11  22  36  54  81 114 144 177 225 283 330
#     4  11  21  35  57  82 110 145 186 229 276 329
#     4  10  20  37  57  77 104 146 193 228 266 325
#     4   9  20  38  58  82 115 146 173 218 282 339
#     4  10  22  39  58  79 112 153 185 221 278 336
#     4  10  20  36  61  88 109 139 185 228 268 324
#     4   9  16  31  54  76 102 142 185 223 265 317
#
# _framework density 19.131287
#
# number of rings (size 3 to 8) (size 9 to 14) (size 15 to 20)
#    0.000    1.875    1.250    3.000    0.000    8.000 
#    0.000    3.750    0.000    3.750    0.000    0.000 
#    0.000    0.000    0.000    0.000    0.000    0.000 
#
# Total GULP energy -396837.903485 kJ/mol
# GULP energy per Si atom -12401.184484 kJ/mol
# Density = 1.908774 g / cm^3
# Si number density = 19.131287 Si / 1000 Ang^3
#
#
#
# Elastic Constant Matrix: (Units=GPa)
#
#
# Indices 1 2 3 4 5 6 
#
# 1 112.0972 48.6107 39.0542 -0.0017 -9.4631 0.0121
# 2 48.6107 84.0801 39.7817 0.0014 -5.1398 -0.0015
# 3 39.0542 39.7817 84.6301 -0.0022 -3.0784 0.0041
# 4 -0.0017 0.0014 -0.0022 28.7753 -0.0020 1.2368
# 5 -9.4631 -5.1398 -3.0784 -0.0020 29.3766 0.0058
# 6 0.0121 -0.0015 0.0041 1.2368 0.0058 32.4951
#
#
#
# Elastic Compliance Matrix: (Units=1/GPa)
#
#
# Indices 1 2 3 4 5 6 
#
# 1 0.012707 -0.005723 -0.003073 0.000001 0.002770 -0.000005
# 2 -0.005723 0.017983 -0.005787 -0.000002 0.000696 0.000004
# 3 -0.003073 -0.005787 0.015942 0.000001 -0.000332 -0.000001
# 4 0.000001 -0.000002 0.000001 0.034809 0.000003 -0.001325
# 5 0.002770 0.000696 -0.000332 0.000003 0.035020 -0.000007
# 6 -0.000005 0.000004 -0.000001 -0.001325 -0.000007 0.030824
#
#
# Mechanical properties :
#
#
# Convention : Reuss Voigt Hill
#
# Bulk Modulus (GPa) = 57.25256 59.52229 58.38742
# Shear Modulus (GPa) = 27.43132 28.35345 27.89239
#
# Velocity S-wave (km/s) = 3.79072 3.85391 3.82245
# Velocity P-wave (km/s) = 7.01075 7.14028 7.07581
#
# Compressibility (1/GPa) = 0.01746647
#
# Stress axis : x y z
#
# Youngs Moduli (GPa) = 78.69567 55.60852 62.72671
#
# Poissons Ratio (x) = 0.31827 0.19275
# Poissons Ratio (y) = 0.45041 0.36298
# Poissons Ratio (z) = 0.24182 0.32179
#
# Static dielectric constant tensor:
#      x y z
#    x 3.564780 -0.000010 -0.158500 
#    y -0.000010 3.429430 0.000000 
#    z -0.158500 0.000000 3.580630 
# 
# 
# High freq. dielectric constant tensor:
#      x y z
#    x 1.746860 0.000000 -0.006360 
#    y 0.000000 1.735890 0.000000 
#    z -0.006360 0.000000 1.741250 
# 
# From -- ./inp_files/382290.got.cif
#   From: 2010.06.25/outbox.cif.g09.slc.cpg/sg12_192_cif.got.tgz:382290.got - 2010.06.28 00:19:55.
