data_PCOD8102575
_publ_section_title
;
Structure prediction by ZEFSAII (Michael W. Deem and Ramdas Pophale) SiO2 
 PCOD8102575
Probable space group: C 2/M
;
_chemical_formula_sum "Si O2"
_cell_formula_units_Z 56
_cell_length_a 11.390050
_cell_length_b 26.592067
_cell_length_c 12.808962
_cell_angle_alpha 90.000000
_cell_angle_beta 47.350295
_cell_angle_gamma 90.000000
_cell_volume 2853.514051
_symmetry_space_group_name_H-M "C 2/M"
_symmetry_group_IT_number 12
_symmetry_cell_setting 'monoclinic'
loop_
_space_group_symop_operation_xyz
x,y,z
-x,y,-z
-x,-y,-z
x,-y,z
1/2+x,1/2+y,z
1/2-x,1/2+y,-z
1/2-x,1/2-y,-z
1/2+x,1/2-y,z
loop_
_atom_site_type_symbol
_atom_site_label
_atom_site_fract_x
_atom_site_fract_y
_atom_site_fract_z
Si Si1 0.856395 0.392762 0.719150
Si Si2 0.211740 0.369437 0.544576
Si Si3 0.640906 0.558012 0.686316
Si Si4 0.290921 0.802961 0.023752
Si Si5 0.820171 0.705762 0.615205
Si Si6 0.389962 0.612133 0.971762
Si Si7 0.845155 0.694134 0.231315
O O1 0.796752 0.429222 0.662447
O O2 0.810086 0.335047 0.715584
O O3 0.043951 0.397523 0.623853
O O4 0.770672 0.409837 0.878476
O O5 0.347286 0.409766 0.428664
O O6 0.227051 0.320115 0.464576
O O7 0.233677 0.350154 0.650457
O O8 0.637113 0.500000 0.658559
O O9 0.479092 0.570999 0.847082
O O10 0.153308 0.840330 0.071156
O O11 0.278795 0.806463 0.155105
O O12 0.250000 0.750000 0.000000
O O13 0.466423 0.817194 0.877206
O O14 0.693618 0.750277 0.703913
O O15 0.000000 0.727637 0.500000
O O16 0.500000 0.631137 0.000000
#
# Coordination Sequence:
#
# PCOD8102575 Si02
#       7
#     8   8   8   8   8   8   8
#     4   9  18  35  57  83 120 161 192 247 305 359
#     4  10  20  37  57  81 123 161 195 248 302 366
#     4  10  22  37  61  93 117 149 201 261 322 363
#     4  11  25  36  58  89 121 161 212 248 289 354
#     4   9  19  33  54  83 120 161 202 238 291 352
#     4  10  21  38  61  82 126 158 196 252 308 353
#     4  11  23  37  58  85 121 167 209 241 287 367
#
# _framework density 19.624925000000001
#
# number of rings (size 3 to 8) (size 9 to 14) (size 15 to 20)
#    0.000    2.000    1.429    2.571   10.000    4.857 
#    0.000    0.000    0.000    1.714    0.000    2.000 
#    0.000    0.000    0.000    0.000    0.000    0.000 
#
# Total GULP energy -347067.299386 kJ/mol
# GULP energy per Si atom -12395.260692 kJ/mol
# Density = 1.958026 g / cm^3
# Si number density = 19.624925 Si / 1000 Ang^3
#
#
#
# Elastic Constant Matrix: (Units=GPa)
#
#
# Indices 1 2 3 4 5 6 
#
# 1 51.3513 34.9839 31.2408 0.0000 11.8694 0.0000
# 2 34.9839 107.3663 54.3534 0.0000 10.3015 0.0000
# 3 31.2408 54.3534 142.2940 0.0000 12.8052 0.0000
# 4 0.0000 0.0000 0.0000 25.5256 0.0000 -4.9713
# 5 11.8694 10.3015 12.8052 0.0000 24.6180 0.0000
# 6 0.0000 0.0000 0.0000 -4.9713 0.0000 13.4781
#
#
#
# Elastic Compliance Matrix: (Units=1/GPa)
#
#
# Indices 1 2 3 4 5 6 
#
# 1 0.027896 -0.006851 -0.002681 0.000000 -0.009189 0.000000
# 2 -0.006851 0.013398 -0.003574 0.000000 -0.000445 0.000000
# 3 -0.002681 -0.003574 0.009159 0.000000 -0.001976 0.000000
# 4 0.000000 0.000000 0.000000 0.042208 0.000000 0.015568
# 5 -0.009189 -0.000445 -0.001976 0.000000 0.046265 0.000000
# 6 0.000000 0.000000 0.000000 0.015568 0.000000 0.079936
#
#
# Mechanical properties :
#
#
# Convention : Reuss Voigt Hill
#
# Bulk Modulus (GPa) = 41.24997 60.24087 50.74542
# Shear Modulus (GPa) = 19.75088 24.75325 22.25207
#
# Velocity S-wave (km/s) = 3.17585 3.55536 3.37095
# Velocity P-wave (km/s) = 5.87476 6.90049 6.40818
#
# Compressibility (1/GPa) = 0.02424244
#
# Stress axis : x y z
#
# Youngs Moduli (GPa) = 35.84797 74.63869 109.18000
#
# Poissons Ratio (x) = 0.51132 0.29269
# Poissons Ratio (y) = 0.24558 0.39017
# Poissons Ratio (z) = 0.09610 0.26673
#
# Static dielectric constant tensor:
#      x y z
#    x 3.356820 0.000000 -0.030130 
#    y 0.000000 3.184730 0.000000 
#    z -0.030130 0.000000 3.992680 
# 
# 
# High freq. dielectric constant tensor:
#      x y z
#    x 1.736480 0.000000 -0.006260 
#    y 0.000000 1.726890 0.000000 
#    z -0.006260 0.000000 1.790730 
# 
# From -- ./inp_files/136922.got.cif
#   From: 2010.06.25/outbox.cif.g09.slc.cpg/sg12_69_cif.got.tgz:136922.got - 2010.06.28 00:19:55.
