data_PCOD8102067
_publ_section_title
;
Structure prediction by ZEFSAII (Michael W. Deem and Ramdas Pophale) SiO2 
 PCOD8102067
Probable space group: C 2/M
;
_chemical_formula_sum "Si O2"
_cell_formula_units_Z 48
_cell_length_a 31.297410
_cell_length_b 13.533121
_cell_length_c 15.683278
_cell_angle_alpha 90.000000
_cell_angle_beta 19.885263
_cell_angle_gamma 90.000000
_cell_volume 2259.425160
_symmetry_space_group_name_H-M "C 2/M"
_symmetry_group_IT_number 12
_symmetry_cell_setting 'monoclinic'
loop_
_space_group_symop_operation_xyz
x,y,z
-x,y,-z
-x,-y,-z
x,-y,z
1/2+x,1/2+y,z
1/2-x,1/2+y,-z
1/2-x,1/2-y,-z
1/2+x,1/2-y,z
loop_
_atom_site_type_symbol
_atom_site_label
_atom_site_fract_x
_atom_site_fract_y
_atom_site_fract_z
Si Si1 0.145044 0.110168 0.214698
Si Si2 0.711260 0.252765 0.935041
Si Si3 0.860173 0.884057 0.249824
Si Si4 0.219119 0.611947 0.347440
Si Si5 0.630359 0.886005 0.789728
Si Si6 0.063491 0.610546 0.102049
O O1 0.196160 0.172494 0.198145
O O2 0.000000 0.096119 0.500000
O O3 0.207289 0.000000 0.093660
O O4 0.165342 0.168236 0.089336
O O5 0.781109 0.313494 0.730811
O O6 0.595147 0.191123 0.114550
O O7 0.821285 0.856580 0.226288
O O8 0.755759 0.838842 0.511223
O O9 0.865409 0.000000 0.254963
O O10 0.000000 0.838726 0.000000
O O11 0.247048 0.500000 0.263207
O O12 0.083011 0.617225 0.646771
O O13 0.626635 0.000000 0.771212
O O14 0.500000 0.837353 0.000000
O O15 0.642848 0.868891 0.867536
O O16 0.094735 0.500000 0.077674
#
# Coordination Sequence:
#
# PCOD8102067 Si02
#       6
#     8   8   8   8   8   8
#     4  10  22  42  64  85 117 154 186 231 300 374
#     4  11  22  38  61  91 118 147 194 246 296 359
#     4   9  17  32  54  83 120 163 209 250 294 347
#     4  10  20  37  60  86 121 160 200 251 301 345
#     4   9  15  30  56  81 113 164 210 243 290 349
#     4  10  20  36  60  88 119 158 206 251 292 345
#
# _framework density 21.244343000000001
#
# number of rings (size 3 to 8) (size 9 to 14) (size 15 to 20)
#    0.000    2.167    1.667    2.000    0.000    0.000 
#    6.000    1.667    0.000    8.000    0.000    0.000 
#    0.000    0.000    0.000    0.000    0.000    0.000 
#
# Total GULP energy -297478.322530 kJ/mol
# GULP energy per Si atom -12394.930105 kJ/mol
# Density = 2.119599 g / cm^3
# Si number density = 21.244343 Si / 1000 Ang^3
#
#
#
# Elastic Constant Matrix: (Units=GPa)
#
#
# Indices 1 2 3 4 5 6 
#
# 1 130.1522 60.4469 64.7834 -0.0001 -0.7680 0.0004
# 2 60.4469 138.6481 39.7687 -0.0001 5.6244 0.0008
# 3 64.7834 39.7687 129.5458 -0.0002 -2.4468 0.0011
# 4 -0.0001 -0.0001 -0.0002 -15.3591 0.0001 111.3640
# 5 -0.7680 5.6244 -2.4468 0.0001 28.8001 -0.0006
# 6 0.0004 0.0008 0.0011 111.3640 -0.0006 -689.7423
#
#
#
# Elastic Compliance Matrix: (Units=1/GPa)
#
#
# Indices 1 2 3 4 5 6 
#
# 1 0.011813 -0.003823 -0.004721 0.000000 0.000660 0.000000
# 2 -0.003823 0.009235 -0.000961 0.000000 -0.001987 0.000000
# 3 -0.004721 -0.000961 0.010393 0.000000 0.000945 0.000000
# 4 0.000000 0.000000 0.000000 0.381476 0.000000 0.061592
# 5 0.000660 -0.001987 0.000945 0.000000 0.035208 0.000000
# 6 0.000000 0.000000 0.000000 0.061592 0.000000 0.008495
#
#
# Mechanical properties :
#
#
# Convention : Reuss Voigt Hill
#
# Bulk Modulus (GPa) = 80.44238 80.92711 80.68474
# Shear Modulus (GPa) = 10.42159 -119.70380 -54.64111
#
# Velocity S-wave (km/s) = 2.21726 -7.51455 -5.07702
# Velocity P-wave (km/s) = 6.67102 6.09222 1.92189
#
# Compressibility (1/GPa) = 0.01243126
#
# Stress axis : x y z
#
# Youngs Moduli (GPa) = 84.65574 108.28021 96.21691
#
# Poissons Ratio (x) = 0.41390 0.45427
# Poissons Ratio (y) = 0.32360 0.09247
# Poissons Ratio (z) = 0.39969 0.10406
#
# Static dielectric constant tensor:
#      x y z
#    x 3.734160 0.000000 -0.037900 
#    y 0.000000 3.991880 0.000000 
#    z -0.037900 0.000000 3.879880 
# 
# 
# High freq. dielectric constant tensor:
#      x y z
#    x 1.825620 0.000000 0.000530 
#    y 0.000000 1.851820 0.000000 
#    z 0.000530 0.000000 1.824460 
# 
# From -- ./inp_files/251422.got.cif
#   From: 2010.06.25/outbox.cif.g09.slc.cpg/sg12_126_cif.got.tgz:251422.got - 2010.06.28 00:19:55.
