data_PCOD8102182
_publ_section_title
;
Structure prediction by ZEFSAII (Michael W. Deem and Ramdas Pophale) SiO2 
 PCOD8102182
Probable space group: C 2/M
;
_chemical_formula_sum "Si O2"
_cell_formula_units_Z 64
_cell_length_a 19.071195
_cell_length_b 23.118895
_cell_length_c 9.837291
_cell_angle_alpha 90.000000
_cell_angle_beta 45.650207
_cell_angle_gamma 90.000000
_cell_volume 3101.547755
_symmetry_space_group_name_H-M "C 2/M"
_symmetry_group_IT_number 12
_symmetry_cell_setting 'monoclinic'
loop_
_space_group_symop_operation_xyz
x,y,z
-x,y,-z
-x,-y,-z
x,-y,z
1/2+x,1/2+y,z
1/2-x,1/2+y,-z
1/2-x,1/2-y,-z
1/2+x,1/2-y,z
loop_
_atom_site_type_symbol
_atom_site_label
_atom_site_fract_x
_atom_site_fract_y
_atom_site_fract_z
Si Si1 0.450229 0.328274 0.420505
Si Si2 0.617655 0.888098 0.349546
Si Si3 0.323314 0.066430 0.015648
Si Si4 0.517474 0.854796 0.121458
Si Si5 0.610853 0.256582 0.096375
Si Si6 0.812577 0.261251 0.717631
Si Si7 0.656713 0.934984 0.566710
Si Si8 0.174602 0.065501 0.449343
O O1 0.500000 0.331298 0.500000
O O2 0.527127 0.305854 0.202118
O O3 0.357679 0.283827 0.547715
O O4 0.416610 0.391375 0.417002
O O5 0.500000 0.899795 0.500000
O O6 0.672693 0.899229 0.131904
O O7 0.637724 0.823056 0.371588
O O8 0.671401 0.931412 0.383482
O O9 0.405271 0.093083 0.004008
O O10 0.348091 0.000000 0.954283
O O11 0.222237 0.074236 0.234776
O O12 0.559111 0.806332 0.166000
O O13 0.420292 0.883603 0.309543
O O14 0.500000 0.824768 0.000000
O O15 0.663688 0.264695 0.167818
O O16 0.693130 0.263635 0.866315
O O17 0.752548 0.920620 0.524712
O O18 0.620641 0.000000 0.654230
O O19 0.135594 0.000000 0.515559
#
# Coordination Sequence:
#
# PCOD8102182 Si02
#       8
#     8   8   8   8   8   8   8   8
#     4  10  21  38  66  90 114 157 203 252 302 361
#     4  12  22  36  59  88 125 159 206 249 292 357
#     4  11  22  35  59  88 121 160 203 250 297 356
#     4  12  21  34  57  85 124 159 199 246 300 371
#     4  10  21  38  58  87 120 157 199 244 308 358
#     4  10  20  36  61  85 119 156 193 252 302 355
#     4  11  23  37  56  84 123 165 196 241 311 365
#     4  10  23  42  60  86 122 158 198 251 308 361
#
# _framework density 20.634858999999999
#
# number of rings (size 3 to 8) (size 9 to 14) (size 15 to 20)
#    0.000    1.250    3.750    3.375    3.500    1.250 
#    2.250    1.250    0.000    0.000    0.000    1.750 
#    0.000    0.000    0.000    0.000    0.000    0.000 
#
# Total GULP energy -396649.465108 kJ/mol
# GULP energy per Si atom -12395.295785 kJ/mol
# Density = 2.058789 g / cm^3
# Si number density = 20.634859 Si / 1000 Ang^3
#
#
#
# Elastic Constant Matrix: (Units=GPa)
#
#
# Indices 1 2 3 4 5 6 
#
# 1 62.3304 40.8306 45.3111 0.0000 -3.1046 0.0000
# 2 40.8306 123.3525 43.3175 0.0000 -22.5168 0.0000
# 3 45.3111 43.3175 91.5399 0.0000 -18.9017 0.0000
# 4 0.0000 0.0000 0.0000 28.9964 0.0000 -9.5168
# 5 -3.1046 -22.5168 -18.9017 0.0000 28.3315 0.0000
# 6 0.0000 0.0000 0.0000 -9.5168 0.0000 33.5129
#
#
#
# Elastic Compliance Matrix: (Units=1/GPa)
#
#
# Indices 1 2 3 4 5 6 
#
# 1 0.030471 -0.007309 -0.014073 0.000000 -0.011858 0.000000
# 2 -0.007309 0.012245 -0.000386 0.000000 0.008673 0.000000
# 3 -0.014073 -0.000386 0.020517 0.000000 0.011840 0.000000
# 4 0.000000 0.000000 0.000000 0.038032 0.000000 0.010800
# 5 -0.011858 0.008673 0.011840 0.000000 0.048789 0.000000
# 6 0.000000 0.000000 0.000000 0.010800 0.000000 0.032906
#
#
# Mechanical properties :
#
#
# Convention : Reuss Voigt Hill
#
# Bulk Modulus (GPa) = 50.76511 59.57126 55.16819
# Shear Modulus (GPa) = 21.45367 28.01907 24.73637
#
# Velocity S-wave (km/s) = 3.22791 3.68890 3.46608
# Velocity P-wave (km/s) = 6.20867 6.86119 6.54307
#
# Compressibility (1/GPa) = 0.01969857
#
# Stress axis : x y z
#
# Youngs Moduli (GPa) = 32.81833 81.66734 48.73957
#
# Poissons Ratio (x) = 0.59689 0.68590
# Poissons Ratio (y) = 0.23986 0.01879
# Poissons Ratio (z) = 0.46184 0.03149
#
# Static dielectric constant tensor:
#      x y z
#    x 3.740680 0.000000 0.024620 
#    y 0.000000 3.684820 0.000000 
#    z 0.024620 0.000000 3.778560 
# 
# 
# High freq. dielectric constant tensor:
#      x y z
#    x 1.786140 0.000000 0.002340 
#    y 0.000000 1.811290 0.000000 
#    z 0.002340 0.000000 1.790080 
# 
# From -- ./inp_files/169670.got.cif
#   From: 2010.06.25/outbox.cif.g09.slc.cpg/sg12_85_cif.got.tgz:169670.got - 2010.06.28 00:19:55.
