data_PCOD8102198
_publ_section_title
;
Structure prediction by ZEFSAII (Michael W. Deem and Ramdas Pophale) SiO2 
 PCOD8102198
Probable space group: C 2/M
;
_chemical_formula_sum "Si O2"
_cell_formula_units_Z 40
_cell_length_a 28.289014
_cell_length_b 10.789683
_cell_length_c 4.991474
_cell_angle_alpha 90.000000
_cell_angle_beta 97.216579
_cell_angle_gamma 90.000000
_cell_volume 1511.476156
_symmetry_space_group_name_H-M "C 2/M"
_symmetry_group_IT_number 12
_symmetry_cell_setting 'monoclinic'
loop_
_space_group_symop_operation_xyz
x,y,z
-x,y,-z
-x,-y,-z
x,-y,z
1/2+x,1/2+y,z
1/2-x,1/2+y,-z
1/2-x,1/2-y,-z
1/2+x,1/2-y,z
loop_
_atom_site_type_symbol
_atom_site_label
_atom_site_fract_x
_atom_site_fract_y
_atom_site_fract_z
Si Si1 0.031636 0.641071 0.285507
Si Si2 0.321373 0.500000 0.679867
Si Si3 0.114705 0.500000 0.719004
Si Si4 0.820851 0.500000 0.722936
Si Si5 0.901410 0.746224 0.056942
Si Si6 0.793155 0.248398 0.827371
Si Si7 0.886326 0.000000 0.226790
O O1 0.048632 0.500000 0.381803
O O2 0.000000 0.702957 0.500000
O O3 0.076916 0.726109 0.227063
O O4 0.000000 0.632542 0.000000
O O5 0.290135 0.626656 0.631630
O O6 0.365907 0.500000 0.511896
O O7 0.341393 0.500000 0.995557
O O8 0.133971 0.500000 0.434928
O O9 0.083502 0.627384 0.744208
O O10 0.158289 0.500000 0.960457
O O11 0.789367 0.376035 0.652803
O O12 0.918567 0.876685 0.198192
O O13 0.844226 0.750873 0.009928
O O14 0.750000 0.250000 0.000000
#
# Coordination Sequence:
#
# PCOD8102198 Si02
#       7
#     8   4   4   4   8   8   4
#     4  10  22  40  64  94 124 159 203 259 319 373
#     4  10  21  40  56  85 122 166 202 249 302 366
#     4  10  20  36  61  87 116 154 206 253 307 354
#     4  10  21  36  56  87 116 156 206 257 294 354
#     4  10  21  41  61  93 123 166 203 259 308 373
#     4  10  21  39  62  90 125 165 210 255 308 368
#     4  10  22  38  63  85 122 162 202 241 311 368
#
# _framework density 26.464196999999999
#
# number of rings (size 3 to 8) (size 9 to 14) (size 15 to 20)
#    0.000    2.000    1.000    1.800    0.000    6.400 
#    0.000   25.000    0.000    0.000    0.000    0.000 
#    0.000    0.000    0.000    0.000    0.000    0.000 
#
# Total GULP energy -247878.212981 kJ/mol
# GULP energy per Si atom -12393.910649 kJ/mol
# Density = 2.640396 g / cm^3
# Si number density = 26.464197 Si / 1000 Ang^3
#
#
#
# Elastic Constant Matrix: (Units=GPa)
#
#
# Indices 1 2 3 4 5 6 
#
# 1 94.6105 35.9661 45.3792 0.0000 -39.2957 0.0000
# 2 35.9661 308.1210 78.4083 0.0000 -47.4708 0.0000
# 3 45.3792 78.4083 125.0890 0.0000 -60.8303 0.0000
# 4 0.0000 0.0000 0.0000 -452.9224 0.0000 -745.1302
# 5 -39.2957 -47.4708 -60.8303 0.0000 62.2441 0.0000
# 6 0.0000 0.0000 0.0000 -745.1302 0.0000-1069.8788
#
#
#
# Elastic Compliance Matrix: (Units=1/GPa)
#
#
# Indices 1 2 3 4 5 6 
#
# 1 0.014485 -0.000147 -0.001468 0.000000 0.007598 0.000000
# 2 -0.000147 0.003903 -0.001888 0.000000 0.001039 0.000000
# 3 -0.001468 -0.001888 0.016311 0.000000 0.013574 0.000000
# 4 0.000000 0.000000 0.000000 0.015144 0.000000 -0.010547
# 5 0.007598 0.001039 0.013574 0.000000 0.034921 0.000000
# 6 0.000000 0.000000 0.000000 -0.010547 0.000000 0.006411
#
#
# Mechanical properties :
#
#
# Convention : Reuss Voigt Hill
#
# Bulk Modulus (GPa) = 36.10813 94.14753 65.12783
# Shear Modulus (GPa) = 46.54924 -267.57364 -110.51220
#
# Velocity S-wave (km/s) = 4.19854 -10.06615 -6.46914
# Velocity P-wave (km/s) = 6.09732 9.97248 5.58001
#
# Compressibility (1/GPa) = 0.02769460
#
# Stress axis : x y z
#
# Youngs Moduli (GPa) = 69.03477 256.20416 61.30657
#
# Poissons Ratio (x) = 0.03757 0.08999
# Poissons Ratio (y) = 0.01012 0.11576
# Poissons Ratio (z) = 0.10134 0.48375
#
# Static dielectric constant tensor:
#      x y z
#    x 4.558380 0.000000 -0.208880 
#    y 0.000000 7.151580 0.000000 
#    z -0.208880 0.000000 4.788490 
# 
# 
# High freq. dielectric constant tensor:
#      x y z
#    x 2.053620 0.000000 -0.003810 
#    y 0.000000 2.076710 0.000000 
#    z -0.003810 0.000000 2.063530 
# 
# From -- ./inp_files/30623.got.cif
#   From: 2010.06.25/outbox.cif.g09.slc.cpg/sg12_16_cif.got.tgz:30623.got - 2010.06.28 00:19:55.
