data_PCOD8102328
_publ_section_title
;
Structure prediction by ZEFSAII (Michael W. Deem and Ramdas Pophale) SiO2 
 PCOD8102328
Probable space group: C 2/M
;
_chemical_formula_sum "Si O2"
_cell_formula_units_Z 64
_cell_length_a 30.080226
_cell_length_b 11.787184
_cell_length_c 17.496509
_cell_angle_alpha 90.000000
_cell_angle_beta 29.879395
_cell_angle_gamma 90.000000
_cell_volume 3090.475605
_symmetry_space_group_name_H-M "C 2/M"
_symmetry_group_IT_number 12
_symmetry_cell_setting 'monoclinic'
loop_
_space_group_symop_operation_xyz
x,y,z
-x,y,-z
-x,-y,-z
x,-y,z
1/2+x,1/2+y,z
1/2-x,1/2+y,-z
1/2-x,1/2-y,-z
1/2+x,1/2-y,z
loop_
_atom_site_type_symbol
_atom_site_label
_atom_site_fract_x
_atom_site_fract_y
_atom_site_fract_z
Si Si1 0.570311 0.220831 0.216194
Si Si2 0.416205 0.628839 0.082990
Si Si3 0.595679 0.310320 0.338862
Si Si4 0.248202 0.239494 0.317755
Si Si5 0.507901 0.625599 0.793832
Si Si6 0.782491 0.624474 0.112066
Si Si7 0.095878 0.372454 0.465775
Si Si8 0.293849 0.367211 0.469961
O O1 0.606296 0.296032 0.232417
O O2 0.508015 0.291276 0.252237
O O3 0.503942 0.126083 0.349906
O O4 0.657698 0.175010 0.044502
O O5 0.409993 0.500000 0.120957
O O6 0.323641 0.684909 0.246755
O O7 0.500000 0.688958 0.000000
O O8 0.428446 0.638108 0.973489
O O9 0.500000 0.370230 0.500000
O O10 0.678951 0.384824 0.241782
O O11 0.597886 0.191043 0.381460
O O12 0.292990 0.193326 0.174037
O O13 0.162357 0.315353 0.427311
O O14 0.222302 0.138830 0.414271
O O15 0.508182 0.500000 0.757959
O O16 0.600511 0.647318 0.701041
O O17 0.819117 0.500000 0.074043
O O18 0.127455 0.500000 0.403204
O O19 0.264186 0.500000 0.489357
O O20 0.250000 0.250000 0.500000
#
# Coordination Sequence:
#
# PCOD8102328 Si02
#       8
#     8   8   8   8   8   8   8   8
#     4  11  20  40  59  86 122 158 200 250 305 376
#     4  10  20  36  62  89 117 157 204 256 309 366
#     4   9  22  39  59  87 118 154 205 256 295 362
#     4  11  21  39  61  88 125 156 203 254 304 377
#     4  10  21  39  62  89 121 160 206 256 309 367
#     4  11  23  38  59  86 119 160 195 241 307 370
#     4  10  21  37  61  89 119 161 206 257 309 362
#     4  11  24  43  67  94 127 167 211 266 319 375
#
# _framework density 20.708786
#
# number of rings (size 3 to 8) (size 9 to 14) (size 15 to 20)
#    0.000    1.625    2.500    2.250    0.000    5.500 
#    0.000    0.000    0.000    1.500    0.000    0.000 
#    0.000    0.000    0.000    0.000    0.000    0.000 
#
# Total GULP energy -396535.397151 kJ/mol
# GULP energy per Si atom -12391.731161 kJ/mol
# Density = 2.066165 g / cm^3
# Si number density = 20.708786 Si / 1000 Ang^3
#
#
#
# Elastic Constant Matrix: (Units=GPa)
#
#
# Indices 1 2 3 4 5 6 
#
# 1 65.3643 20.1546 6.6418 0.0000 -10.9003 0.0000
# 2 20.1546 90.4708 16.0166 0.0000 -2.2980 0.0000
# 3 6.6418 16.0166 97.7482 0.0000 -1.7963 0.0000
# 4 0.0000 0.0000 0.0000 18.5740 0.0000 2.7398
# 5 -10.9003 -2.2980 -1.7963 0.0000 34.5325 0.0000
# 6 0.0000 0.0000 0.0000 2.7398 0.0000 15.3787
#
#
#
# Elastic Compliance Matrix: (Units=1/GPa)
#
#
# Indices 1 2 3 4 5 6 
#
# 1 0.017340 -0.003645 -0.000485 0.000000 0.005206 0.000000
# 2 -0.003645 0.012165 -0.001754 0.000000 -0.000432 0.000000
# 3 -0.000485 -0.001754 0.010556 0.000000 0.000279 0.000000
# 4 0.000000 0.000000 0.000000 0.055292 0.000000 -0.009851
# 5 0.005206 -0.000432 0.000279 0.000000 0.030587 0.000000
# 6 0.000000 0.000000 0.000000 -0.009851 0.000000 0.066780
#
#
# Mechanical properties :
#
#
# Convention : Reuss Voigt Hill
#
# Bulk Modulus (GPa) = 35.34408 37.68994 36.51701
# Shear Modulus (GPa) = 23.37343 27.74839 25.56091
#
# Velocity S-wave (km/s) = 3.36322 3.66448 3.51708
# Velocity P-wave (km/s) = 5.67326 6.01199 5.84508
#
# Compressibility (1/GPa) = 0.02829328
#
# Stress axis : x y z
#
# Youngs Moduli (GPa) = 57.66961 82.20490 94.73466
#
# Poissons Ratio (x) = 0.29962 0.04598
# Poissons Ratio (y) = 0.21019 0.16612
# Poissons Ratio (z) = 0.02799 0.14415
#
# Static dielectric constant tensor:
#      x y z
#    x 3.714750 0.000000 -0.021650 
#    y 0.000000 3.588810 0.000000 
#    z -0.021650 0.000000 3.848970 
# 
# 
# High freq. dielectric constant tensor:
#      x y z
#    x 1.814520 0.000000 0.004990 
#    y 0.000000 1.789870 0.000000 
#    z 0.004990 0.000000 1.823870 
# 
# From -- ./inp_files/296449.got.cif
#   From: 2010.06.25/outbox.cif.g09.slc.cpg/sg12_149_cif.got.tgz:296449.got - 2010.06.28 00:19:55.
