data_PCOD8102158
_publ_section_title
;
Structure prediction by ZEFSAII (Michael W. Deem and Ramdas Pophale) SiO2 
 PCOD8102158
Probable space group: C 2/M
;
_chemical_formula_sum "Si O2"
_cell_formula_units_Z 48
_cell_length_a 12.191041
_cell_length_b 18.914523
_cell_length_c 12.959501
_cell_angle_alpha 90.000000
_cell_angle_beta 137.793474
_cell_angle_gamma 90.000000
_cell_volume 2007.556018
_symmetry_space_group_name_H-M "C 2/M"
_symmetry_group_IT_number 12
_symmetry_cell_setting 'monoclinic'
loop_
_space_group_symop_operation_xyz
x,y,z
-x,y,-z
-x,-y,-z
x,-y,z
1/2+x,1/2+y,z
1/2-x,1/2+y,-z
1/2-x,1/2-y,-z
1/2+x,1/2-y,z
loop_
_atom_site_type_symbol
_atom_site_label
_atom_site_fract_x
_atom_site_fract_y
_atom_site_fract_z
Si Si1 0.397438 0.795370 0.521452
Si Si2 0.582185 0.919846 0.175377
Si Si3 0.149709 0.079923 0.793382
Si Si4 0.834188 0.143649 0.493803
Si Si5 0.130332 0.306860 0.862172
Si Si6 0.654297 0.579346 0.035091
O O1 0.500000 0.830192 0.500000
O O2 0.258752 0.851310 0.459405
O O3 0.321118 0.720944 0.429956
O O4 0.500170 0.771029 0.695801
O O5 0.659865 0.910117 0.113166
O O6 0.739587 0.913825 0.359654
O O7 0.452449 0.858144 0.110197
O O8 0.509379 0.000000 0.137914
O O9 0.123783 0.100954 0.894279
O O10 0.024513 0.124736 0.637114
O O11 0.095270 0.000000 0.740253
O O12 0.250000 0.250000 0.000000
O O13 0.221194 0.359767 0.843677
O O14 0.726915 0.500000 0.093315
O O15 0.500000 0.586300 0.000000
#
# Coordination Sequence:
#
# PCOD8102158 Si02
#       6
#     8   8   8   8   8   8
#     4  10  22  38  59  88 126 171 212 262 325 390
#     4  10  21  39  66  97 130 166 214 273 329 392
#     4  10  20  36  63  94 122 162 212 267 328 386
#     4  10  20  36  60  91 127 164 208 265 325 387
#     4  11  24  43  63  95 129 173 216 275 329 390
#     4  10  23  43  63  87 126 175 223 271 323 389
#
# _framework density 23.909669999999998
#
# number of rings (size 3 to 8) (size 9 to 14) (size 15 to 20)
#    0.000    1.833    0.000    3.500    2.333    2.000 
#    6.000    2.500    0.000    3.000    0.000    0.000 
#    0.000    0.000    0.000    0.000    0.000    0.000 
#
# Total GULP energy -297386.507802 kJ/mol
# GULP energy per Si atom -12391.104492 kJ/mol
# Density = 2.385525 g / cm^3
# Si number density = 23.909670 Si / 1000 Ang^3
#
#
#
# Elastic Constant Matrix: (Units=GPa)
#
#
# Indices 1 2 3 4 5 6 
#
# 1 164.5790 41.6283 16.6664 0.0000 14.5253 0.0000
# 2 41.6283 107.9207 33.3596 0.0000 7.7632 0.0000
# 3 16.6664 33.3596 46.1193 0.0000 8.8802 0.0000
# 4 0.0000 0.0000 0.0000 33.1125 0.0000 11.2413
# 5 14.5253 7.7632 8.8802 0.0000 36.9279 0.0000
# 6 0.0000 0.0000 0.0000 11.2413 0.0000 30.6489
#
#
#
# Elastic Compliance Matrix: (Units=1/GPa)
#
#
# Indices 1 2 3 4 5 6 
#
# 1 0.006907 -0.002404 -0.000348 0.000000 -0.002128 0.000000
# 2 -0.002404 0.012778 -0.008429 0.000000 0.000286 0.000000
# 3 -0.000348 -0.008429 0.028875 0.000000 -0.005035 0.000000
# 4 0.000000 0.000000 0.000000 0.034495 0.000000 -0.012652
# 5 -0.002128 0.000286 -0.005035 0.000000 0.029067 0.000000
# 6 0.000000 0.000000 0.000000 -0.012652 0.000000 0.037268
#
#
# Mechanical properties :
#
#
# Convention : Reuss Voigt Hill
#
# Bulk Modulus (GPa) = 38.16927 55.76973 46.96950
# Shear Modulus (GPa) = 27.70296 35.26885 31.48591
#
# Velocity S-wave (km/s) = 3.40759 3.84485 3.63281
# Velocity P-wave (km/s) = 5.61078 6.56402 6.10603
#
# Compressibility (1/GPa) = 0.02619909
#
# Stress axis : x y z
#
# Youngs Moduli (GPa) = 144.77818 78.25763 34.63173
#
# Poissons Ratio (x) = 0.18811 0.01204
# Poissons Ratio (y) = 0.34801 0.29193
# Poissons Ratio (z) = 0.05033 0.65967
#
# Static dielectric constant tensor:
#      x y z
#    x 4.596200 0.000000 0.225090 
#    y 0.000000 4.273540 0.000000 
#    z 0.225090 0.000000 4.309630 
# 
# 
# High freq. dielectric constant tensor:
#      x y z
#    x 1.963250 0.000000 0.012920 
#    y 0.000000 1.944280 0.000000 
#    z 0.012920 0.000000 1.944500 
# 
# From -- ./inp_files/208011.got.cif
#   From: 2010.06.25/outbox.cif.g09.slc.cpg/sg12_105_cif.got.tgz:208011.got - 2010.06.28 00:19:55.
