data_PCOD8102599
_publ_section_title
;
Structure prediction by ZEFSAII (Michael W. Deem and Ramdas Pophale) SiO2 
 PCOD8102599
Probable space group: C 2/M
;
_chemical_formula_sum "Si O2"
_cell_formula_units_Z 48
_cell_length_a 27.502297
_cell_length_b 10.897644
_cell_length_c 12.476801
_cell_angle_alpha 90.000000
_cell_angle_beta 136.032279
_cell_angle_gamma 90.000000
_cell_volume 2596.107065
_symmetry_space_group_name_H-M "C 2/M"
_symmetry_group_IT_number 12
_symmetry_cell_setting 'monoclinic'
loop_
_space_group_symop_operation_xyz
x,y,z
-x,y,-z
-x,-y,-z
x,-y,z
1/2+x,1/2+y,z
1/2-x,1/2+y,-z
1/2-x,1/2-y,-z
1/2+x,1/2-y,z
loop_
_atom_site_type_symbol
_atom_site_label
_atom_site_fract_x
_atom_site_fract_y
_atom_site_fract_z
Si Si1 0.173205 0.246029 0.427196
Si Si2 0.705592 0.137365 0.693580
Si Si3 0.077429 0.640074 0.113468
Si Si4 0.192396 0.357353 0.904474
Si Si5 0.860502 0.225988 0.986728
Si Si6 0.400962 0.500000 0.752403
Si Si7 0.558306 0.500000 0.937158
O O1 0.250000 0.250000 0.500000
O O2 0.175491 0.269625 0.558049
O O3 0.121175 0.345734 0.292171
O O4 0.142536 0.113972 0.356972
O O5 0.660763 0.146906 0.733306
O O6 0.784998 0.166281 0.851228
O O7 0.702262 0.000000 0.640583
O O8 0.066259 0.500000 0.066348
O O9 0.122494 0.699649 0.092363
O O10 0.000000 0.703126 0.000000
O O11 0.218411 0.500000 0.967727
O O12 0.250000 0.250000 0.000000
O O13 0.135854 0.318124 0.905152
O O14 0.917540 0.118744 0.091785
O O15 0.475445 0.500000 0.813521
O O16 0.406002 0.500000 0.888779
#
# Coordination Sequence:
#
# PCOD8102599 Si02
#       7
#     8   8   8   8   8   4   4
#     4  12  23  35  58  85 118 153 193 245 300 364
#     4  10  20  37  57  86 119 153 192 243 302 355
#     4  11  23  36  54  82 117 153 193 241 296 359
#     4   9  20  36  58  88 123 159 204 252 302 357
#     4  11  19  35  60  86 115 156 202 244 301 351
#     4  11  24  38  55  89 120 157 203 244 302 358
#     4  11  20  38  63  81 119 161 203 248 291 374
#
# _framework density 18.489222000000002
#
# number of rings (size 3 to 8) (size 9 to 14) (size 15 to 20)
#    0.000    1.333    4.167    2.000    3.500    0.000 
#    6.000    0.000    0.000    5.000    0.000   11.667 
#    0.000    0.000    0.000    0.000    0.000    0.000 
#
# Total GULP energy -297461.992585 kJ/mol
# GULP energy per Si atom -12394.249691 kJ/mol
# Density = 1.844714 g / cm^3
# Si number density = 18.489222 Si / 1000 Ang^3
#
#
#
# Elastic Constant Matrix: (Units=GPa)
#
#
# Indices 1 2 3 4 5 6 
#
# 1 87.7438 46.4935 48.4488 0.0000 -12.3547 0.0000
# 2 46.4935 128.5249 37.7786 0.0000 -6.5279 0.0000
# 3 48.4488 37.7786 89.9736 0.0000 -3.7592 0.0000
# 4 0.0000 0.0000 0.0000 27.9888 0.0000 -14.0966
# 5 -12.3547 -6.5279 -3.7592 0.0000 32.3296 0.0000
# 6 0.0000 0.0000 0.0000 -14.0966 0.0000 51.9206
#
#
#
# Elastic Compliance Matrix: (Units=1/GPa)
#
#
# Indices 1 2 3 4 5 6 
#
# 1 0.018887 -0.004145 -0.008203 0.000000 0.005427 0.000000
# 2 -0.004145 0.009846 -0.001894 0.000000 0.000184 0.000000
# 3 -0.008203 -0.001894 0.016259 0.000000 -0.001627 0.000000
# 4 0.000000 0.000000 0.000000 0.041388 0.000000 0.011237
# 5 0.005427 0.000184 -0.001627 0.000000 0.032853 0.000000
# 6 0.000000 0.000000 0.000000 0.011237 0.000000 0.022311
#
#
# Mechanical properties :
#
#
# Convention : Reuss Voigt Hill
#
# Bulk Modulus (GPa) = 60.58154 63.52046 62.05100
# Shear Modulus (GPa) = 28.48487 34.01590 31.25038
#
# Velocity S-wave (km/s) = 3.92933 4.29391 4.11566
# Velocity P-wave (km/s) = 7.30912 7.68202 7.49789
#
# Compressibility (1/GPa) = 0.01650668
#
# Stress axis : x y z
#
# Youngs Moduli (GPa) = 52.94716 101.56009 61.50499
#
# Poissons Ratio (x) = 0.42102 0.50451
# Poissons Ratio (y) = 0.21949 0.11652
# Poissons Ratio (z) = 0.43431 0.19240
#
# Static dielectric constant tensor:
#      x y z
#    x 3.904730 0.000000 -0.214720 
#    y 0.000000 3.677410 0.000000 
#    z -0.214720 0.000000 3.350690 
# 
# 
# High freq. dielectric constant tensor:
#      x y z
#    x 1.720200 0.000000 -0.013740 
#    y 0.000000 1.736750 0.000000 
#    z -0.013740 0.000000 1.687690 
# 
# From -- ./inp_files/182267.got.cif
#   From: 2010.06.25/outbox.cif.g09.slc.cpg/sg12_92_cif.got.tgz:182267.got - 2010.06.28 00:19:55.
