data_PCOD8102145
_publ_section_title
;
Structure prediction by ZEFSAII (Michael W. Deem and Ramdas Pophale) SiO2 
 PCOD8102145
Probable space group: C 2/M
;
_chemical_formula_sum "Si O2"
_cell_formula_units_Z 48
_cell_length_a 9.857900
_cell_length_b 17.887531
_cell_length_c 17.417453
_cell_angle_alpha 90.000000
_cell_angle_beta 51.524499
_cell_angle_gamma 90.000000
_cell_volume 2404.426313
_symmetry_space_group_name_H-M "C 2/M"
_symmetry_group_IT_number 12
_symmetry_cell_setting 'monoclinic'
loop_
_space_group_symop_operation_xyz
x,y,z
-x,y,-z
-x,-y,-z
x,-y,z
1/2+x,1/2+y,z
1/2-x,1/2+y,-z
1/2-x,1/2-y,-z
1/2+x,1/2-y,z
loop_
_atom_site_type_symbol
_atom_site_label
_atom_site_fract_x
_atom_site_fract_y
_atom_site_fract_z
Si Si1 0.983166 0.778223 0.704452
Si Si2 0.748972 0.585357 0.197408
Si Si3 0.088495 0.647317 0.158235
Si Si4 0.183064 0.086002 0.050161
Si Si5 0.348480 0.811151 0.611028
Si Si6 0.799830 0.084269 0.216549
O O1 0.921140 0.863866 0.732051
O O2 0.922981 0.730633 0.801141
O O3 0.908144 0.747401 0.652775
O O4 0.189626 0.773804 0.621534
O O5 0.710855 0.500000 0.237223
O O6 0.790335 0.586905 0.092035
O O7 0.903869 0.618981 0.193262
O O8 0.158261 0.592423 0.199700
O O9 0.224054 0.643223 0.040606
O O10 0.987344 0.118878 0.127835
O O11 0.182789 0.000000 0.018107
O O12 0.500000 0.834130 0.500000
O O13 0.275689 0.883850 0.678406
O O14 0.840521 0.000000 0.221575
#
# Coordination Sequence:
#
# PCOD8102145 Si02
#       6
#     8   8   8   8   8   8
#     4  11  23  42  62  93 121 159 204 262 310 362
#     4  11  22  39  62  88 127 168 206 249 301 361
#     4  11  22  37  62  88 128 166 207 242 299 371
#     4  10  20  36  60  90 127 168 203 244 301 363
#     4  11  23  42  66  87 116 159 207 259 317 372
#     4  10  21  38  61  91 124 156 201 256 307 362
#
# _framework density 19.963183000000001
#
# number of rings (size 3 to 8) (size 9 to 14) (size 15 to 20)
#    0.000    1.333    3.333    3.000    0.000    3.667 
#    0.000    1.667    0.000    0.500    0.000    0.000 
#    0.000    0.000    0.000    0.000    0.000    0.000 
#
# Total GULP energy -297517.612327 kJ/mol
# GULP energy per Si atom -12396.567180 kJ/mol
# Density = 1.991775 g / cm^3
# Si number density = 19.963183 Si / 1000 Ang^3
#
#
#
# Elastic Constant Matrix: (Units=GPa)
#
#
# Indices 1 2 3 4 5 6 
#
# 1 118.9377 51.9132 49.2422 -0.0001 -19.5567 0.0000
# 2 51.9132 84.8557 38.9841 0.0000 -7.7943 0.0001
# 3 49.2422 38.9841 120.0919 0.0000 -20.7207 0.0001
# 4 -0.0001 0.0000 0.0000 9.9417 0.0001 -8.0905
# 5 -19.5567 -7.7943 -20.7207 0.0001 27.4669 -0.0001
# 6 0.0000 0.0001 0.0001 -8.0905 -0.0001 20.3930
#
#
#
# Elastic Compliance Matrix: (Units=1/GPa)
#
#
# Indices 1 2 3 4 5 6 
#
# 1 0.013119 -0.006443 -0.002290 0.000000 0.005785 0.000000
# 2 -0.006443 0.017023 -0.003268 0.000000 -0.002222 0.000000
# 3 -0.002290 -0.003268 0.011365 0.000000 0.006016 0.000000
# 4 0.000000 0.000000 0.000000 0.148546 0.000000 0.058933
# 5 0.005785 -0.002222 0.006016 0.000000 0.044435 0.000000
# 6 0.000000 0.000000 0.000000 0.058933 0.000000 0.072417
#
#
# Mechanical properties :
#
#
# Convention : Reuss Voigt Hill
#
# Bulk Modulus (GPa) = 57.12043 67.12937 62.12490
# Shear Modulus (GPa) = 14.84826 23.81002 19.32914
#
# Velocity S-wave (km/s) = 2.73020 3.45729 3.11503
# Velocity P-wave (km/s) = 6.21399 7.04533 6.64268
#
# Compressibility (1/GPa) = 0.01750687
#
# Stress axis : x y z
#
# Youngs Moduli (GPa) = 76.22485 58.74265 87.99310
#
# Poissons Ratio (x) = 0.37846 0.20148
# Poissons Ratio (y) = 0.49109 0.28753
# Poissons Ratio (z) = 0.17453 0.19195
#
# Static dielectric constant tensor:
#      x y z
#    x 3.950960 0.000000 -0.067440 
#    y 0.000000 3.571450 0.000000 
#    z -0.067440 0.000000 3.491580 
# 
# 
# High freq. dielectric constant tensor:
#      x y z
#    x 1.808150 0.000000 -0.004810 
#    y 0.000000 1.770620 0.000000 
#    z -0.004810 0.000000 1.752040 
# 
# From -- ./inp_files/257902.got.cif
#   From: 2010.06.25/outbox.cif.g09.slc.cpg/sg12_129_cif.got.tgz:257902.got - 2010.06.28 00:19:55.
