data_PCOD8102838
_publ_section_title
;
Structure prediction by ZEFSAII (Michael W. Deem and Ramdas Pophale) SiO2 
 PCOD8102838
Probable space group: C 2/M
;
_chemical_formula_sum "Si O2"
_cell_formula_units_Z 56
_cell_length_a 28.487277
_cell_length_b 16.787372
_cell_length_c 18.744134
_cell_angle_alpha 90.000000
_cell_angle_beta 162.238846
_cell_angle_gamma 90.000000
_cell_volume 2734.447788
_symmetry_space_group_name_H-M "C 2/M"
_symmetry_group_IT_number 12
_symmetry_cell_setting 'monoclinic'
loop_
_space_group_symop_operation_xyz
x,y,z
-x,y,-z
-x,-y,-z
x,-y,z
1/2+x,1/2+y,z
1/2-x,1/2+y,-z
1/2-x,1/2-y,-z
1/2+x,1/2-y,z
loop_
_atom_site_type_symbol
_atom_site_label
_atom_site_fract_x
_atom_site_fract_y
_atom_site_fract_z
Si Si1 0.073446 0.674665 0.777411
Si Si2 0.235400 0.659152 0.501099
Si Si3 0.092425 0.910841 0.566483
Si Si4 0.443796 0.358915 0.078590
Si Si5 0.729372 0.091413 0.645765
Si Si6 0.898769 0.672535 0.019553
Si Si7 0.119962 0.854988 0.855339
O O1 0.041273 0.768996 0.728391
O O2 0.922479 0.626227 0.536111
O O3 0.125398 0.653317 0.932282
O O4 0.202192 0.647526 0.908387
O O5 0.250000 0.750000 0.500000
O O6 0.265112 0.646185 0.628633
O O7 0.374648 0.616443 0.660757
O O8 0.060589 0.630646 0.228555
O O9 0.245423 0.863359 0.762369
O O10 0.000000 0.871454 0.500000
O O11 0.976880 0.915630 0.332600
O O12 0.142953 0.000000 0.660689
O O13 0.364086 0.406019 0.899011
O O14 0.411213 0.265471 0.019816
O O15 0.382642 0.385148 0.067101
O O16 0.705761 0.000000 0.587356
#
# Coordination Sequence:
#
# PCOD8102838 Si02
#       7
#     8   8   8   8   8   8   8
#     4   9  19  36  58  86 116 156 207 252 292 355
#     4   9  20  39  62  85 114 152 202 250 291 348
#     4  11  22  35  56  86 119 155 197 246 304 362
#     4  10  21  37  59  86 116 158 201 245 296 357
#     4  11  23  38  60  90 123 157 196 243 303 367
#     4   9  18  36  59  85 112 150 201 255 298 344
#     4  10  20  37  59  84 120 160 205 252 297 346
#
# _framework density 20.479454
#
# number of rings (size 3 to 8) (size 9 to 14) (size 15 to 20)
#    0.000    2.143    1.429    2.143    0.000    5.143 
#    0.000    2.857    0.000    0.857    0.000    0.000 
#    0.000    0.000    0.000    0.000    0.000    0.000 
#
# Total GULP energy -347045.161127 kJ/mol
# GULP energy per Si atom -12394.470040 kJ/mol
# Density = 2.043284 g / cm^3
# Si number density = 20.479454 Si / 1000 Ang^3
#
#
#
# Elastic Constant Matrix: (Units=GPa)
#
#
# Indices 1 2 3 4 5 6 
#
# 1 109.7262 27.6866 41.4984 0.0004 15.8236 0.0003
# 2 27.6866 59.9036 31.2930 0.0001 8.6508 0.0001
# 3 41.4984 31.2930 93.6943 0.0006 17.1724 0.0006
# 4 0.0004 0.0001 0.0006 17.5160 0.0005 -4.8659
# 5 15.8236 8.6508 17.1724 0.0005 34.6889 0.0004
# 6 0.0003 0.0001 0.0006 -4.8659 0.0004 18.0841
#
#
#
# Elastic Compliance Matrix: (Units=1/GPa)
#
#
# Indices 1 2 3 4 5 6 
#
# 1 0.011664 -0.003099 -0.003627 0.000000 -0.002752 0.000000
# 2 -0.003099 0.021156 -0.005483 0.000000 -0.001148 0.000000
# 3 -0.003627 -0.005483 0.014909 0.000000 -0.004359 0.000000
# 4 0.000000 0.000000 0.000000 0.061703 -0.000001 0.016602
# 5 -0.002752 -0.001148 -0.004359 -0.000001 0.032527 -0.000001
# 6 0.000000 0.000000 0.000000 0.016602 -0.000001 0.059764
#
#
# Mechanical properties :
#
#
# Convention : Reuss Voigt Hill
#
# Bulk Modulus (GPa) = 42.89566 51.58668 47.24117
# Shear Modulus (GPa) = 21.37561 24.91420 23.14490
#
# Velocity S-wave (km/s) = 3.23423 3.49169 3.36542
# Velocity P-wave (km/s) = 5.91085 6.44205 6.18216
#
# Compressibility (1/GPa) = 0.02331238
#
# Stress axis : x y z
#
# Youngs Moduli (GPa) = 85.73335 47.26848 67.07153
#
# Poissons Ratio (x) = 0.14648 0.24325
# Poissons Ratio (y) = 0.26568 0.36774
# Poissons Ratio (z) = 0.31093 0.25916
#
# Static dielectric constant tensor:
#      x y z
#    x 3.746140 0.000000 0.364610 
#    y 0.000000 3.463000 0.000000 
#    z 0.364610 0.000000 3.869640 
# 
# 
# High freq. dielectric constant tensor:
#      x y z
#    x 1.792680 0.000000 0.018890 
#    y 0.000000 1.774450 0.000000 
#    z 0.018890 0.000000 1.807180 
# 
# From -- ./inp_files/293902.got.cif
#   From: 2010.06.25/outbox.cif.g09.slc.cpg/sg12_147_cif.got.tgz:293902.got - 2010.06.28 00:19:55.
