data_PCOD8102255
_publ_section_title
;
Structure prediction by ZEFSAII (Michael W. Deem and Ramdas Pophale) SiO2 
 PCOD8102255
Probable space group: C 2/M
;
_chemical_formula_sum "Si O2"
_cell_formula_units_Z 56
_cell_length_a 5.284888
_cell_length_b 30.161743
_cell_length_c 17.285540
_cell_angle_alpha 90.000000
_cell_angle_beta 108.626795
_cell_angle_gamma 90.000000
_cell_volume 2611.012790
_symmetry_space_group_name_H-M "C 2/M"
_symmetry_group_IT_number 12
_symmetry_cell_setting 'monoclinic'
loop_
_space_group_symop_operation_xyz
x,y,z
-x,y,-z
-x,-y,-z
x,-y,z
1/2+x,1/2+y,z
1/2-x,1/2+y,-z
1/2-x,1/2-y,-z
1/2+x,1/2-y,z
loop_
_atom_site_type_symbol
_atom_site_label
_atom_site_fract_x
_atom_site_fract_y
_atom_site_fract_z
Si Si1 0.418935 0.950802 0.644415
Si Si2 0.245470 0.130118 0.385332
Si Si3 0.500000 0.588224 0.500000
Si Si4 0.048331 0.869724 0.794315
Si Si5 0.826272 0.728144 0.375637
Si Si6 0.443237 0.077873 0.180940
Si Si7 0.063848 0.771700 0.184785
Si Si8 0.693930 0.000000 0.946283
O O1 0.597531 0.912117 0.628869
O O2 0.396801 0.947201 0.734888
O O3 0.133739 0.943936 0.576224
O O4 0.527542 0.000000 0.633760
O O5 0.186843 0.121501 0.469733
O O6 0.403327 0.176474 0.395172
O O7 0.990158 0.134818 0.302799
O O8 0.349731 0.887120 0.836673
O O9 0.019724 0.822660 0.833533
O O10 0.826193 0.900948 0.811452
O O11 0.600936 0.744516 0.414673
O O12 0.700894 0.737889 0.280113
O O13 0.360835 0.043814 0.107617
O O14 0.794205 0.742382 0.146005
O O15 0.500000 0.000000 0.000000
O O16 0.000000 0.000000 0.000000
#
# Coordination Sequence:
#
# PCOD8102255 Si02
#       8
#     8   8   4   8   8   8   8   4
#     4  11  24  42  62  88 122 169 215 272 317 380
#     4  10  23  37  59  83 124 163 223 278 327 377
#     4  12  23  40  58  86 124 164 228 274 327 364
#     4  10  20  36  61  90 128 174 212 262 319 372
#     4   9  19  34  58  81 110 157 215 273 335 382
#     4  11  22  42  65  96 128 166 211 252 316 383
#     4   9  16  28  50  85 123 161 210 265 309 361
#     4  12  26  46  72 103 135 165 201 256 312 382
#
# _framework density 21.447617999999999
#
# number of rings (size 3 to 8) (size 9 to 14) (size 15 to 20)
#    0.000    1.714    2.143    2.357    2.000    5.143 
#    1.286    0.714    0.000    0.000    0.000    0.000 
#    0.000   40.000    0.000    0.000    0.000    0.000 
#
# Total GULP energy -347045.707609 kJ/mol
# GULP energy per Si atom -12394.489557 kJ/mol
# Density = 2.139880 g / cm^3
# Si number density = 21.447618 Si / 1000 Ang^3
#
#
#
# Elastic Constant Matrix: (Units=GPa)
#
#
# Indices 1 2 3 4 5 6 
#
# 1 108.3439 17.6345 11.3196 0.0000 -6.9687 0.0000
# 2 17.6345 108.4309 4.3429 0.0000 -6.0350 0.0000
# 3 11.3196 4.3429 66.9198 0.0000 -5.7955 0.0000
# 4 0.0000 0.0000 0.0000 21.0644 0.0000 5.1230
# 5 -6.9687 -6.0350 -5.7955 0.0000 22.7454 0.0000
# 6 0.0000 0.0000 0.0000 5.1230 0.0000 37.5791
#
#
#
# Elastic Compliance Matrix: (Units=1/GPa)
#
#
# Indices 1 2 3 4 5 6 
#
# 1 0.009746 -0.001404 -0.001361 0.000000 0.002267 0.000000
# 2 -0.001404 0.009574 -0.000206 0.000000 0.002057 0.000000
# 3 -0.001361 -0.000206 0.015488 0.000000 0.003475 0.000000
# 4 0.000000 0.000000 0.000000 0.049101 0.000000 -0.006694
# 5 0.002267 0.002057 0.003475 0.000000 0.046091 0.000000
# 6 0.000000 0.000000 0.000000 -0.006694 0.000000 0.027523
#
#
# Mechanical properties :
#
#
# Convention : Reuss Voigt Hill
#
# Bulk Modulus (GPa) = 34.64342 38.92096 36.78219
# Shear Modulus (GPa) = 28.88717 32.97094 30.92906
#
# Velocity S-wave (km/s) = 3.67396 3.92507 3.80158
# Velocity P-wave (km/s) = 5.84679 6.22318 6.03791
#
# Compressibility (1/GPa) = 0.02886551
#
# Stress axis : x y z
#
# Youngs Moduli (GPa) = 102.60127 104.45375 64.56707
#
# Poissons Ratio (x) = 0.14670 0.08789
# Poissons Ratio (y) = 0.14410 0.01327
# Poissons Ratio (z) = 0.13966 0.02147
#
# Static dielectric constant tensor:
#      x y z
#    x 3.970440 0.000000 0.064340 
#    y 0.000000 3.886780 0.000000 
#    z 0.064340 0.000000 3.718920 
# 
# 
# High freq. dielectric constant tensor:
#      x y z
#    x 1.843210 0.000000 0.007200 
#    y 0.000000 1.853650 0.000000 
#    z 0.007200 0.000000 1.799960 
# 
# From -- ./inp_files/254052.got.cif
#   From: 2010.06.25/outbox.cif.g09.slc.cpg/sg12_128_cif.got.tgz:254052.got - 2010.06.28 00:19:55.
