data_PCOD8102006
_publ_section_title
;
Structure prediction by ZEFSAII (Michael W. Deem and Ramdas Pophale) SiO2 
 PCOD8102006
Probable space group: C 2/M
;
_chemical_formula_sum "Si O2"
_cell_formula_units_Z 40
_cell_length_a 30.833278
_cell_length_b 8.839057
_cell_length_c 21.995449
_cell_angle_alpha 90.000000
_cell_angle_beta 160.393157
_cell_angle_gamma 90.000000
_cell_volume 2011.564354
_symmetry_space_group_name_H-M "C 2/M"
_symmetry_group_IT_number 12
_symmetry_cell_setting 'monoclinic'
loop_
_space_group_symop_operation_xyz
x,y,z
-x,y,-z
-x,-y,-z
x,-y,z
1/2+x,1/2+y,z
1/2-x,1/2+y,-z
1/2-x,1/2-y,-z
1/2+x,1/2-y,z
loop_
_atom_site_type_symbol
_atom_site_label
_atom_site_fract_x
_atom_site_fract_y
_atom_site_fract_z
Si Si1 0.050218 0.175579 0.214239
Si Si2 0.609150 0.175894 0.535183
Si Si3 0.691170 0.822506 0.862802
Si Si4 0.212466 0.677784 0.131641
Si Si5 0.687060 0.175178 0.503139
O O1 0.165068 0.210747 0.318690
O O2 0.090599 0.225752 0.335213
O O3 0.014306 0.000000 0.167999
O O4 0.926897 0.268623 0.027860
O O5 0.459315 0.217644 0.339755
O O6 0.677914 0.276721 0.676190
O O7 0.666935 0.220057 0.546218
O O8 0.632996 0.000000 0.581532
O O9 0.764737 0.756595 0.902420
O O10 0.714380 0.000000 0.895990
O O11 0.750000 0.750000 0.000000
O O12 0.214054 0.500000 0.124416
O O13 0.652786 0.000000 0.446164
#
# Coordination Sequence:
#
# PCOD8102006 Si02
#       5
#     8   8   8   8   8
#     4  10  20  36  60  87 117 153 193 238 288 345
#     4  10  22  40  60  84 116 151 188 235 293 350
#     4  11  23  40  64  90 117 150 189 235 288 348
#     4  12  25  39  57  83 118 156 196 241 285 336
#     4   9  19  37  61  88 117 150 190 238 292 349
#
# _framework density 19.885021999999999
#
# number of rings (size 3 to 8) (size 9 to 14) (size 15 to 20)
#    0.000    1.600    0.000    4.800    0.000    8.000 
#    0.000    4.000    0.000    0.000    0.000    0.000 
#    0.000    0.000    0.000    0.000    0.000    0.000 
#
# Total GULP energy -248135.800593 kJ/mol
# GULP energy per Si atom -12406.790030 kJ/mol
# Density = 1.983976 g / cm^3
# Si number density = 19.885022 Si / 1000 Ang^3
#
#
#
# Elastic Constant Matrix: (Units=GPa)
#
#
# Indices 1 2 3 4 5 6 
#
# 1 60.1202 26.8806 17.8916 0.0000 5.4604 0.0000
# 2 26.8806 94.6937 66.4391 0.0000 1.9532 0.0000
# 3 17.8916 66.4391 113.2670 0.0000 5.1340 0.0000
# 4 0.0000 0.0000 0.0000 38.9436 0.0000 -5.8771
# 5 5.4604 1.9532 5.1340 0.0000 27.0350 0.0000
# 6 0.0000 0.0000 0.0000 -5.8771 0.0000 30.8515
#
#
#
# Elastic Compliance Matrix: (Units=1/GPa)
#
#
# Indices 1 2 3 4 5 6 
#
# 1 0.019396 -0.005772 0.000485 0.000000 -0.003593 0.000000
# 2 -0.005772 0.019677 -0.010711 0.000000 0.001778 0.000000
# 3 0.000485 -0.010711 0.015134 0.000000 -0.002198 0.000000
# 4 0.000000 0.000000 0.000000 0.026438 0.000000 0.005036
# 5 -0.003593 0.001778 -0.002198 0.000000 0.038004 0.000000
# 6 0.000000 0.000000 0.000000 0.005036 0.000000 0.033373
#
#
# Mechanical properties :
#
#
# Convention : Reuss Voigt Hill
#
# Bulk Modulus (GPa) = 45.02186 54.50039 49.76113
# Shear Modulus (GPa) = 26.12025 29.82401 27.97213
#
# Velocity S-wave (km/s) = 3.62824 3.87696 3.75466
# Velocity P-wave (km/s) = 6.34369 6.89263 6.62385
#
# Compressibility (1/GPa) = 0.02221143
#
# Stress axis : x y z
#
# Youngs Moduli (GPa) = 51.55680 50.82036 66.07425
#
# Poissons Ratio (x) = 0.29333 -0.03202
# Poissons Ratio (y) = 0.29758 0.70772
# Poissons Ratio (z) = -0.02499 0.54433
#
# Static dielectric constant tensor:
#      x y z
#    x 3.642830 0.000000 0.155930 
#    y 0.000000 3.640320 0.000000 
#    z 0.155930 0.000000 3.684320 
# 
# 
# High freq. dielectric constant tensor:
#      x y z
#    x 1.783350 0.000000 0.008780 
#    y 0.000000 1.778620 0.000000 
#    z 0.008780 0.000000 1.786220 
# 
# From -- ./inp_files/151668.got.cif
#   From: 2010.06.25/outbox.cif.g09.slc.cpg/sg12_76_cif.got.tgz:151668.got - 2010.06.28 00:19:55.
