data_PCOD8102068
_publ_section_title
;
Structure prediction by ZEFSAII (Michael W. Deem and Ramdas Pophale) SiO2 
 PCOD8102068
Probable space group: C 2/M
;
_chemical_formula_sum "Si O2"
_cell_formula_units_Z 64
_cell_length_a 8.717987
_cell_length_b 18.616183
_cell_length_c 29.909910
_cell_angle_alpha 90.000000
_cell_angle_beta 137.877747
_cell_angle_gamma 90.000000
_cell_volume 3255.815718
_symmetry_space_group_name_H-M "C 2/M"
_symmetry_group_IT_number 12
_symmetry_cell_setting 'monoclinic'
loop_
_space_group_symop_operation_xyz
x,y,z
-x,y,-z
-x,-y,-z
x,-y,z
1/2+x,1/2+y,z
1/2-x,1/2+y,-z
1/2-x,1/2-y,-z
1/2+x,1/2-y,z
loop_
_atom_site_type_symbol
_atom_site_label
_atom_site_fract_x
_atom_site_fract_y
_atom_site_fract_z
Si Si1 0.224261 0.919797 0.785650
Si Si2 0.428343 0.193430 0.280162
Si Si3 0.807636 0.420203 0.324319
Si Si4 0.353113 0.661838 0.314230
Si Si5 0.568890 0.827510 0.094338
Si Si6 0.997463 0.177739 0.876823
Si Si7 0.629136 0.584304 0.981774
Si Si8 0.705611 0.916799 0.575900
O O1 0.251534 0.901440 0.739164
O O2 0.370857 0.865417 0.846227
O O3 0.961157 0.913895 0.742916
O O4 0.318825 0.000000 0.814003
O O5 0.436126 0.137506 0.322244
O O6 0.413870 0.274141 0.293822
O O7 0.673505 0.189066 0.310758
O O8 0.228604 0.176464 0.202049
O O9 0.892663 0.500000 0.329533
O O10 0.867614 0.404555 0.388724
O O11 0.575400 0.632283 0.388271
O O12 0.488973 0.747582 0.088841
O O13 0.780849 0.826300 0.106487
O O14 0.363905 0.871551 0.027782
O O15 0.980713 0.109585 0.906797
O O16 0.679584 0.500000 0.988948
O O17 0.500000 0.602843 0.000000
O O18 0.500000 0.891073 0.500000
O O19 0.768457 0.000000 0.580847
#
# Coordination Sequence:
#
# PCOD8102068 Si02
#       8
#     8   8   8   8   8   8   8   8
#     4  10  20  36  60  88 120 157 199 248 304 362
#     4  12  23  39  61  93 128 164 204 260 306 362
#     4   9  19  37  59  90 125 159 203 251 301 356
#     4  11  22  37  61  91 127 162 207 250 306 357
#     4  12  23  42  65  91 119 159 208 254 313 372
#     4  12  25  41  66  90 121 165 209 250 314 375
#     4  11  27  47  64  88 123 159 205 262 314 374
#     4   9  19  40  67  92 125 169 208 245 300 368
#
# _framework density 19.657132000000001
#
# number of rings (size 3 to 8) (size 9 to 14) (size 15 to 20)
#    0.000    1.250    2.500    5.250    1.750    3.000 
#    0.000    3.125    0.000    2.250    0.000    0.000 
#    0.000    0.000    0.000    0.000    0.000    0.000 
#
# Total GULP energy -396915.779918 kJ/mol
# GULP energy per Si atom -12403.618122 kJ/mol
# Density = 1.961239 g / cm^3
# Si number density = 19.657132 Si / 1000 Ang^3
#
#
#
# Elastic Constant Matrix: (Units=GPa)
#
#
# Indices 1 2 3 4 5 6 
#
# 1 95.2170 40.2468 35.1566 -0.0001 11.6226 0.0001
# 2 40.2468 88.3638 41.0718 0.0001 1.4522 0.0000
# 3 35.1566 41.0718 123.3752 0.0006 6.2628 -0.0005
# 4 -0.0001 0.0001 0.0006 32.6528 0.0001 -2.3095
# 5 11.6226 1.4522 6.2628 0.0001 18.4702 -0.0001
# 6 0.0001 0.0000 -0.0005 -2.3095 -0.0001 32.6870
#
#
#
# Elastic Compliance Matrix: (Units=1/GPa)
#
#
# Indices 1 2 3 4 5 6 
#
# 1 0.014558 -0.005632 -0.001863 0.000000 -0.008086 0.000000
# 2 -0.005632 0.015571 -0.003761 0.000000 0.003595 0.000000
# 3 -0.001863 -0.003761 0.009986 0.000000 -0.001918 0.000000
# 4 0.000000 0.000000 0.000000 0.030779 0.000000 0.002175
# 5 -0.008086 0.003595 -0.001918 0.000000 0.059597 0.000000
# 6 0.000000 0.000000 0.000000 0.002175 0.000000 0.030747
#
#
# Mechanical properties :
#
#
# Convention : Reuss Voigt Hill
#
# Bulk Modulus (GPa) = 56.81053 59.98959 58.40006
# Shear Modulus (GPa) = 26.36893 29.46073 27.91483
#
# Velocity S-wave (km/s) = 3.66655 3.87554 3.77249
# Velocity P-wave (km/s) = 6.84750 7.11412 6.98208
#
# Compressibility (1/GPa) = 0.01760237
#
# Stress axis : x y z
#
# Youngs Moduli (GPa) = 68.69233 64.22152 100.14271
#
# Poissons Ratio (x) = 0.36168 0.18657
# Poissons Ratio (y) = 0.38685 0.37667
# Poissons Ratio (z) = 0.12798 0.24156
#
# Static dielectric constant tensor:
#      x y z
#    x 3.489850 0.000000 -0.072250 
#    y 0.000000 3.757040 0.000000 
#    z -0.072250 0.000000 3.617280 
# 
# 
# High freq. dielectric constant tensor:
#      x y z
#    x 1.759710 0.000000 -0.007260 
#    y 0.000000 1.779860 0.000000 
#    z -0.007260 0.000000 1.760330 
# 
# From -- ./inp_files/372999.got.cif
#   From: 2010.06.25/outbox.cif.g09.slc.cpg/sg12_187_cif.got.tgz:372999.got - 2010.06.28 00:19:55.
