data_PCOD8102248
_publ_section_title
;
Structure prediction by ZEFSAII (Michael W. Deem and Ramdas Pophale) SiO2 
 PCOD8102248
Probable space group: C 2/M
;
_chemical_formula_sum "Si O2"
_cell_formula_units_Z 64
_cell_length_a 26.974146
_cell_length_b 13.987113
_cell_length_c 12.279378
_cell_angle_alpha 90.000000
_cell_angle_beta 137.294241
_cell_angle_gamma 90.000000
_cell_volume 3142.182573
_symmetry_space_group_name_H-M "C 2/M"
_symmetry_group_IT_number 12
_symmetry_cell_setting 'monoclinic'
loop_
_space_group_symop_operation_xyz
x,y,z
-x,y,-z
-x,-y,-z
x,-y,z
1/2+x,1/2+y,z
1/2-x,1/2+y,-z
1/2-x,1/2-y,-z
1/2+x,1/2-y,z
loop_
_atom_site_type_symbol
_atom_site_label
_atom_site_fract_x
_atom_site_fract_y
_atom_site_fract_z
Si Si1 0.857189 0.890758 0.553619
Si Si2 0.385143 0.890722 0.684618
Si Si3 0.171830 0.388711 0.977058
Si Si4 0.132076 0.272279 0.126365
Si Si5 0.935835 0.737835 0.319721
Si Si6 0.335877 0.610436 0.273607
Si Si7 0.009464 0.759155 0.214010
Si Si8 0.273877 0.608219 0.632953
O O1 0.829434 0.857793 0.390001
O O2 0.928037 0.835379 0.709450
O O3 0.792917 0.870759 0.536588
O O4 0.880450 0.000000 0.588195
O O5 0.368953 0.836650 0.769572
O O6 0.453724 0.846289 0.730733
O O7 0.313147 0.880881 0.493204
O O8 0.403846 0.000000 0.741212
O O9 0.152736 0.500000 0.957378
O O10 0.153318 0.337812 0.059618
O O11 0.257523 0.373589 0.089499
O O12 0.123565 0.344556 0.801291
O O13 0.187024 0.182732 0.224236
O O14 0.051038 0.230183 0.977416
O O15 0.897072 0.827440 0.313814
O O16 0.000000 0.695914 0.500000
O O17 0.972968 0.777893 0.271132
O O18 0.359707 0.500000 0.302926
O O19 0.298165 0.500000 0.703104
#
# Coordination Sequence:
#
# PCOD8102248 Si02
#       8
#     8   8   8   8   8   8   8   8
#     4  10  20  36  61  90 122 157 200 248 302 360
#     4  11  23  39  60  88 123 164 207 247 293 353
#     4  10  23  41  63  93 120 157 205 249 302 358
#     4  11  22  37  63  89 126 162 201 247 295 361
#     4  11  23  40  63  87 123 158 201 250 308 360
#     4  10  21  40  67  92 118 154 204 257 305 360
#     4  11  24  37  55  90 121 161 201 245 300 358
#     4  10  22  38  61  93 125 160 201 248 301 356
#
# _framework density 20.368008
#
# number of rings (size 3 to 8) (size 9 to 14) (size 15 to 20)
#    0.000    1.500    2.500    2.250    1.750    6.500 
#    0.000    3.125    0.000    6.750    0.000    0.000 
#    0.000    0.000    0.000    0.000    0.000    0.000 
#
# Total GULP energy -396873.031697 kJ/mol
# GULP energy per Si atom -12402.282241 kJ/mol
# Density = 2.032165 g / cm^3
# Si number density = 20.368008 Si / 1000 Ang^3
#
#
#
# Elastic Constant Matrix: (Units=GPa)
#
#
# Indices 1 2 3 4 5 6 
#
# 1 49.1890 32.4551 22.6125 0.0000 10.6810 0.0000
# 2 32.4551 95.2236 65.9993 0.0000 -6.8330 0.0000
# 3 22.6125 65.9993 129.9043 0.0000 17.3670 0.0000
# 4 0.0000 0.0000 0.0000 16.3858 0.0000 -1.5984
# 5 10.6810 -6.8330 17.3670 0.0000 16.7420 0.0000
# 6 0.0000 0.0000 0.0000 -1.5984 0.0000 32.3544
#
#
#
# Elastic Compliance Matrix: (Units=1/GPa)
#
#
# Indices 1 2 3 4 5 6 
#
# 1 0.045449 -0.029776 0.014766 0.000000 -0.056465 0.000000
# 2 -0.029776 0.041883 -0.024289 0.000000 0.061286 0.000000
# 3 0.014766 -0.024289 0.023282 0.000000 -0.043484 0.000000
# 4 0.000000 0.000000 0.000000 0.061324 0.000000 0.003030
# 5 -0.056465 0.061286 -0.043484 0.000000 0.165873 0.000000
# 6 0.000000 0.000000 0.000000 0.003030 0.000000 0.031057
#
#
# Mechanical properties :
#
#
# Convention : Reuss Voigt Hill
#
# Bulk Modulus (GPa) = 31.23647 57.38342 44.30994
# Shear Modulus (GPa) = 10.91370 23.31311 17.11340
#
# Velocity S-wave (km/s) = 2.31730 3.38686 2.90178
# Velocity P-wave (km/s) = 4.74649 6.59764 5.74709
#
# Compressibility (1/GPa) = 0.03201386
#
# Stress axis : x y z
#
# Youngs Moduli (GPa) = 22.00249 23.87610 42.95248
#
# Poissons Ratio (x) = 0.71094 -0.63422
# Poissons Ratio (y) = 0.65515 1.04328
# Poissons Ratio (z) = -0.32488 0.57993
#
# Static dielectric constant tensor:
#      x y z
#    x 3.663690 0.000000 0.205710 
#    y 0.000000 3.749360 0.000000 
#    z 0.205710 0.000000 4.000770 
# 
# 
# High freq. dielectric constant tensor:
#      x y z
#    x 1.789490 0.000000 0.015250 
#    y 0.000000 1.797960 0.000000 
#    z 0.015250 0.000000 1.803410 
# 
# From -- ./inp_files/183854.got.cif
#   From: 2010.06.25/outbox.cif.g09.slc.cpg/sg12_92_cif.got.tgz:183854.got - 2010.06.28 00:19:55.
