data_PCOD8102810
_publ_section_title
;
Structure prediction by ZEFSAII (Michael W. Deem and Ramdas Pophale) SiO2 
 PCOD8102810
Probable space group: C 2/M
;
_chemical_formula_sum "Si O2"
_cell_formula_units_Z 56
_cell_length_a 18.841812
_cell_length_b 8.993159
_cell_length_c 26.819979
_cell_angle_alpha 90.000000
_cell_angle_beta 138.867861
_cell_angle_gamma 90.000000
_cell_volume 2989.412281
_symmetry_space_group_name_H-M "C 2/M"
_symmetry_group_IT_number 12
_symmetry_cell_setting 'monoclinic'
loop_
_space_group_symop_operation_xyz
x,y,z
-x,y,-z
-x,-y,-z
x,-y,z
1/2+x,1/2+y,z
1/2-x,1/2+y,-z
1/2-x,1/2-y,-z
1/2+x,1/2-y,z
loop_
_atom_site_type_symbol
_atom_site_label
_atom_site_fract_x
_atom_site_fract_y
_atom_site_fract_z
Si Si1 0.463196 0.170651 0.926415
Si Si2 0.163977 0.671176 0.307713
Si Si3 0.050384 0.172262 0.798675
Si Si4 0.928131 0.328737 0.284212
Si Si5 0.327563 0.832551 0.578201
Si Si6 0.639016 0.168110 0.938113
Si Si7 0.280184 0.673886 0.763321
O O1 0.573532 0.180683 0.954292
O O2 0.367892 0.264550 0.849476
O O3 0.422812 0.000000 0.909189
O O4 0.500000 0.233547 0.000000
O O5 0.126862 0.500000 0.276344
O O6 0.225497 0.673252 0.393706
O O7 0.223383 0.735671 0.290594
O O8 0.072860 0.787944 0.275155
O O9 0.117700 0.236311 0.787550
O O10 0.069886 0.254384 0.860029
O O11 0.075189 0.000000 0.817641
O O12 0.935387 0.500000 0.271390
O O13 0.841813 0.304875 0.282167
O O14 0.048557 0.271073 0.361768
O O15 0.250000 0.750000 0.500000
O O16 0.331517 0.000000 0.561307
O O17 0.662251 0.000000 0.935276
O O18 0.750000 0.250000 0.000000
O O19 0.306728 0.500000 0.768249
#
# Coordination Sequence:
#
# PCOD8102810 Si02
#       7
#     8   8   8   8   8   8   8
#     4  10  23  41  58  79 113 155 193 237 296 345
#     4  10  20  37  59  83 115 153 186 230 286 338
#     4  11  21  35  57  83 108 144 194 239 281 341
#     4   9  21  39  57  84 119 152 187 235 289 337
#     4   9  19  37  61  86 117 151 188 232 284 339
#     4  11  23  38  56  79 112 148 187 242 293 341
#     4  11  22  37  60  87 114 150 197 240 283 344
#
# _framework density 18.732779000000001
#
# number of rings (size 3 to 8) (size 9 to 14) (size 15 to 20)
#    0.000    1.857    1.429    3.429    2.000    4.857 
#    0.000    0.714    0.000    4.286    0.000    0.000 
#    0.000    0.000    0.000    0.000    0.000    0.000 
#
# Total GULP energy -346893.617827 kJ/mol
# GULP energy per Si atom -12389.057780 kJ/mol
# Density = 1.869014 g / cm^3
# Si number density = 18.732779 Si / 1000 Ang^3
#
#
#
# Elastic Constant Matrix: (Units=GPa)
#
#
# Indices 1 2 3 4 5 6 
#
# 1 108.7135 53.1973 49.5845 0.0000 -11.0605 0.0000
# 2 53.1973 110.6249 46.0199 0.0000 -8.5965 0.0000
# 3 49.5845 46.0199 94.3860 0.0000 -15.5287 0.0000
# 4 0.0000 0.0000 0.0000 33.3975 0.0000 -4.0287
# 5 -11.0605 -8.5965 -15.5287 0.0000 27.5108 0.0000
# 6 0.0000 0.0000 0.0000 -4.0287 0.0000 29.0505
#
#
#
# Elastic Compliance Matrix: (Units=1/GPa)
#
#
# Indices 1 2 3 4 5 6 
#
# 1 0.013727 -0.004501 -0.004784 0.000000 0.001412 0.000000
# 2 -0.004501 0.012821 -0.003886 0.000000 0.000003 0.000000
# 3 -0.004784 -0.003886 0.015970 0.000000 0.005876 0.000000
# 4 0.000000 0.000000 0.000000 0.030452 0.000000 0.004223
# 5 0.001412 0.000003 0.005876 0.000000 0.040235 0.000000
# 6 0.000000 0.000000 0.000000 0.004223 0.000000 0.035008
#
#
# Mechanical properties :
#
#
# Convention : Reuss Voigt Hill
#
# Bulk Modulus (GPa) = 61.82540 67.92533 64.87537
# Shear Modulus (GPa) = 27.78601 28.98660 28.38631
#
# Velocity S-wave (km/s) = 3.85552 3.93793 3.89694
# Velocity P-wave (km/s) = 7.27293 7.55085 7.41319
#
# Compressibility (1/GPa) = 0.01617458
#
# Stress axis : x y z
#
# Youngs Moduli (GPa) = 72.85053 77.99832 62.61840
#
# Poissons Ratio (x) = 0.35106 0.29959
# Poissons Ratio (y) = 0.32789 0.24334
# Poissons Ratio (z) = 0.34855 0.30310
#
# Static dielectric constant tensor:
#      x y z
#    x 3.572420 0.000000 -0.098040 
#    y 0.000000 3.553560 0.000000 
#    z -0.098040 0.000000 3.182940 
# 
# 
# High freq. dielectric constant tensor:
#      x y z
#    x 1.733420 0.000000 -0.014700 
#    y 0.000000 1.734180 0.000000 
#    z -0.014700 0.000000 1.711230 
# 
# From -- ./inp_files/342530.got.cif
#   From: 2010.06.25/outbox.cif.g09.slc.cpg/sg12_172_cif.got.tgz:342530.got - 2010.06.28 00:19:55.
