data_PCOD8102063
_publ_section_title
;
Structure prediction by ZEFSAII (Michael W. Deem and Ramdas Pophale) SiO2 
 PCOD8102063
Probable space group: C 2/M
;
_chemical_formula_sum "Si O2"
_cell_formula_units_Z 56
_cell_length_a 27.932309
_cell_length_b 8.955017
_cell_length_c 16.497461
_cell_angle_alpha 90.000000
_cell_angle_beta 137.938788
_cell_angle_gamma 90.000000
_cell_volume 2764.496253
_symmetry_space_group_name_H-M "C 2/M"
_symmetry_group_IT_number 12
_symmetry_cell_setting 'monoclinic'
loop_
_space_group_symop_operation_xyz
x,y,z
-x,y,-z
-x,-y,-z
x,-y,z
1/2+x,1/2+y,z
1/2-x,1/2+y,-z
1/2-x,1/2-y,-z
1/2+x,1/2-y,z
loop_
_atom_site_type_symbol
_atom_site_label
_atom_site_fract_x
_atom_site_fract_y
_atom_site_fract_z
Si Si1 0.167818 0.822154 0.543040
Si Si2 0.908488 0.671293 0.692889
Si Si3 0.029059 0.171171 0.455485
Si Si4 0.081098 0.328364 0.108853
Si Si5 0.794784 0.174193 0.985547
Si Si6 0.954804 0.171820 0.198531
Si Si7 0.788355 0.825955 0.795574
O O1 0.152287 0.760119 0.433450
O O2 0.103830 0.759120 0.519386
O O3 0.241452 0.764814 0.672319
O O4 0.169085 0.000000 0.538805
O O5 0.907438 0.500000 0.663694
O O6 0.889381 0.688370 0.762923
O O7 0.988330 0.733567 0.780603
O O8 0.000000 0.253239 0.500000
O O9 0.969173 0.187804 0.312062
O O10 0.045457 0.000000 0.496987
O O11 0.084967 0.500000 0.084658
O O12 0.129933 0.228007 0.111534
O O13 0.000000 0.269544 0.000000
O O14 0.762316 0.205696 0.855239
O O15 0.796216 0.000000 0.007375
O O16 0.750000 0.250000 0.000000
O O17 0.875673 0.236287 0.085629
O O18 0.961587 0.000000 0.178909
O O19 0.783503 0.000000 0.769314
#
# Coordination Sequence:
#
# PCOD8102063 Si02
#       7
#     8   8   8   8   8   8   8
#     4  10  21  37  59  84 116 158 198 238 291 354
#     4  10  20  36  60  88 119 150 187 243 297 343
#     4   8  15  28  51  80 104 136 188 238 275 325
#     4  10  22  40  63  90 117 153 199 240 288 354
#     4  10  23  39  57  83 116 156 197 240 292 347
#     4   9  18  34  55  80 112 149 192 234 280 347
#     4  11  24  40  58  86 122 154 194 248 297 345
#
# _framework density 20.256855000000002
#
# number of rings (size 3 to 8) (size 9 to 14) (size 15 to 20)
#    0.000    2.286    0.000    3.000    2.000    3.714 
#    0.000    0.000    0.000    2.143    0.000    0.000 
#    0.000    0.000    0.000    0.000    0.000    0.000 
#
# Total GULP energy -347195.492402 kJ/mol
# GULP energy per Si atom -12399.839014 kJ/mol
# Density = 2.021075 g / cm^3
# Si number density = 20.256855 Si / 1000 Ang^3
#
#
#
# Elastic Constant Matrix: (Units=GPa)
#
#
# Indices 1 2 3 4 5 6 
#
# 1 84.9310 39.4570 26.4030 0.0000 -5.3304 0.0000
# 2 39.4570 84.9695 36.5252 0.0000 -0.8999 0.0000
# 3 26.4030 36.5252 101.1049 0.0000 9.6054 0.0000
# 4 0.0000 0.0000 0.0000 29.3432 0.0000 3.3864
# 5 -5.3304 -0.8999 9.6054 0.0000 25.5991 0.0000
# 6 0.0000 0.0000 0.0000 3.3864 0.0000 31.0072
#
#
#
# Elastic Compliance Matrix: (Units=1/GPa)
#
#
# Indices 1 2 3 4 5 6 
#
# 1 0.015605 -0.006271 -0.002175 0.000000 0.003845 0.000000
# 2 -0.006271 0.016604 -0.004451 0.000000 0.000948 0.000000
# 3 -0.002175 -0.004451 0.012573 0.000000 -0.005327 0.000000
# 4 0.000000 0.000000 0.000000 0.034514 0.000000 -0.003769
# 5 0.003845 0.000948 -0.005327 0.000000 0.041897 0.000000
# 6 0.000000 0.000000 0.000000 -0.003769 0.000000 0.032662
#
#
# Mechanical properties :
#
#
# Convention : Reuss Voigt Hill
#
# Bulk Modulus (GPa) = 52.66366 52.86399 52.76382
# Shear Modulus (GPa) = 26.88484 28.43123 27.65804
#
# Velocity S-wave (km/s) = 3.64702 3.75044 3.69910
# Velocity P-wave (km/s) = 6.61731 6.70134 6.65946
#
# Compressibility (1/GPa) = 0.01898842
#
# Stress axis : x y z
#
# Youngs Moduli (GPa) = 64.08201 60.22580 79.53699
#
# Poissons Ratio (x) = 0.37766 0.17300
# Poissons Ratio (y) = 0.40184 0.35401
# Poissons Ratio (z) = 0.13938 0.26806
#
# Static dielectric constant tensor:
#      x y z
#    x 3.752310 0.000000 -0.028040 
#    y 0.000000 3.468490 0.000000 
#    z -0.028040 0.000000 3.724230 
# 
# 
# High freq. dielectric constant tensor:
#      x y z
#    x 1.791600 0.000000 -0.006270 
#    y 0.000000 1.772320 0.000000 
#    z -0.006270 0.000000 1.798820 
# 
# From -- ./inp_files/292564.got.cif
#   From: 2010.06.25/outbox.cif.g09.slc.cpg/sg12_147_cif.got.tgz:292564.got - 2010.06.28 00:19:55.
