data_PCOD8102915
_publ_section_title
;
Structure prediction by ZEFSAII (Michael W. Deem and Ramdas Pophale) SiO2 
 PCOD8102915
Probable space group: C 2/M
;
_chemical_formula_sum "Si O2"
_cell_formula_units_Z 56
_cell_length_a 19.312007
_cell_length_b 9.204391
_cell_length_c 20.555519
_cell_angle_alpha 90.000000
_cell_angle_beta 124.341344
_cell_angle_gamma 90.000000
_cell_volume 3016.954087
_symmetry_space_group_name_H-M "C 2/M"
_symmetry_group_IT_number 12
_symmetry_cell_setting 'monoclinic'
loop_
_space_group_symop_operation_xyz
x,y,z
-x,y,-z
-x,-y,-z
x,-y,z
1/2+x,1/2+y,z
1/2-x,1/2+y,-z
1/2-x,1/2-y,-z
1/2+x,1/2-y,z
loop_
_atom_site_type_symbol
_atom_site_label
_atom_site_fract_x
_atom_site_fract_y
_atom_site_fract_z
Si Si1 0.631870 0.170765 0.225520
Si Si2 0.458439 0.667816 0.336108
Si Si3 0.333723 0.327707 0.022719
Si Si4 0.317292 0.329876 0.362354
Si Si5 0.427256 0.163674 0.514335
Si Si6 0.401702 0.834061 0.938555
Si Si7 0.522928 0.331380 0.801697
O O1 0.723169 0.220274 0.297725
O O2 0.621776 0.219324 0.145692
O O3 0.563326 0.246863 0.234031
O O4 0.618492 0.000000 0.225053
O O5 0.479923 0.500000 0.359624
O O6 0.374443 0.712296 0.330470
O O7 0.539075 0.758341 0.402975
O O8 0.442302 0.701312 0.251959
O O9 0.321073 0.500000 0.016706
O O10 0.407340 0.277650 0.110474
O O11 0.250000 0.250000 0.000000
O O12 0.354856 0.274467 0.961846
O O13 0.323048 0.500000 0.379799
O O14 0.346824 0.246623 0.442834
O O15 0.500000 0.168327 0.500000
O O16 0.400938 0.000000 0.518121
O O17 0.371824 0.000000 0.935060
O O18 0.500000 0.819797 0.000000
O O19 0.503747 0.500000 0.801713
#
# Coordination Sequence:
#
# PCOD8102915 Si02
#       7
#     8   8   8   8   8   8   8
#     4  10  21  36  57  82 110 146 184 225 270 325
#     4   9  18  34  56  79 105 141 181 220 267 321
#     4  11  24  39  58  83 113 147 186 232 278 327
#     4   9  18  33  56  81 105 139 183 222 262 321
#     4   9  17  31  52  80 111 138 170 219 274 320
#     4  10  20  37  60  82 110 148 187 227 274 326
#     4  10  22  38  56  79 111 146 180 226 275 323
#
# _framework density 18.561767
#
# number of rings (size 3 to 8) (size 9 to 14) (size 15 to 20)
#    0.000    2.286    1.429    0.857    2.000    4.286 
#    0.000    0.714    0.000    0.000    0.000    0.000 
#    0.000    0.000    0.000    0.000    0.000    0.000 
#
# Total GULP energy -347281.525445 kJ/mol
# GULP energy per Si atom -12402.911623 kJ/mol
# Density = 1.851952 g / cm^3
# Si number density = 18.561767 Si / 1000 Ang^3
#
#
#
# Elastic Constant Matrix: (Units=GPa)
#
#
# Indices 1 2 3 4 5 6 
#
# 1 87.4252 36.7644 33.4794 0.0000 12.5871 0.0000
# 2 36.7644 61.1950 30.2739 0.0000 8.3936 0.0000
# 3 33.4794 30.2739 80.2182 0.0000 21.0641 0.0000
# 4 0.0000 0.0000 0.0000 1.2270 0.0000 -3.2687
# 5 12.5871 8.3936 21.0641 0.0000 30.2624 0.0000
# 6 0.0000 0.0000 0.0000 -3.2687 0.0000 32.1244
#
#
#
# Elastic Compliance Matrix: (Units=1/GPa)
#
#
# Indices 1 2 3 4 5 6 
#
# 1 0.016330 -0.007896 -0.003215 0.000000 -0.002365 0.000000
# 2 -0.007896 0.023914 -0.005935 0.000000 0.000783 0.000000
# 3 -0.003215 -0.005935 0.018678 0.000000 -0.010018 0.000000
# 4 0.000000 0.000000 0.000000 1.118113 0.000000 0.113771
# 5 -0.002365 0.000783 -0.010018 0.000000 0.040784 0.000000
# 6 0.000000 0.000000 0.000000 0.113771 0.000000 0.042706
#
#
# Mechanical properties :
#
#
# Convention : Reuss Voigt Hill
#
# Bulk Modulus (GPa) = 40.27291 47.76377 44.01834
# Shear Modulus (GPa) = 3.83762 21.27746 12.55754
#
# Velocity S-wave (km/s) = 1.43943 3.38939 2.60384
# Velocity P-wave (km/s) = 4.95040 6.41135 5.72765
#
# Compressibility (1/GPa) = 0.02483059
#
# Stress axis : x y z
#
# Youngs Moduli (GPa) = 61.23547 41.81683 53.53921
#
# Poissons Ratio (x) = 0.33020 0.17211
# Poissons Ratio (y) = 0.48353 0.31775
# Poissons Ratio (z) = 0.19685 0.24818
#
# Static dielectric constant tensor:
#      x y z
#    x 3.151820 0.000000 0.158140 
#    y 0.000000 3.408010 0.000000 
#    z 0.158140 0.000000 3.442230 
# 
# 
# High freq. dielectric constant tensor:
#      x y z
#    x 1.706110 0.000000 0.003040 
#    y 0.000000 1.716530 0.000000 
#    z 0.003040 0.000000 1.730300 
# 
# From -- ./inp_files/275337.got.cif
#   From: 2010.06.25/outbox.cif.g09.slc.cpg/sg12_138_cif.got.tgz:275337.got - 2010.06.28 00:19:55.
