data_PCOD8102088
_publ_section_title
;
Structure prediction by ZEFSAII (Michael W. Deem and Ramdas Pophale) SiO2 
 PCOD8102088
Probable space group: C 2/M
;
_chemical_formula_sum "Si O2"
_cell_formula_units_Z 64
_cell_length_a 14.513527
_cell_length_b 8.984774
_cell_length_c 24.129011
_cell_angle_alpha 90.000000
_cell_angle_beta 90.461155
_cell_angle_gamma 90.000000
_cell_volume 3146.339459
_symmetry_space_group_name_H-M "C 2/M"
_symmetry_group_IT_number 12
_symmetry_cell_setting 'monoclinic'
loop_
_space_group_symop_operation_xyz
x,y,z
-x,y,-z
-x,-y,-z
x,-y,z
1/2+x,1/2+y,z
1/2-x,1/2+y,-z
1/2-x,1/2-y,-z
1/2+x,1/2-y,z
loop_
_atom_site_type_symbol
_atom_site_label
_atom_site_fract_x
_atom_site_fract_y
_atom_site_fract_z
Si Si1 0.846789 0.831876 0.562271
Si Si2 0.628871 0.167493 0.544711
Si Si3 0.360740 0.829373 0.951654
Si Si4 0.508994 0.174560 0.860624
Si Si5 0.177922 0.675312 0.327372
Si Si6 0.035582 0.824349 0.254466
Si Si7 0.612241 0.673248 0.654503
Si Si8 0.148607 0.172213 0.936752
O O1 0.738400 0.828617 0.551176
O O2 0.899804 0.755076 0.511196
O O3 0.870305 0.742609 0.618182
O O4 0.883140 0.000000 0.569172
O O5 0.582820 0.243097 0.598112
O O6 0.592040 0.000000 0.539621
O O7 0.425321 0.786344 0.901063
O O8 0.257069 0.799430 0.931679
O O9 0.374726 0.000000 0.970245
O O10 0.387751 0.727401 0.003824
O O11 0.493367 0.263067 0.804631
O O12 0.603505 0.231866 0.887844
O O13 0.516033 0.000000 0.848290
O O14 0.162225 0.500000 0.326834
O O15 0.285318 0.718341 0.325655
O O16 0.130976 0.747983 0.273347
O O17 0.955992 0.779182 0.297165
O O18 0.049763 0.000000 0.251200
O O19 0.607554 0.500000 0.640760
O O20 0.122436 0.000000 0.929619
#
# Coordination Sequence:
#
# PCOD8102088 Si02
#       8
#     8   8   8   8   8   8   8   8
#     4   9  16  28  49  78 110 142 176 218 274 335
#     4   9  16  27  49  80 109 138 177 224 272 328
#     4   9  20  38  59  85 119 154 184 220 273 331
#     4  11  23  39  58  81 113 152 189 227 274 325
#     4  10  20  37  59  81 107 142 183 227 278 332
#     4  11  24  41  58  80 110 145 189 234 275 324
#     4   9  20  38  58  78 107 146 181 222 280 337
#     4  10  20  36  60  89 118 148 185 228 272 321
#
# _framework density 20.341097999999999
#
# number of rings (size 3 to 8) (size 9 to 14) (size 15 to 20)
#    0.000    2.250    0.000    2.625    0.000    8.500 
#    0.000    5.625    0.000    3.750    0.000    0.000 
#    0.000    0.000    0.000    0.000    0.000    0.000 
#
# Total GULP energy -396953.379552 kJ/mol
# GULP energy per Si atom -12404.793111 kJ/mol
# Density = 2.029480 g / cm^3
# Si number density = 20.341098 Si / 1000 Ang^3
#
#
#
# Elastic Constant Matrix: (Units=GPa)
#
#
# Indices 1 2 3 4 5 6 
#
# 1 41.2321 19.1576 22.5217 0.0000 4.6611 0.0000
# 2 19.1576 87.1814 33.6976 0.0000 1.6202 0.0000
# 3 22.5217 33.6976 98.9469 0.0000 8.7757 0.0000
# 4 0.0000 0.0000 0.0000 44.7269 0.0000 3.4038
# 5 4.6611 1.6202 8.7757 0.0000 22.7674 0.0000
# 6 0.0000 0.0000 0.0000 3.4038 0.0000 26.3391
#
#
#
# Elastic Compliance Matrix: (Units=1/GPa)
#
#
# Indices 1 2 3 4 5 6 
#
# 1 0.029423 -0.004534 -0.004812 0.000000 -0.003846 0.000000
# 2 -0.004534 0.013923 -0.003835 0.000000 0.001416 0.000000
# 3 -0.004812 -0.003835 0.012835 0.000000 -0.003689 0.000000
# 4 0.000000 0.000000 0.000000 0.022580 0.000000 -0.002918
# 5 -0.003846 0.001416 -0.003689 0.000000 0.046031 0.000000
# 6 0.000000 0.000000 0.000000 -0.002918 0.000000 0.038343
#
#
# Mechanical properties :
#
#
# Convention : Reuss Voigt Hill
#
# Bulk Modulus (GPa) = 33.53629 42.01268 37.77448
# Shear Modulus (GPa) = 25.07064 28.89889 26.98477
#
# Velocity S-wave (km/s) = 3.51452 3.77333 3.64622
# Velocity P-wave (km/s) = 5.74386 6.29944 6.02805
#
# Compressibility (1/GPa) = 0.02981844
#
# Stress axis : x y z
#
# Youngs Moduli (GPa) = 33.98734 71.82499 77.91232
#
# Poissons Ratio (x) = 0.32567 0.37489
# Poissons Ratio (y) = 0.15410 0.29880
# Poissons Ratio (z) = 0.16354 0.27545
#
# Static dielectric constant tensor:
#      x y z
#    x 3.651340 0.000000 0.026110 
#    y 0.000000 3.762620 0.000000 
#    z 0.026110 0.000000 3.654480 
# 
# 
# High freq. dielectric constant tensor:
#      x y z
#    x 1.793460 0.000000 0.005250 
#    y 0.000000 1.802820 0.000000 
#    z 0.005250 0.000000 1.792100 
# 
# From -- ./inp_files/338887.got.cif
#   From: 2010.06.25/outbox.cif.g09.slc.cpg/sg12_170_cif.got.tgz:338887.got - 2010.06.28 00:19:55.
