data_PCOD8102319
_publ_section_title
;
Structure prediction by ZEFSAII (Michael W. Deem and Ramdas Pophale) SiO2 
 PCOD8102319
Probable space group: C 2/M
;
_chemical_formula_sum "Si O2"
_cell_formula_units_Z 64
_cell_length_a 19.586978
_cell_length_b 8.871885
_cell_length_c 31.359235
_cell_angle_alpha 90.000000
_cell_angle_beta 142.877890
_cell_angle_gamma 90.000000
_cell_volume 3288.799432
_symmetry_space_group_name_H-M "C 2/M"
_symmetry_group_IT_number 12
_symmetry_cell_setting 'monoclinic'
loop_
_space_group_symop_operation_xyz
x,y,z
-x,y,-z
-x,-y,-z
x,-y,z
1/2+x,1/2+y,z
1/2-x,1/2+y,-z
1/2-x,1/2-y,-z
1/2+x,1/2-y,z
loop_
_atom_site_type_symbol
_atom_site_label
_atom_site_fract_x
_atom_site_fract_y
_atom_site_fract_z
Si Si1 0.165845 0.821318 0.492002
Si Si2 0.993203 0.175873 0.129977
Si Si3 0.580854 0.324023 0.001912
Si Si4 0.423736 0.320855 0.340388
Si Si5 0.824510 0.178099 0.118771
Si Si6 0.543156 0.673502 0.734845
Si Si7 0.701939 0.178093 0.277789
Si Si8 0.289122 0.673356 0.627075
O O1 0.250000 0.750000 0.500000
O O2 0.196166 0.767128 0.554704
O O3 0.039019 0.763327 0.419671
O O4 0.175776 0.000000 0.493976
O O5 0.098805 0.275776 0.196420
O O6 0.975106 0.212379 0.071418
O O7 0.882962 0.223921 0.102920
O O8 0.020186 0.000000 0.151296
O O9 0.602650 0.500000 0.018560
O O10 0.500000 0.264302 0.000000
O O11 0.700898 0.244249 0.062866
O O12 0.427948 0.500000 0.339567
O O13 0.409008 0.254415 0.285077
O O14 0.317782 0.264308 0.314477
O O15 0.902229 0.247717 0.195678
O O16 0.814022 0.000000 0.116122
O O17 0.576832 0.500000 0.754394
O O18 0.409065 0.692755 0.663945
O O19 0.693980 0.262977 0.317891
O O20 0.700955 0.000000 0.284580
O O21 0.251195 0.500000 0.610150
#
# Coordination Sequence:
#
# PCOD8102319 Si02
#       8
#     8   8   8   8   8   8   8   8
#     4  11  21  37  61  88 118 156 203 248 298 355
#     4  10  21  40  61  82 116 158 193 235 296 352
#     4  10  23  40  57  84 124 158 186 233 298 350
#     4   9  20  37  57  83 118 156 190 239 301 353
#     4  10  20  36  62  87 110 151 201 239 280 345
#     4   9  17  34  59  84 111 150 194 236 290 348
#     4  11  23  38  60  89 117 150 198 246 291 350
#     4  11  21  39  63  85 120 159 194 243 300 352
#
# _framework density 19.459989
#
# number of rings (size 3 to 8) (size 9 to 14) (size 15 to 20)
#    0.000    1.875    2.500    1.500    1.750    1.750 
#    0.000    5.000    0.000    0.000    0.000    0.000 
#    0.000    0.000    0.000    0.000    0.000    0.000 
#
# Total GULP energy -396775.426290 kJ/mol
# GULP energy per Si atom -12399.232072 kJ/mol
# Density = 1.941570 g / cm^3
# Si number density = 19.459989 Si / 1000 Ang^3
#
#
#
# Elastic Constant Matrix: (Units=GPa)
#
#
# Indices 1 2 3 4 5 6 
#
# 1 -3248.8722 190.1166 -28.9563 -0.0024 304.8382 0.0117
# 2 190.1166 40.1778 35.9429 0.0002 -8.0241 -0.0008
# 3 -28.9563 35.9429 116.4321 0.0000 9.6617 0.0001
# 4 -0.0024 0.0002 0.0000 33.1833 0.0002 1.4123
# 5 304.8382 -8.0241 9.6617 0.0002 10.9617 -0.0010
# 6 0.0117 -0.0008 0.0001 1.4123 -0.0010 20.6717
#
#
#
# Elastic Compliance Matrix: (Units=1/GPa)
#
#
# Indices 1 2 3 4 5 6 
#
# 1 -0.000034 0.001068 -0.000521 0.000000 0.002198 0.000000
# 2 0.001068 0.025185 -0.007094 0.000000 -0.005002 0.000000
# 3 -0.000521 -0.007094 0.010658 0.000000 -0.000111 0.000000
# 4 0.000000 0.000000 0.000000 0.030224 0.000000 -0.002065
# 5 0.002198 -0.005002 -0.000111 0.000000 0.026536 0.000000
# 6 0.000000 0.000000 0.000000 -0.002065 0.000000 0.048516
#
#
# Mechanical properties :
#
#
# Convention : Reuss Voigt Hill
#
# Bulk Modulus (GPa) = 44.02405 -299.78400 -127.87998
# Shear Modulus (GPa) = 30.91201 -206.32768 -87.70783
#
# Velocity S-wave (km/s) = 3.98991 -10.30809 -6.72077
# Velocity P-wave (km/s) = 6.62554 17.20644 11.22862
#
# Compressibility (1/GPa) = 0.02271486
#
# Stress axis : x y z
#
# Youngs Moduli (GPa) = -29036.00397 39.70669 93.82288
#
# Poissons Ratio (x) = -0.04239 0.04884
# Poissons Ratio (y) = 30.99974 0.66558
# Poissons Ratio (z) = -15.11457 0.28168
#
# Static dielectric constant tensor:
#      x y z
#    x 3.792070 0.000000 -0.115470 
#    y 0.000000 3.326910 0.000000 
#    z -0.115470 0.000000 3.745410 
# 
# 
# High freq. dielectric constant tensor:
#      x y z
#    x 1.768260 0.000000 -0.008370 
#    y 0.000000 1.731840 0.000000 
#    z -0.008370 0.000000 1.770860 
# 
# From -- ./inp_files/378387.got.cif
#   From: 2010.06.25/outbox.cif.g09.slc.cpg/sg12_190_cif.got.tgz:378387.got - 2010.06.28 00:19:55.
