data_PCOD8102899
_publ_section_title
;
Structure prediction by ZEFSAII (Michael W. Deem and Ramdas Pophale) SiO2 
 PCOD8102899
Probable space group: C 2/M
;
_chemical_formula_sum "Si O2"
_cell_formula_units_Z 64
_cell_length_a 18.414771
_cell_length_b 8.867369
_cell_length_c 20.222549
_cell_angle_alpha 90.000000
_cell_angle_beta 90.891382
_cell_angle_gamma 90.000000
_cell_volume 3301.751929
_symmetry_space_group_name_H-M "C 2/M"
_symmetry_group_IT_number 12
_symmetry_cell_setting 'monoclinic'
loop_
_space_group_symop_operation_xyz
x,y,z
-x,y,-z
-x,-y,-z
x,-y,z
1/2+x,1/2+y,z
1/2-x,1/2+y,-z
1/2-x,1/2-y,-z
1/2+x,1/2-y,z
loop_
_atom_site_type_symbol
_atom_site_label
_atom_site_fract_x
_atom_site_fract_y
_atom_site_fract_z
Si Si1 0.924558 0.676162 0.238302
Si Si2 0.091664 0.672293 0.244535
Si Si3 0.567007 0.175063 0.392649
Si Si4 0.082383 0.321093 0.011819
Si Si5 0.331107 0.820945 0.113771
Si Si6 0.173421 0.677635 0.512073
Si Si7 0.332304 0.322394 0.869819
Si Si8 0.416224 0.677686 0.376280
O O1 0.911103 0.500000 0.252668
O O2 0.876913 0.738105 0.176930
O O3 0.900696 0.770086 0.301620
O O4 0.008710 0.704857 0.222548
O O5 0.112166 0.500000 0.229058
O O6 0.103242 0.708902 0.322093
O O7 0.145245 0.779670 0.204370
O O8 0.622357 0.221894 0.450097
O O9 0.495542 0.273785 0.402074
O O10 0.543639 0.000000 0.396306
O O11 0.085988 0.500000 0.016968
O O12 0.110988 0.253706 0.080236
O O13 0.132016 0.258963 0.952594
O O14 0.000000 0.266440 0.000000
O O15 0.248777 0.760859 0.116908
O O16 0.333498 0.000000 0.113865
O O17 0.181070 0.500000 0.519441
O O18 0.250000 0.750000 0.500000
O O19 0.143590 0.745168 0.579150
O O20 0.335237 0.500000 0.878974
O O21 0.408218 0.500000 0.381260
#
# Coordination Sequence:
#
# PCOD8102899 Si02
#       8
#     8   8   8   8   8   8   8   8
#     4   9  18  37  61  80 103 141 187 229 268 315
#     4   9  18  35  58  80 103 138 183 223 261 314
#     4   9  20  39  61  82 107 144 188 232 277 328
#     4  10  20  37  60  79  99 137 186 226 261 314
#     4   9  19  35  55  80 108 139 178 222 270 324
#     4  11  23  39  58  82 114 149 187 232 282 334
#     4  11  22  34  51  80 115 142 168 214 274 327
#     4  11  22  36  57  86 116 146 185 230 276 331
#
# _framework density 19.383647
#
# number of rings (size 3 to 8) (size 9 to 14) (size 15 to 20)
#    0.000    2.125    0.000    4.125    0.000    7.750 
#    0.000    5.000    0.000    0.000    0.000    0.000 
#    0.000    0.000    0.000    0.000    0.000    0.000 
#
# Total GULP energy -396922.123755 kJ/mol
# GULP energy per Si atom -12403.816367 kJ/mol
# Density = 1.933953 g / cm^3
# Si number density = 19.383647 Si / 1000 Ang^3
#
#
#
# Elastic Constant Matrix: (Units=GPa)
#
#
# Indices 1 2 3 4 5 6 
#
# 1 89.8539 28.7874 40.9379 0.0000 -25.1687 0.0000
# 2 28.7874 52.5597 28.3808 0.0000 -7.1210 0.0000
# 3 40.9379 28.3808 88.5907 0.0000 -19.3338 0.0000
# 4 0.0000 0.0000 0.0000 26.0685 0.0000 -7.3249
# 5 -25.1687 -7.1210 -19.3338 0.0000 32.4748 0.0000
# 6 0.0000 0.0000 0.0000 -7.3249 0.0000 25.4938
#
#
#
# Elastic Compliance Matrix: (Units=1/GPa)
#
#
# Indices 1 2 3 4 5 6 
#
# 1 0.017752 -0.006187 -0.004039 0.000000 0.009997 0.000000
# 2 -0.006187 0.025178 -0.005802 0.000000 -0.002729 0.000000
# 3 -0.004039 -0.005802 0.016151 0.000000 0.005212 0.000000
# 4 0.000000 0.000000 0.000000 0.041730 0.000000 0.011990
# 5 0.009997 -0.002729 0.005212 0.000000 0.041045 0.000000
# 6 0.000000 0.000000 0.000000 0.011990 0.000000 0.042670
#
#
# Mechanical properties :
#
#
# Convention : Reuss Voigt Hill
#
# Bulk Modulus (GPa) = 37.00584 47.46850 42.23717
# Shear Modulus (GPa) = 22.16389 25.66730 23.91559
#
# Velocity S-wave (km/s) = 3.38514 3.64287 3.51636
# Velocity P-wave (km/s) = 5.86614 6.49893 6.19062
#
# Compressibility (1/GPa) = 0.02702276
#
# Stress axis : x y z
#
# Youngs Moduli (GPa) = 56.33188 39.71677 61.91612
#
# Poissons Ratio (x) = 0.24574 0.25011
# Poissons Ratio (y) = 0.34854 0.35926
# Poissons Ratio (z) = 0.22755 0.23045
#
# Static dielectric constant tensor:
#      x y z
#    x 3.574110 0.000000 -0.011870 
#    y 0.000000 3.310260 0.000000 
#    z -0.011870 0.000000 3.716850 
# 
# 
# High freq. dielectric constant tensor:
#      x y z
#    x 1.755780 0.000000 -0.003290 
#    y 0.000000 1.736330 0.000000 
#    z -0.003290 0.000000 1.769840 
# 
# From -- ./inp_files/314108.got.cif
#   From: 2010.06.25/outbox.cif.g09.slc.cpg/sg12_158_cif.got.tgz:314108.got - 2010.06.28 00:19:55.
