data_PCOD8102690
_publ_section_title
;
Structure prediction by ZEFSAII (Michael W. Deem and Ramdas Pophale) SiO2 
 PCOD8102690
Probable space group: C 2/M
;
_chemical_formula_sum "Si O2"
_cell_formula_units_Z 48
_cell_length_a 25.006616
_cell_length_b 7.539956
_cell_length_c 14.143652
_cell_angle_alpha 90.000000
_cell_angle_beta 72.701553
_cell_angle_gamma 90.000000
_cell_volume 2546.147415
_symmetry_space_group_name_H-M "C 2/M"
_symmetry_group_IT_number 12
_symmetry_cell_setting 'monoclinic'
loop_
_space_group_symop_operation_xyz
x,y,z
-x,y,-z
-x,-y,-z
x,-y,z
1/2+x,1/2+y,z
1/2-x,1/2+y,-z
1/2-x,1/2-y,-z
1/2+x,1/2-y,z
loop_
_atom_site_type_symbol
_atom_site_label
_atom_site_fract_x
_atom_site_fract_y
_atom_site_fract_z
Si Si1 0.633669 0.700163 0.248596
Si Si2 0.415940 0.000000 0.609999
Si Si3 0.566078 0.291723 0.105437
Si Si4 0.130026 0.790027 0.892686
Si Si5 0.250482 0.792598 0.889451
Si Si6 0.541076 0.000000 0.618560
Si Si7 0.054848 0.208073 0.762749
O O1 0.614023 0.500000 0.283097
O O2 0.600358 0.782874 0.176898
O O3 0.699358 0.694653 0.190283
O O4 0.619329 0.824672 0.344770
O O5 0.475620 0.000000 0.630172
O O6 0.421893 0.000000 0.494622
O O7 0.575757 0.500000 0.098259
O O8 0.500983 0.243895 0.149068
O O9 0.590875 0.207696 0.996163
O O10 0.193206 0.720393 0.872374
O O11 0.106592 0.734894 0.802418
O O12 0.128257 0.000000 0.903308
O O13 0.257534 0.000000 0.869455
O O14 0.250000 0.750000 0.000000
O O15 0.557302 0.822235 0.666531
O O16 0.056283 0.000000 0.734605
#
# Coordination Sequence:
#
# PCOD8102690 Si02
#       7
#     8   4   8   8   8   4   8
#     4  11  21  37  59  84 116 153 194 232 288 346
#     4  11  24  42  61  86 115 146 183 255 304 340
#     4   9  16  30  54  82 118 155 187 218 273 344
#     4   9  18  32  53  83 120 163 191 224 279 339
#     4  11  20  33  54  85 124 159 195 234 274 331
#     4  11  24  40  62  89 112 139 198 245 299 351
#     4  10  20  37  58  83 118 156 189 235 283 347
#
# _framework density 18.852011000000001
#
# number of rings (size 3 to 8) (size 9 to 14) (size 15 to 20)
#    0.000    1.833    4.167    1.000    0.000    2.667 
#    3.000    4.167    0.000    1.000    0.000    0.000 
#    0.000    0.000    0.000    0.000    0.000    0.000 
#
# Total GULP energy -297596.548802 kJ/mol
# GULP energy per Si atom -12399.856200 kJ/mol
# Density = 1.880910 g / cm^3
# Si number density = 18.852011 Si / 1000 Ang^3
#
#
#
# Elastic Constant Matrix: (Units=GPa)
#
#
# Indices 1 2 3 4 5 6 
#
# 1 131.1871 24.1539 53.6699 0.0000 7.4604 0.0000
# 2 24.1539 81.5170 47.1646 0.0000 2.0652 0.0000
# 3 53.6699 47.1646 127.4067 0.0000 -0.3428 0.0000
# 4 0.0000 0.0000 0.0000 27.2245 0.0000 0.8719
# 5 7.4604 2.0652 -0.3428 0.0000 25.6287 0.0000
# 6 0.0000 0.0000 0.0000 0.8719 0.0000 18.7950
#
#
#
# Elastic Compliance Matrix: (Units=1/GPa)
#
#
# Indices 1 2 3 4 5 6 
#
# 1 0.009424 -0.000536 -0.003779 0.000000 -0.002751 0.000000
# 2 -0.000536 0.015687 -0.005585 0.000000 -0.001183 0.000000
# 3 -0.003779 -0.005585 0.011513 0.000000 0.001704 0.000000
# 4 0.000000 0.000000 0.000000 0.036786 0.000000 -0.001707
# 5 -0.002751 -0.001183 0.001704 0.000000 0.039937 0.000000
# 6 0.000000 0.000000 0.000000 -0.001707 0.000000 0.053285
#
#
# Mechanical properties :
#
#
# Convention : Reuss Voigt Hill
#
# Bulk Modulus (GPa) = 59.43656 65.56529 62.50093
# Shear Modulus (GPa) = 26.03634 28.67115 27.35375
#
# Velocity S-wave (km/s) = 3.72033 3.90404 3.81330
# Velocity P-wave (km/s) = 7.07467 7.42809 7.25353
#
# Compressibility (1/GPa) = 0.01682466
#
# Stress axis : x y z
#
# Youngs Moduli (GPa) = 106.11517 63.74542 86.86196
#
# Poissons Ratio (x) = 0.03419 0.32821
# Poissons Ratio (y) = 0.05692 0.48508
# Poissons Ratio (z) = 0.40096 0.35599
#
# Static dielectric constant tensor:
#      x y z
#    x 3.613970 0.000000 -0.018190 
#    y 0.000000 3.752870 0.000000 
#    z -0.018190 0.000000 3.228910 
# 
# 
# High freq. dielectric constant tensor:
#      x y z
#    x 1.734350 0.000000 -0.001300 
#    y 0.000000 1.730350 0.000000 
#    z -0.001300 0.000000 1.700930 
# 
# From -- ./inp_files/172964.got.cif
#   From: 2010.06.25/outbox.cif.g09.slc.cpg/sg12_87_cif.got.tgz:172964.got - 2010.06.28 00:19:55.
