data_PCOD8102581
_publ_section_title
;
Structure prediction by ZEFSAII (Michael W. Deem and Ramdas Pophale) SiO2 
 PCOD8102581
Probable space group: C 2/M
;
_chemical_formula_sum "Si O2"
_cell_formula_units_Z 48
_cell_length_a 10.926147
_cell_length_b 17.361139
_cell_length_c 19.944420
_cell_angle_alpha 90.000000
_cell_angle_beta 138.547274
_cell_angle_gamma 90.000000
_cell_volume 2504.527936
_symmetry_space_group_name_H-M "C 2/M"
_symmetry_group_IT_number 12
_symmetry_cell_setting 'monoclinic'
loop_
_space_group_symop_operation_xyz
x,y,z
-x,y,-z
-x,-y,-z
x,-y,z
1/2+x,1/2+y,z
1/2-x,1/2+y,-z
1/2-x,1/2-y,-z
1/2+x,1/2-y,z
loop_
_atom_site_type_symbol
_atom_site_label
_atom_site_fract_x
_atom_site_fract_y
_atom_site_fract_z
Si Si1 0.207634 0.672867 0.173261
Si Si2 0.927736 0.089492 0.684606
Si Si3 0.726496 0.827843 0.722537
Si Si4 0.021658 0.089410 0.082254
Si Si5 0.908294 0.415408 0.534674
Si Si6 0.299264 0.172984 0.983939
O O1 0.359332 0.606099 0.246968
O O2 0.250172 0.739019 0.246051
O O3 0.997105 0.642055 0.093133
O O4 0.215072 0.698428 0.099102
O O5 0.855562 0.148402 0.712306
O O6 0.807656 0.104034 0.567339
O O7 0.907416 0.000000 0.699964
O O8 0.511179 0.849413 0.620354
O O9 0.788623 0.877494 0.811334
O O10 0.045498 0.000000 0.085936
O O11 0.849627 0.107519 0.060301
O O12 0.000000 0.127103 0.000000
O O13 0.928533 0.500000 0.577541
O O14 0.000000 0.419513 0.500000
O O15 0.250000 0.250000 0.000000
#
# Coordination Sequence:
#
# PCOD8102581 Si02
#       6
#     8   8   8   8   8   8
#     4  11  22  32  56  82 109 155 185 229 283 338
#     4  10  20  37  57  82 114 150 192 233 280 336
#     4  11  19  33  55  80 113 147 187 237 279 327
#     4  11  22  35  56  81 107 147 195 236 275 335
#     4   8  16  31  54  79 109 148 187 232 283 330
#     4  11  21  37  51  75 117 152 185 225 284 337
#
# _framework density 19.165288
#
# number of rings (size 3 to 8) (size 9 to 14) (size 15 to 20)
#    0.000    1.667    3.333    3.500    0.000    1.333 
#    0.000    1.667    0.000    0.000    0.000    0.000 
#    0.000   27.333    0.000    0.000    0.000    0.000 
#
# Total GULP energy -297329.932254 kJ/mol
# GULP energy per Si atom -12388.747177 kJ/mol
# Density = 1.912167 g / cm^3
# Si number density = 19.165288 Si / 1000 Ang^3
#
#
#
# Elastic Constant Matrix: (Units=GPa)
#
#
# Indices 1 2 3 4 5 6 
#
# 1 47.5650 10.2730 24.3505 0.0000 8.2924 0.0000
# 2 10.2730 54.1303 30.2279 0.0000 -0.1795 0.0000
# 3 24.3505 30.2279 137.7098 0.0001 19.5535 0.0001
# 4 0.0000 0.0000 0.0001 26.8189 0.0000 0.7122
# 5 8.2924 -0.1795 19.5535 0.0000 32.2562 0.0000
# 6 0.0000 0.0000 0.0001 0.7122 0.0000 21.5165
#
#
#
# Elastic Compliance Matrix: (Units=1/GPa)
#
#
# Indices 1 2 3 4 5 6 
#
# 1 0.023934 -0.002894 -0.002977 0.000000 -0.004364 0.000000
# 2 -0.002894 0.021710 -0.004789 0.000000 0.003768 0.000000
# 3 -0.002977 -0.004789 0.009557 0.000000 -0.005055 0.000000
# 4 0.000000 0.000000 0.000000 0.037320 0.000000 -0.001235
# 5 -0.004364 0.003768 -0.005055 0.000000 0.035209 0.000000
# 6 0.000000 0.000000 0.000000 -0.001235 0.000000 0.046517
#
#
# Mechanical properties :
#
#
# Convention : Reuss Voigt Hill
#
# Bulk Modulus (GPa) = 29.51526 41.01198 35.26362
# Shear Modulus (GPa) = 24.17097 27.75523 25.96310
#
# Velocity S-wave (km/s) = 3.55517 3.80965 3.68461
# Velocity P-wave (km/s) = 5.68209 6.38724 6.04495
#
# Compressibility (1/GPa) = 0.03388078
#
# Stress axis : x y z
#
# Youngs Moduli (GPa) = 41.78171 46.06212 104.63639
#
# Poissons Ratio (x) = 0.13331 0.31152
# Poissons Ratio (y) = 0.12092 0.50106
# Poissons Ratio (z) = 0.12439 0.22057
#
# Static dielectric constant tensor:
#      x y z
#    x 2.993330 0.000000 0.158900 
#    y 0.000000 3.127580 0.000000 
#    z 0.158900 0.000000 4.221870 
# 
# 
# High freq. dielectric constant tensor:
#      x y z
#    x 1.709560 0.000000 0.013400 
#    y 0.000000 1.726890 0.000000 
#    z 0.013400 0.000000 1.769770 
# 
# From -- ./inp_files/306030.got.cif
#   From: 2010.06.25/outbox.cif.g09.slc.cpg/sg12_154_cif.got.tgz:306030.got - 2010.06.28 00:19:55.
