data_PCOD8102334
_publ_section_title
;
Structure prediction by ZEFSAII (Michael W. Deem and Ramdas Pophale) SiO2 
 PCOD8102334
Probable space group: C 2/M
;
_chemical_formula_sum "Si O2"
_cell_formula_units_Z 48
_cell_length_a 24.560400
_cell_length_b 9.047690
_cell_length_c 11.166979
_cell_angle_alpha 90.000000
_cell_angle_beta 108.189458
_cell_angle_gamma 90.000000
_cell_volume 2357.468722
_symmetry_space_group_name_H-M "C 2/M"
_symmetry_group_IT_number 12
_symmetry_cell_setting 'monoclinic'
loop_
_space_group_symop_operation_xyz
x,y,z
-x,y,-z
-x,-y,-z
x,-y,z
1/2+x,1/2+y,z
1/2-x,1/2+y,-z
1/2-x,1/2-y,-z
1/2+x,1/2-y,z
loop_
_atom_site_type_symbol
_atom_site_label
_atom_site_fract_x
_atom_site_fract_y
_atom_site_fract_z
Si Si1 0.782369 0.331768 0.126406
Si Si2 0.379395 0.330047 0.095436
Si Si3 0.078797 0.326978 0.497925
Si Si4 0.327028 0.331032 0.811472
Si Si5 0.020314 0.171979 0.676892
Si Si6 0.809677 0.671163 0.565829
O O1 0.792784 0.500000 0.097994
O O2 0.844447 0.254982 0.177124
O O3 0.742104 0.319684 0.215662
O O4 0.750000 0.250000 0.000000
O O5 0.360129 0.500000 0.088554
O O6 0.446548 0.309318 0.173062
O O7 0.363768 0.271784 0.951193
O O8 0.066532 0.500000 0.511924
O O9 0.062394 0.230932 0.601739
O O10 0.145495 0.302466 0.511522
O O11 0.038051 0.267573 0.361419
O O12 0.344293 0.500000 0.795779
O O13 0.340715 0.231555 0.706567
O O14 0.006505 0.000000 0.644116
O O15 0.796437 0.500000 0.574344
O O16 0.750000 0.750000 0.500000
#
# Coordination Sequence:
#
# PCOD8102334 Si02
#       6
#     8   8   8   8   8   8
#     4   9  17  29  48  75 109 146 182 224 273 324
#     4   9  19  34  54  84 115 144 184 232 281 335
#     4  10  22  40  58  82 115 149 188 235 284 334
#     4   9  19  36  54  78 114 149 185 230 278 334
#     4  10  20  36  62  90 113 144 188 234 281 335
#     4  11  25  41  59  82 112 151 193 233 280 339
#
# _framework density 20.360821999999999
#
# number of rings (size 3 to 8) (size 9 to 14) (size 15 to 20)
#    0.000    2.333    0.000    4.000    2.333    7.333 
#    0.000    0.833    0.000    5.000    0.000    0.000 
#    0.000    0.000    0.000    0.000    0.000    0.000 
#
# Total GULP energy -297417.116151 kJ/mol
# GULP energy per Si atom -12392.379840 kJ/mol
# Density = 2.031448 g / cm^3
# Si number density = 20.360822 Si / 1000 Ang^3
#
#
#
# Elastic Constant Matrix: (Units=GPa)
#
#
# Indices 1 2 3 4 5 6 
#
# 1 75.6884 29.7384 18.1353 0.0000 11.8950 0.0000
# 2 29.7384 92.2053 16.5846 0.0000 -1.4260 0.0000
# 3 18.1353 16.5846 64.0181 0.0000 14.2309 0.0000
# 4 0.0000 0.0000 0.0000 25.9635 0.0000 0.4829
# 5 11.8950 -1.4260 14.2309 0.0000 29.8750 0.0000
# 6 0.0000 0.0000 0.0000 0.4829 0.0000 31.7978
#
#
#
# Elastic Compliance Matrix: (Units=1/GPa)
#
#
# Indices 1 2 3 4 5 6 
#
# 1 0.016631 -0.005078 -0.002091 0.000000 -0.005868 0.000000
# 2 -0.005078 0.013054 -0.002831 0.000000 0.003994 0.000000
# 3 -0.002091 -0.002831 0.018780 0.000000 -0.008248 0.000000
# 4 0.000000 0.000000 0.000000 0.038526 0.000000 -0.000585
# 5 -0.005868 0.003994 -0.008248 0.000000 0.039929 0.000000
# 6 0.000000 0.000000 0.000000 -0.000585 0.000000 0.031458
#
#
# Mechanical properties :
#
#
# Convention : Reuss Voigt Hill
#
# Bulk Modulus (GPa) = 35.13246 40.09205 37.61225
# Shear Modulus (GPa) = 26.61462 28.69083 27.65273
#
# Velocity S-wave (km/s) = 3.61937 3.75790 3.68929
# Velocity P-wave (km/s) = 5.89567 6.20988 6.05481
#
# Compressibility (1/GPa) = 0.02846370
#
# Stress axis : x y z
#
# Youngs Moduli (GPa) = 60.13000 76.60363 53.24836
#
# Poissons Ratio (x) = 0.38902 0.11135
# Poissons Ratio (y) = 0.30536 0.15074
# Poissons Ratio (z) = 0.12574 0.21686
#
# Static dielectric constant tensor:
#      x y z
#    x 3.893430 0.000000 0.213050 
#    y 0.000000 3.922550 0.000000 
#    z 0.213050 0.000000 3.662900 
# 
# 
# High freq. dielectric constant tensor:
#      x y z
#    x 1.778250 0.000000 0.019270 
#    y 0.000000 1.800690 0.000000 
#    z 0.019270 0.000000 1.788530 
# 
# From -- ./inp_files/173081.got.cif
#   From: 2010.06.25/outbox.cif.g09.slc.cpg/sg12_87_cif.got.tgz:173081.got - 2010.06.28 00:19:55.
