data_PCOD8102464
_publ_section_title
;
Structure prediction by ZEFSAII (Michael W. Deem and Ramdas Pophale) SiO2 
 PCOD8102464
Probable space group: C 2/M
;
_chemical_formula_sum "Si O2"
_cell_formula_units_Z 64
_cell_length_a 28.766375
_cell_length_b 14.133020
_cell_length_c 8.540327
_cell_angle_alpha 90.000000
_cell_angle_beta 55.307852
_cell_angle_gamma 90.000000
_cell_volume 2854.852862
_symmetry_space_group_name_H-M "C 2/M"
_symmetry_group_IT_number 12
_symmetry_cell_setting 'monoclinic'
loop_
_space_group_symop_operation_xyz
x,y,z
-x,y,-z
-x,-y,-z
x,-y,z
1/2+x,1/2+y,z
1/2-x,1/2+y,-z
1/2-x,1/2-y,-z
1/2+x,1/2-y,z
loop_
_atom_site_type_symbol
_atom_site_label
_atom_site_fract_x
_atom_site_fract_y
_atom_site_fract_z
Si Si1 0.440292 0.221302 0.802348
Si Si2 0.566229 0.212488 0.546914
Si Si3 0.667185 0.108896 0.517668
Si Si4 0.115717 0.107785 0.585744
Si Si5 0.216237 0.107490 0.866108
Si Si6 0.271672 0.608589 0.799369
Si Si7 0.447195 0.393359 0.994677
Si Si8 0.828449 0.291692 0.168518
O O1 0.502596 0.177089 0.710237
O O2 0.421936 0.208408 0.659535
O O3 0.441704 0.331536 0.849164
O O4 0.391770 0.172667 0.001702
O O5 0.608970 0.143734 0.553831
O O6 0.572220 0.321874 0.584370
O O7 0.717311 0.120806 0.297007
O O8 0.683848 0.173298 0.633591
O O9 0.660236 0.000000 0.583390
O O10 0.179278 0.137359 0.417204
O O11 0.108122 0.118458 0.787548
O O12 0.102374 0.000000 0.557263
O O13 0.177473 0.177710 0.837506
O O14 0.196961 0.000000 0.862802
O O15 0.206901 0.129956 0.066916
O O16 0.254855 0.500000 0.811283
O O17 0.216348 0.667942 0.868508
O O18 0.455388 0.500000 0.920285
O O19 0.500000 0.360917 0.000000
#
# Coordination Sequence:
#
# PCOD8102464 Si02
#       8
#     8   8   8   8   8   8   8   8
#     4  11  25  39  64  91 123 166 214 258 312 373
#     4  11  23  44  63  90 124 164 213 267 310 368
#     4  11  25  44  67  92 122 161 209 267 323 376
#     4  10  20  36  64  95 130 170 205 249 308 370
#     4  10  22  41  65  94 130 168 208 258 314 377
#     4  10  21  39  64  96 131 168 215 261 307 367
#     4  10  20  37  59  89 130 169 202 246 304 367
#     4  12  23  39  63  96 129 167 206 257 317 379
#
# _framework density 22.417967999999998
#
# number of rings (size 3 to 8) (size 9 to 14) (size 15 to 20)
#    0.000    1.375    1.250    4.125    0.000    2.000 
#    0.000    9.375    0.000    0.000    0.000    0.000 
#    0.000    0.000    0.000    0.000    0.000    0.000 
#
# Total GULP energy -396805.234381 kJ/mol
# GULP energy per Si atom -12400.163574 kJ/mol
# Density = 2.236694 g / cm^3
# Si number density = 22.417968 Si / 1000 Ang^3
#
#
#
# Elastic Constant Matrix: (Units=GPa)
#
#
# Indices 1 2 3 4 5 6 
#
# 1 98.0388 45.4439 35.2970 0.0000 -3.2028 0.0000
# 2 45.4439 74.5171 37.6908 0.0000 5.6027 0.0000
# 3 35.2970 37.6908 113.3141 0.0000 -11.8879 0.0000
# 4 0.0000 0.0000 0.0000 29.3761 0.0000 4.2360
# 5 -3.2028 5.6027 -11.8879 0.0000 36.0863 0.0000
# 6 0.0000 0.0000 0.0000 4.2360 0.0000 21.7926
#
#
#
# Elastic Compliance Matrix: (Units=1/GPa)
#
#
# Indices 1 2 3 4 5 6 
#
# 1 0.014694 -0.008309 -0.001596 0.000000 0.002068 0.000000
# 2 -0.008309 0.021545 -0.005186 0.000000 -0.005791 0.000000
# 3 -0.001596 -0.005186 0.011515 0.000000 0.004457 0.000000
# 4 0.000000 0.000000 0.000000 0.035023 0.000000 -0.006808
# 5 0.002068 -0.005791 0.004457 0.000000 0.030262 0.000000
# 6 0.000000 0.000000 0.000000 -0.006808 0.000000 0.047210
#
#
# Mechanical properties :
#
#
# Convention : Reuss Voigt Hill
#
# Bulk Modulus (GPa) = 56.90980 58.08148 57.49564
# Shear Modulus (GPa) = 25.47267 28.61355 27.04311
#
# Velocity S-wave (km/s) = 3.37450 3.57650 3.47697
# Velocity P-wave (km/s) = 6.37369 6.55895 6.46699
#
# Compressibility (1/GPa) = 0.01757167
#
# Stress axis : x y z
#
# Youngs Moduli (GPa) = 68.05583 46.41381 86.84526
#
# Poissons Ratio (x) = 0.38565 0.13863
# Poissons Ratio (y) = 0.56548 0.45036
# Poissons Ratio (z) = 0.10864 0.24069
#
# Static dielectric constant tensor:
#      x y z
#    x 3.883570 0.000000 -0.194380 
#    y 0.000000 4.014580 0.000000 
#    z -0.194380 0.000000 4.300520 
# 
# 
# High freq. dielectric constant tensor:
#      x y z
#    x 1.882980 0.000000 -0.009930 
#    y 0.000000 1.868900 0.000000 
#    z -0.009930 0.000000 1.897720 
# 
# From -- ./inp_files/111950.got.cif
#   From: 2010.06.25/outbox.cif.g09.slc.cpg/sg12_56_cif.got.tgz:111950.got - 2010.06.28 00:19:55.
