data_PCOD8102695
_publ_section_title
;
Structure prediction by ZEFSAII (Michael W. Deem and Ramdas Pophale) SiO2 
 PCOD8102695
Probable space group: C 2/M
;
_chemical_formula_sum "Si O2"
_cell_formula_units_Z 56
_cell_length_a 30.904522
_cell_length_b 9.024071
_cell_length_c 14.690122
_cell_angle_alpha 90.000000
_cell_angle_beta 134.304693
_cell_angle_gamma 90.000000
_cell_volume 2931.850549
_symmetry_space_group_name_H-M "C 2/M"
_symmetry_group_IT_number 12
_symmetry_cell_setting 'monoclinic'
loop_
_space_group_symop_operation_xyz
x,y,z
-x,y,-z
-x,-y,-z
x,-y,z
1/2+x,1/2+y,z
1/2-x,1/2+y,-z
1/2-x,1/2-y,-z
1/2+x,1/2-y,z
loop_
_atom_site_type_symbol
_atom_site_label
_atom_site_fract_x
_atom_site_fract_y
_atom_site_fract_z
Si Si1 0.930284 0.824812 0.064315
Si Si2 0.700907 0.832002 0.820551
Si Si3 0.676191 0.171646 0.985847
Si Si4 0.241213 0.671584 0.392069
Si Si5 0.603386 0.829349 0.162592
Si Si6 0.550369 0.826594 0.279411
Si Si7 0.156864 0.330367 0.564302
O O1 0.871214 0.767336 0.028290
O O2 0.989183 0.764901 0.202913
O O3 0.930335 0.000000 0.065183
O O4 0.932277 0.768164 0.963250
O O5 0.665812 0.799511 0.862989
O O6 0.653015 0.811833 0.667916
O O7 0.726644 0.000000 0.859869
O O8 0.756399 0.720461 0.888120
O O9 0.668004 0.000000 0.000272
O O10 0.253381 0.500000 0.426059
O O11 0.250000 0.750000 0.500000
O O12 0.174401 0.700640 0.255658
O O13 0.287283 0.732893 0.386057
O O14 0.582961 0.782367 0.233251
O O15 0.587143 0.000000 0.119940
O O16 0.594360 0.778391 0.426666
O O17 0.534940 0.000000 0.260368
O O18 0.169467 0.500000 0.553738
#
# Coordination Sequence:
#
# PCOD8102695 Si02
#       7
#     8   8   8   8   8   8   8
#     4  12  25  38  55  81 110 146 191 237 277 320
#     4   9  19  36  62  91 115 140 178 229 278 328
#     4  10  20  37  60  86 115 147 181 223 279 334
#     4  11  21  34  54  82 114 147 182 222 270 324
#     4  10  21  38  58  81 109 148 189 227 279 334
#     4  10  21  39  58  77 109 150 187 227 276 336
#     4  10  20  37  58  84 114 146 183 226 278 332
#
# _framework density 19.100563000000001
#
# number of rings (size 3 to 8) (size 9 to 14) (size 15 to 20)
#    0.000    1.714    1.429    3.429    0.000    7.429 
#    0.000    0.714    0.000    4.286    0.000    0.000 
#    0.000    0.000    0.000    0.000    0.000    0.000 
#
# Total GULP energy -347311.228221 kJ/mol
# GULP energy per Si atom -12403.972436 kJ/mol
# Density = 1.905709 g / cm^3
# Si number density = 19.100563 Si / 1000 Ang^3
#
#
#
# Elastic Constant Matrix: (Units=GPa)
#
#
# Indices 1 2 3 4 5 6 
#
# 1 52.8465 27.4185 35.9748 0.0000 -7.9138 0.0000
# 2 27.4185 83.0868 41.5170 0.0000 0.5128 0.0000
# 3 35.9748 41.5170 123.9200 0.0000 -13.0259 0.0000
# 4 0.0000 0.0000 0.0000 26.4791 0.0000 5.2208
# 5 -7.9138 0.5128 -13.0259 0.0000 28.1032 0.0000
# 6 0.0000 0.0000 0.0000 5.2208 0.0000 29.9303
#
#
#
# Elastic Compliance Matrix: (Units=1/GPa)
#
#
# Indices 1 2 3 4 5 6 
#
# 1 0.026344 -0.006219 -0.005017 0.000000 0.005206 0.000000
# 2 -0.006219 0.016112 -0.004003 0.000000 -0.003900 0.000000
# 3 -0.005017 -0.004003 0.011276 0.000000 0.003887 0.000000
# 4 0.000000 0.000000 0.000000 0.039111 0.000000 -0.006822
# 5 0.005206 -0.003900 0.003887 0.000000 0.038922 0.000000
# 6 0.000000 0.000000 0.000000 -0.006822 0.000000 0.034601
#
#
# Mechanical properties :
#
#
# Convention : Reuss Voigt Hill
#
# Bulk Modulus (GPa) = 43.00168 52.18601 47.59385
# Shear Modulus (GPa) = 24.43861 27.23205 25.83533
#
# Velocity S-wave (km/s) = 3.58085 3.77997 3.68175
# Velocity P-wave (km/s) = 6.29753 6.81410 6.56090
#
# Compressibility (1/GPa) = 0.02325490
#
# Stress axis : x y z
#
# Youngs Moduli (GPa) = 37.95886 62.06599 88.68557
#
# Poissons Ratio (x) = 0.38597 0.44495
# Poissons Ratio (y) = 0.23606 0.35498
# Poissons Ratio (z) = 0.19045 0.24843
#
# Static dielectric constant tensor:
#      x y z
#    x 3.474420 0.000000 -0.081870 
#    y 0.000000 3.584250 0.000000 
#    z -0.081870 0.000000 3.649640 
# 
# 
# High freq. dielectric constant tensor:
#      x y z
#    x 1.731300 0.000000 -0.007600 
#    y 0.000000 1.741070 0.000000 
#    z -0.007600 0.000000 1.750580 
# 
# From -- ./inp_files/237482.got.cif
#   From: 2010.06.25/outbox.cif.g09.slc.cpg/sg12_119_cif.got.tgz:237482.got - 2010.06.28 00:19:55.
