data_PCOD8102314
_publ_section_title
;
Structure prediction by ZEFSAII (Michael W. Deem and Ramdas Pophale) SiO2 
 PCOD8102314
Probable space group: C 2/M
;
_chemical_formula_sum "Si O2"
_cell_formula_units_Z 44
_cell_length_a 13.408533
_cell_length_b 20.512861
_cell_length_c 11.749173
_cell_angle_alpha 90.000000
_cell_angle_beta 40.501070
_cell_angle_gamma 90.000000
_cell_volume 2098.788679
_symmetry_space_group_name_H-M "C 2/M"
_symmetry_group_IT_number 12
_symmetry_cell_setting 'monoclinic'
loop_
_space_group_symop_operation_xyz
x,y,z
-x,y,-z
-x,-y,-z
x,-y,z
1/2+x,1/2+y,z
1/2-x,1/2+y,-z
1/2-x,1/2-y,-z
1/2+x,1/2-y,z
loop_
_atom_site_type_symbol
_atom_site_label
_atom_site_fract_x
_atom_site_fract_y
_atom_site_fract_z
Si Si1 0.727127 0.927678 0.121033
Si Si2 0.723762 0.217991 0.401091
Si Si3 0.653468 0.071768 0.934628
Si Si4 0.203863 0.202436 0.207883
Si Si5 0.566824 0.697658 0.093951
Si Si6 0.000000 0.380394 0.500000
O O1 0.615229 0.923519 0.326104
O O2 0.805417 0.000000 0.057118
O O3 0.625485 0.921430 0.094477
O O4 0.852166 0.869949 0.013356
O O5 0.750000 0.250000 0.500000
O O6 0.653191 0.269455 0.372769
O O7 0.599071 0.160358 0.507220
O O8 0.889249 0.192406 0.211458
O O9 0.773419 0.125795 0.790756
O O10 0.719038 0.000000 0.847744
O O11 0.500000 0.085522 0.000000
O O12 0.073080 0.210521 0.225065
O O13 0.357071 0.239545 0.031462
#
# Coordination Sequence:
#
# PCOD8102314 Si02
#       6
#     8   8   8   8   8   4
#     4  10  22  41  63  87 124 162 205 258 305 368
#     4  12  25  37  60  92 127 159 200 258 308 365
#     4   9  18  32  58  89 115 152 198 242 298 358
#     4  10  20  36  62  85 122 152 203 252 294 356
#     4  10  21  40  62  89 117 163 206 246 306 367
#     4  12  25  40  58  92 129 156 206 254 315 368
#
# _framework density 20.964472000000001
#
# number of rings (size 3 to 8) (size 9 to 14) (size 15 to 20)
#    0.000    1.636    1.818    3.000    7.636    0.000 
#    0.000    2.727    0.000    1.091    0.000    5.727 
#    0.000    0.000    0.000    0.000    0.000    0.000 
#
# Total GULP energy -272672.886328 kJ/mol
# GULP energy per Si atom -12394.222106 kJ/mol
# Density = 2.091676 g / cm^3
# Si number density = 20.964472 Si / 1000 Ang^3
#
#
#
# Elastic Constant Matrix: (Units=GPa)
#
#
# Indices 1 2 3 4 5 6 
#
# 1 98.1735 30.9163 16.0610 0.0015 5.7659 -0.0011
# 2 30.9163 106.3270 11.2579 -0.0013 7.6895 0.0004
# 3 16.0610 11.2579 43.6345 0.0006 10.5329 -0.0009
# 4 0.0015 -0.0013 0.0006 21.9727 -0.0009 9.6820
# 5 5.7659 7.6895 10.5329 -0.0009 40.4989 0.0007
# 6 -0.0011 0.0004 -0.0009 9.6820 0.0007 12.5182
#
#
#
# Elastic Compliance Matrix: (Units=1/GPa)
#
#
# Indices 1 2 3 4 5 6 
#
# 1 0.011720 -0.003025 -0.003488 -0.000002 -0.000187 0.000002
# 2 -0.003025 0.010511 -0.001302 0.000002 -0.001226 -0.000002
# 3 -0.003488 -0.001302 0.025990 -0.000002 -0.006015 0.000004
# 4 -0.000002 0.000002 -0.000002 0.069041 0.000003 -0.053398
# 5 -0.000187 -0.001226 -0.006015 0.000003 0.026516 -0.000004
# 6 0.000002 -0.000002 0.000004 -0.053398 -0.000004 0.121184
#
#
# Mechanical properties :
#
#
# Convention : Reuss Voigt Hill
#
# Bulk Modulus (GPa) = 30.68476 40.51174 35.59825
# Shear Modulus (GPa) = 17.15519 27.65793 22.40656
#
# Velocity S-wave (km/s) = 2.86369 3.63612 3.27278
# Velocity P-wave (km/s) = 5.05991 6.08231 5.59451
#
# Compressibility (1/GPa) = 0.03258947
#
# Stress axis : x y z
#
# Youngs Moduli (GPa) = 85.32160 95.13745 38.47667
#
# Poissons Ratio (x) = 0.28779 0.13422
# Poissons Ratio (y) = 0.25810 0.05011
# Poissons Ratio (z) = 0.29764 0.12391
#
# Static dielectric constant tensor:
#      x y z
#    x 4.108450 0.000000 0.147040 
#    y 0.000000 3.935990 0.000000 
#    z 0.147040 0.000000 3.523520 
# 
# 
# High freq. dielectric constant tensor:
#      x y z
#    x 1.838360 0.000000 0.019220 
#    y 0.000000 1.823090 0.000000 
#    z 0.019220 0.000000 1.794730 
# 
# From -- ./inp_files/147508.got.cif
#   From: 2010.06.25/outbox.cif.g09.slc.cpg/sg12_74_cif.got.tgz:147508.got - 2010.06.28 00:19:55.
