data_PCOD8102516
_publ_section_title
;
Structure prediction by ZEFSAII (Michael W. Deem and Ramdas Pophale) SiO2 
 PCOD8102516
Probable space group: C 2/M
;
_chemical_formula_sum "Si O2"
_cell_formula_units_Z 56
_cell_length_a 26.039785
_cell_length_b 12.535952
_cell_length_c 9.194324
_cell_angle_alpha 90.000000
_cell_angle_beta 70.935445
_cell_angle_gamma 90.000000
_cell_volume 2836.715552
_symmetry_space_group_name_H-M "C 2/M"
_symmetry_group_IT_number 12
_symmetry_cell_setting 'monoclinic'
loop_
_space_group_symop_operation_xyz
x,y,z
-x,y,-z
-x,-y,-z
x,-y,z
1/2+x,1/2+y,z
1/2-x,1/2+y,-z
1/2-x,1/2-y,-z
1/2+x,1/2-y,z
loop_
_atom_site_type_symbol
_atom_site_label
_atom_site_fract_x
_atom_site_fract_y
_atom_site_fract_z
Si Si1 0.362889 0.767297 0.093151
Si Si2 0.322416 0.692086 0.561735
Si Si3 0.293778 0.877960 0.395669
Si Si4 0.981064 0.188420 0.681779
Si Si5 0.414132 0.617527 0.273518
Si Si6 0.536673 0.121157 0.104476
Si Si7 0.641587 0.375692 0.167277
O O1 0.314670 0.820659 0.229301
O O2 0.403498 0.700421 0.156260
O O3 0.399722 0.859408 0.988418
O O4 0.338342 0.687405 0.994844
O O5 0.316567 0.815778 0.516517
O O6 0.271323 0.626060 0.546733
O O7 0.376875 0.641355 0.447386
O O8 0.326421 0.682015 0.731167
O O9 0.313944 0.000000 0.386098
O O10 0.980995 0.308723 0.741749
O O11 0.922996 0.132834 0.752816
O O12 0.000000 0.192616 0.500000
O O13 0.023360 0.120000 0.736220
O O14 0.401192 0.500000 0.225260
O O15 0.528242 0.000000 0.160216
O O16 0.500000 0.149854 0.000000
O O17 0.658322 0.500000 0.141915
#
# Coordination Sequence:
#
# PCOD8102516 Si02
#       7
#     8   8   8   8   8   8   8
#     4  10  22  37  57  85 113 150 197 233 277 345
#     4  10  22  38  60  89 114 147 194 237 283 348
#     4  10  21  41  64  84 113 152 192 239 288 334
#     4  11  22  35  54  86 117 146 191 229 278 346
#     4  11  20  35  57  83 116 153 187 229 280 337
#     4  10  20  37  56  75 107 151 191 233 280 326
#     4  11  22  37  58  87 123 152 183 238 291 337
#
# _framework density 19.741140000000001
#
# number of rings (size 3 to 8) (size 9 to 14) (size 15 to 20)
#    0.000    1.571    2.857    2.571    0.000    1.429 
#    0.000    6.429    0.000    0.000    0.000    0.000 
#    0.000    0.000    0.000    0.000    0.000    0.000 
#
# Total GULP energy -347254.636843 kJ/mol
# GULP energy per Si atom -12401.951316 kJ/mol
# Density = 1.969621 g / cm^3
# Si number density = 19.741140 Si / 1000 Ang^3
#
#
#
# Elastic Constant Matrix: (Units=GPa)
#
#
# Indices 1 2 3 4 5 6 
#
# 1 70.6949 28.8053 7.8088 0.0000 6.9282 0.0000
# 2 28.8053 132.3822 45.7075 0.0000 7.3881 0.0000
# 3 7.8088 45.7075 73.3745 0.0000 16.9867 0.0000
# 4 0.0000 0.0000 0.0000 19.6005 0.0000 0.7372
# 5 6.9282 7.3881 16.9867 0.0000 27.6087 0.0000
# 6 0.0000 0.0000 0.0000 0.7372 0.0000 21.5024
#
#
#
# Elastic Compliance Matrix: (Units=1/GPa)
#
#
# Indices 1 2 3 4 5 6 
#
# 1 0.015900 -0.003785 0.001580 0.000000 -0.003949 0.000000
# 2 -0.003785 0.010565 -0.006698 0.000000 0.002243 0.000000
# 3 0.001580 -0.006698 0.020185 0.000000 -0.011023 0.000000
# 4 0.000000 0.000000 0.000000 0.051085 0.000000 -0.001751
# 5 -0.003949 0.002243 -0.011023 0.000000 0.043393 0.000000
# 6 0.000000 0.000000 0.000000 -0.001751 0.000000 0.046567
#
#
# Mechanical properties :
#
#
# Convention : Reuss Voigt Hill
#
# Bulk Modulus (GPa) = 34.66923 49.01053 41.83988
# Shear Modulus (GPa) = 23.24346 26.68432 24.96389
#
# Velocity S-wave (km/s) = 3.43507 3.68055 3.55993
# Velocity P-wave (km/s) = 5.77347 6.55305 6.17557
#
# Compressibility (1/GPa) = 0.02884402
#
# Stress axis : x y z
#
# Youngs Moduli (GPa) = 62.89326 94.65464 49.54237
#
# Poissons Ratio (x) = 0.35824 -0.07827
# Poissons Ratio (y) = 0.23804 0.33182
# Poissons Ratio (z) = -0.09936 0.63397
#
# Static dielectric constant tensor:
#      x y z
#    x 3.519950 0.000000 0.014130 
#    y 0.000000 3.554110 0.000000 
#    z 0.014130 0.000000 3.604870 
# 
# 
# High freq. dielectric constant tensor:
#      x y z
#    x 1.764790 0.000000 -0.001130 
#    y 0.000000 1.771180 0.000000 
#    z -0.001130 0.000000 1.767490 
# 
# From -- ./inp_files/103119.got.cif
#   From: 2010.06.25/outbox.cif.g09.slc.cpg/sg12_52_cif.got.tgz:103119.got - 2010.06.28 00:19:55.
