data_PCOD8102761
_publ_section_title
;
Structure prediction by ZEFSAII (Michael W. Deem and Ramdas Pophale) SiO2 
 PCOD8102761
Probable space group: C 2/M
;
_chemical_formula_sum "Si O2"
_cell_formula_units_Z 48
_cell_length_a 19.737529
_cell_length_b 8.955870
_cell_length_c 30.722427
_cell_angle_alpha 90.000000
_cell_angle_beta 27.734144
_cell_angle_gamma 90.000000
_cell_volume 2527.284216
_symmetry_space_group_name_H-M "C 2/M"
_symmetry_group_IT_number 12
_symmetry_cell_setting 'monoclinic'
loop_
_space_group_symop_operation_xyz
x,y,z
-x,y,-z
-x,-y,-z
x,-y,z
1/2+x,1/2+y,z
1/2-x,1/2+y,-z
1/2-x,1/2-y,-z
1/2+x,1/2-y,z
loop_
_atom_site_type_symbol
_atom_site_label
_atom_site_fract_x
_atom_site_fract_y
_atom_site_fract_z
Si Si1 0.852884 0.824660 0.241930
Si Si2 0.530269 0.676342 0.916084
Si Si3 0.954005 0.175650 0.574532
Si Si4 0.269106 0.323287 0.121280
Si Si5 0.210051 0.676537 0.477512
Si Si6 0.527434 0.673085 0.733569
O O1 0.944950 0.772284 0.147523
O O2 0.709259 0.726540 0.324415
O O3 0.950756 0.787691 0.228175
O O4 0.811565 0.000000 0.263903
O O5 0.527405 0.500000 0.921171
O O6 0.661740 0.732847 0.872338
O O7 0.374459 0.735397 0.022334
O O8 0.000000 0.222381 0.500000
O O9 0.054572 0.261374 0.551480
O O10 0.968798 0.000000 0.573905
O O11 0.255144 0.500000 0.128167
O O12 0.109451 0.258697 0.207515
O O13 0.199501 0.500000 0.489064
O O14 0.250000 0.750000 0.500000
O O15 0.329289 0.723846 0.373922
O O16 0.497630 0.500000 0.743456
#
# Coordination Sequence:
#
# PCOD8102761 Si02
#       6
#     8   8   8   8   8   8
#     4  10  20  37  59  81 110 152 193 228 278 338
#     4   8  17  35  58  83 107 142 188 230 275 336
#     4  11  23  39  59  85 117 150 189 236 282 337
#     4   9  18  35  58  82 111 143 184 232 277 333
#     4  11  24  41  59  83 116 153 192 235 284 338
#     4  10  22  37  54  81 115 145 183 234 283 332
#
# _framework density 18.992719000000001
#
# number of rings (size 3 to 8) (size 9 to 14) (size 15 to 20)
#    0.000    2.167    1.667    2.000    2.333    3.333 
#    0.000    2.500    0.000    0.000    0.000    0.000 
#    0.000    0.000    0.000    0.000    0.000    0.000 
#
# Total GULP energy -297617.988924 kJ/mol
# GULP energy per Si atom -12400.749539 kJ/mol
# Density = 1.894949 g / cm^3
# Si number density = 18.992719 Si / 1000 Ang^3
#
#
#
# Elastic Constant Matrix: (Units=GPa)
#
#
# Indices 1 2 3 4 5 6 
#
# 1 95.8012 28.4456 14.1620 -0.0431 8.9673 0.0026
# 2 28.4456 44.2278 19.7639 -0.0527 -1.3552 -0.0180
# 3 14.1620 19.7639 49.2836 -0.0190 2.1702 0.0123
# 4 -0.0431 -0.0527 -0.0190 11.4990 0.0078 -8.3081
# 5 8.9673 -1.3552 2.1702 0.0078 42.2722 0.0009
# 6 0.0026 -0.0180 0.0123 -8.3081 0.0009 30.9264
#
#
#
# Elastic Compliance Matrix: (Units=1/GPa)
#
#
# Indices 1 2 3 4 5 6 
#
# 1 0.013298 -0.008529 -0.000265 0.000010 -0.003081 -0.000003
# 2 -0.008529 0.033106 -0.010977 0.000145 0.003434 0.000063
# 3 -0.000265 -0.010977 0.024838 -0.000026 -0.001571 -0.000023
# 4 0.000010 0.000145 -0.000026 0.107909 -0.000017 0.028989
# 5 -0.003081 0.003434 -0.001571 -0.000017 0.024500 -0.000002
# 6 -0.000003 0.000063 -0.000023 0.028989 -0.000002 0.040122
#
#
# Mechanical properties :
#
#
# Convention : Reuss Voigt Hill
#
# Bulk Modulus (GPa) = 31.54507 34.89507 33.22007
# Shear Modulus (GPa) = 17.01354 25.40226 21.20790
#
# Velocity S-wave (km/s) = 2.99623 3.66112 3.34523
# Velocity P-wave (km/s) = 5.34929 6.02366 5.69646
#
# Compressibility (1/GPa) = 0.03170067
#
# Stress axis : x y z
#
# Youngs Moduli (GPa) = 75.19767 30.20587 40.26069
#
# Poissons Ratio (x) = 0.25762 0.01069
# Poissons Ratio (y) = 0.64134 0.44193
# Poissons Ratio (z) = 0.01996 0.33156
#
# Static dielectric constant tensor:
#      x y z
#    x 3.835680 -0.000040 0.120350 
#    y -0.000040 3.254530 -0.000020 
#    z 0.120350 -0.000020 3.863170 
# 
# 
# High freq. dielectric constant tensor:
#      x y z
#    x 1.749280 0.000000 0.003470 
#    y 0.000000 1.718770 0.000000 
#    z 0.003470 0.000000 1.744280 
# 
# From -- ./inp_files/244667.got.cif
#   From: 2010.06.25/outbox.cif.g09.slc.cpg/sg12_123_cif.got.tgz:244667.got - 2010.06.28 00:19:55.
