data_PCOD8102419
_publ_section_title
;
Structure prediction by ZEFSAII (Michael W. Deem and Ramdas Pophale) SiO2 
 PCOD8102419
Probable space group: C 2/M
;
_chemical_formula_sum "Si O2"
_cell_formula_units_Z 48
_cell_length_a 17.406327
_cell_length_b 14.357742
_cell_length_c 18.251142
_cell_angle_alpha 90.000000
_cell_angle_beta 31.534137
_cell_angle_gamma 90.000000
_cell_volume 2385.560279
_symmetry_space_group_name_H-M "C 2/M"
_symmetry_group_IT_number 12
_symmetry_cell_setting 'monoclinic'
loop_
_space_group_symop_operation_xyz
x,y,z
-x,y,-z
-x,-y,-z
x,-y,z
1/2+x,1/2+y,z
1/2-x,1/2+y,-z
1/2-x,1/2-y,-z
1/2+x,1/2-y,z
loop_
_atom_site_type_symbol
_atom_site_label
_atom_site_fract_x
_atom_site_fract_y
_atom_site_fract_z
Si Si1 0.588583 0.602546 0.739066
Si Si2 0.196139 0.712133 0.719286
Si Si3 0.315085 0.728056 0.781669
Si Si4 0.603676 0.891887 0.044349
Si Si5 0.766402 0.894817 0.057158
Si Si6 0.360511 0.318516 0.449342
O O1 0.632838 0.500000 0.733054
O O2 0.684963 0.681301 0.700203
O O3 0.610666 0.599609 0.632734
O O4 0.418809 0.624226 0.892395
O O5 0.288887 0.714150 0.717442
O O6 0.283871 0.649469 0.587813
O O7 0.038684 0.666711 0.862252
O O8 0.247523 0.826206 0.862975
O O9 0.487745 0.732458 0.655314
O O10 0.240430 0.642755 0.885149
O O11 0.637895 0.875815 0.102426
O O12 0.577814 0.000000 0.047737
O O13 0.757316 0.000000 0.094790
O O14 0.250000 0.250000 0.500000
#
# Coordination Sequence:
#
# PCOD8102419 Si02
#       6
#     8   8   8   8   8   8
#     4  10  20  38  63  90 120 159 206 250 298 360
#     4  11  24  39  59  93 127 164 196 251 313 370
#     4  12  22  39  63  89 128 159 200 254 313 365
#     4  11  23  40  62  89 122 163 211 257 301 358
#     4  10  20  36  63  92 118 157 207 254 298 356
#     4  10  22  40  62  85 118 164 207 245 295 358
#
# _framework density 20.121058999999999
#
# number of rings (size 3 to 8) (size 9 to 14) (size 15 to 20)
#    0.000    1.333    3.333    3.500    0.000    2.667 
#    0.000    6.667    0.000    8.000    0.000    0.000 
#    0.000    0.000    0.000    0.000    0.000    0.000 
#
# Total GULP energy -297575.425549 kJ/mol
# GULP energy per Si atom -12398.976065 kJ/mol
# Density = 2.007526 g / cm^3
# Si number density = 20.121059 Si / 1000 Ang^3
#
#
#
# Elastic Constant Matrix: (Units=GPa)
#
#
# Indices 1 2 3 4 5 6 
#
# 1 85.9293 21.1081 37.1740 -0.0020 6.2607 0.0037
# 2 21.1081 81.3791 19.0633 -0.0015 0.5709 0.0033
# 3 37.1740 19.0633 98.8229 0.0004 -5.2937 0.0019
# 4 -0.0020 -0.0015 0.0004 11.5770 0.0014 -1.7753
# 5 6.2607 0.5709 -5.2937 0.0014 32.6298 -0.0031
# 6 0.0037 0.0033 0.0019 -1.7753 -0.0031 18.1554
#
#
#
# Elastic Compliance Matrix: (Units=1/GPa)
#
#
# Indices 1 2 3 4 5 6 
#
# 1 0.014819 -0.002583 -0.005272 0.000003 -0.003653 -0.000002
# 2 -0.002583 0.013333 -0.001600 0.000001 0.000003 -0.000002
# 3 -0.005272 -0.001600 0.012576 -0.000002 0.003080 0.000000
# 4 0.000003 0.000001 -0.000002 0.087693 -0.000004 0.008575
# 5 -0.003653 0.000003 0.003080 -0.000004 0.031847 0.000006
# 6 -0.000002 -0.000002 0.000000 0.008575 0.000006 0.055918
#
#
# Mechanical properties :
#
#
# Convention : Reuss Voigt Hill
#
# Bulk Modulus (GPa) = 45.83470 46.75803 46.29637
# Shear Modulus (GPa) = 20.62967 25.05818 22.84393
#
# Velocity S-wave (km/s) = 3.20547 3.53281 3.37311
# Velocity P-wave (km/s) = 6.04392 6.31900 6.18299
#
# Compressibility (1/GPa) = 0.02181753
#
# Stress axis : x y z
#
# Youngs Moduli (GPa) = 67.48184 75.00189 79.51768
#
# Poissons Ratio (x) = 0.19374 0.41920
# Poissons Ratio (y) = 0.17432 0.12724
# Poissons Ratio (z) = 0.35575 0.12001
#
# Static dielectric constant tensor:
#      x y z
#    x 3.598000 0.000000 0.138800 
#    y 0.000000 3.619030 0.000000 
#    z 0.138800 0.000000 3.929250 
# 
# 
# High freq. dielectric constant tensor:
#      x y z
#    x 1.781430 0.000000 0.000130 
#    y 0.000000 1.775310 0.000000 
#    z 0.000130 0.000000 1.791910 
# 
# From -- ./inp_files/104947.got.cif
#   From: 2010.06.25/outbox.cif.g09.slc.cpg/sg12_53_cif.got.tgz:104947.got - 2010.06.28 00:19:55.
