data_PCOD8102490
_publ_section_title
;
Structure prediction by ZEFSAII (Michael W. Deem and Ramdas Pophale) SiO2 
 PCOD8102490
Probable space group: C 2/M
;
_chemical_formula_sum "Si O2"
_cell_formula_units_Z 52
_cell_length_a 10.317926
_cell_length_b 13.770438
_cell_length_c 33.815723
_cell_angle_alpha 90.000000
_cell_angle_beta 146.925311
_cell_angle_gamma 90.000000
_cell_volume 2622.032864
_symmetry_space_group_name_H-M "C 2/M"
_symmetry_group_IT_number 12
_symmetry_cell_setting 'monoclinic'
loop_
_space_group_symop_operation_xyz
x,y,z
-x,y,-z
-x,-y,-z
x,-y,z
1/2+x,1/2+y,z
1/2-x,1/2+y,-z
1/2-x,1/2-y,-z
1/2+x,1/2-y,z
loop_
_atom_site_type_symbol
_atom_site_label
_atom_site_fract_x
_atom_site_fract_y
_atom_site_fract_z
Si Si1 0.291374 0.110442 0.386566
Si Si2 0.436570 0.110843 0.622421
Si Si3 0.143945 0.739111 0.827491
Si Si4 0.134383 0.757684 0.732127
Si Si5 0.500000 0.747036 0.500000
Si Si6 0.975655 0.386818 0.948619
Si Si7 0.035481 0.885891 0.964629
O O1 0.357778 0.111053 0.357579
O O2 0.474222 0.181226 0.456002
O O3 0.025913 0.152109 0.323537
O O4 0.300531 0.000000 0.405716
O O5 0.545534 0.157105 0.689929
O O6 0.222540 0.176050 0.551132
O O7 0.352885 0.000000 0.609849
O O8 0.105513 0.744220 0.771202
O O9 0.244785 0.840335 0.869765
O O10 0.330418 0.654396 0.884220
O O11 0.899853 0.715706 0.787394
O O12 0.936270 0.500000 0.934948
O O13 0.000000 0.353193 0.000000
O O14 0.208561 0.350400 0.985035
O O15 0.016044 0.000000 0.957341
O O16 0.000000 0.846902 0.000000
#
# Coordination Sequence:
#
# PCOD8102490 Si02
#       7
#     8   8   8   8   4   8   8
#     4  10  21  40  62  88 126 162 196 242 297 352
#     4  10  21  40  62  88 126 162 196 243 297 349
#     4  12  22  37  60  84 116 159 198 252 297 358
#     4  11  24  38  58  88 122 159 210 240 293 360
#     4  10  20  36  68  98 116 150 206 250 286 344
#     4  10  21  37  58  85 113 149 200 252 305 365
#     4  10  21  37  56  81 113 147 193 253 308 354
#
# _framework density 19.831941
#
# number of rings (size 3 to 8) (size 9 to 14) (size 15 to 20)
#    0.000    1.538    1.538    3.692    0.000    2.462 
#    0.000    0.000    0.000    0.000    0.000    0.000 
#    0.000    0.000    0.000    0.000    0.000    0.000 
#
# Total GULP energy -322445.078526 kJ/mol
# GULP energy per Si atom -12401.733789 kJ/mol
# Density = 1.978680 g / cm^3
# Si number density = 19.831941 Si / 1000 Ang^3
#
#
#
# Elastic Constant Matrix: (Units=GPa)
#
#
# Indices 1 2 3 4 5 6 
#
# 1 95.5776 32.2604 25.4790 0.0003 2.6541 0.0000
# 2 32.2604 136.1626 50.8086 0.0000 1.2429 0.0000
# 3 25.4790 50.8086 101.5891 0.0008 3.1289 0.0001
# 4 0.0003 0.0000 0.0008 2.3424 0.0003 -0.8820
# 5 2.6541 1.2429 3.1289 0.0003 37.9238 0.0001
# 6 0.0000 0.0000 0.0001 -0.8820 0.0001 9.2215
#
#
#
# Elastic Compliance Matrix: (Units=1/GPa)
#
#
# Indices 1 2 3 4 5 6 
#
# 1 0.011675 -0.002059 -0.001880 -0.000001 -0.000595 0.000000
# 2 -0.002059 0.009393 -0.004187 0.000002 0.000182 0.000000
# 3 -0.001880 -0.004187 0.012432 -0.000004 -0.000757 0.000000
# 4 -0.000001 0.000002 -0.000004 0.442859 -0.000004 0.042358
# 5 -0.000595 0.000182 -0.000757 -0.000004 0.026467 -0.000001
# 6 0.000000 0.000000 0.000000 0.042358 -0.000001 0.112494
#
#
# Mechanical properties :
#
#
# Convention : Reuss Voigt Hill
#
# Bulk Modulus (GPa) = 57.97641 61.15836 59.56738
# Shear Modulus (GPa) = 7.84533 24.88294 16.36414
#
# Velocity S-wave (km/s) = 1.99110 3.54600 2.87564
# Velocity P-wave (km/s) = 5.88076 6.90440 6.41304
#
# Compressibility (1/GPa) = 0.01724839
#
# Stress axis : x y z
#
# Youngs Moduli (GPa) = 85.64974 106.46600 80.43514
#
# Poissons Ratio (x) = 0.21924 0.15122
# Poissons Ratio (y) = 0.17637 0.33676
# Poissons Ratio (z) = 0.16102 0.44575
#
# Static dielectric constant tensor:
#      x y z
#    x 3.746970 0.000000 0.021390 
#    y 0.000000 3.722990 0.000000 
#    z 0.021390 0.000000 3.620800 
# 
# 
# High freq. dielectric constant tensor:
#      x y z
#    x 1.776990 0.000000 0.000210 
#    y 0.000000 1.786410 0.000000 
#    z 0.000210 0.000000 1.776740 
# 
# From -- ./inp_files/372649.got.cif
#   From: 2010.06.25/outbox.cif.g09.slc.cpg/sg12_187_cif.got.tgz:372649.got - 2010.06.28 00:19:55.
