data_PCOD8102759
_publ_section_title
;
Structure prediction by ZEFSAII (Michael W. Deem and Ramdas Pophale) SiO2 
 PCOD8102759
Probable space group: C 2/M
;
_chemical_formula_sum "Si O2"
_cell_formula_units_Z 56
_cell_length_a 19.282054
_cell_length_b 8.958460
_cell_length_c 26.936767
_cell_angle_alpha 90.000000
_cell_angle_beta 38.100781
_cell_angle_gamma 90.000000
_cell_volume 2871.111695
_symmetry_space_group_name_H-M "C 2/M"
_symmetry_group_IT_number 12
_symmetry_cell_setting 'monoclinic'
loop_
_space_group_symop_operation_xyz
x,y,z
-x,y,-z
-x,-y,-z
x,-y,z
1/2+x,1/2+y,z
1/2-x,1/2+y,-z
1/2-x,1/2-y,-z
1/2+x,1/2-y,z
loop_
_atom_site_type_symbol
_atom_site_label
_atom_site_fract_x
_atom_site_fract_y
_atom_site_fract_z
Si Si1 0.607476 0.171313 0.469085
Si Si2 0.307719 0.172937 0.305107
Si Si3 0.241273 0.824187 0.142975
Si Si4 0.065719 0.836000 0.014015
Si Si5 0.132353 0.329965 0.566539
Si Si6 0.010811 0.673688 0.261467
Si Si7 0.660636 0.323123 0.815276
O O1 0.500000 0.231358 0.500000
O O2 0.714799 0.271931 0.396397
O O3 0.575435 0.186684 0.544902
O O4 0.634991 0.000000 0.439586
O O5 0.429687 0.200052 0.260307
O O6 0.293356 0.264417 0.262640
O O7 0.287829 0.000000 0.304805
O O8 0.121462 0.770750 0.190223
O O9 0.267525 0.748828 0.180914
O O10 0.243342 0.000000 0.148634
O O11 0.332008 0.779312 0.049462
O O12 0.972221 0.779789 0.106252
O O13 0.113031 0.000000 0.002296
O O14 0.000000 0.851095 0.000000
O O15 0.157068 0.500000 0.567076
O O16 0.250000 0.250000 0.500000
O O17 0.048596 0.263882 0.655069
O O18 0.043370 0.500000 0.248844
O O19 0.677305 0.500000 0.809513
#
# Coordination Sequence:
#
# PCOD8102759 Si02
#       7
#     8   8   8   8   8   8   8
#     4  10  22  38  58  84 112 149 193 235 284 343
#     4  11  23  39  58  84 116 151 192 240 291 334
#     4  11  22  35  58  91 118 146 190 238 280 332
#     4   8  16  34  58  83 112 150 188 227 282 341
#     4  10  20  37  59  81 109 148 191 232 283 339
#     4  10  22  39  57  80 116 157 192 232 285 341
#     4  10  21  38  61  85 115 153 190 231 286 345
#
# _framework density 19.504639999999998
#
# number of rings (size 3 to 8) (size 9 to 14) (size 15 to 20)
#    0.000    2.000    1.429    3.000    2.000    5.143 
#    0.000    0.714    0.000    0.000    0.000    0.000 
#    0.000    0.000    0.000    0.000    0.000    0.000 
#
# Total GULP energy -347229.340594 kJ/mol
# GULP energy per Si atom -12401.047878 kJ/mol
# Density = 1.946025 g / cm^3
# Si number density = 19.504640 Si / 1000 Ang^3
#
#
#
# Elastic Constant Matrix: (Units=GPa)
#
#
# Indices 1 2 3 4 5 6 
#
# 1 62.9689 28.5175 6.0927 0.0001 -12.1709 0.0000
# 2 28.5175 92.7774 26.0273 0.0003 -14.1661 -0.0006
# 3 6.0927 26.0273 55.9599 0.0000 -13.5484 -0.0003
# 4 0.0001 0.0003 0.0000 31.2207 0.0001 -2.9021
# 5 -12.1709 -14.1661 -13.5484 0.0001 32.7377 0.0000
# 6 0.0000 -0.0006 -0.0003 -2.9021 0.0000 26.6182
#
#
#
# Elastic Compliance Matrix: (Units=1/GPa)
#
#
# Indices 1 2 3 4 5 6 
#
# 1 0.019309 -0.005610 0.001842 0.000000 0.005513 0.000000
# 2 -0.005610 0.014357 -0.005632 0.000000 0.001796 0.000000
# 3 0.001842 -0.005632 0.022077 0.000000 0.007384 0.000000
# 4 0.000000 0.000000 0.000000 0.032358 0.000000 0.003528
# 5 0.005513 0.001796 0.007384 0.000000 0.036429 0.000000
# 6 0.000000 0.000000 0.000000 0.003528 0.000000 0.037953
#
#
# Mechanical properties :
#
#
# Convention : Reuss Voigt Hill
#
# Bulk Modulus (GPa) = 27.06923 36.99793 32.03358
# Shear Modulus (GPa) = 25.82694 28.18657 27.00675
#
# Velocity S-wave (km/s) = 3.64283 3.80560 3.72510
# Velocity P-wave (km/s) = 5.62157 6.19032 5.91279
#
# Compressibility (1/GPa) = 0.03694232
#
# Stress axis : x y z
#
# Youngs Moduli (GPa) = 51.78954 69.65213 45.29683
#
# Poissons Ratio (x) = 0.39075 -0.08343
# Poissons Ratio (y) = 0.29054 0.25511
# Poissons Ratio (z) = -0.09538 0.39227
#
# Static dielectric constant tensor:
#      x y z
#    x 3.449920 0.000000 0.102910 
#    y 0.000000 3.490770 0.000000 
#    z 0.102910 0.000000 3.872640 
# 
# 
# High freq. dielectric constant tensor:
#      x y z
#    x 1.745780 0.000000 -0.001020 
#    y 0.000000 1.755280 0.000000 
#    z -0.001020 0.000000 1.765360 
# 
# From -- ./inp_files/362930.got.cif
#   From: 2010.06.25/outbox.cif.g09.slc.cpg/sg12_182_cif.got.tgz:362930.got - 2010.06.28 00:19:55.
