data_PCOD8102437
_publ_section_title
;
Structure prediction by ZEFSAII (Michael W. Deem and Ramdas Pophale) SiO2 
 PCOD8102437
Probable space group: C 2/M
;
_chemical_formula_sum "Si O2"
_cell_formula_units_Z 48
_cell_length_a 14.681820
_cell_length_b 27.001755
_cell_length_c 11.823003
_cell_angle_alpha 90.000000
_cell_angle_beta 28.526173
_cell_angle_gamma 90.000000
_cell_volume 2238.348862
_symmetry_space_group_name_H-M "C 2/M"
_symmetry_group_IT_number 12
_symmetry_cell_setting 'monoclinic'
loop_
_space_group_symop_operation_xyz
x,y,z
-x,y,-z
-x,-y,-z
x,-y,z
1/2+x,1/2+y,z
1/2-x,1/2+y,-z
1/2-x,1/2-y,-z
1/2+x,1/2-y,z
loop_
_atom_site_type_symbol
_atom_site_label
_atom_site_fract_x
_atom_site_fract_y
_atom_site_fract_z
Si Si1 0.702152 0.853436 0.586943
Si Si2 0.214159 0.128952 0.254926
Si Si3 0.824143 0.694666 0.930532
Si Si4 0.810055 0.555314 0.771067
Si Si5 0.429201 0.645720 0.961649
Si Si6 0.958564 0.444293 0.855988
O O1 0.710482 0.845341 0.712715
O O2 0.552242 0.813493 0.697679
O O3 0.642181 0.910377 0.629074
O O4 0.908074 0.846802 0.308794
O O5 0.000000 0.109413 0.500000
O O6 0.220808 0.169926 0.149983
O O7 0.340287 0.080878 0.086957
O O8 0.750000 0.750000 0.000000
O O9 0.763512 0.669139 0.878850
O O10 0.764697 0.500000 0.776184
O O11 0.831372 0.555165 0.882863
O O12 0.000000 0.574913 0.500000
O O13 0.627996 0.589605 0.942433
O O14 0.500000 0.672086 0.000000
O O15 0.020338 0.500000 0.823116
#
# Coordination Sequence:
#
# PCOD8102437 Si02
#       6
#     8   8   8   8   8   8
#     4  11  23  43  69  93 133 174 210 267 331 385
#     4  11  21  43  68  93 133 170 209 264 331 386
#     4  11  25  46  67  97 126 167 218 270 327 387
#     4  10  20  38  63  92 134 180 219 263 318 383
#     4  12  25  41  66  97 131 173 218 268 322 384
#     4  10  20  36  63  96 128 168 216 261 313 382
#
# _framework density 21.444378
#
# number of rings (size 3 to 8) (size 9 to 14) (size 15 to 20)
#    0.000    1.167    5.000    3.000    0.000    4.667 
#    3.000    0.000    0.000    0.000    0.000    0.000 
#    0.000    0.000    0.000    0.000    0.000    0.000 
#
# Total GULP energy -297524.178584 kJ/mol
# GULP energy per Si atom -12396.840774 kJ/mol
# Density = 2.139557 g / cm^3
# Si number density = 21.444378 Si / 1000 Ang^3
#
#
#
# Elastic Constant Matrix: (Units=GPa)
#
#
# Indices 1 2 3 4 5 6 
#
# 1 137.6902 29.5811 19.1236 -0.0041 3.1470 -0.0002
# 2 29.5811 116.7084 16.7646 -0.0045 -3.7709 0.0001
# 3 19.1236 16.7646 93.5670 -0.0141 1.7444 0.0046
# 4 -0.0041 -0.0045 -0.0141 17.8246 0.0082 -5.9420
# 5 3.1470 -3.7709 1.7444 0.0082 36.2622 -0.0006
# 6 -0.0002 0.0001 0.0046 -5.9420 -0.0006 19.5478
#
#
#
# Elastic Compliance Matrix: (Units=1/GPa)
#
#
# Indices 1 2 3 4 5 6 
#
# 1 0.007851 -0.001835 -0.001261 0.000001 -0.000811 0.000001
# 2 -0.001835 0.009259 -0.001306 0.000001 0.001185 0.000000
# 3 -0.001261 -0.001306 0.011190 0.000008 -0.000565 0.000000
# 4 0.000001 0.000001 0.000008 0.062428 -0.000014 0.018976
# 5 -0.000811 0.001185 -0.000565 -0.000014 0.027798 -0.000003
# 6 0.000001 0.000000 0.000000 0.018976 -0.000003 0.056925
#
#
# Mechanical properties :
#
#
# Convention : Reuss Voigt Hill
#
# Bulk Modulus (GPa) = 51.29175 53.21158 52.25167
# Shear Modulus (GPa) = 26.21202 33.56002 29.88602
#
# Velocity S-wave (km/s) = 3.49997 3.96027 3.73722
# Velocity P-wave (km/s) = 6.34850 6.76604 6.56060
#
# Compressibility (1/GPa) = 0.01949631
#
# Stress axis : x y z
#
# Youngs Moduli (GPa) = 127.37994 107.99898 89.36767
#
# Poissons Ratio (x) = 0.19817 0.11266
# Poissons Ratio (y) = 0.23373 0.11672
# Poissons Ratio (z) = 0.16058 0.14106
#
# Static dielectric constant tensor:
#      x y z
#    x 4.090380 -0.000010 -0.017360 
#    y -0.000010 3.927880 0.000030 
#    z -0.017360 0.000030 3.781070 
# 
# 
# High freq. dielectric constant tensor:
#      x y z
#    x 1.861140 0.000000 0.002420 
#    y 0.000000 1.818590 0.000000 
#    z 0.002420 0.000000 1.836430 
# 
# From -- ./inp_files/149624.got.cif
#   From: 2010.06.25/outbox.cif.g09.slc.cpg/sg12_75_cif.got.tgz:149624.got - 2010.06.28 00:19:55.
