data_PCOD8102765
_publ_section_title
;
Structure prediction by ZEFSAII (Michael W. Deem and Ramdas Pophale) SiO2 
 PCOD8102765
Probable space group: C 2/M
;
_chemical_formula_sum "Si O2"
_cell_formula_units_Z 56
_cell_length_a 9.354204
_cell_length_b 18.612761
_cell_length_c 31.194337
_cell_angle_alpha 90.000000
_cell_angle_beta 31.424847
_cell_angle_gamma 90.000000
_cell_volume 2831.701981
_symmetry_space_group_name_H-M "C 2/M"
_symmetry_group_IT_number 12
_symmetry_cell_setting 'monoclinic'
loop_
_space_group_symop_operation_xyz
x,y,z
-x,y,-z
-x,-y,-z
x,-y,z
1/2+x,1/2+y,z
1/2-x,1/2+y,-z
1/2-x,1/2-y,-z
1/2+x,1/2-y,z
loop_
_atom_site_type_symbol
_atom_site_label
_atom_site_fract_x
_atom_site_fract_y
_atom_site_fract_z
Si Si1 0.210466 0.582193 0.735751
Si Si2 0.244863 0.816679 0.469317
Si Si3 0.292152 0.290849 0.945065
Si Si4 0.758504 0.796441 0.785219
Si Si5 0.660436 0.583919 0.823865
Si Si6 0.251930 0.819177 0.720892
Si Si7 0.279141 0.415353 0.449351
O O1 0.248700 0.500000 0.738920
O O2 0.196761 0.623824 0.784162
O O3 0.470315 0.612481 0.643395
O O4 0.948205 0.594658 0.773572
O O5 0.250000 0.750000 0.500000
O O6 0.528300 0.833870 0.372371
O O7 0.183178 0.887686 0.512261
O O8 0.000000 0.802175 0.500000
O O9 0.466362 0.236981 0.871660
O O10 0.443690 0.368758 0.906958
O O11 0.250000 0.250000 0.000000
O O12 0.000000 0.306550 0.000000
O O13 0.874077 0.746728 0.717286
O O14 0.964023 0.797343 0.772633
O O15 0.571117 0.500000 0.846000
O O16 0.694845 0.612037 0.766143
O O17 0.277589 0.500000 0.452468
O O18 0.000000 0.385082 0.500000
#
# Coordination Sequence:
#
# PCOD8102765 Si02
#       7
#     8   8   8   8   8   8   8
#     4  10  20  37  59  81 113 153 190 231 278 333
#     4  12  23  35  54  82 115 151 196 244 287 325
#     4  11  22  39  62  87 112 143 180 227 284 343
#     4  11  21  38  59  83 112 145 190 230 281 342
#     4  10  22  40  60  85 116 152 189 228 283 342
#     4  11  22  36  58  82 113 154 193 239 279 333
#     4  10  21  37  56  80 113 152 192 236 285 329
#
# _framework density 19.776092999999999
#
# number of rings (size 3 to 8) (size 9 to 14) (size 15 to 20)
#    0.000    1.286    0.000    8.143    0.000    1.714 
#    0.000    0.714    0.000    2.571    0.000    0.000 
#    0.000    0.000    0.000    0.000    0.000    0.000 
#
# Total GULP energy -347207.168958 kJ/mol
# GULP energy per Si atom -12400.256034 kJ/mol
# Density = 1.973108 g / cm^3
# Si number density = 19.776093 Si / 1000 Ang^3
#
#
#
# Elastic Constant Matrix: (Units=GPa)
#
#
# Indices 1 2 3 4 5 6 
#
# 1 121.4032 51.2115 32.0933 -0.3206 -4.6905 -0.0535
# 2 51.2115 111.1132 63.5333 -0.1354 7.5146 -0.1095
# 3 32.0933 63.5333 104.8789 0.0264 -9.8792 -0.3549
# 4 -0.3206 -0.1354 0.0264 35.3762 0.2175 3.5487
# 5 -4.6905 7.5146 -9.8792 0.2175 37.7766 0.0640
# 6 -0.0535 -0.1095 -0.3549 3.5487 0.0640 26.2748
#
#
#
# Elastic Compliance Matrix: (Units=1/GPa)
#
#
# Indices 1 2 3 4 5 6 
#
# 1 0.010415 -0.004983 0.000048 0.000062 0.002297 -0.000013
# 2 -0.004983 0.017160 -0.009484 0.000074 -0.006513 -0.000061
# 3 0.000048 -0.009484 0.015834 -0.000102 0.006034 0.000174
# 4 0.000062 0.000074 -0.000102 0.028658 -0.000192 -0.003871
# 5 0.002297 -0.006513 0.006034 -0.000192 0.029631 0.000013
# 6 -0.000013 -0.000061 0.000174 -0.003871 0.000013 0.038584
#
#
# Mechanical properties :
#
#
# Convention : Reuss Voigt Hill
#
# Bulk Modulus (GPa) = 68.62899 70.11905 69.37402
# Shear Modulus (GPa) = 28.73938 32.58934 30.66436
#
# Velocity S-wave (km/s) = 3.81627 4.06386 3.94201
# Velocity P-wave (km/s) = 7.36186 7.58639 7.47497
#
# Compressibility (1/GPa) = 0.01457110
#
# Stress axis : x y z
#
# Youngs Moduli (GPa) = 96.01351 58.27638 63.15405
#
# Poissons Ratio (x) = 0.29038 -0.00301
# Poissons Ratio (y) = 0.47842 0.59894
# Poissons Ratio (z) = -0.00457 0.55268
#
# Static dielectric constant tensor:
#      x y z
#    x 2.534970 0.020350 -0.913440 
#    y 0.020350 3.729970 0.015460 
#    z -0.913440 0.015460 3.140920 
# 
# 
# High freq. dielectric constant tensor:
#      x y z
#    x 1.781610 0.000000 -0.004280 
#    y 0.000000 1.775280 -0.000020 
#    z -0.004280 -0.000020 1.773760 
# 
# From -- ./inp_files/257207.got.cif
#   From: 2010.06.25/outbox.cif.g09.slc.cpg/sg12_129_cif.got.tgz:257207.got - 2010.06.28 00:19:55.
