data_PCOD8102889
_publ_section_title
;
Structure prediction by ZEFSAII (Michael W. Deem and Ramdas Pophale) SiO2 
 PCOD8102889
Probable space group: C 2/M
;
_chemical_formula_sum "Si O2"
_cell_formula_units_Z 64
_cell_length_a 32.177765
_cell_length_b 8.570257
_cell_length_c 15.136426
_cell_angle_alpha 90.000000
_cell_angle_beta 47.544608
_cell_angle_gamma 90.000000
_cell_volume 3079.736342
_symmetry_space_group_name_H-M "C 2/M"
_symmetry_group_IT_number 12
_symmetry_cell_setting 'monoclinic'
loop_
_space_group_symop_operation_xyz
x,y,z
-x,y,-z
-x,-y,-z
x,-y,z
1/2+x,1/2+y,z
1/2-x,1/2+y,-z
1/2-x,1/2-y,-z
1/2+x,1/2-y,z
loop_
_atom_site_type_symbol
_atom_site_label
_atom_site_fract_x
_atom_site_fract_y
_atom_site_fract_z
Si Si1 0.812081 0.684914 0.909969
Si Si2 0.142024 0.321088 0.342543
Si Si3 0.378779 0.185178 0.983918
Si Si4 0.503414 0.817951 0.766541
Si Si5 0.294094 0.178123 0.577990
Si Si6 0.384123 0.681325 0.319944
Si Si7 0.027834 0.819156 0.551047
Si Si8 0.826176 0.316972 0.240885
O O1 0.809088 0.500000 0.916907
O O2 0.841351 0.741816 0.777677
O O3 0.847206 0.752737 0.942586
O O4 0.750000 0.750000 0.000000
O O5 0.120791 0.500000 0.369095
O O6 0.195035 0.305940 0.332640
O O7 0.094112 0.211142 0.450782
O O8 0.443982 0.237493 0.892786
O O9 0.376169 0.000000 0.984211
O O10 0.348083 0.249276 0.115602
O O11 0.552846 0.718736 0.739529
O O12 0.500253 0.785498 0.666641
O O13 0.514964 0.000000 0.766345
O O14 0.339642 0.277984 0.459739
O O15 0.231574 0.235742 0.647272
O O16 0.299842 0.000000 0.537720
O O17 0.379490 0.500000 0.304446
O O18 0.372506 0.779171 0.248155
O O19 0.000000 0.764894 0.500000
O O20 0.016757 0.000000 0.587705
O O21 0.815777 0.500000 0.249547
#
# Coordination Sequence:
#
# PCOD8102889 Si02
#       8
#     8   8   8   8   8   8   8   8
#     4  10  20  37  59  89 123 161 205 251 300 358
#     4  10  21  36  59  87 119 159 203 246 298 363
#     4   9  21  40  63  89 122 163 209 252 303 364
#     4  11  22  41  66  90 120 161 207 256 304 367
#     4  11  22  39  62  93 126 160 203 255 311 371
#     4  12  25  42  63  91 124 160 201 257 317 372
#     4  11  23  37  56  87 123 158 200 248 301 357
#     4  11  23  41  64  90 120 162 208 256 309 370
#
# _framework density 20.781001
#
# number of rings (size 3 to 8) (size 9 to 14) (size 15 to 20)
#    0.000    1.375    1.250    4.500    0.000    3.500 
#    0.000    6.875    0.000    0.000    0.000    0.000 
#    0.000    0.000    0.000    0.000    0.000    0.000 
#
# Total GULP energy -396963.435287 kJ/mol
# GULP energy per Si atom -12405.107353 kJ/mol
# Density = 2.073370 g / cm^3
# Si number density = 20.781001 Si / 1000 Ang^3
#
#
#
# Elastic Constant Matrix: (Units=GPa)
#
#
# Indices 1 2 3 4 5 6 
#
# 1 113.7240 11.5699 40.8319 0.0000 0.3913 0.0000
# 2 11.5699 42.2742 16.3817 -0.0002 -3.3343 -0.0002
# 3 40.8319 16.3817 113.3669 0.0000 -3.2662 0.0000
# 4 0.0000 -0.0002 0.0000 25.0589 0.0000 -4.6032
# 5 0.3913 -3.3343 -3.2662 0.0000 42.6238 0.0001
# 6 0.0000 -0.0002 0.0000 -4.6032 0.0001 28.5445
#
#
#
# Elastic Compliance Matrix: (Units=1/GPa)
#
#
# Indices 1 2 3 4 5 6 
#
# 1 0.010192 -0.001482 -0.003470 0.000000 -0.000475 0.000000
# 2 -0.001482 0.025395 -0.003085 0.000000 0.001764 0.000000
# 3 -0.003470 -0.003085 0.010534 0.000000 0.000598 0.000000
# 4 0.000000 0.000000 0.000000 0.041124 0.000000 0.006632
# 5 -0.000475 0.001764 0.000598 0.000000 0.023649 0.000000
# 6 0.000000 0.000000 0.000000 0.006632 0.000000 0.036103
#
#
# Mechanical properties :
#
#
# Convention : Reuss Voigt Hill
#
# Bulk Modulus (GPa) = 33.28232 45.21468 39.24850
# Shear Modulus (GPa) = 28.88725 32.61756 30.75240
#
# Velocity S-wave (km/s) = 3.73242 3.96610 3.85103
# Velocity P-wave (km/s) = 5.88431 6.54050 6.22107
#
# Compressibility (1/GPa) = 0.03004598
#
# Stress axis : x y z
#
# Youngs Moduli (GPa) = 98.11987 39.37739 94.93211
#
# Poissons Ratio (x) = 0.05836 0.32944
# Poissons Ratio (y) = 0.14542 0.29287
# Poissons Ratio (z) = 0.34051 0.12148
#
# Static dielectric constant tensor:
#      x y z
#    x 3.926480 0.000000 0.163930 
#    y 0.000000 3.563420 0.000000 
#    z 0.163930 0.000000 3.877940 
# 
# 
# High freq. dielectric constant tensor:
#      x y z
#    x 1.828060 0.000000 0.003820 
#    y 0.000000 1.800360 0.000000 
#    z 0.003820 0.000000 1.816190 
# 
# From -- ./inp_files/249755.got.cif
#   From: 2010.06.25/outbox.cif.g09.slc.cpg/sg12_125_cif.got.tgz:249755.got - 2010.06.28 00:19:55.
