data_PCOD8102591
_publ_section_title
;
Structure prediction by ZEFSAII (Michael W. Deem and Ramdas Pophale) SiO2 
 PCOD8102591
Probable space group: C 2/M
;
_chemical_formula_sum "Si O2"
_cell_formula_units_Z 64
_cell_length_a 15.118182
_cell_length_b 17.682292
_cell_length_c 11.663408
_cell_angle_alpha 90.000000
_cell_angle_beta 93.880363
_cell_angle_gamma 90.000000
_cell_volume 3110.762435
_symmetry_space_group_name_H-M "C 2/M"
_symmetry_group_IT_number 12
_symmetry_cell_setting 'monoclinic'
loop_
_space_group_symop_operation_xyz
x,y,z
-x,y,-z
-x,-y,-z
x,-y,z
1/2+x,1/2+y,z
1/2-x,1/2+y,-z
1/2-x,1/2-y,-z
1/2+x,1/2-y,z
loop_
_atom_site_type_symbol
_atom_site_label
_atom_site_fract_x
_atom_site_fract_y
_atom_site_fract_z
Si Si1 0.197658 0.913474 0.946569
Si Si2 0.542514 0.177333 0.827223
Si Si3 0.588426 0.589006 0.563817
Si Si4 0.267862 0.587519 0.602324
Si Si5 0.067802 0.413043 0.599611
Si Si6 0.153698 0.148389 0.169294
Si Si7 0.455839 0.650643 0.202911
Si Si8 0.136744 0.316809 0.070539
O O1 0.104858 0.872434 0.909215
O O2 0.279619 0.869840 0.894718
O O3 0.200677 0.000000 0.905077
O O4 0.200283 0.908928 0.084517
O O5 0.565712 0.123386 0.724705
O O6 0.534753 0.260786 0.776735
O O7 0.448351 0.150877 0.870363
O O8 0.617777 0.178564 0.932321
O O9 0.500000 0.624529 0.500000
O O10 0.581771 0.500000 0.564004
O O11 0.674344 0.615567 0.500643
O O12 0.595321 0.616540 0.693591
O O13 0.289601 0.500000 0.636015
O O14 0.165970 0.597064 0.556999
O O15 0.289114 0.642918 0.710055
O O16 0.042381 0.500000 0.616066
O O17 0.000000 0.376897 0.500000
O O18 0.157479 0.231913 0.114017
O O19 0.054525 0.119067 0.189922
#
# Coordination Sequence:
#
# PCOD8102591 Si02
#       8
#     8   8   8   8   8   8   8   8
#     4  12  25  37  60  96 128 164 210 260 316 378
#     4  10  22  43  67  88 123 170 213 257 320 377
#     4  10  20  37  57  83 126 166 199 252 311 373
#     4  10  21  37  64  94 121 165 213 255 316 384
#     4  10  23  43  66  93 125 163 212 271 319 365
#     4  11  21  39  63  89 129 168 206 258 313 381
#     4  11  23  38  60  91 128 166 205 255 320 381
#     4  10  23  42  63  90 127 170 206 262 319 372
#
# _framework density 20.573734999999999
#
# number of rings (size 3 to 8) (size 9 to 14) (size 15 to 20)
#    0.000    1.500    2.500    2.250    1.750    5.500 
#    0.000    3.125    0.000    0.000    0.000    0.000 
#    0.000    0.000    0.000    0.000    0.000    0.000 
#
# Total GULP energy -396839.574972 kJ/mol
# GULP energy per Si atom -12401.236718 kJ/mol
# Density = 2.052691 g / cm^3
# Si number density = 20.573735 Si / 1000 Ang^3
#
#
#
# Elastic Constant Matrix: (Units=GPa)
#
#
# Indices 1 2 3 4 5 6 
#
# 1 127.0591 41.6582 43.6885 0.0000 0.3808 0.0000
# 2 41.6582 63.8869 30.0876 0.0000 -3.4652 0.0000
# 3 43.6885 30.0876 106.5772 0.0000 -13.1513 0.0000
# 4 0.0000 0.0000 0.0000 34.6106 0.0000 -2.1853
# 5 0.3808 -3.4652 -13.1513 0.0000 30.9404 0.0000
# 6 0.0000 0.0000 0.0000 -2.1853 0.0000 23.9456
#
#
#
# Elastic Compliance Matrix: (Units=1/GPa)
#
#
# Indices 1 2 3 4 5 6 
#
# 1 0.010806 -0.005711 -0.003074 0.000000 -0.002079 0.000000
# 2 -0.005711 0.021072 -0.003491 0.000000 0.000946 0.000000
# 3 -0.003074 -0.003491 0.012226 0.000000 0.004844 0.000000
# 4 0.000000 0.000000 0.000000 0.029060 0.000000 0.002652
# 5 -0.002079 0.000946 0.004844 0.000000 0.034511 0.000000
# 6 0.000000 0.000000 0.000000 0.002652 0.000000 0.042003
#
#
# Mechanical properties :
#
#
# Convention : Reuss Voigt Hill
#
# Bulk Modulus (GPa) = 51.14507 58.71020 54.92764
# Shear Modulus (GPa) = 27.66281 30.03858 28.85070
#
# Velocity S-wave (km/s) = 3.67081 3.82520 3.74880
# Velocity P-wave (km/s) = 6.54827 6.93599 6.74492
#
# Compressibility (1/GPa) = 0.01955223
#
# Stress axis : x y z
#
# Youngs Moduli (GPa) = 92.54064 47.45592 81.79226
#
# Poissons Ratio (x) = 0.27104 0.25142
# Poissons Ratio (y) = 0.52853 0.28552
# Poissons Ratio (z) = 0.28446 0.16566
#
# Static dielectric constant tensor:
#      x y z
#    x 3.915560 0.000000 -0.070630 
#    y 0.000000 3.460230 0.000000 
#    z -0.070630 0.000000 3.683050 
# 
# 
# High freq. dielectric constant tensor:
#      x y z
#    x 1.818320 0.000000 -0.005480 
#    y 0.000000 1.784840 0.000000 
#    z -0.005480 0.000000 1.804800 
# 
# From -- ./inp_files/146173.got.cif
#   From: 2010.06.25/outbox.cif.g09.slc.cpg/sg12_74_cif.got.tgz:146173.got - 2010.06.28 00:19:55.
