data_PCOD8102893
_publ_section_title
;
Structure prediction by ZEFSAII (Michael W. Deem and Ramdas Pophale) SiO2 
 PCOD8102893
Probable space group: C 2/M
;
_chemical_formula_sum "Si O2"
_cell_formula_units_Z 64
_cell_length_a 24.040250
_cell_length_b 18.554014
_cell_length_c 14.520256
_cell_angle_alpha 90.000000
_cell_angle_beta 28.355081
_cell_angle_gamma 90.000000
_cell_volume 3075.989081
_symmetry_space_group_name_H-M "C 2/M"
_symmetry_group_IT_number 12
_symmetry_cell_setting 'monoclinic'
loop_
_space_group_symop_operation_xyz
x,y,z
-x,y,-z
-x,-y,-z
x,-y,z
1/2+x,1/2+y,z
1/2-x,1/2+y,-z
1/2-x,1/2-y,-z
1/2+x,1/2-y,z
loop_
_atom_site_type_symbol
_atom_site_label
_atom_site_fract_x
_atom_site_fract_y
_atom_site_fract_z
Si Si1 0.252132 0.918328 0.720026
Si Si2 0.624400 0.771344 0.719571
Si Si3 0.173949 0.919504 0.037304
Si Si4 0.182596 0.784577 0.268299
Si Si5 0.531152 0.859560 0.703186
Si Si6 0.615841 0.713602 0.923346
Si Si7 0.453523 0.279732 0.717965
Si Si8 0.795382 0.577790 0.047016
O O1 0.248723 0.916068 0.835156
O O2 0.375527 0.885135 0.508218
O O3 0.147103 0.865906 0.837088
O O4 0.235225 0.000000 0.706918
O O5 0.750000 0.750000 0.500000
O O6 0.592196 0.845512 0.713736
O O7 0.629942 0.774903 0.822615
O O8 0.519341 0.714585 0.845892
O O9 0.114509 0.000000 0.131425
O O10 0.077114 0.855111 0.184746
O O11 0.268737 0.908549 0.978729
O O12 0.289528 0.730241 0.134458
O O13 0.137501 0.764176 0.232224
O O14 0.228020 0.865888 0.208179
O O15 0.084084 0.782905 0.488768
O O16 0.455654 0.788600 0.783056
O O17 0.435283 0.921023 0.856793
O O18 0.749651 0.500000 0.145735
#
# Coordination Sequence:
#
# PCOD8102893 Si02
#       8
#     8   8   8   8   8   8   8   8
#     4  11  23  39  60  88 126 165 200 243 299 367
#     4  11  22  40  63  91 112 152 202 257 306 345
#     4   9  21  37  54  85 129 168 201 240 296 361
#     4  10  20  37  59  94 119 158 200 252 298 355
#     4  12  22  37  62  89 123 160 203 252 298 361
#     4  11  22  39  66  89 120 156 205 252 304 361
#     4  10  21  33  62  92 124 157 204 248 297 353
#     4  10  22  37  56  86 125 166 199 242 304 365
#
# _framework density 20.806315000000001
#
# number of rings (size 3 to 8) (size 9 to 14) (size 15 to 20)
#    0.000    1.500    3.750    1.125    1.750    2.000 
#    0.000    5.625    0.000    3.000    0.000    0.000 
#    0.000    0.000    0.000    0.000    0.000    0.000 
#
# Total GULP energy -396526.642098 kJ/mol
# GULP energy per Si atom -12391.457566 kJ/mol
# Density = 2.075896 g / cm^3
# Si number density = 20.806315 Si / 1000 Ang^3
#
#
#
# Elastic Constant Matrix: (Units=GPa)
#
#
# Indices 1 2 3 4 5 6 
#
# 1 69.1022 27.0120 21.8417 0.0000 -8.4415 0.0000
# 2 27.0120 112.9664 30.9212 0.0000 -3.7519 0.0000
# 3 21.8417 30.9212 92.8637 0.0001 -23.0832 0.0000
# 4 0.0000 0.0000 0.0001 32.5455 0.0000 0.3992
# 5 -8.4415 -3.7519 -23.0832 0.0000 31.0330 0.0000
# 6 0.0000 0.0000 0.0000 0.3992 0.0000 23.6742
#
#
#
# Elastic Compliance Matrix: (Units=1/GPa)
#
#
# Indices 1 2 3 4 5 6 
#
# 1 0.016777 -0.003322 -0.002215 0.000000 0.002515 0.000000
# 2 -0.003322 0.010456 -0.003203 0.000000 -0.002022 0.000000
# 3 -0.002215 -0.003203 0.014857 0.000000 0.010061 0.000000
# 4 0.000000 0.000000 0.000000 0.030733 0.000000 -0.000518
# 5 0.002515 -0.002022 0.010061 0.000000 0.040147 0.000000
# 6 0.000000 0.000000 0.000000 -0.000518 0.000000 0.042249
#
#
# Mechanical properties :
#
#
# Convention : Reuss Voigt Hill
#
# Bulk Modulus (GPa) = 40.63270 48.27580 44.45425
# Shear Modulus (GPa) = 27.63941 30.46104 29.05022
#
# Velocity S-wave (km/s) = 3.64870 3.83041 3.74066
# Velocity P-wave (km/s) = 6.10918 6.54336 6.32999
#
# Compressibility (1/GPa) = 0.02461072
#
# Stress axis : x y z
#
# Youngs Moduli (GPa) = 59.60508 95.63848 67.30934
#
# Poissons Ratio (x) = 0.31770 0.14908
# Poissons Ratio (y) = 0.19800 0.21558
# Poissons Ratio (z) = 0.13202 0.30632
#
# Static dielectric constant tensor:
#      x y z
#    x 3.843190 0.000000 -0.003790 
#    y 0.000000 4.045390 0.000000 
#    z -0.003790 0.000000 3.840110 
# 
# 
# High freq. dielectric constant tensor:
#      x y z
#    x 1.802710 0.000000 0.001820 
#    y 0.000000 1.804730 0.000000 
#    z 0.001820 0.000000 1.823790 
# 
# From -- ./inp_files/241454.got.cif
#   From: 2010.06.25/outbox.cif.g09.slc.cpg/sg12_121_cif.got.tgz:241454.got - 2010.06.28 00:19:55.
