data_PCOD8102405
_publ_section_title
;
Structure prediction by ZEFSAII (Michael W. Deem and Ramdas Pophale) SiO2 
 PCOD8102405
Probable space group: C 2/M
;
_chemical_formula_sum "Si O2"
_cell_formula_units_Z 64
_cell_length_a 24.546734
_cell_length_b 18.276773
_cell_length_c 14.993716
_cell_angle_alpha 90.000000
_cell_angle_beta 149.771730
_cell_angle_gamma 90.000000
_cell_volume 3386.535930
_symmetry_space_group_name_H-M "C 2/M"
_symmetry_group_IT_number 12
_symmetry_cell_setting 'monoclinic'
loop_
_space_group_symop_operation_xyz
x,y,z
-x,y,-z
-x,-y,-z
x,-y,z
1/2+x,1/2+y,z
1/2-x,1/2+y,-z
1/2-x,1/2-y,-z
1/2+x,1/2-y,z
loop_
_atom_site_type_symbol
_atom_site_label
_atom_site_fract_x
_atom_site_fract_y
_atom_site_fract_z
Si Si1 0.759369 0.318166 0.230353
Si Si2 0.389554 0.297572 0.505983
Si Si3 0.967601 0.762127 0.051665
Si Si4 0.187062 0.176328 0.423125
Si Si5 0.548690 0.582387 0.666429
Si Si6 0.974309 0.335080 0.220596
Si Si7 0.678949 0.083820 0.522254
Si Si8 0.261958 0.163956 0.027410
O O1 0.822463 0.239289 0.328861
O O2 0.811018 0.377823 0.367995
O O3 0.764606 0.349963 0.137594
O O4 0.638494 0.311952 0.096916
O O5 0.306948 0.332764 0.461283
O O6 0.463991 0.366110 0.593749
O O7 0.464224 0.233193 0.649070
O O8 0.939989 0.691904 0.073851
O O9 0.062346 0.815280 0.219581
O O10 0.000000 0.732990 0.000000
O O11 0.250000 0.250000 0.500000
O O12 0.242817 0.112749 0.445397
O O13 0.500000 0.577211 0.500000
O O14 0.553504 0.500000 0.714028
O O15 0.667230 0.618793 0.844286
O O16 0.873440 0.360581 0.138240
O O17 0.053902 0.403763 0.318483
O O18 0.706662 0.000000 0.573594
O O19 0.250000 0.250000 0.000000
#
# Coordination Sequence:
#
# PCOD8102405 Si02
#       8
#     8   8   8   8   8   8   8   8
#     4  11  22  36  62  98 121 156 200 261 308 364
#     4  10  20  36  63  88 120 155 205 249 303 370
#     4  11  18  32  61  93 117 146 205 258 307 346
#     4  11  18  38  60  88 120 159 203 250 303 359
#     4  11  25  42  59  86 125 162 200 255 313 364
#     4  10  22  37  61  93 118 161 209 255 296 366
#     4  11  24  41  59  90 132 167 200 245 316 384
#     4  12  21  39  64  94 121 156 214 258 306 360
#
# _framework density 18.898365999999999
#
# number of rings (size 3 to 8) (size 9 to 14) (size 15 to 20)
#    0.000    1.125    7.500    1.500    0.000    3.000 
#    0.000    1.875    0.000    0.375    0.000    0.000 
#    0.000    0.000    0.000    0.000    0.000    0.000 
#
# Total GULP energy -396497.272778 kJ/mol
# GULP energy per Si atom -12390.539774 kJ/mol
# Density = 1.885535 g / cm^3
# Si number density = 18.898366 Si / 1000 Ang^3
#
#
#
# Elastic Constant Matrix: (Units=GPa)
#
#
# Indices 1 2 3 4 5 6 
#
# 1 134.8761 31.1493 38.8109 0.0000 9.8885 0.0000
# 2 31.1493 107.4674 34.2683 0.0000 9.2916 0.0000
# 3 38.8109 34.2683 84.8384 0.0000 12.6958 0.0000
# 4 0.0000 0.0000 0.0000 53.7655 0.0000 -5.8867
# 5 9.8885 9.2916 12.6958 0.0000 39.1762 0.0000
# 6 0.0000 0.0000 0.0000 -5.8867 0.0000 25.8320
#
#
#
# Elastic Compliance Matrix: (Units=1/GPa)
#
#
# Indices 1 2 3 4 5 6 
#
# 1 0.008752 -0.001411 -0.003314 0.000000 -0.000801 0.000000
# 2 -0.001411 0.010962 -0.003622 0.000000 -0.001070 0.000000
# 3 -0.003314 -0.003622 0.015252 0.000000 -0.003247 0.000000
# 4 0.000000 0.000000 0.000000 0.019075 0.000000 0.004347
# 5 -0.000801 -0.001070 -0.003247 0.000000 0.027034 0.000000
# 6 0.000000 0.000000 0.000000 0.004347 0.000000 0.039702
#
#
# Mechanical properties :
#
#
# Convention : Reuss Voigt Hill
#
# Bulk Modulus (GPa) = 54.72919 59.51543 57.12231
# Shear Modulus (GPa) = 34.82796 38.61829 36.72313
#
# Velocity S-wave (km/s) = 4.29757 4.52538 4.41295
# Velocity P-wave (km/s) = 7.32448 7.67243 7.50048
#
# Compressibility (1/GPa) = 0.01827179
#
# Stress axis : x y z
#
# Youngs Moduli (GPa) = 114.25400 91.22774 65.56382
#
# Poissons Ratio (x) = 0.12871 0.21730
# Poissons Ratio (y) = 0.16119 0.23748
# Poissons Ratio (z) = 0.37867 0.33044
#
# Static dielectric constant tensor:
#      x y z
#    x 3.536100 0.000000 -0.124140 
#    y 0.000000 3.357780 0.000000 
#    z -0.124140 0.000000 3.752870 
# 
# 
# High freq. dielectric constant tensor:
#      x y z
#    x 1.749120 0.000000 0.004570 
#    y 0.000000 1.698040 0.000000 
#    z 0.004570 0.000000 1.746480 
# 
# From -- ./inp_files/241534.got.cif
#   From: 2010.06.25/outbox.cif.g09.slc.cpg/sg12_121_cif.got.tgz:241534.got - 2010.06.28 00:19:55.
