data_PCOD8102417
_publ_section_title
;
Structure prediction by ZEFSAII (Michael W. Deem and Ramdas Pophale) SiO2 
 PCOD8102417
Probable space group: C 2/M
;
_chemical_formula_sum "Si O2"
_cell_formula_units_Z 64
_cell_length_a 20.307891
_cell_length_b 8.977028
_cell_length_c 22.015497
_cell_angle_alpha 90.000000
_cell_angle_beta 124.012883
_cell_angle_gamma 90.000000
_cell_volume 3326.857725
_symmetry_space_group_name_H-M "C 2/M"
_symmetry_group_IT_number 12
_symmetry_cell_setting 'monoclinic'
loop_
_space_group_symop_operation_xyz
x,y,z
-x,y,-z
-x,-y,-z
x,-y,z
1/2+x,1/2+y,z
1/2-x,1/2+y,-z
1/2-x,1/2-y,-z
1/2+x,1/2-y,z
loop_
_atom_site_type_symbol
_atom_site_label
_atom_site_fract_x
_atom_site_fract_y
_atom_site_fract_z
Si Si1 0.614864 0.671191 0.702109
Si Si2 0.247077 0.173019 0.675251
Si Si3 0.166120 0.323558 0.848000
Si Si4 0.573292 0.172363 0.917067
Si Si5 0.297806 0.823562 0.470439
Si Si6 0.654413 0.675492 0.069234
Si Si7 0.536941 0.671590 0.455192
Si Si8 0.392596 0.830486 0.833916
O O1 0.632558 0.500000 0.726463
O O2 0.680281 0.728768 0.687995
O O3 0.619520 0.763490 0.765960
O O4 0.527293 0.694501 0.630568
O O5 0.241281 0.271587 0.612470
O O6 0.333725 0.201493 0.747881
O O7 0.232926 0.000000 0.651384
O O8 0.162225 0.500000 0.843031
O O9 0.123360 0.262982 0.886488
O O10 0.256387 0.264530 0.895519
O O11 0.480864 0.198386 0.854849
O O12 0.592969 0.000000 0.937666
O O13 0.595311 0.257344 0.989517
O O14 0.250000 0.750000 0.500000
O O15 0.389139 0.775092 0.522120
O O16 0.291864 0.000000 0.472699
O O17 0.651128 0.500000 0.061701
O O18 0.625742 0.720464 0.120804
O O19 0.500000 0.722436 0.500000
O O20 0.565017 0.500000 0.474064
O O21 0.382269 0.000000 0.852006
#
# Coordination Sequence:
#
# PCOD8102417 Si02
#       8
#     8   8   8   8   8   8   8   8
#     4  10  20  36  63  91 118 155 196 242 295 353
#     4  10  20  39  63  88 119 157 198 242 298 358
#     4  10  22  38  56  83 119 153 195 247 296 348
#     4  10  22  39  57  81 114 153 195 243 294 349
#     4  12  26  42  63  92 126 162 201 246 299 357
#     4  11  22  36  57  85 116 153 194 244 296 348
#     4  10  20  39  64  90 122 158 198 245 296 354
#     4  10  21  38  62  86 113 153 198 238 290 356
#
# _framework density 19.237373000000002
#
# number of rings (size 3 to 8) (size 9 to 14) (size 15 to 20)
#    0.000    1.625    2.500    2.250    0.000    5.750 
#    0.000    1.250    0.000    0.000    0.000    0.000 
#    0.000    0.000    0.000    0.000    0.000    0.000 
#
# Total GULP energy -396979.240254 kJ/mol
# GULP energy per Si atom -12405.601258 kJ/mol
# Density = 1.919359 g / cm^3
# Si number density = 19.237373 Si / 1000 Ang^3
#
#
#
# Elastic Constant Matrix: (Units=GPa)
#
#
# Indices 1 2 3 4 5 6 
#
# 1 112.6767 43.2789 45.8959 0.0000 1.4884 0.0000
# 2 43.2789 71.1824 38.7934 0.0000 0.2555 0.0000
# 3 45.8959 38.7934 105.8133 0.0000 13.8843 0.0000
# 4 0.0000 0.0000 0.0000 35.0925 0.0000 -2.1153
# 5 1.4884 0.2555 13.8843 0.0000 25.9213 0.0000
# 6 0.0000 0.0000 0.0000 -2.1153 0.0000 29.6045
#
#
#
# Elastic Compliance Matrix: (Units=1/GPa)
#
#
# Indices 1 2 3 4 5 6 
#
# 1 0.012459 -0.005684 -0.003478 0.000000 0.001204 0.000000
# 2 -0.005684 0.020453 -0.005431 0.000000 0.003034 0.000000
# 3 -0.003478 -0.005431 0.013894 0.000000 -0.007189 0.000000
# 4 0.000000 0.000000 0.000000 0.028619 0.000000 0.002045
# 5 0.001204 0.003034 -0.007189 0.000000 0.042330 0.000000
# 6 0.000000 0.000000 0.000000 0.002045 0.000000 0.033925
#
#
# Mechanical properties :
#
#
# Convention : Reuss Voigt Hill
#
# Bulk Modulus (GPa) = 56.75587 60.62320 58.68953
# Shear Modulus (GPa) = 26.77523 28.90394 27.83958
#
# Velocity S-wave (km/s) = 3.73478 3.88040 3.80828
# Velocity P-wave (km/s) = 6.94010 7.18737 7.06482
#
# Compressibility (1/GPa) = 0.01761932
#
# Stress axis : x y z
#
# Youngs Moduli (GPa) = 80.26389 48.89184 71.97474
#
# Poissons Ratio (x) = 0.27789 0.25034
# Poissons Ratio (y) = 0.45620 0.39092
# Poissons Ratio (z) = 0.27917 0.26555
#
# Static dielectric constant tensor:
#      x y z
#    x 3.637880 0.000000 0.050800 
#    y 0.000000 3.399860 0.000000 
#    z 0.050800 0.000000 3.531100 
# 
# 
# High freq. dielectric constant tensor:
#      x y z
#    x 1.755550 0.000000 0.007020 
#    y 0.000000 1.738250 0.000000 
#    z 0.007020 0.000000 1.759440 
# 
# From -- ./inp_files/320024.got.cif
#   From: 2010.06.25/outbox.cif.g09.slc.cpg/sg12_161_cif.got.tgz:320024.got - 2010.06.28 00:19:55.
