data_PCOD8102241
_publ_section_title
;
Structure prediction by ZEFSAII (Michael W. Deem and Ramdas Pophale) SiO2 
 PCOD8102241
Probable space group: C 2/M
;
_chemical_formula_sum "Si O2"
_cell_formula_units_Z 40
_cell_length_a 30.036651
_cell_length_b 17.679528
_cell_length_c 9.819149
_cell_angle_alpha 90.000000
_cell_angle_beta 155.114631
_cell_angle_gamma 90.000000
_cell_volume 2194.199277
_symmetry_space_group_name_H-M "C 2/M"
_symmetry_group_IT_number 12
_symmetry_cell_setting 'monoclinic'
loop_
_space_group_symop_operation_xyz
x,y,z
-x,y,-z
-x,-y,-z
x,-y,z
1/2+x,1/2+y,z
1/2-x,1/2+y,-z
1/2-x,1/2-y,-z
1/2+x,1/2-y,z
loop_
_atom_site_type_symbol
_atom_site_label
_atom_site_fract_x
_atom_site_fract_y
_atom_site_fract_z
Si Si1 0.541915 0.301691 0.260358
Si Si2 0.610704 0.085401 0.877357
Si Si3 0.792749 0.914420 0.160024
Si Si4 0.233539 0.293320 0.813276
Si Si5 0.845682 0.735162 0.867042
O O1 0.603987 0.369811 0.503761
O O2 0.616678 0.228743 0.435922
O O3 0.500000 0.332109 0.000000
O O4 0.448811 0.277533 0.101448
O O5 0.500000 0.106107 0.500000
O O6 0.607475 0.000000 0.929025
O O7 0.702739 0.092884 0.022937
O O8 0.633265 0.144924 0.061268
O O9 0.826610 0.000000 0.226993
O O10 0.747814 0.881579 0.891397
O O11 0.321076 0.269198 0.946965
O O12 0.250000 0.250000 0.000000
O O13 0.750000 0.750000 0.500000
#
# Coordination Sequence:
#
# PCOD8102241 Si02
#       5
#     8   8   8   8   8
#     4  11  21  37  60  87 118 155 201 241 289 349
#     4  10  20  36  61  90 115 151 201 247 288 343
#     4  10  21  38  58  86 122 153 191 244 297 347
#     4  10  20  37  57  87 114 151 199 234 286 347
#     4  12  22  37  61  88 120 158 196 240 295 352
#
# _framework density 18.229883999999998
#
# number of rings (size 3 to 8) (size 9 to 14) (size 15 to 20)
#    0.000    1.400    6.000    1.200    2.800    0.400 
#    0.000    4.000    0.000    1.200    0.000    0.000 
#    0.000    0.000    0.000    0.000    0.000    0.000 
#
# Total GULP energy -247961.505522 kJ/mol
# GULP energy per Si atom -12398.075276 kJ/mol
# Density = 1.818839 g / cm^3
# Si number density = 18.229884 Si / 1000 Ang^3
#
#
#
# Elastic Constant Matrix: (Units=GPa)
#
#
# Indices 1 2 3 4 5 6 
#
# 1 102.5222 45.0528 31.1775 0.0000 17.5376 0.0000
# 2 45.0528 156.6085 70.8622 0.0000 -0.9622 0.0000
# 3 31.1775 70.8622 107.7401 0.0000 11.6767 0.0000
# 4 0.0000 0.0000 0.0000 29.5099 0.0000 0.2934
# 5 17.5376 -0.9622 11.6767 0.0000 35.7494 0.0000
# 6 0.0000 0.0000 0.0000 0.2934 0.0000 16.3314
#
#
#
# Elastic Compliance Matrix: (Units=1/GPa)
#
#
# Indices 1 2 3 4 5 6 
#
# 1 0.012443 -0.003242 -0.000827 0.000000 -0.005921 0.000000
# 2 -0.003242 0.010118 -0.006136 0.000000 0.003867 0.000000
# 3 -0.000827 -0.006136 0.014027 0.000000 -0.004341 0.000000
# 4 0.000000 0.000000 0.000000 0.033893 0.000000 -0.000609
# 5 -0.005921 0.003867 -0.004341 0.000000 0.032399 0.000000
# 6 0.000000 0.000000 0.000000 -0.000609 0.000000 0.061243
#
#
# Mechanical properties :
#
#
# Convention : Reuss Voigt Hill
#
# Bulk Modulus (GPa) = 61.80780 73.45066 67.62923
# Shear Modulus (GPa) = 26.32626 30.97003 28.64815
#
# Velocity S-wave (km/s) = 3.80429 4.12619 3.96851
# Velocity P-wave (km/s) = 7.29898 7.94226 7.62740
#
# Compressibility (1/GPa) = 0.01617919
#
# Stress axis : x y z
#
# Youngs Moduli (GPa) = 80.36695 98.83366 71.29173
#
# Poissons Ratio (x) = 0.32040 0.05894
# Poissons Ratio (y) = 0.26054 0.43743
# Poissons Ratio (z) = 0.06644 0.60642
#
# Static dielectric constant tensor:
#      x y z
#    x 3.484730 0.000000 0.033270 
#    y 0.000000 3.916570 0.000000 
#    z 0.033270 0.000000 3.698000 
# 
# 
# High freq. dielectric constant tensor:
#      x y z
#    x 1.702370 0.000000 0.013760 
#    y 0.000000 1.700680 0.000000 
#    z 0.013760 0.000000 1.713620 
# 
# From -- ./inp_files/60844.got.cif
#   From: 2010.06.25/outbox.cif.g09.slc.cpg/sg12_31_cif.got.tgz:60844.got - 2010.06.28 00:19:55.
