data_PCOD8102709
_publ_section_title
;
Structure prediction by ZEFSAII (Michael W. Deem and Ramdas Pophale) SiO2 
 PCOD8102709
Probable space group: C 2/M
;
_chemical_formula_sum "Si O2"
_cell_formula_units_Z 56
_cell_length_a 19.167657
_cell_length_b 21.963953
_cell_length_c 10.128930
_cell_angle_alpha 90.000000
_cell_angle_beta 42.880595
_cell_angle_gamma 90.000000
_cell_volume 2901.708829
_symmetry_space_group_name_H-M "C 2/M"
_symmetry_group_IT_number 12
_symmetry_cell_setting 'monoclinic'
loop_
_space_group_symop_operation_xyz
x,y,z
-x,y,-z
-x,-y,-z
x,-y,z
1/2+x,1/2+y,z
1/2-x,1/2+y,-z
1/2-x,1/2-y,-z
1/2+x,1/2-y,z
loop_
_atom_site_type_symbol
_atom_site_label
_atom_site_fract_x
_atom_site_fract_y
_atom_site_fract_z
Si Si1 0.682906 0.169619 0.492593
Si Si2 0.121223 0.265143 0.318913
Si Si3 0.772468 0.661894 0.051375
Si Si4 0.414152 0.932664 0.516619
Si Si5 0.891389 0.155835 0.094286
Si Si6 0.887572 0.295481 0.131393
Si Si7 0.794099 0.932616 0.035131
O O1 0.670507 0.218495 0.392028
O O2 0.599430 0.115200 0.585357
O O3 0.799401 0.143743 0.326232
O O4 0.669756 0.204117 0.648827
O O5 0.170533 0.202518 0.201933
O O6 0.000000 0.257541 0.500000
O O7 0.151315 0.316976 0.171931
O O8 0.832084 0.659643 0.106658
O O9 0.736281 0.593470 0.066823
O O10 0.500000 0.908094 0.500000
O O11 0.305892 0.936977 0.737375
O O12 0.446263 0.000000 0.419420
O O13 0.893523 0.228077 0.058274
O O14 0.873612 0.115549 0.988289
O O15 0.000000 0.134243 0.000000
O O16 0.000000 0.321751 0.000000
O O17 0.843201 0.000000 0.951612
#
# Coordination Sequence:
#
# PCOD8102709 Si02
#       7
#     8   8   8   8   8   8   8
#     4  11  20  36  54  86 118 151 188 232 291 354
#     4  11  21  35  61  86 116 156 193 234 294 353
#     4  11  21  39  55  88 120 149 197 244 281 349
#     4   9  18  33  56  83 109 148 200 243 277 335
#     4  10  20  37  58  85 115 147 193 242 285 342
#     4  11  23  35  56  87 126 152 180 235 301 355
#     4  10  21  38  60  82 111 154 204 247 282 334
#
# _framework density 19.298974000000001
#
# number of rings (size 3 to 8) (size 9 to 14) (size 15 to 20)
#    0.000    1.571    4.286    2.571    2.000    1.429 
#    0.000    0.714    0.000    1.286    0.000    0.000 
#    0.000    0.000    0.000    0.000    0.000    0.000 
#
# Total GULP energy -347102.475574 kJ/mol
# GULP energy per Si atom -12396.516985 kJ/mol
# Density = 1.925505 g / cm^3
# Si number density = 19.298974 Si / 1000 Ang^3
#
#
#
# Elastic Constant Matrix: (Units=GPa)
#
#
# Indices 1 2 3 4 5 6 
#
# 1 134.0095 45.3425 46.7649 0.0000 -2.0963 0.0000
# 2 45.3425 108.3111 20.7300 0.0000 10.9492 0.0000
# 3 46.7649 20.7300 81.4041 0.0000 1.7445 0.0000
# 4 0.0000 0.0000 0.0000 9.9006 0.0000 3.9837
# 5 -2.0963 10.9492 1.7445 0.0000 41.6572 0.0000
# 6 0.0000 0.0000 0.0000 3.9837 0.0000 16.8895
#
#
#
# Elastic Compliance Matrix: (Units=1/GPa)
#
#
# Indices 1 2 3 4 5 6 
#
# 1 0.010499 -0.003579 -0.005156 0.000000 0.001685 0.000000
# 2 -0.003579 0.011182 -0.000726 0.000000 -0.003089 0.000000
# 3 -0.005156 -0.000726 0.015447 0.000000 -0.000716 0.000000
# 4 0.000000 0.000000 0.000000 0.111595 0.000000 -0.026322
# 5 0.001685 -0.003089 -0.000716 0.000000 0.024932 0.000000
# 6 0.000000 0.000000 0.000000 -0.026322 0.000000 0.065417
#
#
# Mechanical properties :
#
#
# Convention : Reuss Voigt Hill
#
# Bulk Modulus (GPa) = 54.92464 61.04439 57.98452
# Shear Modulus (GPa) = 18.93506 27.74861 23.34183
#
# Velocity S-wave (km/s) = 3.13572 3.79598 3.48154
# Velocity P-wave (km/s) = 6.45228 7.13528 6.80236
#
# Compressibility (1/GPa) = 0.01820676
#
# Stress axis : x y z
#
# Youngs Moduli (GPa) = 95.25074 89.43058 64.73952
#
# Poissons Ratio (x) = 0.32003 0.33380
# Poissons Ratio (y) = 0.34086 0.04697
# Poissons Ratio (z) = 0.49112 0.06489
#
# Static dielectric constant tensor:
#      x y z
#    x 3.720390 0.000000 -0.148540 
#    y 0.000000 3.838480 0.000000 
#    z -0.148540 0.000000 3.316830 
# 
# 
# High freq. dielectric constant tensor:
#      x y z
#    x 1.761040 0.000000 -0.013640 
#    y 0.000000 1.733300 0.000000 
#    z -0.013640 0.000000 1.723540 
# 
# From -- ./inp_files/79050.got.cif
#   From: 2010.06.25/outbox.cif.g09.slc.cpg/sg12_40_cif.got.tgz:79050.got - 2010.06.28 00:19:55.
