data_PCOD8102520
_publ_section_title
;
Structure prediction by ZEFSAII (Michael W. Deem and Ramdas Pophale) SiO2 
 PCOD8102520
Probable space group: C 2/M
;
_chemical_formula_sum "Si O2"
_cell_formula_units_Z 40
_cell_length_a 26.634248
_cell_length_b 13.224790
_cell_length_c 7.666532
_cell_angle_alpha 90.000000
_cell_angle_beta 135.221244
_cell_angle_gamma 90.000000
_cell_volume 1902.083971
_symmetry_space_group_name_H-M "C 2/M"
_symmetry_group_IT_number 12
_symmetry_cell_setting 'monoclinic'
loop_
_space_group_symop_operation_xyz
x,y,z
-x,y,-z
-x,-y,-z
x,-y,z
1/2+x,1/2+y,z
1/2-x,1/2+y,-z
1/2-x,1/2-y,-z
1/2+x,1/2-y,z
loop_
_atom_site_type_symbol
_atom_site_label
_atom_site_fract_x
_atom_site_fract_y
_atom_site_fract_z
Si Si1 0.629696 0.383573 0.809175
Si Si2 0.583682 0.260662 0.389209
Si Si3 0.708600 0.115337 0.290713
Si Si4 0.925962 0.258178 0.027955
Si Si5 0.230161 0.308483 0.716680
O O1 0.619359 0.500000 0.822735
O O2 0.592449 0.358641 0.533226
O O3 0.591519 0.324710 0.871228
O O4 0.713571 0.353062 0.006406
O O5 0.508383 0.206564 0.247387
O O6 0.649501 0.183777 0.593445
O O7 0.587317 0.292654 0.194878
O O8 0.753713 0.189595 0.278340
O O9 0.738142 0.126961 0.559778
O O10 0.718371 0.000000 0.252037
O O11 0.624646 0.144429 0.075859
#
# Coordination Sequence:
#
# PCOD8102520 Si02
#       5
#     8   8   8   8   8
#     4  11  22  36  57  82 110 147 184 221 272 328
#     4  10  20  37  56  77 110 146 178 223 276 317
#     4   9  17  34  59  82 108 146 183 219 273 327
#     4   9  21  38  56  80 111 143 181 227 269 321
#     4   9  19  34  54  82 114 141 177 230 270 317
#
# _framework density 21.029567
#
# number of rings (size 3 to 8) (size 9 to 14) (size 15 to 20)
#    0.000    2.400    0.000    3.000    0.000    3.200 
#    0.000   11.000    0.000   20.400    0.000    0.000 
#    0.000    0.000    0.000    0.000    0.000    0.000 
#
# Total GULP energy -247916.534084 kJ/mol
# GULP energy per Si atom -12395.826704 kJ/mol
# Density = 2.098170 g / cm^3
# Si number density = 21.029567 Si / 1000 Ang^3
#
#
#
# Elastic Constant Matrix: (Units=GPa)
#
#
# Indices 1 2 3 4 5 6 
#
# 1 70.0011 -0.8261 30.1026 0.0000 15.6232 0.0000
# 2 -0.8261 75.3216 -6.1378 0.0000 -6.8041 0.0000
# 3 30.1026 -6.1378 88.4568 0.0000 16.6414 0.0000
# 4 0.0000 0.0000 0.0000 18.9206 0.0000 -4.4400
# 5 15.6232 -6.8041 16.6414 0.0000 44.4511 0.0000
# 6 0.0000 0.0000 0.0000 -4.4400 0.0000 7.2816
#
#
#
# Elastic Compliance Matrix: (Units=1/GPa)
#
#
# Indices 1 2 3 4 5 6 
#
# 1 0.017463 -0.000618 -0.005178 0.000000 -0.004294 0.000000
# 2 -0.000618 0.013513 0.000772 0.000000 0.001997 0.000000
# 3 -0.005178 0.000772 0.013723 0.000000 -0.003199 0.000000
# 4 0.000000 0.000000 0.000000 0.061678 0.000000 0.037608
# 5 -0.004294 0.001997 -0.003199 0.000000 0.025509 0.000000
# 6 0.000000 0.000000 0.000000 0.037608 0.000000 0.160264
#
#
# Mechanical properties :
#
#
# Convention : Reuss Voigt Hill
#
# Bulk Modulus (GPa) = 28.85919 31.11743 29.98831
# Shear Modulus (GPa) = 15.93640 28.17338 22.05489
#
# Velocity S-wave (km/s) = 2.75582 3.66417 3.24196
# Velocity P-wave (km/s) = 4.88661 5.72107 5.32023
#
# Compressibility (1/GPa) = 0.03465101
#
# Stress axis : x y z
#
# Youngs Moduli (GPa) = 57.26321 74.00319 72.87290
#
# Poissons Ratio (x) = 0.04576 0.37733
# Poissons Ratio (y) = 0.03541 -0.05629
# Poissons Ratio (z) = 0.29651 -0.05716
#
# Static dielectric constant tensor:
#      x y z
#    x 3.885500 0.000000 0.239050 
#    y 0.000000 3.257160 0.000000 
#    z 0.239050 0.000000 4.265860 
# 
# 
# High freq. dielectric constant tensor:
#      x y z
#    x 1.830410 0.000000 0.007850 
#    y 0.000000 1.769320 0.000000 
#    z 0.007850 0.000000 1.845040 
# 
# From -- ./inp_files/83395.got.cif
#   From: 2010.06.25/outbox.cif.g09.slc.cpg/sg12_42_cif.got.tgz:83395.got - 2010.06.28 00:19:55.
