data_PCOD8102072
_publ_section_title
;
Structure prediction by ZEFSAII (Michael W. Deem and Ramdas Pophale) SiO2 
 PCOD8102072
Probable space group: C 2/M
;
_chemical_formula_sum "Si O2"
_cell_formula_units_Z 48
_cell_length_a 9.613915
_cell_length_b 23.305739
_cell_length_c 12.218253
_cell_angle_alpha 90.000000
_cell_angle_beta 117.054889
_cell_angle_gamma 90.000000
_cell_volume 2438.040493
_symmetry_space_group_name_H-M "C 2/M"
_symmetry_group_IT_number 12
_symmetry_cell_setting 'monoclinic'
loop_
_space_group_symop_operation_xyz
x,y,z
-x,y,-z
-x,-y,-z
x,-y,z
1/2+x,1/2+y,z
1/2-x,1/2+y,-z
1/2-x,1/2-y,-z
1/2+x,1/2-y,z
loop_
_atom_site_type_symbol
_atom_site_label
_atom_site_fract_x
_atom_site_fract_y
_atom_site_fract_z
Si Si1 0.298651 0.135524 0.646873
Si Si2 0.594642 0.267735 0.639061
Si Si3 0.180405 0.065002 0.796336
Si Si4 0.387752 0.372398 0.626366
Si Si5 0.182220 0.934323 0.047575
Si Si6 0.645446 0.146369 0.723586
O O1 0.255471 0.202101 0.655548
O O2 0.291960 0.101777 0.758451
O O3 0.165985 0.112253 0.516055
O O4 0.466345 0.126685 0.652737
O O5 0.500000 0.243036 0.500000
O O6 0.487230 0.313421 0.665357
O O7 0.643749 0.215681 0.736960
O O8 0.996887 0.077486 0.711812
O O9 0.212059 0.000000 0.776658
O O10 0.226195 0.077245 0.937691
O O11 0.232534 0.368397 0.642816
O O12 0.274168 0.886215 0.147542
O O13 0.226842 0.000000 0.097568
O O14 0.000000 0.924318 0.000000
#
# Coordination Sequence:
#
# PCOD8102072 Si02
#       6
#     8   8   8   8   8   8
#     4  10  22  36  57  94 123 146 189 242 289 339
#     4   9  19  37  59  85 122 163 190 219 283 362
#     4  10  21  41  63  79 111 160 200 233 283 353
#     4  10  20  36  60  88 121 156 190 228 287 353
#     4  10  22  42  63  81 107 153 203 238 284 351
#     4  12  21  34  62  89 115 150 196 243 284 330
#
# _framework density 19.687942
#
# number of rings (size 3 to 8) (size 9 to 14) (size 15 to 20)
#    0.000    1.833    1.667    4.000    0.000    5.333 
#    0.000    5.000    0.000    5.500    0.000    0.000 
#    0.000    0.000    0.000    0.000    0.000    0.000 
#
# Total GULP energy -297540.733132 kJ/mol
# GULP energy per Si atom -12397.530547 kJ/mol
# Density = 1.964313 g / cm^3
# Si number density = 19.687942 Si / 1000 Ang^3
#
#
#
# Elastic Constant Matrix: (Units=GPa)
#
#
# Indices 1 2 3 4 5 6 
#
# 1 104.5295 8.8025 16.2362 0.0000 -4.6550 0.0000
# 2 8.8025 86.8963 64.1497 0.0000 1.2383 0.0000
# 3 16.2362 64.1497 93.0270 0.0000 0.7527 0.0000
# 4 0.0000 0.0000 0.0000 37.4737 0.0000 1.4033
# 5 -4.6550 1.2383 0.7527 0.0000 27.1083 0.0000
# 6 0.0000 0.0000 0.0000 1.4033 0.0000 19.0404
#
#
#
# Elastic Compliance Matrix: (Units=1/GPa)
#
#
# Indices 1 2 3 4 5 6 
#
# 1 0.009928 0.000528 -0.002111 0.000000 0.001739 0.000000
# 2 0.000528 0.023480 -0.016279 0.000000 -0.000530 0.000000
# 3 -0.002111 -0.016279 0.022346 0.000000 -0.000239 0.000000
# 4 0.000000 0.000000 0.000000 0.026759 0.000000 -0.001972
# 5 0.001739 -0.000530 -0.000239 0.000000 0.037219 0.000000
# 6 0.000000 0.000000 0.000000 -0.001972 0.000000 0.052665
#
#
# Mechanical properties :
#
#
# Convention : Reuss Voigt Hill
#
# Bulk Modulus (GPa) = 49.92768 51.42553 50.67661
# Shear Modulus (GPa) = 23.27784 29.74210 26.50997
#
# Velocity S-wave (km/s) = 3.44225 3.89096 3.67346
# Velocity P-wave (km/s) = 6.41976 6.80904 6.61727
#
# Compressibility (1/GPa) = 0.02002897
#
# Stress axis : x y z
#
# Youngs Moduli (GPa) = 100.72998 42.58975 44.75142
#
# Poissons Ratio (x) = -0.02248 0.09445
# Poissons Ratio (y) = -0.05316 0.72851
# Poissons Ratio (z) = 0.21261 0.69332
#
# Static dielectric constant tensor:
#      x y z
#    x 3.718420 0.000000 -0.058980 
#    y 0.000000 3.553680 0.000000 
#    z -0.058980 0.000000 3.492570 
# 
# 
# High freq. dielectric constant tensor:
#      x y z
#    x 1.780900 0.000000 -0.010380 
#    y 0.000000 1.758430 0.000000 
#    z -0.010380 0.000000 1.750360 
# 
# From -- ./inp_files/122419.got.cif
#   From: 2010.06.25/outbox.cif.g09.slc.cpg/sg12_62_cif.got.tgz:122419.got - 2010.06.28 00:19:55.
