data_PCOD8102602
_publ_section_title
;
Structure prediction by ZEFSAII (Michael W. Deem and Ramdas Pophale) SiO2 
 PCOD8102602
Probable space group: C 2/M
;
_chemical_formula_sum "Si O2"
_cell_formula_units_Z 48
_cell_length_a 8.278920
_cell_length_b 29.204941
_cell_length_c 11.043076
_cell_angle_alpha 90.000000
_cell_angle_beta 64.840451
_cell_angle_gamma 90.000000
_cell_volume 2416.739308
_symmetry_space_group_name_H-M "C 2/M"
_symmetry_group_IT_number 12
_symmetry_cell_setting 'monoclinic'
loop_
_space_group_symop_operation_xyz
x,y,z
-x,y,-z
-x,-y,-z
x,-y,z
1/2+x,1/2+y,z
1/2-x,1/2+y,-z
1/2-x,1/2-y,-z
1/2+x,1/2-y,z
loop_
_atom_site_type_symbol
_atom_site_label
_atom_site_fract_x
_atom_site_fract_y
_atom_site_fract_z
Si Si1 0.686572 0.373967 0.886016
Si Si2 0.810150 0.775461 0.362211
Si Si3 0.531232 0.805711 0.261738
Si Si4 0.058798 0.447388 0.118590
Si Si5 0.778951 0.609866 0.350025
Si Si6 0.917717 0.125700 0.351340
O O1 0.821462 0.331183 0.869603
O O2 0.756963 0.419674 0.927587
O O3 0.666369 0.386635 0.751164
O O4 0.500000 0.358213 0.000000
O O5 0.750000 0.750000 0.500000
O O6 0.632453 0.791100 0.351080
O O7 0.923119 0.819556 0.365678
O O8 0.936466 0.740755 0.241506
O O9 0.375355 0.841707 0.336931
O O10 0.095280 0.500000 0.137605
O O11 0.915663 0.428876 0.261713
O O12 0.000000 0.440462 0.000000
O O13 0.623715 0.610875 0.298195
O O14 0.697227 0.599401 0.508807
#
# Coordination Sequence:
#
# PCOD8102602 Si02
#       6
#     8   8   8   8   8   8
#     4  10  22  40  60  85 120 160 202 249 304 367
#     4  11  19  29  52  83 117 154 207 253 284 339
#     4  10  21  32  52  82 116 156 202 251 297 337
#     4  10  22  41  67  92 117 151 195 245 305 378
#     4  10  20  37  57  87 121 156 196 251 303 357
#     4  10  21  35  58  87 122 160 205 244 297 354
#
# _framework density 19.861470000000001
#
# number of rings (size 3 to 8) (size 9 to 14) (size 15 to 20)
#    0.000    1.833    1.667    2.500    4.667    2.333 
#    0.000    7.500    0.000   10.000    0.000    0.000 
#    0.000    0.000    0.000    0.000    0.000    0.000 
#
# Total GULP energy -297444.499354 kJ/mol
# GULP energy per Si atom -12393.520806 kJ/mol
# Density = 1.981626 g / cm^3
# Si number density = 19.861470 Si / 1000 Ang^3
#
#
#
# Elastic Constant Matrix: (Units=GPa)
#
#
# Indices 1 2 3 4 5 6 
#
# 1 75.5239 25.0153 23.4910 0.0000 -11.5628 0.0000
# 2 25.0153 102.1152 38.3640 0.0000 -1.4424 0.0000
# 3 23.4910 38.3640 77.0566 0.0000 -11.2466 0.0000
# 4 0.0000 0.0000 0.0000 19.4344 0.0000 7.1115
# 5 -11.5628 -1.4424 -11.2466 0.0000 35.4354 0.0000
# 6 0.0000 0.0000 0.0000 7.1115 0.0000 28.4750
#
#
#
# Elastic Compliance Matrix: (Units=1/GPa)
#
#
# Indices 1 2 3 4 5 6 
#
# 1 0.015645 -0.002716 -0.002819 0.000000 0.004100 0.000000
# 2 -0.002716 0.012592 -0.005763 0.000000 -0.002203 0.000000
# 3 -0.002819 -0.005763 0.017341 0.000000 0.004349 0.000000
# 4 0.000000 0.000000 0.000000 0.056630 0.000000 -0.014143
# 5 0.004100 -0.002203 0.004349 0.000000 0.030849 0.000000
# 6 0.000000 0.000000 0.000000 -0.014143 0.000000 0.038651
#
#
# Mechanical properties :
#
#
# Convention : Reuss Voigt Hill
#
# Bulk Modulus (GPa) = 43.51069 47.60404 45.55736
# Shear Modulus (GPa) = 24.75698 27.85731 26.30714
#
# Velocity S-wave (km/s) = 3.53439 3.74917 3.64336
# Velocity P-wave (km/s) = 6.21373 6.53925 6.37857
#
# Compressibility (1/GPa) = 0.02298286
#
# Stress axis : x y z
#
# Youngs Moduli (GPa) = 63.91905 79.41542 57.66765
#
# Poissons Ratio (x) = 0.21565 0.16257
# Poissons Ratio (y) = 0.17357 0.33233
# Poissons Ratio (z) = 0.18019 0.45765
#
# Static dielectric constant tensor:
#      x y z
#    x 3.893170 0.000000 -0.184170 
#    y 0.000000 3.737490 0.000000 
#    z -0.184170 0.000000 3.488480 
# 
# 
# High freq. dielectric constant tensor:
#      x y z
#    x 1.793030 0.000000 -0.012480 
#    y 0.000000 1.757660 0.000000 
#    z -0.012480 0.000000 1.756590 
# 
# From -- ./inp_files/123496.got.cif
#   From: 2010.06.25/outbox.cif.g09.slc.cpg/sg12_62_cif.got.tgz:123496.got - 2010.06.28 00:19:55.
