data_PCOD8102279
_publ_section_title
;
Structure prediction by ZEFSAII (Michael W. Deem and Ramdas Pophale) SiO2 
 PCOD8102279
Probable space group: C 2/M
;
_chemical_formula_sum "Si O2"
_cell_formula_units_Z 56
_cell_length_a 12.438087
_cell_length_b 17.283619
_cell_length_c 13.685188
_cell_angle_alpha 90.000000
_cell_angle_beta 64.940025
_cell_angle_gamma 90.000000
_cell_volume 2665.032314
_symmetry_space_group_name_H-M "C 2/M"
_symmetry_group_IT_number 12
_symmetry_cell_setting 'monoclinic'
loop_
_space_group_symop_operation_xyz
x,y,z
-x,y,-z
-x,-y,-z
x,-y,z
1/2+x,1/2+y,z
1/2-x,1/2+y,-z
1/2-x,1/2-y,-z
1/2+x,1/2-y,z
loop_
_atom_site_type_symbol
_atom_site_label
_atom_site_fract_x
_atom_site_fract_y
_atom_site_fract_z
Si Si1 0.269579 0.654533 0.699688
Si Si2 0.914478 0.091785 0.115614
Si Si3 0.539531 0.089684 0.876222
Si Si4 0.146400 0.410141 0.219460
Si Si5 0.492828 0.410040 0.712711
Si Si6 0.123765 0.308952 0.410874
Si Si7 0.223778 0.087433 0.509115
O O1 0.146890 0.645901 0.805155
O O2 0.374963 0.636746 0.733984
O O3 0.286145 0.740967 0.653032
O O4 0.268221 0.595005 0.610242
O O5 0.780199 0.118661 0.147035
O O6 0.955875 0.122283 0.205127
O O7 0.922088 0.000000 0.110354
O O8 0.000000 0.127878 0.000000
O O9 0.429078 0.105990 0.847970
O O10 0.580126 0.000000 0.855010
O O11 0.500000 0.112010 0.000000
O O12 0.144371 0.500000 0.249855
O O13 0.093168 0.362951 0.330519
O O14 0.460143 0.500000 0.732960
O O15 0.589605 0.393418 0.592160
O O16 0.184064 0.357117 0.473696
O O17 0.000000 0.275099 0.500000
O O18 0.256142 0.000000 0.526913
#
# Coordination Sequence:
#
# PCOD8102279 Si02
#       7
#     8   8   8   8   8   8   8
#     4  12  25  40  60  93 133 169 206 252 323 388
#     4   9  18  34  62  95 122 158 207 263 314 363
#     4  10  23  43  69  96 126 168 216 266 312 369
#     4  10  21  42  66  93 125 162 218 270 315 372
#     4  10  20  36  61  92 125 161 205 255 312 375
#     4  12  25  41  63  92 128 171 210 258 319 387
#     4  11  22  40  65  94 126 163 214 267 316 374
#
# _framework density 21.012879000000002
#
# number of rings (size 3 to 8) (size 9 to 14) (size 15 to 20)
#    0.000    1.429    1.429    4.286    2.000    4.571 
#    0.000    1.429    0.000    0.000    0.000    0.000 
#    0.000    0.000    0.000    0.000    0.000    0.000 
#
# Total GULP energy -347349.041430 kJ/mol
# GULP energy per Si atom -12405.322908 kJ/mol
# Density = 2.096505 g / cm^3
# Si number density = 21.012879 Si / 1000 Ang^3
#
#
#
# Elastic Constant Matrix: (Units=GPa)
#
#
# Indices 1 2 3 4 5 6 
#
# 1 150.8188 43.8281 67.9339 0.0000 -2.5084 0.0000
# 2 43.8281 67.4948 39.2054 0.0000 -10.3951 0.0000
# 3 67.9339 39.2054 156.8501 0.0000 -9.1757 0.0000
# 4 0.0000 0.0000 0.0000 20.0242 0.0000 -9.3034
# 5 -2.5084 -10.3951 -9.1757 0.0000 35.3880 0.0000
# 6 0.0000 0.0000 0.0000 -9.3034 0.0000 20.9160
#
#
#
# Elastic Compliance Matrix: (Units=1/GPa)
#
#
# Indices 1 2 3 4 5 6 
#
# 1 0.009252 -0.004507 -0.002965 0.000000 -0.001437 0.000000
# 2 -0.004507 0.020113 -0.002791 0.000000 0.004865 0.000000
# 3 -0.002965 -0.002791 0.008425 0.000000 0.001155 0.000000
# 4 0.000000 0.000000 0.000000 0.062948 0.000000 0.027999
# 5 -0.001437 0.004865 0.001155 0.000000 0.029885 0.000000
# 6 0.000000 0.000000 0.000000 0.027999 0.000000 0.060264
#
#
# Mechanical properties :
#
#
# Convention : Reuss Voigt Hill
#
# Bulk Modulus (GPa) = 57.92138 75.23318 66.57728
# Shear Modulus (GPa) = 23.02389 30.21205 26.61797
#
# Velocity S-wave (km/s) = 3.31373 3.79593 3.56300
# Velocity P-wave (km/s) = 6.50120 7.42248 6.97706
#
# Compressibility (1/GPa) = 0.01726478
#
# Stress axis : x y z
#
# Youngs Moduli (GPa) = 108.08940 49.71958 118.70023
#
# Poissons Ratio (x) = 0.22408 0.35189
# Poissons Ratio (y) = 0.48714 0.33126
# Poissons Ratio (z) = 0.32043 0.13875
#
# Static dielectric constant tensor:
#      x y z
#    x 3.849080 0.000000 0.013360 
#    y 0.000000 3.553490 0.000000 
#    z 0.013360 0.000000 3.946370 
# 
# 
# High freq. dielectric constant tensor:
#      x y z
#    x 1.834360 0.000000 0.002080 
#    y 0.000000 1.800590 0.000000 
#    z 0.002080 0.000000 1.827900 
# 
# From -- ./inp_files/206543.got.cif
#   From: 2010.06.25/outbox.cif.g09.slc.cpg/sg12_104_cif.got.tgz:206543.got - 2010.06.28 00:19:55.
