data_PCOD8102288
_publ_section_title
;
Structure prediction by ZEFSAII (Michael W. Deem and Ramdas Pophale) SiO2 
 PCOD8102288
Probable space group: C 2/M
;
_chemical_formula_sum "Si O2"
_cell_formula_units_Z 64
_cell_length_a 15.236549
_cell_length_b 8.599772
_cell_length_c 30.087889
_cell_angle_alpha 90.000000
_cell_angle_beta 127.512234
_cell_angle_gamma 90.000000
_cell_volume 3127.236678
_symmetry_space_group_name_H-M "C 2/M"
_symmetry_group_IT_number 12
_symmetry_cell_setting 'monoclinic'
loop_
_space_group_symop_operation_xyz
x,y,z
-x,y,-z
-x,-y,-z
x,-y,z
1/2+x,1/2+y,z
1/2-x,1/2+y,-z
1/2-x,1/2-y,-z
1/2+x,1/2-y,z
loop_
_atom_site_type_symbol
_atom_site_label
_atom_site_fract_x
_atom_site_fract_y
_atom_site_fract_z
Si Si1 0.793008 0.182751 0.635881
Si Si2 0.465597 0.681271 0.763987
Si Si3 0.348444 0.816701 0.559590
Si Si4 0.200459 0.680884 0.824173
Si Si5 0.108304 0.681115 0.166924
Si Si6 0.924275 0.821116 0.053636
Si Si7 0.454754 0.815405 0.439525
Si Si8 0.771966 0.678475 0.937247
O O1 0.865575 0.227279 0.700800
O O2 0.844978 0.262757 0.609009
O O3 0.669402 0.247072 0.606889
O O4 0.791415 0.000000 0.626415
O O5 0.495086 0.500000 0.771057
O O6 0.572180 0.776184 0.781365
O O7 0.431046 0.721583 0.803054
O O8 0.250000 0.750000 0.500000
O O9 0.465244 0.757880 0.575309
O O10 0.339677 0.000000 0.554255
O O11 0.215649 0.500000 0.819177
O O12 0.265721 0.775782 0.806264
O O13 0.249512 0.719390 0.887330
O O14 0.097106 0.500000 0.174198
O O15 0.033064 0.727488 0.101581
O O16 0.833352 0.803947 0.063734
O O17 0.954806 0.000000 0.054334
O O18 0.880715 0.744747 0.994785
O O19 0.500000 0.747501 0.500000
O O20 0.453289 0.000000 0.441203
O O21 0.791387 0.500000 0.929472
#
# Coordination Sequence:
#
# PCOD8102288 Si02
#       8
#     8   8   8   8   8   8   8   8
#     4  10  22  41  64  90 122 162 203 252 307 365
#     4  11  24  44  66  91 126 165 211 263 320 379
#     4  11  21  35  60  91 125 162 205 249 299 362
#     4  12  25  42  66  92 124 167 215 262 318 380
#     4  12  25  42  66  93 125 165 213 264 320 377
#     4  10  20  36  61  92 128 164 206 256 317 382
#     4   9  17  34  60  87 121 162 200 236 293 363
#     4  10  20  36  61  92 128 163 206 259 317 378
#
# _framework density 20.465350999999998
#
# number of rings (size 3 to 8) (size 9 to 14) (size 15 to 20)
#    0.000    1.375    2.500    3.750    0.000    3.500 
#    0.000    5.625    0.000    0.000    0.000    0.000 
#    0.000    0.000    0.000    0.000    0.000    0.000 
#
# Total GULP energy -396960.661395 kJ/mol
# GULP energy per Si atom -12405.020669 kJ/mol
# Density = 2.041877 g / cm^3
# Si number density = 20.465351 Si / 1000 Ang^3
#
#
#
# Elastic Constant Matrix: (Units=GPa)
#
#
# Indices 1 2 3 4 5 6 
#
# 1 114.1649 20.2701 45.2724 0.0000 25.3185 0.0000
# 2 20.2701 69.3132 31.1539 0.0000 0.2704 0.0000
# 3 45.2724 31.1539 115.3611 0.0000 19.4044 0.0000
# 4 0.0000 0.0000 0.0000 27.2764 0.0000 -2.4747
# 5 25.3185 0.2704 19.4044 0.0000 14.1268 0.0000
# 6 0.0000 0.0000 0.0000 -2.4747 0.0000 32.5258
#
#
#
# Elastic Compliance Matrix: (Units=1/GPa)
#
#
# Indices 1 2 3 4 5 6 
#
# 1 0.015848 -0.004364 -0.000361 0.000000 -0.027824 0.000000
# 2 -0.004364 0.018259 -0.005820 0.000000 0.015465 0.000000
# 3 -0.000361 -0.005820 0.013335 0.000000 -0.017559 0.000000
# 4 0.000000 0.000000 0.000000 0.036917 0.000000 0.002809
# 5 -0.027824 0.015465 -0.017559 0.000000 0.144477 0.000000
# 6 0.000000 0.000000 0.000000 0.002809 0.000000 0.030959
#
#
# Mechanical properties :
#
#
# Convention : Reuss Voigt Hill
#
# Bulk Modulus (GPa) = 37.94611 54.69242 46.31927
# Shear Modulus (GPa) = 17.26122 28.26199 22.76160
#
# Velocity S-wave (km/s) = 2.90735 3.72017 3.33859
# Velocity P-wave (km/s) = 5.46371 6.72572 6.12729
#
# Compressibility (1/GPa) = 0.02635316
#
# Stress axis : x y z
#
# Youngs Moduli (GPa) = 63.10117 54.76793 74.98959
#
# Poissons Ratio (x) = 0.23900 0.02705
# Poissons Ratio (y) = 0.27536 0.43642
# Poissons Ratio (z) = 0.02276 0.31873
#
# Static dielectric constant tensor:
#      x y z
#    x 3.923590 0.000000 0.133700 
#    y 0.000000 3.649660 0.000000 
#    z 0.133700 0.000000 3.773310 
# 
# 
# High freq. dielectric constant tensor:
#      x y z
#    x 1.811170 0.000000 0.005570 
#    y 0.000000 1.794740 0.000000 
#    z 0.005570 0.000000 1.798130 
# 
# From -- ./inp_files/375608.got.cif
#   From: 2010.06.25/outbox.cif.g09.slc.cpg/sg12_188_cif.got.tgz:375608.got - 2010.06.28 00:19:55.
