data_PCOD8102940
_publ_section_title
;
Structure prediction by ZEFSAII (Michael W. Deem and Ramdas Pophale) SiO2 
 PCOD8102940
Probable space group: C 2/M
;
_chemical_formula_sum "Si O2"
_cell_formula_units_Z 48
_cell_length_a 19.427185
_cell_length_b 9.189528
_cell_length_c 26.122980
_cell_angle_alpha 90.000000
_cell_angle_beta 33.418754
_cell_angle_gamma 90.000000
_cell_volume 2568.522871
_symmetry_space_group_name_H-M "C 2/M"
_symmetry_group_IT_number 12
_symmetry_cell_setting 'monoclinic'
loop_
_space_group_symop_operation_xyz
x,y,z
-x,y,-z
-x,-y,-z
x,-y,z
1/2+x,1/2+y,z
1/2-x,1/2+y,-z
1/2-x,1/2-y,-z
1/2+x,1/2-y,z
loop_
_atom_site_type_symbol
_atom_site_label
_atom_site_fract_x
_atom_site_fract_y
_atom_site_fract_z
Si Si1 0.141853 0.833114 0.928161
Si Si2 0.576395 0.829055 0.575882
Si Si3 0.650623 0.827485 0.026228
Si Si4 0.204884 0.671372 0.266021
Si Si5 0.802736 0.330909 0.393795
Si Si6 0.120083 0.669796 0.766363
O O1 0.227982 0.782427 0.827996
O O2 0.169773 0.000000 0.926817
O O3 0.173972 0.726299 0.954393
O O4 0.000000 0.812977 0.000000
O O5 0.437746 0.775112 0.648606
O O6 0.671834 0.753861 0.477553
O O7 0.607580 0.784199 0.615032
O O8 0.588483 0.000000 0.560671
O O9 0.513303 0.778009 0.129682
O O10 0.667895 0.000000 0.018790
O O11 0.750000 0.750000 0.000000
O O12 0.215490 0.500000 0.267736
O O13 0.268848 0.747456 0.274321
O O14 0.769906 0.500000 0.417002
O O15 0.874148 0.291321 0.297271
O O16 0.139238 0.500000 0.764381
#
# Coordination Sequence:
#
# PCOD8102940 Si02
#       6
#     8   8   8   8   8   8
#     4  10  20  37  60  83 113 151 187 226 277 333
#     4   9  19  36  58  82 107 141 184 227 276 330
#     4  11  24  39  58  84 115 150 189 232 279 331
#     4  10  21  36  58  84 112 148 185 227 276 330
#     4   9  19  37  58  79 108 144 182 226 277 328
#     4  10  22  38  57  81 112 148 183 228 278 329
#
# _framework density 18.687783
#
# number of rings (size 3 to 8) (size 9 to 14) (size 15 to 20)
#    0.000    2.167    1.667    0.500    2.333    3.667 
#    0.000    3.333    0.000    0.000    0.000    0.000 
#    0.000    0.000    0.000    0.000    0.000    0.000 
#
# Total GULP energy -297691.878813 kJ/mol
# GULP energy per Si atom -12403.828284 kJ/mol
# Density = 1.864525 g / cm^3
# Si number density = 18.687783 Si / 1000 Ang^3
#
#
#
# Elastic Constant Matrix: (Units=GPa)
#
#
# Indices 1 2 3 4 5 6 
#
# 1 96.7200 35.5687 33.3884 0.0003 -7.4393 0.0002
# 2 35.5687 41.7402 21.2294 0.0002 -2.8305 0.0005
# 3 33.3884 21.2294 67.8882 -0.0004 -8.7270 -0.0001
# 4 0.0003 0.0002 -0.0004 28.6931 0.0000 2.7569
# 5 -7.4393 -2.8305 -8.7270 0.0000 35.2935 0.0000
# 6 0.0002 0.0005 -0.0001 2.7569 0.0000 36.3186
#
#
#
# Elastic Compliance Matrix: (Units=1/GPa)
#
#
# Indices 1 2 3 4 5 6 
#
# 1 0.016120 -0.011536 -0.004134 0.000000 0.001450 0.000000
# 2 -0.011536 0.036744 -0.005939 0.000000 -0.000953 0.000000
# 3 -0.004134 -0.005939 0.019053 0.000000 0.003363 0.000000
# 4 0.000000 0.000000 0.000000 0.035108 0.000000 -0.002665
# 5 0.001450 -0.000953 0.003363 0.000000 0.029395 0.000000
# 6 0.000000 0.000000 0.000000 -0.002665 0.000000 0.027736
#
#
# Mechanical properties :
#
#
# Convention : Reuss Voigt Hill
#
# Bulk Modulus (GPa) = 34.84505 42.96903 38.90704
# Shear Modulus (GPa) = 23.04778 27.80516 25.42647
#
# Velocity S-wave (km/s) = 3.51566 3.86149 3.69262
# Velocity P-wave (km/s) = 5.93011 6.55168 6.24863
#
# Compressibility (1/GPa) = 0.02869848
#
# Stress axis : x y z
#
# Youngs Moduli (GPa) = 62.03443 27.21543 52.48487
#
# Poissons Ratio (x) = 0.31394 0.21699
# Poissons Ratio (y) = 0.71560 0.31173
# Poissons Ratio (z) = 0.25647 0.16164
#
# Static dielectric constant tensor:
#      x y z
#    x 3.362240 0.000000 -0.162260 
#    y 0.000000 3.348760 0.000000 
#    z -0.162260 0.000000 3.387130 
# 
# 
# High freq. dielectric constant tensor:
#      x y z
#    x 1.730720 0.000000 0.000330 
#    y 0.000000 1.717960 0.000000 
#    z 0.000330 0.000000 1.733480 
# 
# From -- ./inp_files/229276.got.cif
#   From: 2010.06.25/outbox.cif.g09.slc.cpg/sg12_115_cif.got.tgz:229276.got - 2010.06.28 00:19:55.
