data_PCOD8102687
_publ_section_title
;
Structure prediction by ZEFSAII (Michael W. Deem and Ramdas Pophale) SiO2 
 PCOD8102687
Probable space group: C 2/M
;
_chemical_formula_sum "Si O2"
_cell_formula_units_Z 52
_cell_length_a 20.047039
_cell_length_b 14.541130
_cell_length_c 14.985472
_cell_angle_alpha 90.000000
_cell_angle_beta 35.864693
_cell_angle_gamma 90.000000
_cell_volume 2559.306863
_symmetry_space_group_name_H-M "C 2/M"
_symmetry_group_IT_number 12
_symmetry_cell_setting 'monoclinic'
loop_
_space_group_symop_operation_xyz
x,y,z
-x,y,-z
-x,-y,-z
x,-y,z
1/2+x,1/2+y,z
1/2-x,1/2+y,-z
1/2-x,1/2-y,-z
1/2+x,1/2-y,z
loop_
_atom_site_type_symbol
_atom_site_label
_atom_site_fract_x
_atom_site_fract_y
_atom_site_fract_z
Si Si1 0.500000 0.252456 0.500000
Si Si2 0.524913 0.396268 0.624841
Si Si3 0.939805 0.399077 0.306176
Si Si4 0.983962 0.245316 0.120393
Si Si5 0.173740 0.827568 0.037999
Si Si6 0.610749 0.896278 0.272803
Si Si7 0.299705 0.653475 0.417846
O O1 0.547626 0.319890 0.524752
O O2 0.399318 0.182124 0.639766
O O3 0.519251 0.500000 0.591255
O O4 0.405764 0.375491 0.802734
O O5 0.630156 0.392291 0.578152
O O6 0.982615 0.500000 0.232491
O O7 0.943959 0.337610 0.213468
O O8 0.810954 0.407221 0.485646
O O9 0.023291 0.359567 0.291510
O O10 0.886191 0.167195 0.240550
O O11 0.102410 0.212810 0.033313
O O12 0.000000 0.267314 0.000000
O O13 0.250000 0.750000 0.000000
O O14 0.260845 0.901803 0.902747
O O15 0.577622 0.000000 0.340730
O O16 0.250000 0.750000 0.500000
#
# Coordination Sequence:
#
# PCOD8102687 Si02
#       7
#     4   8   8   8   8   8   8
#     4  12  22  38  58  88 128 150 200 264 312 356
#     4  11  23  39  63  90 121 164 207 253 309 371
#     4  10  20  37  58  83 117 156 198 245 298 367
#     4  10  21  36  61  89 115 153 201 249 306 357
#     4  11  20  42  63  83 120 169 203 248 306 373
#     4  11  23  39  62  89 119 164 210 252 309 375
#     4   9  19  38  59  82 115 161 201 238 303 366
#
# _framework density 20.318000000000001
#
# number of rings (size 3 to 8) (size 9 to 14) (size 15 to 20)
#    0.000    1.538    3.077    3.231    0.000    4.000 
#    0.000    0.000    0.000   17.538    0.000    0.000 
#    0.000    0.000    0.000    0.000    0.000    0.000 
#
# Total GULP energy -322267.477196 kJ/mol
# GULP energy per Si atom -12394.902969 kJ/mol
# Density = 2.027176 g / cm^3
# Si number density = 20.318000 Si / 1000 Ang^3
#
#
#
# Elastic Constant Matrix: (Units=GPa)
#
#
# Indices 1 2 3 4 5 6 
#
# 1 81.8335 39.6467 69.2965 0.0000 -4.7953 0.0000
# 2 39.6467 121.5258 39.5505 0.0000 12.6911 0.0000
# 3 69.2965 39.5505 120.6666 0.0000 -5.9770 0.0000
# 4 0.0000 0.0000 0.0000 25.2411 0.0000 0.3642
# 5 -4.7953 12.6911 -5.9770 0.0000 39.1499 0.0000
# 6 0.0000 0.0000 0.0000 0.3642 0.0000 21.2152
#
#
#
# Elastic Compliance Matrix: (Units=1/GPa)
#
#
# Indices 1 2 3 4 5 6 
#
# 1 0.025618 -0.004338 -0.013164 0.000000 0.002534 0.000000
# 2 -0.004338 0.010440 -0.001133 0.000000 -0.004089 0.000000
# 3 -0.013164 -0.001133 0.016280 0.000000 0.001240 0.000000
# 4 0.000000 0.000000 0.000000 0.039628 0.000000 -0.000680
# 5 0.002534 -0.004089 0.001240 0.000000 0.027368 0.000000
# 6 0.000000 0.000000 0.000000 -0.000680 0.000000 0.047148
#
#
# Mechanical properties :
#
#
# Convention : Reuss Voigt Hill
#
# Bulk Modulus (GPa) = 66.37139 69.00147 67.68643
# Shear Modulus (GPa) = 23.94935 28.82337 26.38636
#
# Velocity S-wave (km/s) = 3.43698 3.77053 3.60761
# Velocity P-wave (km/s) = 6.96331 7.27945 7.12313
#
# Compressibility (1/GPa) = 0.01506673
#
# Stress axis : x y z
#
# Youngs Moduli (GPa) = 39.03564 95.78879 61.42427
#
# Poissons Ratio (x) = 0.41551 0.80861
# Poissons Ratio (y) = 0.16933 0.06960
# Poissons Ratio (z) = 0.51388 0.10854
#
# Static dielectric constant tensor:
#      x y z
#    x 3.960670 0.000000 -0.876780 
#    y 0.000000 3.690790 0.000000 
#    z -0.876780 0.000000 4.977620 
# 
# 
# High freq. dielectric constant tensor:
#      x y z
#    x 1.777440 0.000000 -0.017250 
#    y 0.000000 1.801950 0.000000 
#    z -0.017250 0.000000 1.795130 
# 
# From -- ./inp_files/225632.got.cif
#   From: 2010.06.25/outbox.cif.g09.slc.cpg/sg12_113_cif.got.tgz:225632.got - 2010.06.28 00:19:55.
