data_PCOD8102188
_publ_section_title
;
Structure prediction by ZEFSAII (Michael W. Deem and Ramdas Pophale) SiO2 
 PCOD8102188
Probable space group: C 2/M
;
_chemical_formula_sum "Si O2"
_cell_formula_units_Z 48
_cell_length_a 29.222122
_cell_length_b 17.978449
_cell_length_c 7.358640
_cell_angle_alpha 90.000000
_cell_angle_beta 139.677592
_cell_angle_gamma 90.000000
_cell_volume 2501.640378
_symmetry_space_group_name_H-M "C 2/M"
_symmetry_group_IT_number 12
_symmetry_cell_setting 'monoclinic'
loop_
_space_group_symop_operation_xyz
x,y,z
-x,y,-z
-x,-y,-z
x,-y,z
1/2+x,1/2+y,z
1/2-x,1/2+y,-z
1/2-x,1/2-y,-z
1/2+x,1/2-y,z
loop_
_atom_site_type_symbol
_atom_site_label
_atom_site_fract_x
_atom_site_fract_y
_atom_site_fract_z
Si Si1 0.829848 0.330313 0.835604
Si Si2 0.581094 0.672326 0.275779
Si Si3 0.321720 0.341506 0.767451
Si Si4 0.418910 0.843762 0.760460
Si Si5 0.822391 0.413517 0.176020
Si Si6 0.666738 0.586650 0.823878
O O1 0.756343 0.362720 0.537501
O O2 0.823675 0.242305 0.848093
O O3 0.892506 0.350452 0.887225
O O4 0.849365 0.367683 0.084862
O O5 0.624115 0.644668 0.231469
O O6 0.591557 0.759848 0.341730
O O7 0.607471 0.630877 0.534538
O O8 0.500000 0.651533 0.000000
O O9 0.343153 0.396569 0.993624
O O10 0.374634 0.898923 0.500878
O O11 0.500000 0.868805 0.000000
O O12 0.823239 0.500000 0.129881
O O13 0.744049 0.386521 0.993236
O O14 0.655687 0.500000 0.755473
#
# Coordination Sequence:
#
# PCOD8102188 Si02
#       6
#     8   8   8   8   8   8
#     4  10  20  36  61  87 111 148 195 238 279 331
#     4  10  22  40  61  86 116 149 189 239 288 334
#     4  10  20  36  61  87 111 148 195 238 279 331
#     4  10  22  40  61  86 116 149 189 239 288 334
#     4  11  23  37  58  87 118 153 190 233 285 341
#     4  11  23  37  58  87 118 153 190 233 285 341
#
# _framework density 19.18741
#
# number of rings (size 3 to 8) (size 9 to 14) (size 15 to 20)
#    0.000    1.667    3.333    1.000    0.000    5.333 
#    0.000    6.667    0.000    0.000    0.000    0.000 
#    0.000    0.000    0.000    0.000    0.000    0.000 
#
# Total GULP energy -297773.695726 kJ/mol
# GULP energy per Si atom -12407.237322 kJ/mol
# Density = 1.914374 g / cm^3
# Si number density = 19.187410 Si / 1000 Ang^3
#
#
#
# Elastic Constant Matrix: (Units=GPa)
#
#
# Indices 1 2 3 4 5 6 
#
# 1 91.4105 10.0793 22.7302 0.0000 14.2779 0.0000
# 2 10.0793 35.5257 16.9423 0.0000 -1.5332 0.0000
# 3 22.7302 16.9423 72.3479 0.0000 4.3393 0.0000
# 4 0.0000 0.0000 0.0000 21.4226 0.0000 1.9061
# 5 14.2779 -1.5332 4.3393 0.0000 35.6111 0.0000
# 6 0.0000 0.0000 0.0000 1.9061 0.0000 17.6961
#
#
#
# Elastic Compliance Matrix: (Units=1/GPa)
#
#
# Indices 1 2 3 4 5 6 
#
# 1 0.012736 -0.002309 -0.003172 0.000000 -0.004819 0.000000
# 2 -0.002309 0.032292 -0.007027 0.000000 0.003172 0.000000
# 3 -0.003172 -0.007027 0.016527 0.000000 -0.001045 0.000000
# 4 0.000000 0.000000 0.000000 0.047131 0.000000 -0.005077
# 5 -0.004819 0.003172 -0.001045 0.000000 0.030277 0.000000
# 6 0.000000 0.000000 0.000000 -0.005077 0.000000 0.057057
#
#
# Mechanical properties :
#
#
# Convention : Reuss Voigt Hill
#
# Bulk Modulus (GPa) = 27.36757 33.19864 30.28311
# Shear Modulus (GPa) = 21.43956 24.91477 23.17716
#
# Velocity S-wave (km/s) = 3.34634 3.60737 3.47931
# Velocity P-wave (km/s) = 5.40601 5.88988 5.65313
#
# Compressibility (1/GPa) = 0.03653959
#
# Stress axis : x y z
#
# Youngs Moduli (GPa) = 78.52001 30.96765 60.50803
#
# Poissons Ratio (x) = 0.07150 0.19190
# Poissons Ratio (y) = 0.18129 0.42518
# Poissons Ratio (z) = 0.24903 0.21761
#
# Static dielectric constant tensor:
#      x y z
#    x 3.583520 0.000000 0.027940 
#    y 0.000000 3.347550 0.000000 
#    z 0.027940 0.000000 3.379380 
# 
# 
# High freq. dielectric constant tensor:
#      x y z
#    x 1.752810 0.000000 -0.004760 
#    y 0.000000 1.736950 0.000000 
#    z -0.004760 0.000000 1.746900 
# 
# From -- ./inp_files/20929.got.cif
#   From: 2010.06.25/outbox.cif.g09.slc.cpg/sg12_11_cif.got.tgz:20929.got - 2010.06.28 00:19:55.
