data_PCOD8102356
_publ_section_title
;
Structure prediction by ZEFSAII (Michael W. Deem and Ramdas Pophale) SiO2 
 PCOD8102356
Probable space group: C 2/M
;
_chemical_formula_sum "Si O2"
_cell_formula_units_Z 48
_cell_length_a 17.919982
_cell_length_b 16.601584
_cell_length_c 7.081077
_cell_angle_alpha 90.000000
_cell_angle_beta 87.454207
_cell_angle_gamma 90.000000
_cell_volume 2104.541869
_symmetry_space_group_name_H-M "C 2/M"
_symmetry_group_IT_number 12
_symmetry_cell_setting 'monoclinic'
loop_
_space_group_symop_operation_xyz
x,y,z
-x,y,-z
-x,-y,-z
x,-y,z
1/2+x,1/2+y,z
1/2-x,1/2+y,-z
1/2-x,1/2-y,-z
1/2+x,1/2-y,z
loop_
_atom_site_type_symbol
_atom_site_label
_atom_site_fract_x
_atom_site_fract_y
_atom_site_fract_z
Si Si1 0.358330 0.403114 0.525569
Si Si2 0.421804 0.095961 0.600171
Si Si3 0.563425 0.408312 0.123311
Si Si4 0.672483 0.333250 0.863013
Si Si5 0.300756 0.091796 0.327976
Si Si6 0.661251 0.165337 0.053684
O O1 0.358874 0.500000 0.489899
O O2 0.425158 0.376560 0.662223
O O3 0.367069 0.353479 0.331742
O O4 0.281476 0.371995 0.630852
O O5 0.500000 0.122139 0.500000
O O6 0.359680 0.131250 0.465038
O O7 0.407098 0.139353 0.803649
O O8 0.418686 0.000000 0.631711
O O9 0.539149 0.500000 0.147196
O O10 0.500000 0.363851 0.000000
O O11 0.643668 0.401617 0.010637
O O12 0.761921 0.332479 0.833372
O O13 0.643084 0.249149 0.951932
O O14 0.297722 0.000000 0.385535
O O15 0.328241 0.099852 0.110886
#
# Coordination Sequence:
#
# PCOD8102356 Si02
#       6
#     8   8   8   8   8   8
#     4  10  20  36  64  96 125 167 219 270 321 382
#     4  10  22  41  64  93 128 166 215 272 323 379
#     4  10  22  41  64  91 126 167 219 277 332 385
#     4  11  23  38  61  91 130 170 213 263 323 385
#     4  10  20  36  62  91 120 165 219 265 315 381
#     4  11  23  38  62  93 129 171 214 261 323 387
#
# _framework density 22.807812999999999
#
# number of rings (size 3 to 8) (size 9 to 14) (size 15 to 20)
#    0.000    1.667    3.333    1.000    0.000    4.667 
#    3.000    5.000    0.000    0.000    0.000    0.000 
#    0.000    0.000    0.000    0.000    0.000    0.000 
#
# Total GULP energy -297395.968520 kJ/mol
# GULP energy per Si atom -12391.498688 kJ/mol
# Density = 2.275590 g / cm^3
# Si number density = 22.807813 Si / 1000 Ang^3
#
#
#
# Elastic Constant Matrix: (Units=GPa)
#
#
# Indices 1 2 3 4 5 6 
#
# 1 84.5687 41.1343 61.5089 0.0000 8.1568 0.0000
# 2 41.1343 37.1901 45.3101 0.0000 6.8049 0.0000
# 3 61.5089 45.3101 185.2377 0.0000 13.3689 0.0000
# 4 0.0000 0.0000 0.0000 33.5422 0.0000 -4.4651
# 5 8.1568 6.8049 13.3689 0.0000 54.0980 0.0000
# 6 0.0000 0.0000 0.0000 -4.4651 0.0000 20.8048
#
#
#
# Elastic Compliance Matrix: (Units=1/GPa)
#
#
# Indices 1 2 3 4 5 6 
#
# 1 0.026265 -0.026235 -0.002298 0.000000 -0.000092 0.000000
# 2 -0.026235 0.064856 -0.006974 0.000000 -0.002479 0.000000
# 3 -0.002298 -0.006974 0.007920 0.000000 -0.000734 0.000000
# 4 0.000000 0.000000 0.000000 0.030690 0.000000 0.006587
# 5 -0.000092 -0.002479 -0.000734 0.000000 0.018992 0.000000
# 6 0.000000 0.000000 0.000000 0.006587 0.000000 0.049479
#
#
# Mechanical properties :
#
#
# Convention : Reuss Voigt Hill
#
# Bulk Modulus (GPa) = 35.67720 66.98923 51.33322
# Shear Modulus (GPa) = 17.94957 32.29189 25.12073
#
# Velocity S-wave (km/s) = 2.80838 3.76683 3.32235
# Velocity P-wave (km/s) = 5.11786 6.95368 6.10517
#
# Compressibility (1/GPa) = 0.02802911
#
# Stress axis : x y z
#
# Youngs Moduli (GPa) = 38.07302 15.41880 126.25903
#
# Poissons Ratio (x) = 0.40451 0.29011
# Poissons Ratio (y) = 0.99883 0.88051
# Poissons Ratio (z) = 0.08748 0.10753
#
# Static dielectric constant tensor:
#      x y z
#    x 4.220980 0.000000 0.185540 
#    y 0.000000 3.751590 0.000000 
#    z 0.185540 0.000000 4.162350 
# 
# 
# High freq. dielectric constant tensor:
#      x y z
#    x 1.890720 0.000000 0.007490 
#    y 0.000000 1.867240 0.000000 
#    z 0.007490 0.000000 1.917260 
# 
# From -- ./inp_files/20973.got.cif
#   From: 2010.06.25/outbox.cif.g09.slc.cpg/sg12_11_cif.got.tgz:20973.got - 2010.06.28 00:19:55.
