data_PCOD8102335
_publ_section_title
;
Structure prediction by ZEFSAII (Michael W. Deem and Ramdas Pophale) SiO2 
 PCOD8102335
Probable space group: C 2/M
;
_chemical_formula_sum "Si O2"
_cell_formula_units_Z 64
_cell_length_a 19.772757
_cell_length_b 13.636066
_cell_length_c 19.233956
_cell_angle_alpha 90.000000
_cell_angle_beta 41.694983
_cell_angle_gamma 90.000000
_cell_volume 3449.485424
_symmetry_space_group_name_H-M "C 2/M"
_symmetry_group_IT_number 12
_symmetry_cell_setting 'monoclinic'
loop_
_space_group_symop_operation_xyz
x,y,z
-x,y,-z
-x,-y,-z
x,-y,z
1/2+x,1/2+y,z
1/2-x,1/2+y,-z
1/2-x,1/2-y,-z
1/2+x,1/2-y,z
loop_
_atom_site_type_symbol
_atom_site_label
_atom_site_fract_x
_atom_site_fract_y
_atom_site_fract_z
Si Si1 0.807733 0.113420 0.271548
Si Si2 0.371275 0.891785 0.895827
Si Si3 0.591589 0.108093 0.772745
Si Si4 0.934309 0.245475 0.730470
Si Si5 0.409169 0.890091 0.622377
Si Si6 0.151755 0.237943 0.623285
Si Si7 0.886543 0.270018 0.113907
Si Si8 0.745010 0.386611 0.122929
O O1 0.689416 0.130655 0.348433
O O2 0.835723 0.157613 0.325508
O O3 0.866625 0.161945 0.160833
O O4 0.839036 0.000000 0.248993
O O5 0.469581 0.886703 0.870397
O O6 0.378926 0.808824 0.832363
O O7 0.366531 0.000000 0.864053
O O8 0.272781 0.876731 0.019995
O O9 0.633736 0.156485 0.670625
O O10 0.636966 0.155699 0.806153
O O11 0.635232 0.000000 0.736511
O O12 0.925147 0.307555 0.667565
O O13 0.872204 0.143401 0.774355
O O14 0.050920 0.214915 0.655407
O O15 0.500000 0.881540 0.500000
O O16 0.404440 0.000000 0.659148
O O17 0.250000 0.250000 0.500000
O O18 0.811831 0.304610 0.110808
O O19 0.000000 0.274302 0.000000
O O20 0.762102 0.500000 0.134346
#
# Coordination Sequence:
#
# PCOD8102335 Si02
#       8
#     8   8   8   8   8   8   8   8
#     4  10  22  40  59  86 121 153 193 239 290 357
#     4   9  18  33  54  82 111 143 188 235 283 341
#     4   9  18  32  54  83 108 138 187 242 284 325
#     4  11  21  37  58  82 120 153 189 243 299 348
#     4  10  20  36  62  90 113 147 195 248 297 338
#     4  10  22  38  59  84 113 157 196 239 289 348
#     4  11  20  35  60  83 113 152 192 238 287 345
#     4  11  22  35  55  84 116 154 195 235 292 355
#
# _framework density 18.553491000000001
#
# number of rings (size 3 to 8) (size 9 to 14) (size 15 to 20)
#    0.000    1.875    2.500    1.875    0.000    2.250 
#    0.000    0.000    0.000    0.375    0.000    0.000 
#    0.000    0.000    0.000    0.000    0.000    0.000 
#
# Total GULP energy -396683.234908 kJ/mol
# GULP energy per Si atom -12396.351091 kJ/mol
# Density = 1.851126 g / cm^3
# Si number density = 18.553491 Si / 1000 Ang^3
#
#
#
# Elastic Constant Matrix: (Units=GPa)
#
#
# Indices 1 2 3 4 5 6 
#
# 1 75.3965 39.7350 31.7944 0.0000 -9.5835 0.0000
# 2 39.7350 106.5502 35.3884 0.0000 -2.5589 0.0000
# 3 31.7944 35.3884 97.4762 0.0000 -14.3064 0.0000
# 4 0.0000 0.0000 0.0000 20.8550 0.0000 1.8090
# 5 -9.5835 -2.5589 -14.3064 0.0000 26.3166 0.0000
# 6 0.0000 0.0000 0.0000 1.8090 0.0000 12.1137
#
#
#
# Elastic Compliance Matrix: (Units=1/GPa)
#
#
# Indices 1 2 3 4 5 6 
#
# 1 0.018118 -0.005572 -0.003258 0.000000 0.004285 0.000000
# 2 -0.005572 0.012418 -0.003055 0.000000 -0.002482 0.000000
# 3 -0.003258 -0.003055 0.013272 0.000000 0.005732 0.000000
# 4 0.000000 0.000000 0.000000 0.048580 0.000000 -0.007255
# 5 0.004285 -0.002482 0.005732 0.000000 0.042434 0.000000
# 6 0.000000 0.000000 0.000000 -0.007255 0.000000 0.083634
#
#
# Mechanical properties :
#
#
# Convention : Reuss Voigt Hill
#
# Bulk Modulus (GPa) = 49.90461 54.80650 52.35555
# Shear Modulus (GPa) = 20.08795 23.35740 21.72267
#
# Velocity S-wave (km/s) = 3.29402 3.55198 3.42543
# Velocity P-wave (km/s) = 6.43611 6.81366 6.62757
#
# Compressibility (1/GPa) = 0.02003823
#
# Stress axis : x y z
#
# Youngs Moduli (GPa) = 55.19341 80.52691 75.34629
#
# Poissons Ratio (x) = 0.44867 0.24548
# Poissons Ratio (y) = 0.30752 0.23021
# Poissons Ratio (z) = 0.17982 0.24604
#
# Static dielectric constant tensor:
#      x y z
#    x 3.423760 0.000000 -0.043420 
#    y 0.000000 3.521460 0.000000 
#    z -0.043420 0.000000 3.337880 
# 
# 
# High freq. dielectric constant tensor:
#      x y z
#    x 1.718010 0.000000 0.000870 
#    y 0.000000 1.721290 0.000000 
#    z 0.000870 0.000000 1.717280 
# 
# From -- ./inp_files/278162.got.cif
#   From: 2010.06.25/outbox.cif.g09.slc.cpg/sg12_140_cif.got.tgz:278162.got - 2010.06.28 00:19:55.
