data_PCOD8102026
_publ_section_title
;
Structure prediction by ZEFSAII (Michael W. Deem and Ramdas Pophale) SiO2 
 PCOD8102026
Probable space group: C 2/M
;
_chemical_formula_sum "Si O2"
_cell_formula_units_Z 56
_cell_length_a 13.389473
_cell_length_b 18.553491
_cell_length_c 17.975227
_cell_angle_alpha 90.000000
_cell_angle_beta 37.358558
_cell_angle_gamma 90.000000
_cell_volume 2709.629122
_symmetry_space_group_name_H-M "C 2/M"
_symmetry_group_IT_number 12
_symmetry_cell_setting 'monoclinic'
loop_
_space_group_symop_operation_xyz
x,y,z
-x,y,-z
-x,-y,-z
x,-y,z
1/2+x,1/2+y,z
1/2-x,1/2+y,-z
1/2-x,1/2-y,-z
1/2+x,1/2-y,z
loop_
_atom_site_type_symbol
_atom_site_label
_atom_site_fract_x
_atom_site_fract_y
_atom_site_fract_z
Si Si1 0.124164 0.584747 0.093398
Si Si2 0.257432 0.920746 0.495725
Si Si3 0.040649 0.832942 0.347567
Si Si4 0.689686 0.344972 0.888362
Si Si5 0.174023 0.317363 0.931178
Si Si6 0.250605 0.078947 0.325897
Si Si7 0.039277 0.327470 0.389061
O O1 0.146215 0.500000 0.061321
O O2 0.202147 0.598945 0.128346
O O3 0.933656 0.608461 0.202495
O O4 0.212577 0.637892 0.982930
O O5 0.231708 0.927956 0.424180
O O6 0.431455 0.885811 0.410463
O O7 0.107317 0.870488 0.610426
O O8 0.249365 0.000000 0.538076
O O9 0.193412 0.843781 0.204647
O O10 0.104336 0.869271 0.385884
O O11 0.982993 0.752206 0.399556
O O12 0.690721 0.268650 0.931412
O O13 0.772642 0.338711 0.755263
O O14 0.500000 0.372361 0.000000
O O15 0.000000 0.339347 0.000000
O O16 0.227435 0.000000 0.302699
O O17 0.000000 0.338883 0.500000
#
# Coordination Sequence:
#
# PCOD8102026 Si02
#       7
#     8   8   8   8   8   8   8
#     4  11  22  38  62  91 123 164 206 250 311 373
#     4  11  23  40  61  88 124 165 208 252 313 374
#     4  11  22  38  62  93 126 157 206 258 309 375
#     4  10  23  43  65  89 122 167 217 260 307 368
#     4  10  21  39  60  90 124 162 201 252 315 372
#     4  10  20  36  60  87 121 159 196 246 311 375
#     4  11  24  42  64  92 124 165 213 266 311 362
#
# _framework density 20.667034999999998
#
# number of rings (size 3 to 8) (size 9 to 14) (size 15 to 20)
#    0.000    1.429    2.857    2.571    0.000    4.286 
#    0.000    0.000    0.000    0.000    0.000    0.000 
#    0.000    0.000    0.000    0.000    0.000    0.000 
#
# Total GULP energy -346987.434793 kJ/mol
# GULP energy per Si atom -12392.408385 kJ/mol
# Density = 2.062000 g / cm^3
# Si number density = 20.667035 Si / 1000 Ang^3
#
#
#
# Elastic Constant Matrix: (Units=GPa)
#
#
# Indices 1 2 3 4 5 6 
#
# 1 55.1885 32.1642 38.3099 -2.0091 -1.6522 1.7002
# 2 32.1642 88.6980 28.6180 -0.8928 -13.4189 0.7531
# 3 38.3099 28.6180 113.2421 -2.8116 -7.9984 2.3768
# 4 -2.0091 -0.8928 -2.8116-3512.4261 1.5447 2990.0424
# 5 -1.6522 -13.4189 -7.9984 1.5447 34.4922 -1.3055
# 6 1.7002 0.7531 2.3768 2990.0424 -1.3055-2507.0964
#
#
#
# Elastic Compliance Matrix: (Units=1/GPa)
#
#
# Indices 1 2 3 4 5 6 
#
# 1 0.028186 -0.008291 -0.007699 -0.000007 -0.003660 0.000003
# 2 -0.008291 0.015319 -0.000685 0.000003 0.005404 -0.000001
# 3 -0.007699 -0.000685 0.011756 -0.000002 0.002091 0.000002
# 4 -0.000007 0.000003 -0.000002 0.018659 0.000007 0.022254
# 5 -0.003660 0.005404 0.002091 0.000007 0.031403 -0.000007
# 6 0.000003 -0.000001 0.000002 0.022254 -0.000007 0.026141
#
#
# Mechanical properties :
#
#
# Convention : Reuss Voigt Hill
#
# Bulk Modulus (GPa) = 45.63721 50.59032 48.11376
# Shear Modulus (GPa) = 29.04983 -1186.47029 -578.71023
#
# Velocity S-wave (km/s) = 3.75322 -23.98613 -16.75183
# Velocity P-wave (km/s) = 6.39627 27.25034 18.73057
#
# Compressibility (1/GPa) = 0.02191195
#
# Stress axis : x y z
#
# Youngs Moduli (GPa) = 35.47854 65.27762 85.06399
#
# Poissons Ratio (x) = 0.54120 0.65490
# Poissons Ratio (y) = 0.29415 0.05825
# Poissons Ratio (z) = 0.27315 0.04470
#
# Static dielectric constant tensor:
#      x y z
#    x 3.544910 0.000000 -0.097030 
#    y 0.000000 4.881440 0.000020 
#    z -0.097030 0.000020 4.009540 
# 
# 
# High freq. dielectric constant tensor:
#      x y z
#    x 1.785390 0.000000 -0.005810 
#    y 0.000000 1.810040 0.000000 
#    z -0.005810 0.000000 1.822340 
# 
# From -- ./inp_files/293904.got.cif
#   From: 2010.06.25/outbox.cif.g09.slc.cpg/sg12_147_cif.got.tgz:293904.got - 2010.06.28 00:19:55.
