data_PCOD8102653
_publ_section_title
;
Structure prediction by ZEFSAII (Michael W. Deem and Ramdas Pophale) SiO2 
 PCOD8102653
Probable space group: C 2/M
;
_chemical_formula_sum "Si O2"
_cell_formula_units_Z 48
_cell_length_a 27.368397
_cell_length_b 9.511165
_cell_length_c 9.863313
_cell_angle_alpha 90.000000
_cell_angle_beta 89.517711
_cell_angle_gamma 90.000000
_cell_volume 2567.382082
_symmetry_space_group_name_H-M "C 2/M"
_symmetry_group_IT_number 12
_symmetry_cell_setting 'monoclinic'
loop_
_space_group_symop_operation_xyz
x,y,z
-x,y,-z
-x,-y,-z
x,-y,z
1/2+x,1/2+y,z
1/2-x,1/2+y,-z
1/2-x,1/2-y,-z
1/2+x,1/2-y,z
loop_
_atom_site_type_symbol
_atom_site_label
_atom_site_fract_x
_atom_site_fract_y
_atom_site_fract_z
Si Si1 0.145534 0.837514 0.462243
Si Si2 0.036967 0.835491 0.381174
Si Si3 0.857403 0.663590 0.990367
Si Si4 0.536851 0.163571 0.118518
Si Si5 0.678878 0.337467 0.761267
Si Si6 0.709343 0.164383 0.257948
O O1 0.091246 0.790332 0.423595
O O2 0.151963 0.809194 0.620831
O O3 0.184670 0.746723 0.380863
O O4 0.155024 0.000000 0.426853
O O5 0.020654 0.751772 0.248884
O O6 0.000000 0.791856 0.500000
O O7 0.033632 0.000000 0.349206
O O8 0.856723 0.500000 0.027985
O O9 0.849723 0.749282 0.126878
O O10 0.908919 0.708496 0.925857
O O11 0.815545 0.703045 0.883961
O O12 0.534350 0.000000 0.156559
O O13 0.500000 0.202394 0.000000
O O14 0.676568 0.500000 0.803608
O O15 0.734772 0.286864 0.751242
O O16 0.704187 0.000000 0.290769
#
# Coordination Sequence:
#
# PCOD8102653 Si02
#       6
#     8   8   8   8   8   8
#     4  10  21  37  56  82 114 146 184 229 275 327
#     4  10  22  39  59  84 113 145 183 228 276 329
#     4  10  21  37  56  81 113 146 184 228 274 328
#     4  10  22  40  60  84 113 144 183 230 276 327
#     4  10  22  36  55  84 114 146 186 229 273 327
#     4  10  20  37  58  81 111 147 187 230 276 326
#
# _framework density 18.696086999999999
#
# number of rings (size 3 to 8) (size 9 to 14) (size 15 to 20)
#    0.000    2.000    1.667    1.000    2.333    3.333 
#    0.000    0.000    0.000    0.000    0.000    0.000 
#    0.000    0.000    0.000    0.000    0.000    0.000 
#
# Total GULP energy -297746.151504 kJ/mol
# GULP energy per Si atom -12406.089646 kJ/mol
# Density = 1.865353 g / cm^3
# Si number density = 18.696087 Si / 1000 Ang^3
#
#
#
# Elastic Constant Matrix: (Units=GPa)
#
#
# Indices 1 2 3 4 5 6 
#
# 1 88.9559 34.0988 53.6555 0.0000 2.3153 0.0000
# 2 34.0988 56.1033 62.1775 0.0000 -10.9166 0.0000
# 3 53.6555 62.1775 128.8359 0.0000 -10.3651 0.0000
# 4 0.0000 0.0000 0.0000 32.4934 0.0000 -15.0999
# 5 2.3153 -10.9166 -10.3651 0.0000 33.2414 0.0000
# 6 0.0000 0.0000 0.0000 -15.0999 0.0000 12.1745
#
#
#
# Elastic Compliance Matrix: (Units=1/GPa)
#
#
# Indices 1 2 3 4 5 6 
#
# 1 0.016205 -0.006098 -0.004162 0.000000 -0.004429 0.000000
# 2 -0.006098 0.042269 -0.017139 0.000000 0.008962 0.000000
# 3 -0.004162 -0.017139 0.017783 0.000000 0.000206 0.000000
# 4 0.000000 0.000000 0.000000 0.072647 0.000000 0.090102
# 5 -0.004429 0.008962 0.000206 0.000000 0.033399 0.000000
# 6 0.000000 0.000000 0.000000 0.090102 0.000000 0.193892
#
#
# Mechanical properties :
#
#
# Convention : Reuss Voigt Hill
#
# Bulk Modulus (GPa) = 46.60099 63.75099 55.17599
# Shear Modulus (GPa) = 11.41177 23.84608 17.62892
#
# Velocity S-wave (km/s) = 2.47327 3.57523 3.07403
# Velocity P-wave (km/s) = 5.75637 7.15651 6.49428
#
# Compressibility (1/GPa) = 0.02145877
#
# Stress axis : x y z
#
# Youngs Moduli (GPa) = 61.71013 23.65820 56.23367
#
# Poissons Ratio (x) = 0.14428 0.23404
# Poissons Ratio (y) = 0.37633 0.96376
# Poissons Ratio (z) = 0.25683 0.40547
#
# Static dielectric constant tensor:
#      x y z
#    x 3.594180 0.000000 0.109930 
#    y 0.000000 3.344630 0.000000 
#    z 0.109930 0.000000 3.362050 
# 
# 
# High freq. dielectric constant tensor:
#      x y z
#    x 1.738730 0.000000 0.005290 
#    y 0.000000 1.718970 0.000000 
#    z 0.005290 0.000000 1.733470 
# 
# From -- ./inp_files/94414.got.cif
#   From: 2010.06.25/outbox.cif.g09.slc.cpg/sg12_48_cif.got.tgz:94414.got - 2010.06.28 00:19:55.
