data_PCOD8102285
_publ_section_title
;
Structure prediction by ZEFSAII (Michael W. Deem and Ramdas Pophale) SiO2 
 PCOD8102285
Probable space group: C 2/M
;
_chemical_formula_sum "Si O2"
_cell_formula_units_Z 24
_cell_length_a 25.538132
_cell_length_b 7.722339
_cell_length_c 8.536781
_cell_angle_alpha 90.000000
_cell_angle_beta 48.230628
_cell_angle_gamma 90.000000
_cell_volume 1255.663460
_symmetry_space_group_name_H-M "C 2/M"
_symmetry_group_IT_number 12
_symmetry_cell_setting 'monoclinic'
loop_
_space_group_symop_operation_xyz
x,y,z
-x,y,-z
-x,-y,-z
x,-y,z
1/2+x,1/2+y,z
1/2-x,1/2+y,-z
1/2-x,1/2-y,-z
1/2+x,1/2-y,z
loop_
_atom_site_type_symbol
_atom_site_label
_atom_site_fract_x
_atom_site_fract_y
_atom_site_fract_z
Si Si1 0.578329 0.000000 0.780533
Si Si2 0.174129 0.805912 0.710329
Si Si3 0.186983 0.689084 0.019128
Si Si4 0.422785 0.000000 0.588039
O O1 0.615994 0.826692 0.764963
O O2 0.577556 0.000000 0.596509
O O3 0.500000 0.000000 0.000000
O O4 0.250000 0.750000 0.500000
O O5 0.173732 0.815237 0.900302
O O6 0.156424 0.000000 0.685913
O O7 0.206256 0.500000 0.909638
O O8 0.250000 0.750000 0.000000
O O9 0.117539 0.671585 0.267097
O O10 0.500000 0.000000 0.500000
#
# Coordination Sequence:
#
# PCOD8102285 Si02
#       4
#     4   8   8   4
#     4  12  24  44  68  96 135 170 215 274 326 390
#     4  12  23  40  67  96 130 171 219 267 325 386
#     4  10  20  36  61  92 127 164 214 262 318 378
#     4  10  22  40  64  88 127 174 207 260 332 380
#
# _framework density 19.113402000000001
#
# number of rings (size 3 to 8) (size 9 to 14) (size 15 to 20)
#    1.000    0.000    3.333    5.000    0.000    0.667 
#    0.000    1.667    0.000    7.000    0.000    0.000 
#    0.000    0.000    0.000    0.000    0.000    0.000 
#
# Total GULP energy -148746.992547 kJ/mol
# GULP energy per Si atom -12395.582712 kJ/mol
# Density = 1.906990 g / cm^3
# Si number density = 19.113402 Si / 1000 Ang^3
#
#
#
# Elastic Constant Matrix: (Units=GPa)
#
#
# Indices 1 2 3 4 5 6 
#
# 1 160.9785 53.3567 82.4373 0.0000 -5.3574 0.0000
# 2 53.3567 142.1892 42.3687 0.0000 -13.6636 0.0000
# 3 82.4373 42.3687 165.8578 0.0000 -5.1402 0.0000
# 4 0.0000 0.0000 0.0000 29.4123 0.0000 -2.5719
# 5 -5.3574 -13.6636 -5.1402 0.0000 50.7828 0.0000
# 6 0.0000 0.0000 0.0000 -2.5719 0.0000 38.6272
#
#
#
# Elastic Compliance Matrix: (Units=1/GPa)
#
#
# Indices 1 2 3 4 5 6 
#
# 1 0.008924 -0.002198 -0.003875 0.000000 -0.000042 0.000000
# 2 -0.002198 0.008332 -0.000977 0.000000 0.001911 0.000000
# 3 -0.003875 -0.000977 0.008210 0.000000 0.000159 0.000000
# 4 0.000000 0.000000 0.000000 0.034198 0.000000 0.002277
# 5 -0.000042 0.001911 0.000159 0.000000 0.020218 0.000000
# 6 0.000000 0.000000 0.000000 0.002277 0.000000 0.026040
#
#
# Mechanical properties :
#
#
# Convention : Reuss Voigt Hill
#
# Bulk Modulus (GPa) = 87.98252 91.70563 89.84408
# Shear Modulus (GPa) = 40.38425 43.15531 41.76978
#
# Velocity S-wave (km/s) = 4.60159 4.75685 4.67986
# Velocity P-wave (km/s) = 8.62349 8.84613 8.73552
#
# Compressibility (1/GPa) = 0.01136589
#
# Stress axis : x y z
#
# Youngs Moduli (GPa) = 112.06225 120.01357 121.80501
#
# Poissons Ratio (x) = 0.26378 0.47202
# Poissons Ratio (y) = 0.24631 0.11898
# Poissons Ratio (z) = 0.43426 0.11723
#
# Static dielectric constant tensor:
#      x y z
#    x 3.211030 0.000000 -0.149920 
#    y 0.000000 3.583980 0.000000 
#    z -0.149920 0.000000 3.451930 
# 
# 
# High freq. dielectric constant tensor:
#      x y z
#    x 1.748700 0.000000 0.009460 
#    y 0.000000 1.737880 0.000000 
#    z 0.009460 0.000000 1.752510 
# 
# From -- ./inp_files/92014.got.cif
#   From: 2010.06.25/outbox.cif.g09.slc.cpg/sg12_47_cif.got.tgz:92014.got - 2010.06.28 00:19:55.
