data_PCOD8102846
_publ_section_title
;
Structure prediction by ZEFSAII (Michael W. Deem and Ramdas Pophale) SiO2 
 PCOD8102846
Probable space group: C 2/M
;
_chemical_formula_sum "Si O2"
_cell_formula_units_Z 48
_cell_length_a 23.448405
_cell_length_b 13.569552
_cell_length_c 7.557760
_cell_angle_alpha 90.000000
_cell_angle_beta 98.067880
_cell_angle_gamma 90.000000
_cell_volume 2380.959818
_symmetry_space_group_name_H-M "C 2/M"
_symmetry_group_IT_number 12
_symmetry_cell_setting 'monoclinic'
loop_
_space_group_symop_operation_xyz
x,y,z
-x,y,-z
-x,-y,-z
x,-y,z
1/2+x,1/2+y,z
1/2-x,1/2+y,-z
1/2-x,1/2-y,-z
1/2+x,1/2-y,z
loop_
_atom_site_type_symbol
_atom_site_label
_atom_site_fract_x
_atom_site_fract_y
_atom_site_fract_z
Si Si1 0.052467 0.250968 0.788565
Si Si2 0.719710 0.221147 0.664972
Si Si3 0.897154 0.615884 0.468209
Si Si4 0.172266 0.108170 0.189885
Si Si5 0.147897 0.108187 0.778691
Si Si6 0.076510 0.746098 0.201094
O O1 0.057286 0.343453 0.657254
O O2 0.087666 0.162550 0.709516
O O3 0.987035 0.214409 0.779022
O O4 0.079205 0.280732 0.992842
O O5 0.750000 0.250000 0.500000
O O6 0.666457 0.148416 0.616606
O O7 0.766906 0.163952 0.801540
O O8 0.701502 0.324417 0.744766
O O9 0.902045 0.500000 0.468522
O O10 0.910589 0.650722 0.674083
O O11 0.124412 0.171977 0.275668
O O12 0.179400 0.000000 0.283957
O O13 0.148149 0.092147 0.986240
O O14 0.150860 0.000000 0.687389
#
# Coordination Sequence:
#
# PCOD8102846 Si02
#       6
#     8   8   8   8   8   8
#     4   9  21  38  60  84 119 147 190 237 285 335
#     4  11  21  38  57  81 116 148 187 236 282 337
#     4  11  23  39  59  84 114 152 194 236 285 337
#     4  10  20  37  59  85 114 148 189 231 283 340
#     4   9  20  37  60  85 112 148 187 232 285 341
#     4  10  20  39  59  86 115 153 188 236 283 338
#
# _framework density 20.159936999999999
#
# number of rings (size 3 to 8) (size 9 to 14) (size 15 to 20)
#    0.000    2.000    1.667    1.500    0.000    4.000 
#    0.000    5.000    0.000    3.000    0.000    0.000 
#    0.000    0.000    0.000    0.000    0.000    0.000 
#
# Total GULP energy -297514.305397 kJ/mol
# GULP energy per Si atom -12396.429392 kJ/mol
# Density = 2.011405 g / cm^3
# Si number density = 20.159937 Si / 1000 Ang^3
#
#
#
# Elastic Constant Matrix: (Units=GPa)
#
#
# Indices 1 2 3 4 5 6 
#
# 1 126.1815 62.2148 21.3986 0.0000 -2.0431 0.0000
# 2 62.2148 185.2226 40.4779 0.0000 -5.6734 0.0000
# 3 21.3986 40.4779 54.6242 0.0000 -8.0182 0.0000
# 4 0.0000 0.0000 0.0000 24.5784 0.0000 -2.1377
# 5 -2.0431 -5.6734 -8.0182 0.0000 32.4994 0.0000
# 6 0.0000 0.0000 0.0000 -2.1377 0.0000 16.4201
#
#
#
# Elastic Compliance Matrix: (Units=1/GPa)
#
#
# Indices 1 2 3 4 5 6 
#
# 1 0.009623 -0.002873 -0.001686 0.000000 -0.000313 0.000000
# 2 -0.002873 0.007300 -0.004278 0.000000 0.000038 0.000000
# 3 -0.001686 -0.004278 0.022840 0.000000 0.004782 0.000000
# 4 0.000000 0.000000 0.000000 0.041152 0.000000 0.005357
# 5 -0.000313 0.000038 0.004782 0.000000 0.031937 0.000000
# 6 0.000000 0.000000 0.000000 0.005357 0.000000 0.061598
#
#
# Mechanical properties :
#
#
# Convention : Reuss Voigt Hill
#
# Bulk Modulus (GPa) = 45.27611 68.24563 56.76087
# Shear Modulus (GPa) = 25.06416 30.82872 27.94644
#
# Velocity S-wave (km/s) = 3.52982 3.91475 3.72726
# Velocity P-wave (km/s) = 6.25460 7.37288 6.83664
#
# Compressibility (1/GPa) = 0.02208670
#
# Stress axis : x y z
#
# Youngs Moduli (GPa) = 103.92112 136.98312 43.78296
#
# Poissons Ratio (x) = 0.39358 0.07383
# Poissons Ratio (y) = 0.29859 0.18732
# Poissons Ratio (z) = 0.17525 0.58607
#
# Static dielectric constant tensor:
#      x y z
#    x 4.353400 0.000000 0.093570 
#    y 0.000000 3.717520 0.000000 
#    z 0.093570 0.000000 3.673080 
# 
# 
# High freq. dielectric constant tensor:
#      x y z
#    x 1.797490 0.000000 -0.001400 
#    y 0.000000 1.776730 0.000000 
#    z -0.001400 0.000000 1.786940 
# 
# From -- ./inp_files/94413.got.cif
#   From: 2010.06.25/outbox.cif.g09.slc.cpg/sg12_48_cif.got.tgz:94413.got - 2010.06.28 00:19:55.
