data_PCOD8102458
_publ_section_title
;
Structure prediction by ZEFSAII (Michael W. Deem and Ramdas Pophale) SiO2 
 PCOD8102458
Probable space group: C 2/M
;
_chemical_formula_sum "Si O2"
_cell_formula_units_Z 52
_cell_length_a 10.408736
_cell_length_b 13.696399
_cell_length_c 22.036227
_cell_angle_alpha 90.000000
_cell_angle_beta 119.421977
_cell_angle_gamma 90.000000
_cell_volume 2736.355223
_symmetry_space_group_name_H-M "C 2/M"
_symmetry_group_IT_number 12
_symmetry_cell_setting 'monoclinic'
loop_
_space_group_symop_operation_xyz
x,y,z
-x,y,-z
-x,-y,-z
x,-y,z
1/2+x,1/2+y,z
1/2-x,1/2+y,-z
1/2-x,1/2-y,-z
1/2+x,1/2-y,z
loop_
_atom_site_type_symbol
_atom_site_label
_atom_site_fract_x
_atom_site_fract_y
_atom_site_fract_z
Si Si1 0.070783 0.259388 0.814468
Si Si2 0.416071 0.114501 0.070734
Si Si3 0.980128 0.111643 0.382365
Si Si4 0.000000 0.753780 0.500000
Si Si5 0.723476 0.239620 0.723833
Si Si6 0.282515 0.888966 0.390156
Si Si7 0.219101 0.385860 0.083857
O O1 0.129380 0.338948 0.876024
O O2 0.137009 0.287409 0.764827
O O3 0.133169 0.156380 0.852259
O O4 0.895606 0.254806 0.773474
O O5 0.576367 0.153636 0.086986
O O6 0.422020 0.000000 0.081614
O O7 0.296486 0.141581 0.990999
O O8 0.034063 0.175203 0.451873
O O9 0.108784 0.113895 0.362517
O O10 0.835839 0.159026 0.318507
O O11 0.944137 0.000000 0.393550
O O12 0.861797 0.682408 0.456507
O O13 0.690160 0.149379 0.671430
O O14 0.343045 0.000000 0.409766
O O15 0.230239 0.500000 0.094605
#
# Coordination Sequence:
#
# PCOD8102458 Si02
#       7
#     8   8   8   4   8   8   8
#     4  12  21  38  59  86 115 153 192 245 288 339
#     4   9  19  36  58  85 114 148 196 244 288 346
#     4  10  21  39  61  85 118 155 193 233 279 337
#     4  10  20  36  64  94 114 144 196 238 278 330
#     4  11  24  37  58  85 119 151 200 234 281 345
#     4  10  21  39  60  85 121 156 186 231 289 340
#     4   9  19  36  59  84 112 152 196 238 292 355
#
# _framework density 19.003378999999999
#
# number of rings (size 3 to 8) (size 9 to 14) (size 15 to 20)
#    0.000    1.846    3.077    2.308    0.000    2.462 
#    0.000    0.000    0.000    1.846    0.000    0.000 
#    0.000    0.000    0.000    0.000    0.000    0.000 
#
# Total GULP energy -322382.898236 kJ/mol
# GULP energy per Si atom -12399.342240 kJ/mol
# Density = 1.896013 g / cm^3
# Si number density = 19.003379 Si / 1000 Ang^3
#
#
#
# Elastic Constant Matrix: (Units=GPa)
#
#
# Indices 1 2 3 4 5 6 
#
# 1 77.8026 34.9181 42.9972 0.0000 -9.4538 0.0000
# 2 34.9181 113.5494 53.2869 0.0000 -8.1298 0.0000
# 3 42.9972 53.2869 113.4305 0.0000 -9.2633 0.0000
# 4 0.0000 0.0000 0.0000 24.4320 0.0000 6.4687
# 5 -9.4538 -8.1298 -9.2633 0.0000 39.7488 0.0000
# 6 0.0000 0.0000 0.0000 6.4687 0.0000 23.2861
#
#
#
# Elastic Compliance Matrix: (Units=1/GPa)
#
#
# Indices 1 2 3 4 5 6 
#
# 1 0.017144 -0.002751 -0.005015 0.000000 0.002346 0.000000
# 2 -0.002751 0.011786 -0.004435 0.000000 0.000723 0.000000
# 3 -0.005015 -0.004435 0.012874 0.000000 0.000900 0.000000
# 4 0.000000 0.000000 0.000000 0.044179 0.000000 -0.012273
# 5 0.002346 0.000723 0.000900 0.000000 0.026074 0.000000
# 6 0.000000 0.000000 0.000000 -0.012273 0.000000 0.046353
#
#
# Mechanical properties :
#
#
# Convention : Reuss Voigt Hill
#
# Bulk Modulus (GPa) = 57.46245 63.02078 60.24162
# Shear Modulus (GPa) = 26.50948 29.06537 27.78743
#
# Velocity S-wave (km/s) = 3.73901 3.91510 3.82807
# Velocity P-wave (km/s) = 6.99599 7.32614 7.16297
#
# Compressibility (1/GPa) = 0.01740267
#
# Stress axis : x y z
#
# Youngs Moduli (GPa) = 58.32908 84.84945 77.67684
#
# Poissons Ratio (x) = 0.23339 0.38954
# Poissons Ratio (y) = 0.16044 0.34449
# Poissons Ratio (z) = 0.29251 0.37630
#
# Static dielectric constant tensor:
#      x y z
#    x 3.480430 0.000000 -0.053120 
#    y 0.000000 3.477440 0.000000 
#    z -0.053120 0.000000 3.642690 
# 
# 
# High freq. dielectric constant tensor:
#      x y z
#    x 1.726120 0.000000 -0.005120 
#    y 0.000000 1.737740 0.000000 
#    z -0.005120 0.000000 1.753210 
# 
# From -- ./inp_files/299854.got.cif
#   From: 2010.06.25/outbox.cif.g09.slc.cpg/sg12_150_cif.got.tgz:299854.got - 2010.06.28 00:19:55.
