data_PCOD8102647
_publ_section_title
;
Structure prediction by ZEFSAII (Michael W. Deem and Ramdas Pophale) SiO2 
 PCOD8102647
Probable space group: C 2/M
;
_chemical_formula_sum "Si O2"
_cell_formula_units_Z 48
_cell_length_a 25.135307
_cell_length_b 8.794359
_cell_length_c 11.809905
_cell_angle_alpha 90.000000
_cell_angle_beta 90.196296
_cell_angle_gamma 90.000000
_cell_volume 2610.551346
_symmetry_space_group_name_H-M "C 2/M"
_symmetry_group_IT_number 12
_symmetry_cell_setting 'monoclinic'
loop_
_space_group_symop_operation_xyz
x,y,z
-x,y,-z
-x,-y,-z
x,-y,z
1/2+x,1/2+y,z
1/2-x,1/2+y,-z
1/2-x,1/2-y,-z
1/2+x,1/2-y,z
loop_
_atom_site_type_symbol
_atom_site_label
_atom_site_fract_x
_atom_site_fract_y
_atom_site_fract_z
Si Si1 0.056085 0.319943 0.877998
Si Si2 0.056213 0.178663 0.114758
Si Si3 0.854434 0.179765 0.263530
Si Si4 0.247771 0.822269 0.878096
Si Si5 0.158694 0.824633 0.256029
Si Si6 0.807460 0.176483 0.497283
O O1 0.057171 0.500000 0.894425
O O2 0.093577 0.269881 0.775503
O O3 0.996663 0.266366 0.847716
O O4 0.076245 0.239824 0.993435
O O5 0.100424 0.214453 0.209003
O O6 0.044327 0.000000 0.104537
O O7 0.805347 0.231980 0.185335
O O8 0.842015 0.234410 0.391239
O O9 0.865001 0.000000 0.255847
O O10 0.298534 0.778409 0.805317
O O11 0.247475 0.000000 0.894551
O O12 0.250000 0.750000 0.000000
O O13 0.159278 0.786936 0.389358
O O14 0.173206 0.000000 0.232630
O O15 0.750000 0.250000 0.500000
O O16 0.796473 0.000000 0.481371
#
# Coordination Sequence:
#
# PCOD8102647 Si02
#       6
#     8   8   8   8   8   8
#     4  11  22  36  57  84 110 143 185 231 275 323
#     4  10  20  37  59  82 111 147 180 222 279 336
#     4  10  21  37  55  78 110 148 185 221 272 332
#     4  11  22  34  52  80 112 146 180 223 277 328
#     4  10  21  36  57  83 110 142 184 227 273 328
#     4  10  20  37  58  81 110 146 187 228 271 326
#
# _framework density 18.386921000000001
#
# number of rings (size 3 to 8) (size 9 to 14) (size 15 to 20)
#    0.000    1.667    1.667    4.500    0.000    7.333 
#    0.000    0.833    0.000    5.000    0.000    0.000 
#    0.000    0.000    0.000    0.000    0.000    0.000 
#
# Total GULP energy -297681.912243 kJ/mol
# GULP energy per Si atom -12403.413010 kJ/mol
# Density = 1.834507 g / cm^3
# Si number density = 18.386921 Si / 1000 Ang^3
#
#
#
# Elastic Constant Matrix: (Units=GPa)
#
#
# Indices 1 2 3 4 5 6 
#
# 1 101.4893 33.5600 66.4804 0.0000 -5.9420 0.0000
# 2 33.5600 58.8888 40.1973 0.0000 -2.2448 0.0000
# 3 66.4804 40.1973 142.4926 0.0000 -16.0687 0.0000
# 4 0.0000 0.0000 0.0000 25.1859 0.0000 -5.7480
# 5 -5.9420 -2.2448 -16.0687 0.0000 26.7694 0.0000
# 6 0.0000 0.0000 0.0000 -5.7480 0.0000 31.0781
#
#
#
# Elastic Compliance Matrix: (Units=1/GPa)
#
#
# Indices 1 2 3 4 5 6 
#
# 1 0.015190 -0.004705 -0.005818 0.000000 -0.000515 0.000000
# 2 -0.004705 0.022581 -0.004376 0.000000 -0.001777 0.000000
# 3 -0.005818 -0.004376 0.011562 0.000000 0.005282 0.000000
# 4 0.000000 0.000000 0.000000 0.041455 0.000000 0.007667
# 5 -0.000515 -0.001777 0.005282 0.000000 0.040263 0.000000
# 6 0.000000 0.000000 0.000000 0.007667 0.000000 0.033595
#
#
# Mechanical properties :
#
#
# Convention : Reuss Voigt Hill
#
# Bulk Modulus (GPa) = 51.18485 64.81625 58.00055
# Shear Modulus (GPa) = 24.88119 27.44887 26.16503
#
# Velocity S-wave (km/s) = 3.68258 3.86793 3.77639
# Velocity P-wave (km/s) = 6.78085 7.43476 7.11532
#
# Compressibility (1/GPa) = 0.01953703
#
# Stress axis : x y z
#
# Youngs Moduli (GPa) = 65.83386 44.28412 86.48924
#
# Poissons Ratio (x) = 0.20836 0.50316
# Poissons Ratio (y) = 0.30975 0.37844
# Poissons Ratio (z) = 0.38300 0.19377
#
# Static dielectric constant tensor:
#      x y z
#    x 3.376630 0.000000 0.078380 
#    y 0.000000 3.405760 0.000000 
#    z 0.078380 0.000000 3.678060 
# 
# 
# High freq. dielectric constant tensor:
#      x y z
#    x 1.712710 0.000000 0.000110 
#    y 0.000000 1.715940 0.000000 
#    z 0.000110 0.000000 1.717910 
# 
# From -- ./inp_files/172190.got.cif
#   From: 2010.06.25/outbox.cif.g09.slc.cpg/sg12_87_cif.got.tgz:172190.got - 2010.06.28 00:19:55.
