data_PCOD8102315
_publ_section_title
;
Structure prediction by ZEFSAII (Michael W. Deem and Ramdas Pophale) SiO2 
 PCOD8102315
Probable space group: C 2/M
;
_chemical_formula_sum "Si O2"
_cell_formula_units_Z 64
_cell_length_a 25.498499
_cell_length_b 8.760512
_cell_length_c 22.600864
_cell_angle_alpha 90.000000
_cell_angle_beta 39.753451
_cell_angle_gamma 90.000000
_cell_volume 3228.492030
_symmetry_space_group_name_H-M "C 2/M"
_symmetry_group_IT_number 12
_symmetry_cell_setting 'monoclinic'
loop_
_space_group_symop_operation_xyz
x,y,z
-x,y,-z
-x,-y,-z
x,-y,z
1/2+x,1/2+y,z
1/2-x,1/2+y,-z
1/2-x,1/2-y,-z
1/2+x,1/2-y,z
loop_
_atom_site_type_symbol
_atom_site_label
_atom_site_fract_x
_atom_site_fract_y
_atom_site_fract_z
Si Si1 0.677742 0.821587 0.895209
Si Si2 0.168638 0.680474 0.415460
Si Si3 0.164434 0.318633 0.285419
Si Si4 0.006922 0.681166 0.618128
Si Si5 0.205084 0.180831 0.595300
Si Si6 0.530282 0.819190 0.731099
Si Si7 0.449870 0.319152 0.906175
Si Si8 0.424867 0.666242 0.108489
O O1 0.770121 0.759465 0.815014
O O2 0.638792 0.784637 0.864456
O O3 0.675664 0.000000 0.908280
O O4 0.629245 0.741131 0.990410
O O5 0.159266 0.500000 0.422768
O O6 0.179500 0.740245 0.339240
O O7 0.085354 0.750197 0.515738
O O8 0.246438 0.730355 0.387311
O O9 0.172837 0.500000 0.272648
O O10 0.075380 0.260512 0.342076
O O11 0.010103 0.500000 0.613720
O O12 0.009303 0.738280 0.683575
O O13 0.250000 0.250000 0.500000
O O14 0.114202 0.244102 0.680197
O O15 0.203831 0.000000 0.589340
O O16 0.455920 0.761070 0.837153
O O17 0.538571 0.000000 0.727165
O O18 0.441422 0.500000 0.907130
O O19 0.535371 0.273928 0.865078
O O20 0.380995 0.500000 0.155722
O O21 0.500000 0.639963 0.000000
#
# Coordination Sequence:
#
# PCOD8102315 Si02
#       8
#     8   8   8   8   8   8   8   8
#     4  11  22  36  54  82 119 151 187 239 296 344
#     4   9  18  34  59  88 114 144 191 241 284 336
#     4  10  20  36  62  86 109 150 199 244 287 337
#     4   9  18  36  60  86 113 147 195 244 287 338
#     4  11  21  36  57  86 121 157 192 237 290 347
#     4  11  22  37  58  87 122 154 190 238 293 351
#     4  10  21  38  59  83 112 151 199 238 280 345
#     4   8  16  32  53  75 104 143 184 228 274 330
#
# _framework density 19.823495000000001
#
# number of rings (size 3 to 8) (size 9 to 14) (size 15 to 20)
#    0.000    2.125    1.250    3.375    1.750    4.250 
#    0.000    2.500    0.000    0.750    0.000    0.000 
#    0.000    0.000    0.000    0.000    0.000    0.000 
#
# Total GULP energy -396762.037012 kJ/mol
# GULP energy per Si atom -12398.813657 kJ/mol
# Density = 1.977838 g / cm^3
# Si number density = 19.823495 Si / 1000 Ang^3
#
#
#
# Elastic Constant Matrix: (Units=GPa)
#
#
# Indices 1 2 3 4 5 6 
#
# 1 120.9611 31.2709 57.4838 -0.0027 0.3424 0.0064
# 2 31.2709 67.1645 31.9392 -0.0027 -2.1595 -0.0131
# 3 57.4838 31.9392 125.3044 -0.0032 7.0821 0.0020
# 4 -0.0027 -0.0027 -0.0032 31.5716 0.0049 -1.2541
# 5 0.3424 -2.1595 7.0821 0.0049 26.2590 -0.0072
# 6 0.0064 -0.0131 0.0020 -1.2541 -0.0072 17.4761
#
#
#
# Elastic Compliance Matrix: (Units=1/GPa)
#
#
# Indices 1 2 3 4 5 6 
#
# 1 0.011138 -0.003084 -0.004367 0.000000 0.000779 -0.000006
# 2 -0.003084 0.017972 -0.003303 0.000001 0.002409 0.000016
# 3 -0.004367 -0.003303 0.011006 0.000001 -0.003183 -0.000003
# 4 0.000000 0.000001 0.000001 0.031765 -0.000005 0.002279
# 5 0.000779 0.002409 -0.003183 -0.000005 0.039129 0.000018
# 6 -0.000006 0.000016 -0.000003 0.002279 0.000018 0.057384
#
#
# Mechanical properties :
#
#
# Convention : Reuss Voigt Hill
#
# Bulk Modulus (GPa) = 53.73850 61.64641 57.69246
# Shear Modulus (GPa) = 25.49672 27.91043 26.70357
#
# Velocity S-wave (km/s) = 3.59024 3.75633 3.67422
# Velocity P-wave (km/s) = 6.65986 7.06955 6.86776
#
# Compressibility (1/GPa) = 0.01860863
#
# Stress axis : x y z
#
# Youngs Moduli (GPa) = 89.78576 55.64076 90.86071
#
# Poissons Ratio (x) = 0.17157 0.39683
# Poissons Ratio (y) = 0.27686 0.30008
# Poissons Ratio (z) = 0.39214 0.18376
#
# Static dielectric constant tensor:
#      x y z
#    x 3.802500 0.000010 0.087950 
#    y 0.000010 3.285590 0.000060 
#    z 0.087950 0.000060 3.723610 
# 
# 
# High freq. dielectric constant tensor:
#      x y z
#    x 1.764090 0.000000 0.001950 
#    y 0.000000 1.743840 0.000000 
#    z 0.001950 0.000000 1.784330 
# 
# From -- ./inp_files/324143.got.cif
#   From: 2010.06.25/outbox.cif.g09.slc.cpg/sg12_163_cif.got.tgz:324143.got - 2010.06.28 00:19:55.
