data_PCOD8102927
_publ_section_title
;
Structure prediction by ZEFSAII (Michael W. Deem and Ramdas Pophale) SiO2 
 PCOD8102927
Probable space group: C 2/M
;
_chemical_formula_sum "Si O2"
_cell_formula_units_Z 40
_cell_length_a 25.309500
_cell_length_b 8.719567
_cell_length_c 9.186977
_cell_angle_alpha 90.000000
_cell_angle_beta 89.748894
_cell_angle_gamma 90.000000
_cell_volume 2027.435016
_symmetry_space_group_name_H-M "C 2/M"
_symmetry_group_IT_number 12
_symmetry_cell_setting 'monoclinic'
loop_
_space_group_symop_operation_xyz
x,y,z
-x,y,-z
-x,-y,-z
x,-y,z
1/2+x,1/2+y,z
1/2-x,1/2+y,-z
1/2-x,1/2-y,-z
1/2+x,1/2-y,z
loop_
_atom_site_type_symbol
_atom_site_label
_atom_site_fract_x
_atom_site_fract_y
_atom_site_fract_z
Si Si1 0.054506 0.320711 0.651158
Si Si2 0.343300 0.177449 0.169577
Si Si3 0.248765 0.679664 0.341622
Si Si4 0.352832 0.819800 0.834439
Si Si5 0.443404 0.319580 0.654644
O O1 0.041257 0.500000 0.643617
O O2 0.099071 0.284040 0.768642
O O3 0.074348 0.265274 0.492997
O O4 0.002261 0.229889 0.699891
O O5 0.300663 0.278685 0.252073
O O6 0.329105 0.000000 0.194802
O O7 0.342180 0.222590 0.001279
O O8 0.245876 0.500000 0.359619
O O9 0.250000 0.750000 0.500000
O O10 0.197229 0.739141 0.256889
O O11 0.404203 0.727742 0.783456
O O12 0.363163 0.000000 0.814483
O O13 0.441770 0.500000 0.628033
#
# Coordination Sequence:
#
# PCOD8102927 Si02
#       5
#     8   8   8   8   8
#     4  10  20  37  60  83 110 148 188 230 278 331
#     4  10  22  39  60  84 112 146 187 231 278 331
#     4  11  23  38  60  85 113 148 186 229 277 329
#     4  10  22  40  58  81 114 151 186 225 278 337
#     4  11  22  36  57  85 114 147 187 233 276 324
#
# _framework density 19.729361000000001
#
# number of rings (size 3 to 8) (size 9 to 14) (size 15 to 20)
#    0.000    1.600    0.000    6.000    0.000    9.600 
#    0.000    4.000    0.000    0.000    0.000    0.000 
#    0.000    0.000    0.000    0.000    0.000    0.000 
#
# Total GULP energy -248117.786159 kJ/mol
# GULP energy per Si atom -12405.889308 kJ/mol
# Density = 1.968446 g / cm^3
# Si number density = 19.729361 Si / 1000 Ang^3
#
#
#
# Elastic Constant Matrix: (Units=GPa)
#
#
# Indices 1 2 3 4 5 6 
#
# 1 105.9353 35.4100 77.1376 0.0000 1.5022 0.0000
# 2 35.4100 58.2485 36.2832 0.0000 -0.6124 0.0000
# 3 77.1376 36.2832 137.6374 0.0000 2.1658 0.0000
# 4 0.0000 0.0000 0.0000 28.3461 0.0000 -6.8856
# 5 1.5022 -0.6124 2.1658 0.0000 30.0448 0.0000
# 6 0.0000 0.0000 0.0000 -6.8856 0.0000 34.3268
#
#
#
# Elastic Compliance Matrix: (Units=1/GPa)
#
#
# Indices 1 2 3 4 5 6 
#
# 1 0.017235 -0.005346 -0.008244 0.000000 -0.000376 0.000000
# 2 -0.005346 0.022219 -0.002876 0.000000 0.000928 0.000000
# 3 -0.008244 -0.002876 0.012653 0.000000 -0.000558 0.000000
# 4 0.000000 0.000000 0.000000 0.037085 0.000000 0.007439
# 5 -0.000376 0.000928 -0.000558 0.000000 0.033362 0.000000
# 6 0.000000 0.000000 0.000000 0.007439 0.000000 0.030624
#
#
# Mechanical properties :
#
#
# Convention : Reuss Voigt Hill
#
# Bulk Modulus (GPa) = 52.15135 66.60920 59.38028
# Shear Modulus (GPa) = 25.97404 28.74290 27.35847
#
# Velocity S-wave (km/s) = 3.63232 3.82102 3.72787
# Velocity P-wave (km/s) = 6.63946 7.30080 6.97797
#
# Compressibility (1/GPa) = 0.01917496
#
# Stress axis : x y z
#
# Youngs Moduli (GPa) = 58.02174 45.00694 79.03563
#
# Poissons Ratio (x) = 0.24061 0.65156
# Poissons Ratio (y) = 0.31019 0.22727
# Poissons Ratio (z) = 0.47833 0.12942
#
# Static dielectric constant tensor:
#      x y z
#    x 3.520910 0.000000 0.200550 
#    y 0.000000 3.582790 0.000000 
#    z 0.200550 0.000000 3.646540 
# 
# 
# High freq. dielectric constant tensor:
#      x y z
#    x 1.781690 0.000000 0.001880 
#    y 0.000000 1.770760 0.000000 
#    z 0.001880 0.000000 1.774490 
# 
# From -- ./inp_files/92772.got.cif
#   From: 2010.06.25/outbox.cif.g09.slc.cpg/sg12_47_cif.got.tgz:92772.got - 2010.06.28 00:19:55.
