data_PCOD8102171
_publ_section_title
;
Structure prediction by ZEFSAII (Michael W. Deem and Ramdas Pophale) SiO2 
 PCOD8102171
Probable space group: C 2/M
;
_chemical_formula_sum "Si O2"
_cell_formula_units_Z 56
_cell_length_a 21.682048
_cell_length_b 14.973558
_cell_length_c 23.749199
_cell_angle_alpha 90.000000
_cell_angle_beta 21.915922
_cell_angle_gamma 90.000000
_cell_volume 2877.855480
_symmetry_space_group_name_H-M "C 2/M"
_symmetry_group_IT_number 12
_symmetry_cell_setting 'monoclinic'
loop_
_space_group_symop_operation_xyz
x,y,z
-x,y,-z
-x,-y,-z
x,-y,z
1/2+x,1/2+y,z
1/2-x,1/2+y,-z
1/2-x,1/2-y,-z
1/2+x,1/2-y,z
loop_
_atom_site_type_symbol
_atom_site_label
_atom_site_fract_x
_atom_site_fract_y
_atom_site_fract_z
Si Si1 0.178496 0.604972 0.823688
Si Si2 0.539599 0.661056 0.139414
Si Si3 0.778275 0.345531 0.028868
Si Si4 0.743451 0.248782 0.438791
Si Si5 0.869294 0.764509 0.737706
Si Si6 0.621248 0.902954 0.747166
Si Si7 0.877004 0.102452 0.052880
O O1 0.216673 0.500000 0.800808
O O2 0.318666 0.666827 0.731913
O O3 0.184848 0.633101 0.753191
O O4 0.000000 0.630591 0.000000
O O5 0.663474 0.609851 0.077372
O O6 0.352359 0.666653 0.321680
O O7 0.613092 0.760110 0.080349
O O8 0.532693 0.616873 0.083713
O O9 0.659433 0.317968 0.180348
O O10 0.921678 0.415622 0.922274
O O11 0.750000 0.250000 0.500000
O O12 0.559423 0.237625 0.571190
O O13 0.817374 0.342344 0.355508
O O14 0.773948 0.670628 0.815009
O O15 0.696769 0.000000 0.671102
O O16 0.814087 0.000000 0.109860
O O17 0.000000 0.123601 0.000000
#
# Coordination Sequence:
#
# PCOD8102171 Si02
#       7
#     8   8   8   8   8   8   8
#     4  10  20  36  60  94 126 155 197 246 295 359
#     4   9  19  37  59  83 113 153 198 246 293 349
#     4   9  17  33  60  85 111 152 200 242 288 349
#     4  11  23  40  58  85 125 163 194 241 305 366
#     4  11  21  36  63  90 121 163 196 242 307 361
#     4  10  22  38  59  90 125 158 197 245 296 360
#     4  10  23  42  64  89 115 152 210 264 299 345
#
# _framework density 19.458932999999998
#
# number of rings (size 3 to 8) (size 9 to 14) (size 15 to 20)
#    0.000    2.000    2.857    0.429    6.000    1.714 
#    0.000    2.857    0.000    1.714    0.000    0.000 
#    0.000    0.000    0.000    0.000    0.000    0.000 
#
# Total GULP energy -347030.618650 kJ/mol
# GULP energy per Si atom -12393.950666 kJ/mol
# Density = 1.941464 g / cm^3
# Si number density = 19.458933 Si / 1000 Ang^3
#
#
#
# Elastic Constant Matrix: (Units=GPa)
#
#
# Indices 1 2 3 4 5 6 
#
# 1 161.7392 48.8477 59.7063 0.0251 -7.0936 -0.0046
# 2 48.8477 72.6282 33.5599 -0.0129 -0.1699 -0.0142
# 3 59.7063 33.5599 115.7283 -0.0110 -13.0706 -0.0254
# 4 0.0251 -0.0129 -0.0110 12.3220 0.0161 11.3434
# 5 -7.0936 -0.1699 -13.0706 0.0161 32.4088 0.0053
# 6 -0.0046 -0.0142 -0.0254 11.3434 0.0053 10.7561
#
#
#
# Elastic Compliance Matrix: (Units=1/GPa)
#
#
# Indices 1 2 3 4 5 6 
#
# 1 0.008698 -0.004396 -0.003143 -0.000580 0.000613 0.000602
# 2 -0.004396 0.018229 -0.003265 0.000465 -0.002184 -0.000475
# 3 -0.003143 -0.003265 0.011661 -0.000345 0.003998 0.000384
# 4 -0.000580 0.000465 -0.000345 2.783242 -0.001164 -2.935198
# 5 0.000613 -0.002184 0.003998 -0.001164 0.032591 0.001219
# 6 0.000602 -0.000475 0.000384 -2.935198 0.001219 3.188420
#
#
# Mechanical properties :
#
#
# Convention : Reuss Voigt Hill
#
# Bulk Modulus (GPa) = 58.89482 70.48039 64.68761
# Shear Modulus (GPa) = 0.82371 24.96283 12.89327
#
# Velocity S-wave (km/s) = 0.65133 3.58557 2.57687
# Velocity P-wave (km/s) = 5.55856 7.31030 6.49377
#
# Compressibility (1/GPa) = 0.01697942
#
# Stress axis : x y z
#
# Youngs Moduli (GPa) = 114.97188 54.85792 85.75653
#
# Poissons Ratio (x) = 0.24116 0.26955
# Poissons Ratio (y) = 0.50542 0.27998
# Poissons Ratio (z) = 0.36138 0.17910
#
# Static dielectric constant tensor:
#      x y z
#    x 3.783250 -0.000050 -0.122470 
#    y -0.000050 3.412710 0.000140 
#    z -0.122470 0.000140 3.565410 
# 
# 
# High freq. dielectric constant tensor:
#      x y z
#    x 1.773520 0.000000 -0.003620 
#    y 0.000000 1.740470 0.000010 
#    z -0.003620 0.000010 1.744840 
# 
# From -- ./inp_files/347787.got.cif
#   From: 2010.06.25/outbox.cif.g09.slc.cpg/sg12_174_cif.got.tgz:347787.got - 2010.06.28 00:19:55.
