data_PCOD8102348
_publ_section_title
;
Structure prediction by ZEFSAII (Michael W. Deem and Ramdas Pophale) SiO2 
 PCOD8102348
Probable space group: C 2/M
;
_chemical_formula_sum "Si O2"
_cell_formula_units_Z 64
_cell_length_a 22.922837
_cell_length_b 14.485147
_cell_length_c 14.832568
_cell_angle_alpha 90.000000
_cell_angle_beta 43.405661
_cell_angle_gamma 90.000000
_cell_volume 3384.270332
_symmetry_space_group_name_H-M "C 2/M"
_symmetry_group_IT_number 12
_symmetry_cell_setting 'monoclinic'
loop_
_space_group_symop_operation_xyz
x,y,z
-x,y,-z
-x,-y,-z
x,-y,z
1/2+x,1/2+y,z
1/2-x,1/2+y,-z
1/2-x,1/2-y,-z
1/2+x,1/2-y,z
loop_
_atom_site_type_symbol
_atom_site_label
_atom_site_fract_x
_atom_site_fract_y
_atom_site_fract_z
Si Si1 0.467585 0.752163 0.634824
Si Si2 0.481187 0.889987 0.272422
Si Si3 0.599356 0.731948 0.896599
Si Si4 0.954986 0.895108 0.331185
Si Si5 0.654620 0.742339 0.637444
Si Si6 0.384945 0.601178 0.960106
Si Si7 0.361842 0.104358 0.034121
Si Si8 0.297540 0.677044 0.888397
O O1 0.500000 0.774433 0.500000
O O2 0.495575 0.842927 0.658947
O O3 0.509885 0.657740 0.621388
O O4 0.366699 0.732152 0.750602
O O5 0.401374 0.835091 0.318264
O O6 0.565319 0.872178 0.119683
O O7 0.461022 0.000000 0.305277
O O8 0.648020 0.712435 0.749301
O O9 0.500000 0.709452 0.000000
O O10 0.640303 0.673142 0.933366
O O11 0.617576 0.838076 0.899620
O O12 0.870676 0.844686 0.394680
O O13 0.016478 0.886718 0.175385
O O14 0.936674 0.000000 0.380202
O O15 0.750000 0.750000 0.500000
O O16 0.366316 0.500000 0.020924
O O17 0.337316 0.608755 0.917820
O O18 0.366893 0.000000 0.060580
O O19 0.267731 0.122936 0.101897
O O20 0.250000 0.750000 0.000000
#
# Coordination Sequence:
#
# PCOD8102348 Si02
#       8
#     8   8   8   8   8   8   8   8
#     4  10  21  37  61  89 118 155 193 241 295 354
#     4  10  21  40  60  83 118 160 196 238 301 358
#     4  12  21  38  61  87 116 151 200 247 288 347
#     4   9  19  38  60  82 113 153 190 234 297 354
#     4  11  24  40  58  82 117 157 196 241 294 349
#     4  10  20  36  62  91 116 148 193 244 296 348
#     4  11  22  37  63  92 117 154 202 251 297 346
#     4  11  19  38  62  85 121 157 191 242 297 347
#
# _framework density 18.911019
#
# number of rings (size 3 to 8) (size 9 to 14) (size 15 to 20)
#    0.000    1.500    5.000    1.125    0.000    5.000 
#    0.000    1.250    0.000    0.000    0.000    0.000 
#    0.000    0.000    0.000    0.000    0.000    0.000 
#
# Total GULP energy -396652.687774 kJ/mol
# GULP energy per Si atom -12395.396493 kJ/mol
# Density = 1.886798 g / cm^3
# Si number density = 18.911019 Si / 1000 Ang^3
#
#
#
# Elastic Constant Matrix: (Units=GPa)
#
#
# Indices 1 2 3 4 5 6 
#
# 1 63.7943 18.1029 36.5019 0.0000 -7.6039 0.0000
# 2 18.1029 93.7060 10.5877 0.0000 -6.5809 0.0000
# 3 36.5019 10.5877 98.3761 0.0000 -8.6765 0.0000
# 4 0.0000 0.0000 0.0000 17.0655 0.0000 -4.6124
# 5 -7.6039 -6.5809 -8.6765 0.0000 30.4292 0.0000
# 6 0.0000 0.0000 0.0000 -4.6124 0.0000 19.9876
#
#
#
# Elastic Compliance Matrix: (Units=1/GPa)
#
#
# Indices 1 2 3 4 5 6 
#
# 1 0.020983 -0.003059 -0.007234 0.000000 0.002519 0.000000
# 2 -0.003059 0.011376 0.000062 0.000000 0.001713 0.000000
# 3 -0.007234 0.000062 0.013012 0.000000 0.001916 0.000000
# 4 0.000000 0.000000 0.000000 0.062495 0.000000 0.014422
# 5 0.002519 0.001713 0.001916 0.000000 0.034409 0.000000
# 6 0.000000 0.000000 0.000000 0.014422 0.000000 0.053359
#
#
# Mechanical properties :
#
#
# Convention : Reuss Voigt Hill
#
# Bulk Modulus (GPa) = 40.14873 42.91792 41.53333
# Shear Modulus (GPa) = 22.28159 26.20872 24.24515
#
# Velocity S-wave (km/s) = 3.43626 3.72680 3.58448
# Velocity P-wave (km/s) = 6.08443 6.42360 6.25632
#
# Compressibility (1/GPa) = 0.02490739
#
# Stress axis : x y z
#
# Youngs Moduli (GPa) = 47.65742 87.90403 76.85463
#
# Poissons Ratio (x) = 0.26893 0.55598
# Poissons Ratio (y) = 0.14580 -0.00476
# Poissons Ratio (z) = 0.34476 -0.00545
#
# Static dielectric constant tensor:
#      x y z
#    x 3.018440 0.000000 0.026730 
#    y 0.000000 3.342470 0.000000 
#    z 0.026730 0.000000 3.254360 
# 
# 
# High freq. dielectric constant tensor:
#      x y z
#    x 1.737980 0.000000 -0.003120 
#    y 0.000000 1.741250 0.000000 
#    z -0.003120 0.000000 1.716230 
# 
# From -- ./inp_files/240678.got.cif
#   From: 2010.06.25/outbox.cif.g09.slc.cpg/sg12_121_cif.got.tgz:240678.got - 2010.06.28 00:19:55.
