data_PCOD8102254
_publ_section_title
;
Structure prediction by ZEFSAII (Michael W. Deem and Ramdas Pophale) SiO2 
 PCOD8102254
Probable space group: C 2/M
;
_chemical_formula_sum "Si O2"
_cell_formula_units_Z 36
_cell_length_a 15.154514
_cell_length_b 9.732057
_cell_length_c 11.508138
_cell_angle_alpha 90.000000
_cell_angle_beta 106.827611
_cell_angle_gamma 90.000000
_cell_volume 1624.596000
_symmetry_space_group_name_H-M "C 2/M"
_symmetry_group_IT_number 12
_symmetry_cell_setting 'monoclinic'
loop_
_space_group_symop_operation_xyz
x,y,z
-x,y,-z
-x,-y,-z
x,-y,z
1/2+x,1/2+y,z
1/2-x,1/2+y,-z
1/2-x,1/2-y,-z
1/2+x,1/2-y,z
loop_
_atom_site_type_symbol
_atom_site_label
_atom_site_fract_x
_atom_site_fract_y
_atom_site_fract_z
Si Si1 0.487922 0.847439 0.242497
Si Si2 0.325746 0.843401 0.819802
Si Si3 0.594849 0.656248 0.966348
Si Si4 0.500000 0.751745 0.500000
Si Si5 0.300296 0.653072 0.429792
O O1 0.590736 0.816853 0.237375
O O2 0.419125 0.734085 0.161462
O O3 0.486428 0.844828 0.381256
O O4 0.456887 0.000000 0.190801
O O5 0.232018 0.810842 0.713738
O O6 0.327641 0.000000 0.867708
O O7 0.329349 0.738975 0.929731
O O8 0.628488 0.500000 0.955686
O O9 0.500000 0.657295 0.000000
O O10 0.410329 0.657605 0.481486
O O11 0.267074 0.500000 0.448138
O O12 0.250000 0.750000 0.500000
#
# Coordination Sequence:
#
# PCOD8102254 Si02
#       5
#     8   8   8   4   8
#     4  10  20  36  61  90 125 167 210 256 310 377
#     4   9  18  37  61  87 120 163 210 255 309 373
#     4   9  18  33  57  90 123 158 205 261 317 369
#     4  12  24  40  64  98 130 166 212 264 314 370
#     4  11  24  42  64  93 129 170 212 260 315 375
#
# _framework density 22.159355999999999
#
# number of rings (size 3 to 8) (size 9 to 14) (size 15 to 20)
#    0.000    2.000    2.222    1.333    0.000    6.222 
#    0.000    1.111    0.000    0.000    0.000    0.000 
#    0.000    0.000    0.000    0.000    0.000    0.000 
#
# Total GULP energy -223186.207960 kJ/mol
# GULP energy per Si atom -12399.233776 kJ/mol
# Density = 2.210892 g / cm^3
# Si number density = 22.159356 Si / 1000 Ang^3
#
#
#
# Elastic Constant Matrix: (Units=GPa)
#
#
# Indices 1 2 3 4 5 6 
#
# 1 72.8759 34.3335 45.1242 0.0000 12.3350 0.0000
# 2 34.3335 161.4085 91.5106 0.0000 18.3498 0.0000
# 3 45.1242 91.5106 157.6829 0.0000 14.4274 0.0000
# 4 0.0000 0.0000 0.0000 40.1959 0.0000 6.7005
# 5 12.3350 18.3498 14.4274 0.0000 36.1197 0.0000
# 6 0.0000 0.0000 0.0000 6.7005 0.0000 10.7556
#
#
#
# Elastic Compliance Matrix: (Units=1/GPa)
#
#
# Indices 1 2 3 4 5 6 
#
# 1 0.017328 -0.000952 -0.004057 0.000000 -0.003813 0.000000
# 2 -0.000952 0.009536 -0.005032 0.000000 -0.002510 0.000000
# 3 -0.004057 -0.005032 0.010444 0.000000 -0.000230 0.000000
# 4 0.000000 0.000000 0.000000 0.027761 0.000000 -0.017294
# 5 -0.003813 -0.002510 -0.000230 0.000000 0.030355 0.000000
# 6 0.000000 0.000000 0.000000 -0.017294 0.000000 0.103748
#
#
# Mechanical properties :
#
#
# Convention : Reuss Voigt Hill
#
# Bulk Modulus (GPa) = 58.05353 81.54488 69.79921
# Shear Modulus (GPa) = 22.22237 32.14753 27.18495
#
# Velocity S-wave (km/s) = 3.17021 3.81299 3.50636
# Velocity P-wave (km/s) = 6.29725 7.50096 6.92531
#
# Compressibility (1/GPa) = 0.01722548
#
# Stress axis : x y z
#
# Youngs Moduli (GPa) = 57.70925 104.86203 95.74469
#
# Poissons Ratio (x) = 0.09983 0.38847
# Poissons Ratio (y) = 0.05494 0.48182
# Poissons Ratio (z) = 0.23415 0.52770
#
# Static dielectric constant tensor:
#      x y z
#    x 3.793180 0.000000 0.209340 
#    y 0.000000 3.971570 0.000000 
#    z 0.209340 0.000000 4.067690 
# 
# 
# High freq. dielectric constant tensor:
#      x y z
#    x 1.853980 0.000000 0.008650 
#    y 0.000000 1.869740 0.000000 
#    z 0.008650 0.000000 1.878910 
# 
# From -- ./inp_files/152080.got.cif
#   From: 2010.06.25/outbox.cif.g09.slc.cpg/sg12_77_cif.got.tgz:152080.got - 2010.06.28 00:19:55.
