data_PCOD8102526
_publ_section_title
;
Structure prediction by ZEFSAII (Michael W. Deem and Ramdas Pophale) SiO2 
 PCOD8102526
Probable space group: C 2/M
;
_chemical_formula_sum "Si O2"
_cell_formula_units_Z 56
_cell_length_a 14.328704
_cell_length_b 18.308320
_cell_length_c 14.403553
_cell_angle_alpha 90.000000
_cell_angle_beta 55.177597
_cell_angle_gamma 90.000000
_cell_volume 3101.908967
_symmetry_space_group_name_H-M "C 2/M"
_symmetry_group_IT_number 12
_symmetry_cell_setting 'monoclinic'
loop_
_space_group_symop_operation_xyz
x,y,z
-x,y,-z
-x,-y,-z
x,-y,z
1/2+x,1/2+y,z
1/2-x,1/2+y,-z
1/2-x,1/2-y,-z
1/2+x,1/2-y,z
loop_
_atom_site_type_symbol
_atom_site_label
_atom_site_fract_x
_atom_site_fract_y
_atom_site_fract_z
Si Si1 0.870609 0.634045 0.085496
Si Si2 0.487743 0.920275 0.696835
Si Si3 0.343136 0.282351 0.517050
Si Si4 0.229624 0.773726 0.908471
Si Si5 0.778721 0.416906 0.335295
Si Si6 0.078252 0.274749 0.342403
Si Si7 0.282323 0.918763 0.945369
O O1 0.868429 0.723475 0.081700
O O2 0.815386 0.607717 0.212026
O O3 0.792198 0.600886 0.048406
O O4 0.000000 0.606978 0.000000
O O5 0.615390 0.909826 0.657205
O O6 0.461243 0.859062 0.635865
O O7 0.409153 0.913473 0.832508
O O8 0.470357 0.000000 0.660290
O O9 0.250000 0.250000 0.500000
O O10 0.317205 0.364936 0.565172
O O11 0.347086 0.232604 0.607086
O O12 0.469026 0.279409 0.400161
O O13 0.346363 0.756273 0.788870
O O14 0.204056 0.861279 0.930022
O O15 0.250000 0.750000 0.000000
O O16 0.732522 0.500000 0.357955
O O17 0.230098 0.000000 0.963560
#
# Coordination Sequence:
#
# PCOD8102526 Si02
#       7
#     8   8   8   8   8   8   8
#     4  11  19  30  51  82 113 140 177 227 281 336
#     4   9  17  31  53  82 111 138 175 230 284 329
#     4  11  22  37  57  77 106 150 191 228 269 328
#     4   9  19  33  53  79 110 141 181 221 268 336
#     4  11  21  34  53  81 112 143 183 232 283 332
#     4  10  20  37  56  79 110 149 189 222 278 329
#     4   9  17  29  48  76 111 145 172 216 277 328
#
# _framework density 18.053398999999999
#
# number of rings (size 3 to 8) (size 9 to 14) (size 15 to 20)
#    0.000    2.000    4.286    0.429    0.000    0.571 
#    0.000    3.571    0.000    0.429    0.000    0.000 
#    0.000    0.000    0.000    0.000    0.000    0.000 
#
# Total GULP energy -346930.181677 kJ/mol
# GULP energy per Si atom -12390.363631 kJ/mol
# Density = 1.801231 g / cm^3
# Si number density = 18.053399 Si / 1000 Ang^3
#
#
#
# Elastic Constant Matrix: (Units=GPa)
#
#
# Indices 1 2 3 4 5 6 
#
# 1 66.3025 43.0330 27.8139 0.0000 13.5328 0.0000
# 2 43.0330 154.1726 43.3895 0.0000 11.3646 0.0000
# 3 27.8139 43.3895 94.1626 0.0000 5.3219 0.0000
# 4 0.0000 0.0000 0.0000 25.6972 0.0000 0.2724
# 5 13.5328 11.3646 5.3219 0.0000 16.1611 0.0000
# 6 0.0000 0.0000 0.0000 0.2724 0.0000 28.6390
#
#
#
# Elastic Compliance Matrix: (Units=1/GPa)
#
#
# Indices 1 2 3 4 5 6 
#
# 1 0.022325 -0.004061 -0.003901 0.000000 -0.014554 0.000000
# 2 -0.004061 0.008480 -0.002612 0.000000 -0.001703 0.000000
# 3 -0.003901 -0.002612 0.012928 0.000000 0.000846 0.000000
# 4 0.000000 0.000000 0.000000 0.038919 0.000000 -0.000370
# 5 -0.014554 -0.001703 0.000846 0.000000 0.074983 0.000000
# 6 0.000000 0.000000 0.000000 -0.000370 0.000000 0.034921
#
#
# Mechanical properties :
#
#
# Convention : Reuss Voigt Hill
#
# Bulk Modulus (GPa) = 44.27440 60.34561 52.31000
# Shear Modulus (GPa) = 22.60074 27.45953 25.03013
#
# Velocity S-wave (km/s) = 3.54203 3.90425 3.72755
# Velocity P-wave (km/s) = 6.42693 7.33642 6.89668
#
# Compressibility (1/GPa) = 0.02258641
#
# Stress axis : x y z
#
# Youngs Moduli (GPa) = 44.79296 117.92025 77.35228
#
# Poissons Ratio (x) = 0.47885 0.30172
# Poissons Ratio (y) = 0.18189 0.20204
# Poissons Ratio (z) = 0.17472 0.30800
#
# Static dielectric constant tensor:
#      x y z
#    x 3.101980 0.000000 0.074710 
#    y 0.000000 4.044200 0.000000 
#    z 0.074710 0.000000 3.279840 
# 
# 
# High freq. dielectric constant tensor:
#      x y z
#    x 1.663910 0.000000 0.010540 
#    y 0.000000 1.708980 0.000000 
#    z 0.010540 0.000000 1.700450 
# 
# From -- ./inp_files/215862.got.cif
#   From: 2010.06.25/outbox.cif.g09.slc.cpg/sg12_108_cif.got.tgz:215862.got - 2010.06.28 00:19:55.
