data_PCOD8102764
_publ_section_title
;
Structure prediction by ZEFSAII (Michael W. Deem and Ramdas Pophale) SiO2 
 PCOD8102764
Probable space group: C 2/M
;
_chemical_formula_sum "Si O2"
_cell_formula_units_Z 64
_cell_length_a 31.257047
_cell_length_b 14.677518
_cell_length_c 9.429115
_cell_angle_alpha 90.000000
_cell_angle_beta 132.058289
_cell_angle_gamma 90.000000
_cell_volume 3211.786969
_symmetry_space_group_name_H-M "C 2/M"
_symmetry_group_IT_number 12
_symmetry_cell_setting 'monoclinic'
loop_
_space_group_symop_operation_xyz
x,y,z
-x,y,-z
-x,-y,-z
x,-y,z
1/2+x,1/2+y,z
1/2-x,1/2+y,-z
1/2-x,1/2-y,-z
1/2+x,1/2-y,z
loop_
_atom_site_type_symbol
_atom_site_label
_atom_site_fract_x
_atom_site_fract_y
_atom_site_fract_z
Si Si1 0.761183 0.652545 0.097265
Si Si2 0.625434 0.789949 0.042472
Si Si3 0.558081 0.101771 0.677194
Si Si4 0.848874 0.103271 0.610006
Si Si5 0.660623 0.398679 0.086073
Si Si6 0.234815 0.600600 0.200403
Si Si7 0.432908 0.762855 0.803516
Si Si8 0.621099 0.104217 0.531041
O O1 0.711593 0.615147 0.088473
O O2 0.816026 0.650450 0.324854
O O3 0.750000 0.750000 0.000000
O O4 0.768147 0.587961 0.976255
O O5 0.616870 0.685780 0.966153
O O6 0.690328 0.824601 0.160509
O O7 0.609012 0.801579 0.168797
O O8 0.579349 0.849521 0.862283
O O9 0.500000 0.152280 0.500000
O O10 0.604805 0.103513 0.658957
O O11 0.542702 0.000000 0.692344
O O12 0.821933 0.111643 0.709094
O O13 0.798239 0.133171 0.389763
O O14 0.906205 0.163580 0.706977
O O15 0.868497 0.000000 0.623111
O O16 0.633455 0.500000 0.000839
O O17 0.220811 0.500000 0.233067
O O18 0.424831 0.834700 0.657674
O O19 0.500000 0.754657 0.000000
O O20 0.622283 0.000000 0.474462
#
# Coordination Sequence:
#
# PCOD8102764 Si02
#       8
#     8   8   8   8   8   8   8   8
#     4  12  21  36  58  87 121 155 189 234 291 356
#     4  11  22  37  60  85 117 154 199 244 294 350
#     4  10  20  37  59  81 112 154 198 242 288 344
#     4   9  22  41  63  89 117 152 197 248 301 355
#     4  10  21  37  57  83 118 154 189 236 293 350
#     4  11  21  36  59  91 123 152 191 240 297 358
#     4  11  25  41  60  85 117 158 203 249 296 348
#     4  11  23  37  55  84 118 154 197 238 289 351
#
# _framework density 19.926601999999999
#
# number of rings (size 3 to 8) (size 9 to 14) (size 15 to 20)
#    0.000    1.375    2.500    3.000    1.750    2.500 
#    0.000    0.000    0.000    0.375    0.000    0.000 
#    0.000    0.000    0.000    0.000    0.000    0.000 
#
# Total GULP energy -396509.737325 kJ/mol
# GULP energy per Si atom -12390.929291 kJ/mol
# Density = 1.988125 g / cm^3
# Si number density = 19.926602 Si / 1000 Ang^3
#
#
#
# Elastic Constant Matrix: (Units=GPa)
#
#
# Indices 1 2 3 4 5 6 
#
# 1 45.9408 12.0821 10.7640 0.0000 0.8639 0.0000
# 2 12.0821 125.1167 40.5759 0.0000 8.1683 0.0000
# 3 10.7640 40.5759 101.3543 0.0000 19.2043 0.0000
# 4 0.0000 0.0000 0.0000 -92.4801 0.0000 -39.4405
# 5 0.8639 8.1683 19.2043 0.0000 26.2979 0.0000
# 6 0.0000 0.0000 0.0000 -39.4405 0.0000 8.7939
#
#
#
# Elastic Compliance Matrix: (Units=1/GPa)
#
#
# Indices 1 2 3 4 5 6 
#
# 1 0.022636 -0.001621 -0.001984 0.000000 0.001209 0.000000
# 2 -0.001621 0.009302 -0.003498 0.000000 -0.000281 0.000000
# 3 -0.001984 -0.003498 0.013068 0.000000 -0.008391 0.000000
# 4 0.000000 0.000000 0.000000 -0.003712 0.000000 -0.016650
# 5 0.001209 -0.000281 -0.008391 0.000000 0.044201 0.000000
# 6 0.000000 0.000000 0.000000 -0.016650 0.000000 0.039041
#
#
# Mechanical properties :
#
#
# Convention : Reuss Voigt Hill
#
# Bulk Modulus (GPa) = 32.46994 44.36176 38.41585
# Shear Modulus (GPa) = 33.55529 2.45500 18.00515
#
# Velocity S-wave (km/s) = 4.10804 1.11117 3.00921
# Velocity P-wave (km/s) = 6.23149 4.89461 5.60306
#
# Compressibility (1/GPa) = 0.03079772
#
# Stress axis : x y z
#
# Youngs Moduli (GPa) = 44.17809 107.50331 76.52569
#
# Poissons Ratio (x) = 0.17431 0.15182
# Poissons Ratio (y) = 0.07163 0.26772
# Poissons Ratio (z) = 0.08764 0.37610
#
# Static dielectric constant tensor:
#      x y z
#    x 3.546680 0.000000 -0.089690 
#    y 0.000000 3.982400 0.000000 
#    z -0.089690 0.000000 3.641020 
# 
# 
# High freq. dielectric constant tensor:
#      x y z
#    x 1.766250 0.000000 -0.009660 
#    y 0.000000 1.792150 0.000000 
#    z -0.009660 0.000000 1.768940 
# 
# From -- ./inp_files/112011.got.cif
#   From: 2010.06.25/outbox.cif.g09.slc.cpg/sg12_57_cif.got.tgz:112011.got - 2010.06.28 00:19:55.
