data_PCOD8102480
_publ_section_title
;
Structure prediction by ZEFSAII (Michael W. Deem and Ramdas Pophale) SiO2 
 PCOD8102480
Probable space group: C 2/M
;
_chemical_formula_sum "Si O2"
_cell_formula_units_Z 48
_cell_length_a 10.878245
_cell_length_b 15.212643
_cell_length_c 20.575175
_cell_angle_alpha 90.000000
_cell_angle_beta 39.826318
_cell_angle_gamma 90.000000
_cell_volume 2180.724361
_symmetry_space_group_name_H-M "C 2/M"
_symmetry_group_IT_number 12
_symmetry_cell_setting 'monoclinic'
loop_
_space_group_symop_operation_xyz
x,y,z
-x,y,-z
-x,-y,-z
x,-y,z
1/2+x,1/2+y,z
1/2-x,1/2+y,-z
1/2-x,1/2-y,-z
1/2+x,1/2-y,z
loop_
_atom_site_type_symbol
_atom_site_label
_atom_site_fract_x
_atom_site_fract_y
_atom_site_fract_z
Si Si1 0.913919 0.714478 0.296122
Si Si2 0.855080 0.819450 0.118691
Si Si3 0.906459 0.500000 0.965161
Si Si4 0.174724 0.899891 0.475288
Si Si5 0.355452 0.852662 0.188127
Si Si6 0.440169 0.401584 0.329365
Si Si7 0.486079 0.500000 0.084290
O O1 0.137036 0.701658 0.188357
O O2 0.856088 0.818720 0.322723
O O3 0.853053 0.665555 0.387507
O O4 0.802866 0.661349 0.284968
O O5 0.925521 0.742327 0.136438
O O6 0.868348 0.912435 0.151383
O O7 0.000000 0.820893 0.000000
O O8 0.968307 0.415714 0.898704
O O9 0.676719 0.500000 0.052160
O O10 0.000000 0.500000 0.000000
O O11 0.000000 0.870706 0.500000
O O12 0.123676 0.889153 0.570955
O O13 0.234885 0.000000 0.435311
O O14 0.169751 0.894354 0.229581
O O15 0.378958 0.500000 0.328796
O O16 0.500000 0.500000 0.000000
#
# Coordination Sequence:
#
# PCOD8102480 Si02
#       7
#     8   8   4   8   8   8   4
#     4  11  23  37  68  93 127 177 216 280 337 409
#     4  10  23  41  59  89 128 170 221 269 333 400
#     4  12  26  40  68  98 132 183 236 293 339 404
#     4  10  20  36  65  98 128 164 218 279 342 408
#     4  11  22  39  63  93 125 170 226 277 331 401
#     4  10  21  41  62  96 130 163 215 279 340 410
#     4  10  22  42  62  89 129 176 216 282 339 399
#
# _framework density 22.011036000000001
#
# number of rings (size 3 to 8) (size 9 to 14) (size 15 to 20)
#    0.000    1.500    2.500    3.000    2.333    5.333 
#    1.500    0.000    0.000    0.500    0.000    0.000 
#    0.000    0.000    0.000    0.000    0.000    0.000 
#
# Total GULP energy -297388.892097 kJ/mol
# GULP energy per Si atom -12391.203837 kJ/mol
# Density = 2.196094 g / cm^3
# Si number density = 22.011036 Si / 1000 Ang^3
#
#
#
# Elastic Constant Matrix: (Units=GPa)
#
#
# Indices 1 2 3 4 5 6 
#
# 1 55.3909 21.5046 -0.4123 -0.0008 7.4156 0.0007
# 2 21.5046 184.9729 45.3623 -0.0014 7.8858 0.0016
# 3 -0.4123 45.3623 81.1678 -0.0045 -2.1260 0.0041
# 4 -0.0008 -0.0014 -0.0045 40.8404 0.0031 8.9621
# 5 7.4156 7.8858 -2.1260 0.0031 20.8502 -0.0033
# 6 0.0007 0.0016 0.0041 8.9621 -0.0033 33.9514
#
#
#
# Elastic Compliance Matrix: (Units=1/GPa)
#
#
# Indices 1 2 3 4 5 6 
#
# 1 0.019781 -0.002351 0.001257 0.000001 -0.006018 -0.000001
# 2 -0.002351 0.006704 -0.003813 0.000000 -0.002088 0.000000
# 3 0.001257 -0.003813 0.014522 0.000002 0.002476 -0.000002
# 4 0.000001 0.000000 0.000002 0.025991 -0.000005 -0.006861
# 5 -0.006018 -0.002088 0.002476 -0.000005 0.051144 0.000006
# 6 -0.000001 0.000000 -0.000002 -0.006861 0.000006 0.031265
#
#
# Mechanical properties :
#
#
# Convention : Reuss Voigt Hill
#
# Bulk Modulus (GPa) = 32.05908 50.49343 41.27626
# Shear Modulus (GPa) = 29.47767 36.13353 32.80560
#
# Velocity S-wave (km/s) = 3.66351 4.05607 3.86478
# Velocity P-wave (km/s) = 5.70015 6.70265 6.22162
#
# Compressibility (1/GPa) = 0.03119241
#
# Stress axis : x y z
#
# Youngs Moduli (GPa) = 50.55244 149.17121 68.85902
#
# Poissons Ratio (x) = 0.35077 -0.08656
# Poissons Ratio (y) = 0.11887 0.26257
# Poissons Ratio (z) = -0.06354 0.56881
#
# Static dielectric constant tensor:
#      x y z
#    x 3.691380 0.000010 0.142330 
#    y 0.000010 4.694910 0.000010 
#    z 0.142330 0.000010 3.893760 
# 
# 
# High freq. dielectric constant tensor:
#      x y z
#    x 1.827860 0.000000 0.005130 
#    y 0.000000 1.893400 0.000000 
#    z 0.005130 0.000000 1.864280 
# 
# From -- ./inp_files/305652.got.cif
#   From: 2010.06.25/outbox.cif.g09.slc.cpg/sg12_153_cif.got.tgz:305652.got - 2010.06.28 00:19:55.
