data_PCOD8102780
_publ_section_title
;
Structure prediction by ZEFSAII (Michael W. Deem and Ramdas Pophale) SiO2 
 PCOD8102780
Probable space group: C 2/M
;
_chemical_formula_sum "Si O2"
_cell_formula_units_Z 48
_cell_length_a 29.056515
_cell_length_b 9.336093
_cell_length_c 14.687470
_cell_angle_alpha 90.000000
_cell_angle_beta 141.005778
_cell_angle_gamma 90.000000
_cell_volume 2507.110064
_symmetry_space_group_name_H-M "C 2/M"
_symmetry_group_IT_number 12
_symmetry_cell_setting 'monoclinic'
loop_
_space_group_symop_operation_xyz
x,y,z
-x,y,-z
-x,-y,-z
x,-y,z
1/2+x,1/2+y,z
1/2-x,1/2+y,-z
1/2-x,1/2-y,-z
1/2+x,1/2-y,z
loop_
_atom_site_type_symbol
_atom_site_label
_atom_site_fract_x
_atom_site_fract_y
_atom_site_fract_z
Si Si1 0.927824 0.334396 0.946521
Si Si2 0.750858 0.664436 0.093851
Si Si3 0.492875 0.664716 0.589294
Si Si4 0.327294 0.336276 0.361287
Si Si5 0.225784 0.668191 0.373042
Si Si6 0.912784 0.164303 0.102716
O O1 0.918064 0.500000 0.956562
O O2 0.855697 0.281912 0.781281
O O3 0.940185 0.249986 0.058144
O O4 0.000000 0.304757 0.000000
O O5 0.771497 0.500000 0.106250
O O6 0.810345 0.734175 0.250886
O O7 0.750000 0.750000 0.000000
O O8 0.673684 0.678667 0.024683
O O9 0.500000 0.738634 0.500000
O O10 0.515347 0.500000 0.610751
O O11 0.413188 0.681684 0.511475
O O12 0.550184 0.732076 0.749401
O O13 0.307504 0.500000 0.304634
O O14 0.282798 0.288694 0.381836
O O15 0.228078 0.500000 0.397238
O O16 0.250000 0.750000 0.500000
O O17 0.937725 0.000000 0.129424
#
# Coordination Sequence:
#
# PCOD8102780 Si02
#       6
#     8   8   8   8   8   8
#     4  10  22  40  59  82 114 152 186 229 291 344
#     4  11  22  36  58  86 114 148 188 233 283 337
#     4   9  18  34  56  82 113 146 183 228 278 331
#     4  10  20  37  59  82 112 149 186 233 286 334
#     4  10  22  38  58  84 113 148 190 233 284 340
#     4  10  21  37  59  86 112 147 193 236 277 330
#
# _framework density 19.14555
#
# number of rings (size 3 to 8) (size 9 to 14) (size 15 to 20)
#    0.000    2.000    1.667    1.500    2.333    5.000 
#    0.000    0.833    0.000    2.000    0.000    0.000 
#    0.000    0.000    0.000    0.000    0.000    0.000 
#
# Total GULP energy -297641.088097 kJ/mol
# GULP energy per Si atom -12401.712004 kJ/mol
# Density = 1.910197 g / cm^3
# Si number density = 19.145550 Si / 1000 Ang^3
#
#
#
# Elastic Constant Matrix: (Units=GPa)
#
#
# Indices 1 2 3 4 5 6 
#
# 1 94.4664 33.1104 31.9130 0.0000 -11.8852 0.0000
# 2 33.1104 60.1781 22.6556 0.0000 -16.7620 0.0000
# 3 31.9130 22.6556 103.4386 0.0000 -18.0524 0.0000
# 4 0.0000 0.0000 0.0000 26.0642 0.0000 -11.4694
# 5 -11.8852 -16.7620 -18.0524 0.0000 39.5125 0.0000
# 6 0.0000 0.0000 0.0000 -11.4694 0.0000 27.0377
#
#
#
# Elastic Compliance Matrix: (Units=1/GPa)
#
#
# Indices 1 2 3 4 5 6 
#
# 1 0.013839 -0.006522 -0.002822 0.000000 0.000106 0.000000
# 2 -0.006522 0.022796 -0.001777 0.000000 0.006897 0.000000
# 3 -0.002822 -0.001777 0.011570 0.000000 0.003683 0.000000
# 4 0.000000 0.000000 0.000000 0.047172 0.000000 0.020011
# 5 0.000106 0.006897 0.003683 0.000000 0.029949 0.000000
# 6 0.000000 0.000000 0.000000 0.020011 0.000000 0.045474
#
#
# Mechanical properties :
#
#
# Convention : Reuss Voigt Hill
#
# Bulk Modulus (GPa) = 38.51788 48.16011 43.33900
# Shear Modulus (GPa) = 24.78968 29.88316 27.33642
#
# Velocity S-wave (km/s) = 3.60224 3.95503 3.78275
# Velocity P-wave (km/s) = 6.12075 6.78717 6.46256
#
# Compressibility (1/GPa) = 0.02596197
#
# Stress axis : x y z
#
# Youngs Moduli (GPa) = 72.26190 43.86783 86.42724
#
# Poissons Ratio (x) = 0.28610 0.24394
# Poissons Ratio (y) = 0.47128 0.15359
# Poissons Ratio (z) = 0.20396 0.07796
#
# Static dielectric constant tensor:
#      x y z
#    x 3.511890 0.000000 -0.239820 
#    y 0.000000 3.316470 0.000000 
#    z -0.239820 0.000000 2.404250 
# 
# 
# High freq. dielectric constant tensor:
#      x y z
#    x 1.753710 0.000000 0.001260 
#    y 0.000000 1.719940 0.000000 
#    z 0.001260 0.000000 1.756040 
# 
# From -- ./inp_files/244839.got.cif
#   From: 2010.06.25/outbox.cif.g09.slc.cpg/sg12_123_cif.got.tgz:244839.got - 2010.06.28 00:19:55.
