data_PCOD8102873
_publ_section_title
;
Structure prediction by ZEFSAII (Michael W. Deem and Ramdas Pophale) SiO2 
 PCOD8102873
Probable space group: C 2/M
;
_chemical_formula_sum "Si O2"
_cell_formula_units_Z 64
_cell_length_a 15.337749
_cell_length_b 8.805447
_cell_length_c 23.870767
_cell_angle_alpha 90.000000
_cell_angle_beta 90.384141
_cell_angle_gamma 90.000000
_cell_volume 3223.811547
_symmetry_space_group_name_H-M "C 2/M"
_symmetry_group_IT_number 12
_symmetry_cell_setting 'monoclinic'
loop_
_space_group_symop_operation_xyz
x,y,z
-x,y,-z
-x,-y,-z
x,-y,z
1/2+x,1/2+y,z
1/2-x,1/2+y,-z
1/2-x,1/2-y,-z
1/2+x,1/2-y,z
loop_
_atom_site_type_symbol
_atom_site_label
_atom_site_fract_x
_atom_site_fract_y
_atom_site_fract_z
Si Si1 0.647122 0.321081 0.356707
Si Si2 0.505165 0.320770 0.562525
Si Si3 0.654234 0.177594 0.761236
Si Si4 0.846522 0.324046 0.365835
Si Si5 0.751943 0.321775 0.060549
Si Si6 0.339105 0.177977 0.757791
Si Si7 0.094983 0.174323 0.137590
Si Si8 0.401308 0.326954 0.131035
O O1 0.640293 0.500000 0.343935
O O2 0.580586 0.266447 0.404359
O O3 0.745555 0.278765 0.375513
O O4 0.620016 0.228957 0.301127
O O5 0.500000 0.251469 0.500000
O O6 0.507157 0.500000 0.559757
O O7 0.594307 0.269564 0.591733
O O8 0.625406 0.215705 0.697680
O O9 0.753843 0.224143 0.770648
O O10 0.596579 0.272789 0.804306
O O11 0.644693 0.000000 0.774079
O O12 0.860995 0.500000 0.378420
O O13 0.750687 0.500000 0.053000
O O14 0.666901 0.266162 0.094068
O O15 0.839111 0.276017 0.093452
O O16 0.750000 0.250000 0.000000
O O17 0.405655 0.218417 0.807673
O O18 0.318126 0.000000 0.756479
O O19 0.999897 0.187945 0.108548
O O20 0.113611 0.000000 0.155167
O O21 0.368166 0.500000 0.127916
#
# Coordination Sequence:
#
# PCOD8102873 Si02
#       8
#     8   8   8   8   8   8   8   8
#     4   9  20  39  58  80 117 159 192 238 306 362
#     4  10  22  39  59  84 115 154 201 247 295 357
#     4  10  20  37  59  86 125 161 192 241 309 362
#     4   9  20  37  57  82 115 155 195 239 296 358
#     4  11  24  44  67  88 122 167 206 254 303 353
#     4  11  21  34  59  91 121 154 202 250 292 357
#     4  10  23  41  61  88 125 164 197 242 309 361
#     4  11  23  39  62  93 122 158 206 248 296 362
#
# _framework density 19.852277999999998
#
# number of rings (size 3 to 8) (size 9 to 14) (size 15 to 20)
#    0.000    1.875    1.250    3.000    1.750    5.750 
#    0.000    2.500    0.000    0.000    0.000    0.000 
#    0.000    0.000    0.000    0.000    0.000    0.000 
#
# Total GULP energy -396874.861451 kJ/mol
# GULP energy per Si atom -12402.339420 kJ/mol
# Density = 1.980709 g / cm^3
# Si number density = 19.852278 Si / 1000 Ang^3
#
#
#
# Elastic Constant Matrix: (Units=GPa)
#
#
# Indices 1 2 3 4 5 6 
#
# 1 112.3883 24.1924 68.2151 0.0000 -4.6438 0.0000
# 2 24.1924 43.5168 35.7869 0.0000 -3.7572 0.0000
# 3 68.2151 35.7869 141.3913 0.0000 -5.8855 0.0000
# 4 0.0000 0.0000 0.0000 31.6345 0.0000 5.9086
# 5 -4.6438 -3.7572 -5.8855 0.0000 21.3197 0.0000
# 6 0.0000 0.0000 0.0000 5.9086 0.0000 28.2319
#
#
#
# Elastic Compliance Matrix: (Units=1/GPa)
#
#
# Indices 1 2 3 4 5 6 
#
# 1 0.012821 -0.002523 -0.005513 0.000000 0.000826 0.000000
# 2 -0.002523 0.029723 -0.006182 0.000000 0.002982 0.000000
# 3 -0.005513 -0.006182 0.011332 0.000000 0.000838 0.000000
# 4 0.000000 0.000000 0.000000 0.032897 0.000000 -0.006885
# 5 0.000826 0.002982 0.000838 0.000000 0.047842 0.000000
# 6 0.000000 0.000000 0.000000 -0.006885 0.000000 0.036862
#
#
# Mechanical properties :
#
#
# Convention : Reuss Voigt Hill
#
# Bulk Modulus (GPa) = 39.30598 61.52058 50.41328
# Shear Modulus (GPa) = 23.99330 27.51069 25.75200
#
# Velocity S-wave (km/s) = 3.48025 3.72663 3.60555
# Velocity P-wave (km/s) = 5.99931 7.04085 6.54084
#
# Compressibility (1/GPa) = 0.02544142
#
# Stress axis : x y z
#
# Youngs Moduli (GPa) = 77.99818 33.64350 88.24816
#
# Poissons Ratio (x) = 0.08488 0.48647
# Poissons Ratio (y) = 0.19678 0.54554
# Poissons Ratio (z) = 0.42997 0.20798
#
# Static dielectric constant tensor:
#      x y z
#    x 3.636120 0.000000 -0.103280 
#    y 0.000000 3.508860 0.000000 
#    z -0.103280 0.000000 3.823240 
# 
# 
# High freq. dielectric constant tensor:
#      x y z
#    x 1.778030 0.000000 -0.002880 
#    y 0.000000 1.770740 0.000000 
#    z -0.002880 0.000000 1.770220 
# 
# From -- ./inp_files/338777.got.cif
#   From: 2010.06.25/outbox.cif.g09.slc.cpg/sg12_170_cif.got.tgz:338777.got - 2010.06.28 00:19:55.
