data_PCOD8102390
_publ_section_title
;
Structure prediction by ZEFSAII (Michael W. Deem and Ramdas Pophale) SiO2 
 PCOD8102390
Probable space group: C 2/M
;
_chemical_formula_sum "Si O2"
_cell_formula_units_Z 40
_cell_length_a 8.746292
_cell_length_b 12.266483
_cell_length_c 14.943689
_cell_angle_alpha 90.000000
_cell_angle_beta 109.508235
_cell_angle_gamma 90.000000
_cell_volume 1511.215143
_symmetry_space_group_name_H-M "C 2/M"
_symmetry_group_IT_number 12
_symmetry_cell_setting 'monoclinic'
loop_
_space_group_symop_operation_xyz
x,y,z
-x,y,-z
-x,-y,-z
x,-y,z
1/2+x,1/2+y,z
1/2-x,1/2+y,-z
1/2-x,1/2-y,-z
1/2+x,1/2-y,z
loop_
_atom_site_type_symbol
_atom_site_label
_atom_site_fract_x
_atom_site_fract_y
_atom_site_fract_z
Si Si1 0.902003 0.323062 0.397957
Si Si2 0.474233 0.625972 0.658140
Si Si3 0.181743 0.869988 0.031049
Si Si4 0.039117 0.375034 0.790263
Si Si5 0.260451 0.629916 0.155298
O O1 0.714396 0.348906 0.371572
O O2 0.972935 0.369416 0.319158
O O3 0.000000 0.376661 0.500000
O O4 0.941099 0.193215 0.405707
O O5 0.506866 0.500000 0.645224
O O6 0.564108 0.667112 0.767739
O O7 0.292557 0.823469 0.135961
O O8 0.174828 0.000000 0.034984
O O9 0.263121 0.831342 0.952634
O O10 0.000000 0.823111 0.000000
O O11 0.045428 0.500000 0.820956
O O12 0.881270 0.324412 0.808001
O O13 0.265161 0.500000 0.155989
#
# Coordination Sequence:
#
# PCOD8102390 Si02
#       5
#     8   8   8   8   8
#     4  12  26  46  70 101 139 182 239 298 348 414
#     4  11  25  46  72 102 140 184 231 290 357 419
#     4   9  16  29  55  94 138 183 230 282 346 419
#     4  10  20  36  62  97 139 187 235 289 353 416
#     4   9  18  35  61  95 137 182 228 283 349 421
#
# _framework density 26.468765999999999
#
# number of rings (size 3 to 8) (size 9 to 14) (size 15 to 20)
#    0.000    1.800    0.000    4.200    0.000    7.600 
#    0.000    4.000    0.000    0.000    0.000    0.000 
#    0.000    0.000    0.000    0.000    0.000    0.000 
#
# Total GULP energy -248036.286867 kJ/mol
# GULP energy per Si atom -12401.814343 kJ/mol
# Density = 2.640852 g / cm^3
# Si number density = 26.468766 Si / 1000 Ang^3
#
#
#
# Elastic Constant Matrix: (Units=GPa)
#
#
# Indices 1 2 3 4 5 6 
#
# 1 165.3212 31.1534 101.1238 0.0000 30.8657 0.0000
# 2 31.1534 53.7630 31.0369 0.0000 9.0891 0.0000
# 3 101.1238 31.0369 222.0440 0.0000 24.3845 0.0000
# 4 0.0000 0.0000 0.0000 28.3053 0.0000 -4.4701
# 5 30.8657 9.0891 24.3845 0.0000 42.6086 0.0000
# 6 0.0000 0.0000 0.0000 -4.4701 0.0000 36.0073
#
#
#
# Elastic Compliance Matrix: (Units=1/GPa)
#
#
# Indices 1 2 3 4 5 6 
#
# 1 0.009493 -0.002774 -0.003463 0.000000 -0.004303 0.000000
# 2 -0.002774 0.021380 -0.001542 0.000000 -0.001669 0.000000
# 3 -0.003463 -0.001542 0.006386 0.000000 -0.000817 0.000000
# 4 0.000000 0.000000 0.000000 0.036036 0.000000 0.004474
# 5 -0.004303 -0.001669 -0.000817 0.000000 0.027410 0.000000
# 6 0.000000 0.000000 0.000000 0.004474 0.000000 0.028327
#
#
# Mechanical properties :
#
#
# Convention : Reuss Voigt Hill
#
# Bulk Modulus (GPa) = 46.08081 85.30625 65.69353
# Shear Modulus (GPa) = 32.93275 39.90519 36.41897
#
# Velocity S-wave (km/s) = 3.53117 3.88704 3.71337
# Velocity P-wave (km/s) = 5.83719 7.24185 6.57713
#
# Compressibility (1/GPa) = 0.02170101
#
# Stress axis : x y z
#
# Youngs Moduli (GPa) = 105.33655 46.77305 156.59177
#
# Poissons Ratio (x) = 0.12976 0.54230
# Poissons Ratio (y) = 0.29223 0.24142
# Poissons Ratio (z) = 0.36479 0.07211
#
# Static dielectric constant tensor:
#      x y z
#    x 4.722860 0.000000 0.215730 
#    y 0.000000 5.428310 0.000000 
#    z 0.215730 0.000000 5.014050 
# 
# 
# High freq. dielectric constant tensor:
#      x y z
#    x 2.054810 0.000000 0.014370 
#    y 0.000000 2.114000 0.000000 
#    z 0.014370 0.000000 2.067450 
# 
# From -- ./inp_files/194675.got.cif
#   From: 2010.06.25/outbox.cif.g09.slc.cpg/sg12_98_cif.got.tgz:194675.got - 2010.06.28 00:19:55.
