data_PCOD8102114
_publ_section_title
;
Structure prediction by ZEFSAII (Michael W. Deem and Ramdas Pophale) SiO2 
 PCOD8102114
Probable space group: C 2/M
;
_chemical_formula_sum "Si O2"
_cell_formula_units_Z 64
_cell_length_a 15.183156
_cell_length_b 8.649529
_cell_length_c 27.567361
_cell_angle_alpha 90.000000
_cell_angle_beta 121.076716
_cell_angle_gamma 90.000000
_cell_volume 3100.740152
_symmetry_space_group_name_H-M "C 2/M"
_symmetry_group_IT_number 12
_symmetry_cell_setting 'monoclinic'
loop_
_space_group_symop_operation_xyz
x,y,z
-x,y,-z
-x,-y,-z
x,-y,z
1/2+x,1/2+y,z
1/2-x,1/2+y,-z
1/2-x,1/2-y,-z
1/2+x,1/2-y,z
loop_
_atom_site_type_symbol
_atom_site_label
_atom_site_fract_x
_atom_site_fract_y
_atom_site_fract_z
Si Si1 0.792467 0.179878 0.622337
Si Si2 0.497908 0.320497 0.853724
Si Si3 0.655395 0.821527 0.262644
Si Si4 0.483239 0.179859 0.634075
Si Si5 0.789041 0.177963 0.129424
Si Si6 0.926248 0.817657 0.937517
Si Si7 0.575088 0.320234 0.565094
Si Si8 0.647193 0.679493 0.746411
O O1 0.838982 0.217612 0.688104
O O2 0.876035 0.227196 0.605601
O O3 0.689867 0.276085 0.582277
O O4 0.767061 0.000000 0.610925
O O5 0.467642 0.500000 0.839128
O O6 0.444709 0.224329 0.796080
O O7 0.620682 0.298095 0.884126
O O8 0.461782 0.252835 0.895250
O O9 0.755364 0.788200 0.259332
O O10 0.648220 0.000000 0.276067
O O11 0.544045 0.222787 0.603000
O O12 0.551781 0.221260 0.700281
O O13 0.458065 0.000000 0.627462
O O14 0.690590 0.273047 0.083786
O O15 0.826914 0.238462 0.192436
O O16 0.756096 0.000000 0.124650
O O17 0.937571 0.000000 0.940270
O O18 0.000000 0.746634 0.000000
O O19 0.500000 0.277897 0.500000
O O20 0.570441 0.500000 0.577538
O O21 0.615052 0.500000 0.737103
#
# Coordination Sequence:
#
# PCOD8102114 Si02
#       8
#     8   8   8   8   8   8   8   8
#     4  12  25  42  66  94 128 167 207 253 307 368
#     4  10  21  37  59  85 118 157 199 244 301 366
#     4  11  21  36  62  93 125 157 198 249 304 367
#     4  12  25  41  66  97 129 166 208 253 309 370
#     4  10  21  38  59  85 114 152 196 243 298 359
#     4  10  22  39  57  81 115 154 198 250 301 354
#     4  11  25  46  69  93 125 165 211 262 311 363
#     4  10  20  36  60  89 126 159 194 250 309 365
#
# _framework density 20.640234
#
# number of rings (size 3 to 8) (size 9 to 14) (size 15 to 20)
#    0.000    1.250    2.500    3.750    0.000    4.750 
#    0.000    0.000    0.000    0.000    0.000    0.000 
#    0.000    0.000    0.000    0.000    0.000    0.000 
#
# Total GULP energy -397020.275758 kJ/mol
# GULP energy per Si atom -12406.883617 kJ/mol
# Density = 2.059326 g / cm^3
# Si number density = 20.640234 Si / 1000 Ang^3
#
#
#
# Elastic Constant Matrix: (Units=GPa)
#
#
# Indices 1 2 3 4 5 6 
#
# 1 87.6225 13.5540 24.7225 0.0000 23.3604 0.0000
# 2 13.5540 47.7799 22.8885 0.0000 0.5298 0.0000
# 3 24.7225 22.8885 116.7711 0.0000 19.5518 0.0000
# 4 0.0000 0.0000 0.0000 24.8585 0.0000 8.5898
# 5 23.3604 0.5298 19.5518 0.0000 21.0061 0.0000
# 6 0.0000 0.0000 0.0000 8.5898 0.0000 28.5622
#
#
#
# Elastic Compliance Matrix: (Units=1/GPa)
#
#
# Indices 1 2 3 4 5 6 
#
# 1 0.017237 -0.004963 0.000607 0.000000 -0.019608 0.000000
# 2 -0.004963 0.024860 -0.005498 0.000000 0.010010 0.000000
# 3 0.000607 -0.005498 0.011376 0.000000 -0.011124 0.000000
# 4 0.000000 0.000000 0.000000 0.044893 0.000000 -0.013501
# 5 -0.019608 0.010010 -0.011124 0.000000 0.079512 0.000000
# 6 0.000000 0.000000 0.000000 -0.013501 0.000000 0.039072
#
#
# Mechanical properties :
#
#
# Convention : Reuss Voigt Hill
#
# Bulk Modulus (GPa) = 29.61773 41.61150 35.61462
# Shear Modulus (GPa) = 20.16842 27.61925 23.89383
#
# Velocity S-wave (km/s) = 3.12932 3.66201 3.40609
# Velocity P-wave (km/s) = 5.23808 6.17127 5.72373
#
# Compressibility (1/GPa) = 0.03376355
#
# Stress axis : x y z
#
# Youngs Moduli (GPa) = 58.01593 40.22531 87.90743
#
# Poissons Ratio (x) = 0.19963 -0.05332
# Poissons Ratio (y) = 0.28792 0.48333
# Poissons Ratio (z) = -0.03519 0.22116
#
# Static dielectric constant tensor:
#      x y z
#    x 3.855190 0.000000 -0.007680 
#    y 0.000000 3.618220 0.000000 
#    z -0.007680 0.000000 3.754070 
# 
# 
# High freq. dielectric constant tensor:
#      x y z
#    x 1.821810 0.000000 0.006090 
#    y 0.000000 1.799830 0.000000 
#    z 0.006090 0.000000 1.802660 
# 
# From -- ./inp_files/375536.got.cif
#   From: 2010.06.25/outbox.cif.g09.slc.cpg/sg12_188_cif.got.tgz:375536.got - 2010.06.28 00:19:55.
