data_PCOD8102246
_publ_section_title
;
Structure prediction by ZEFSAII (Michael W. Deem and Ramdas Pophale) SiO2 
 PCOD8102246
Probable space group: C 2/M
;
_chemical_formula_sum "Si O2"
_cell_formula_units_Z 48
_cell_length_a 20.192235
_cell_length_b 19.219651
_cell_length_c 18.229344
_cell_angle_alpha 90.000000
_cell_angle_beta 159.233192
_cell_angle_gamma 90.000000
_cell_volume 2508.402475
_symmetry_space_group_name_H-M "C 2/M"
_symmetry_group_IT_number 12
_symmetry_cell_setting 'monoclinic'
loop_
_space_group_symop_operation_xyz
x,y,z
-x,y,-z
-x,-y,-z
x,-y,z
1/2+x,1/2+y,z
1/2-x,1/2+y,-z
1/2-x,1/2-y,-z
1/2+x,1/2-y,z
loop_
_atom_site_type_symbol
_atom_site_label
_atom_site_fract_x
_atom_site_fract_y
_atom_site_fract_z
Si Si1 0.431661 0.202157 0.009303
Si Si2 0.409989 0.801027 0.329547
Si Si3 0.723996 0.079223 0.909994
Si Si4 0.492982 0.922072 0.812945
Si Si5 0.854962 0.922212 0.631092
Si Si6 0.249788 0.716854 0.580685
O O1 0.417229 0.128960 0.035684
O O2 0.577245 0.252585 0.197526
O O3 0.500000 0.183406 0.000000
O O4 0.231621 0.238479 0.801656
O O5 0.500000 0.823892 0.500000
O O6 0.558631 0.769195 0.426044
O O7 0.305255 0.868446 0.188044
O O8 0.926477 0.090416 0.157729
O O9 0.704722 0.000000 0.860964
O O10 0.572173 0.096068 0.814527
O O11 0.266862 0.913589 0.570465
O O12 0.548557 0.000000 0.894390
O O13 0.781750 0.866148 0.613620
O O14 0.820010 0.000000 0.627015
O O15 0.250000 0.750000 0.500000
#
# Coordination Sequence:
#
# PCOD8102246 Si02
#       6
#     8   8   8   8   8   8
#     4  12  25  41  61  88 127 163 204 257 311 365
#     4  12  25  39  60  88 128 166 202 251 307 367
#     4  10  21  38  62  92 122 158 204 252 299 363
#     4  10  22  40  64  90 117 156 205 254 306 366
#     4  10  20  36  61  90 121 152 197 253 303 355
#     4  12  23  39  64  92 118 165 213 257 304 364
#
# _framework density 19.135686
#
# number of rings (size 3 to 8) (size 9 to 14) (size 15 to 20)
#    0.000    1.000    6.667    0.000    2.333    2.000 
#    0.000    0.000    0.000    3.500    0.000    0.000 
#    0.000    0.000    0.000    0.000    0.000    0.000 
#
# Total GULP energy -297578.637439 kJ/mol
# GULP energy per Si atom -12399.109893 kJ/mol
# Density = 1.909213 g / cm^3
# Si number density = 19.135686 Si / 1000 Ang^3
#
#
#
# Elastic Constant Matrix: (Units=GPa)
#
#
# Indices 1 2 3 4 5 6 
#
# 1 94.5269 57.0414 42.5087 0.0155 -2.5742 0.0130
# 2 57.0414 130.4692 47.1047 0.0288 -11.5524 0.0267
# 3 42.5087 47.1047 105.2221 0.0277 0.8261 0.0241
# 4 0.0155 0.0288 0.0277 24.1555 0.0314 4.3703
# 5 -2.5742 -11.5524 0.8261 0.0314 34.4620 0.0253
# 6 0.0130 0.0267 0.0241 4.3703 0.0253 15.2500
#
#
#
# Elastic Compliance Matrix: (Units=1/GPa)
#
#
# Indices 1 2 3 4 5 6 
#
# 1 0.015601 -0.005485 -0.003843 0.000001 -0.000581 0.000003
# 2 -0.005485 0.011429 -0.002928 -0.000009 0.003492 -0.000014
# 3 -0.003843 -0.002928 0.012379 -0.000005 -0.001565 -0.000007
# 4 0.000001 -0.000009 -0.000005 0.043662 -0.000033 -0.012513
# 5 -0.000581 0.003492 -0.001565 -0.000033 0.030182 -0.000044
# 6 0.000003 -0.000014 -0.000007 -0.012513 -0.000044 0.069160
#
#
# Mechanical properties :
#
#
# Convention : Reuss Voigt Hill
#
# Bulk Modulus (GPa) = 67.12278 69.28087 68.20183
# Shear Modulus (GPa) = 23.59710 27.01106 25.30408
#
# Velocity S-wave (km/s) = 3.51543 3.76114 3.64036
# Velocity P-wave (km/s) = 7.18548 7.42598 7.30672
#
# Compressibility (1/GPa) = 0.01489807
#
# Stress axis : x y z
#
# Youngs Moduli (GPa) = 64.09832 87.49713 80.78100
#
# Poissons Ratio (x) = 0.47991 0.31041
# Poissons Ratio (y) = 0.35157 0.23652
# Poissons Ratio (z) = 0.24631 0.25619
#
# Static dielectric constant tensor:
#      x y z
#    x 3.197340 0.000040 0.235950 
#    y 0.000040 3.507260 -0.000060 
#    z 0.235950 -0.000060 3.630710 
# 
# 
# High freq. dielectric constant tensor:
#      x y z
#    x 1.716390 0.000000 0.014650 
#    y 0.000000 1.757300 0.000000 
#    z 0.014650 0.000000 1.760690 
# 
# From -- ./inp_files/285339.got.cif
#   From: 2010.06.25/outbox.cif.g09.slc.cpg/sg12_143_cif.got.tgz:285339.got - 2010.06.28 00:19:55.
