data_PCOD8102420
_publ_section_title
;
Structure prediction by ZEFSAII (Michael W. Deem and Ramdas Pophale) SiO2 
 PCOD8102420
Probable space group: C 2/M
;
_chemical_formula_sum "Si O2"
_cell_formula_units_Z 64
_cell_length_a 21.944092
_cell_length_b 12.952505
_cell_length_c 11.570055
_cell_angle_alpha 90.000000
_cell_angle_beta 103.241390
_cell_angle_gamma 90.000000
_cell_volume 3201.136971
_symmetry_space_group_name_H-M "C 2/M"
_symmetry_group_IT_number 12
_symmetry_cell_setting 'monoclinic'
loop_
_space_group_symop_operation_xyz
x,y,z
-x,y,-z
-x,-y,-z
x,-y,z
1/2+x,1/2+y,z
1/2-x,1/2+y,-z
1/2-x,1/2-y,-z
1/2+x,1/2-y,z
loop_
_atom_site_type_symbol
_atom_site_label
_atom_site_fract_x
_atom_site_fract_y
_atom_site_fract_z
Si Si1 0.259334 0.260263 0.141547
Si Si2 0.358151 0.111767 0.907787
Si Si3 0.382601 0.613076 0.179246
Si Si4 0.846762 0.257460 0.546561
Si Si5 0.445655 0.884890 0.728535
Si Si6 0.454591 0.776521 0.088217
Si Si7 0.747339 0.624931 0.351281
Si Si8 0.067391 0.885809 0.553986
O O1 0.199328 0.321096 0.162732
O O2 0.322007 0.322967 0.190146
O O3 0.261420 0.156791 0.222803
O O4 0.250000 0.250000 0.000000
O O5 0.408723 0.103494 0.830466
O O6 0.331057 0.000000 0.928801
O O7 0.393813 0.153566 0.036068
O O8 0.362000 0.500000 0.124994
O O9 0.425386 0.664839 0.100177
O O10 0.427248 0.603520 0.307519
O O11 0.905024 0.321136 0.620937
O O12 0.801983 0.339354 0.462736
O O13 0.813770 0.187635 0.631064
O O14 0.874311 0.179400 0.465413
O O15 0.510368 0.825086 0.785380
O O16 0.460635 0.000000 0.686445
O O17 0.500000 0.763493 0.000000
O O18 0.739084 0.500000 0.353824
O O19 0.000000 0.833302 0.500000
O O20 0.069726 0.000000 0.497168
#
# Coordination Sequence:
#
# PCOD8102420 Si02
#       8
#     8   8   8   8   8   8   8   8
#     4  12  23  43  61  85 124 164 210 264 313 373
#     4  10  20  37  60  87 119 160 204 251 308 364
#     4  11  23  40  61  88 121 159 207 256 308 370
#     4  11  21  41  67  93 129 163 204 261 309 384
#     4  10  20  36  63  92 119 156 200 250 305 365
#     4  10  21  39  61  89 126 160 206 260 306 368
#     4  11  25  42  64  95 129 167 209 265 323 374
#     4  10  21  38  62  89 120 163 203 244 303 369
#
# _framework density 19.992896999999999
#
# number of rings (size 3 to 8) (size 9 to 14) (size 15 to 20)
#    0.000    1.375    3.750    2.250    0.000    2.750 
#    0.000    0.625    0.000    1.500    0.000    0.000 
#    0.000    0.000    0.000    0.000    0.000    0.000 
#
# Total GULP energy -396609.336212 kJ/mol
# GULP energy per Si atom -12394.041757 kJ/mol
# Density = 1.994739 g / cm^3
# Si number density = 19.992897 Si / 1000 Ang^3
#
#
#
# Elastic Constant Matrix: (Units=GPa)
#
#
# Indices 1 2 3 4 5 6 
#
# 1 73.2180 37.8660 12.1214 0.0000 14.8217 0.0000
# 2 37.8660 133.7513 38.5037 0.0000 -1.8705 0.0000
# 3 12.1214 38.5037 86.3045 0.0000 8.9816 0.0000
# 4 0.0000 0.0000 0.0000 29.3738 0.0000 -2.1952
# 5 14.8217 -1.8705 8.9816 0.0000 31.9949 0.0000
# 6 0.0000 0.0000 0.0000 -2.1952 0.0000 23.9253
#
#
#
# Elastic Compliance Matrix: (Units=1/GPa)
#
#
# Indices 1 2 3 4 5 6 
#
# 1 0.018191 -0.005518 0.000842 0.000000 -0.008986 0.000000
# 2 -0.005518 0.010335 -0.004290 0.000000 0.004365 0.000000
# 3 0.000842 -0.004290 0.013854 0.000000 -0.004530 0.000000
# 4 0.000000 0.000000 0.000000 0.034279 0.000000 0.003145
# 5 -0.008986 0.004365 -0.004530 0.000000 0.036945 0.000000
# 6 0.000000 0.000000 0.000000 0.003145 0.000000 0.042085
#
#
# Mechanical properties :
#
#
# Convention : Reuss Voigt Hill
#
# Bulk Modulus (GPa) = 40.90317 52.25068 46.57692
# Shear Modulus (GPa) = 27.50720 30.71098 29.10909
#
# Velocity S-wave (km/s) = 3.71327 3.92356 3.81986
# Velocity P-wave (km/s) = 6.23600 6.83499 6.54236
#
# Compressibility (1/GPa) = 0.02444798
#
# Stress axis : x y z
#
# Youngs Moduli (GPa) = 54.97120 96.76021 72.18152
#
# Poissons Ratio (x) = 0.53394 -0.06078
# Poissons Ratio (y) = 0.30334 0.30966
# Poissons Ratio (z) = -0.04629 0.41510
#
# Static dielectric constant tensor:
#      x y z
#    x 3.640090 0.000000 0.174790 
#    y 0.000000 3.868390 0.000000 
#    z 0.174790 0.000000 3.611120 
# 
# 
# High freq. dielectric constant tensor:
#      x y z
#    x 1.781590 0.000000 0.016150 
#    y 0.000000 1.781790 0.000000 
#    z 0.016150 0.000000 1.777550 
# 
# From -- ./inp_files/175262.got.cif
#   From: 2010.06.25/outbox.cif.g09.slc.cpg/sg12_88_cif.got.tgz:175262.got - 2010.06.28 00:19:55.
