data_PCOD8102278
_publ_section_title
;
Structure prediction by ZEFSAII (Michael W. Deem and Ramdas Pophale) SiO2 
 PCOD8102278
Probable space group: C 2/M
;
_chemical_formula_sum "Si O2"
_cell_formula_units_Z 48
_cell_length_a 15.099516
_cell_length_b 10.553419
_cell_length_c 27.489614
_cell_angle_alpha 90.000000
_cell_angle_beta 148.372110
_cell_angle_gamma 90.000000
_cell_volume 2297.142293
_symmetry_space_group_name_H-M "C 2/M"
_symmetry_group_IT_number 12
_symmetry_cell_setting 'monoclinic'
loop_
_space_group_symop_operation_xyz
x,y,z
-x,y,-z
-x,-y,-z
x,-y,z
1/2+x,1/2+y,z
1/2-x,1/2+y,-z
1/2-x,1/2-y,-z
1/2+x,1/2-y,z
loop_
_atom_site_type_symbol
_atom_site_label
_atom_site_fract_x
_atom_site_fract_y
_atom_site_fract_z
Si Si1 0.777125 0.637836 0.475268
Si Si2 0.182207 0.646064 0.768299
Si Si3 0.349663 0.146882 0.354705
Si Si4 0.941794 0.854372 0.048290
Si Si5 0.197137 0.137791 0.911095
Si Si6 0.435586 0.703374 0.712248
O O1 0.776710 0.500000 0.502080
O O2 0.750000 0.750000 0.500000
O O3 0.634846 0.628431 0.367254
O O4 0.960067 0.657925 0.535716
O O5 0.181887 0.500000 0.758031
O O6 0.149242 0.705253 0.699473
O O7 0.366531 0.685905 0.874631
O O8 0.034054 0.674776 0.737401
O O9 0.223488 0.235372 0.327368
O O10 0.285914 0.000000 0.327946
O O11 0.915604 0.838707 0.093718
O O12 0.902593 0.000000 0.013294
O O13 0.825598 0.754919 0.964685
O O14 0.073743 0.125598 0.807307
O O15 0.290160 0.000000 0.958946
#
# Coordination Sequence:
#
# PCOD8102278 Si02
#       6
#     8   8   8   8   8   8
#     4  11  23  40  64  94 126 164 208 258 310 371
#     4  10  21  39  64  91 125 165 207 257 311 372
#     4  10  20  40  64  88 121 164 208 252 307 371
#     4   9  19  39  64  88 121 167 210 251 306 375
#     4  10  20  36  61  92 125 159 205 261 313 363
#     4  12  22  36  65  96 120 159 215 261 303 368
#
# _framework density 20.895527999999999
#
# number of rings (size 3 to 8) (size 9 to 14) (size 15 to 20)
#    0.000    1.667    3.333    2.000    0.000    2.667 
#    0.000    5.833    0.000    2.000    0.000    0.000 
#    0.000    0.000    0.000    0.000    0.000    0.000 
#
# Total GULP energy -297359.380774 kJ/mol
# GULP energy per Si atom -12389.974199 kJ/mol
# Density = 2.084797 g / cm^3
# Si number density = 20.895528 Si / 1000 Ang^3
#
#
#
# Elastic Constant Matrix: (Units=GPa)
#
#
# Indices 1 2 3 4 5 6 
#
# 1 111.9654 37.2493 51.8786 -0.0001 11.4893 0.0000
# 2 37.2493 75.4358 73.0271 0.0000 7.8313 0.0000
# 3 51.8786 73.0271 134.7293 -0.0005 9.1647 -0.0001
# 4 -0.0001 0.0000 -0.0005 24.8250 -0.0001 5.9662
# 5 11.4893 7.8313 9.1647 -0.0001 35.4282 0.0000
# 6 0.0000 0.0000 -0.0001 5.9662 0.0000 25.4704
#
#
#
# Elastic Compliance Matrix: (Units=1/GPa)
#
#
# Indices 1 2 3 4 5 6 
#
# 1 0.011344 -0.002699 -0.002744 0.000000 -0.002372 0.000000
# 2 -0.002699 0.028718 -0.014408 0.000000 -0.001746 0.000000
# 3 -0.002744 -0.014408 0.016298 0.000000 -0.000141 0.000000
# 4 0.000000 0.000000 0.000000 0.042685 0.000000 -0.009999
# 5 -0.002372 -0.001746 -0.000141 0.000000 0.029418 0.000000
# 6 0.000000 0.000000 0.000000 -0.009999 0.000000 0.041603
#
#
# Mechanical properties :
#
#
# Convention : Reuss Voigt Hill
#
# Bulk Modulus (GPa) = 60.02950 71.82673 65.92812
# Shear Modulus (GPa) = 23.22111 27.80977 25.51544
#
# Velocity S-wave (km/s) = 3.33723 3.65210 3.49821
# Velocity P-wave (km/s) = 6.60607 7.22721 6.92361
#
# Compressibility (1/GPa) = 0.01665848
#
# Stress axis : x y z
#
# Youngs Moduli (GPa) = 88.15201 34.82088 61.35716
#
# Poissons Ratio (x) = 0.09399 0.16835
# Poissons Ratio (y) = 0.23794 0.88404
# Poissons Ratio (z) = 0.24186 0.50170
#
# Static dielectric constant tensor:
#      x y z
#    x 3.810270 0.000000 0.111450 
#    y 0.000000 3.538630 0.000000 
#    z 0.111450 0.000000 4.102330 
# 
# 
# High freq. dielectric constant tensor:
#      x y z
#    x 1.813830 0.000000 -0.000940 
#    y 0.000000 1.783170 0.000000 
#    z -0.000940 0.000000 1.832820 
# 
# From -- ./inp_files/212929.got.cif
#   From: 2010.06.25/outbox.cif.g09.slc.cpg/sg12_107_cif.got.tgz:212929.got - 2010.06.28 00:19:55.
