data_PCOD8102890
_publ_section_title
;
Structure prediction by ZEFSAII (Michael W. Deem and Ramdas Pophale) SiO2 
 PCOD8102890
Probable space group: C 2/M
;
_chemical_formula_sum "Si O2"
_cell_formula_units_Z 44
_cell_length_a 27.156521
_cell_length_b 7.617677
_cell_length_c 12.866520
_cell_angle_alpha 90.000000
_cell_angle_beta 124.490158
_cell_angle_gamma 90.000000
_cell_volume 2193.828950
_symmetry_space_group_name_H-M "C 2/M"
_symmetry_group_IT_number 12
_symmetry_cell_setting 'monoclinic'
loop_
_space_group_symop_operation_xyz
x,y,z
-x,y,-z
-x,-y,-z
x,-y,z
1/2+x,1/2+y,z
1/2-x,1/2+y,-z
1/2-x,1/2-y,-z
1/2+x,1/2-y,z
loop_
_atom_site_type_symbol
_atom_site_label
_atom_site_fract_x
_atom_site_fract_y
_atom_site_fract_z
Si Si1 0.686321 0.196188 0.968433
Si Si2 0.900997 0.000000 0.200609
Si Si3 0.969507 0.000000 0.718467
Si Si4 0.606667 0.198582 0.287894
Si Si5 0.892911 0.000000 0.424741
Si Si6 0.312737 0.703395 0.798789
Si Si7 0.181939 0.299891 0.575879
O O1 0.636173 0.325846 0.866665
O O2 0.670786 0.000000 0.911328
O O3 0.750000 0.250000 0.000000
O O4 0.688700 0.192812 0.095726
O O5 0.921536 0.000000 0.345020
O O6 0.959159 0.000000 0.197471
O O7 0.948401 0.172597 0.755330
O O8 0.945193 0.000000 0.571942
O O9 0.631904 0.229592 0.203168
O O10 0.659881 0.238958 0.432734
O O11 0.582933 0.000000 0.270449
O O12 0.852197 0.173414 0.385487
O O13 0.321019 0.500000 0.834931
O O14 0.252142 0.740615 0.662916
O O15 0.168383 0.500000 0.593498
#
# Coordination Sequence:
#
# PCOD8102890 Si02
#       7
#     8   4   4   8   4   8   8
#     4  12  25  43  63  91 125 157 199 252 304 360
#     4  12  25  43  66  89 119 165 208 250 305 363
#     4  10  23  43  62  89 125 158 207 255 295 364
#     4  10  20  37  59  89 126 162 201 252 302 358
#     4  10  21  38  64  90 120 161 200 251 310 359
#     4  11  20  36  60  90 125 165 203 248 305 363
#     4   9  20  33  56  92 128 157 196 247 309 369
#
# _framework density 20.056260000000002
#
# number of rings (size 3 to 8) (size 9 to 14) (size 15 to 20)
#    0.000    1.455    2.727    2.455    2.545    2.909 
#    0.000    1.818    0.000    7.636    0.000    0.000 
#    0.000    0.000    0.000    0.000    0.000    0.000 
#
# Total GULP energy -272894.794957 kJ/mol
# GULP energy per Si atom -12404.308862 kJ/mol
# Density = 2.001061 g / cm^3
# Si number density = 20.056260 Si / 1000 Ang^3
#
#
#
# Elastic Constant Matrix: (Units=GPa)
#
#
# Indices 1 2 3 4 5 6 
#
# 1 151.7497 59.5653 50.2997 0.0000 -4.0712 0.0000
# 2 59.5653 142.5376 30.1270 0.0000 7.7370 0.0000
# 3 50.2997 30.1270 56.0939 0.0000 -10.6385 0.0000
# 4 0.0000 0.0000 0.0000 24.0819 0.0000 -1.6252
# 5 -4.0712 7.7370 -10.6385 0.0000 36.1730 0.0000
# 6 0.0000 0.0000 0.0000 -1.6252 0.0000 23.1901
#
#
#
# Elastic Compliance Matrix: (Units=1/GPa)
#
#
# Indices 1 2 3 4 5 6 
#
# 1 0.010190 -0.002559 -0.007881 0.000000 -0.000624 0.000000
# 2 -0.002559 0.008903 -0.003075 0.000000 -0.003096 0.000000
# 3 -0.007881 -0.003075 0.028068 0.000000 0.008025 0.000000
# 4 0.000000 0.000000 0.000000 0.041722 0.000000 0.002924
# 5 -0.000624 -0.003096 0.008025 0.000000 0.030597 0.000000
# 6 0.000000 0.000000 0.000000 0.002924 0.000000 0.043327
#
#
# Mechanical properties :
#
#
# Convention : Reuss Voigt Hill
#
# Bulk Modulus (GPa) = 49.67334 70.04057 59.85696
# Shear Modulus (GPa) = 25.43931 30.71493 28.07712
#
# Velocity S-wave (km/s) = 3.56532 3.91761 3.74561
# Velocity P-wave (km/s) = 6.46293 7.44724 6.97248
#
# Compressibility (1/GPa) = 0.02013152
#
# Stress axis : x y z
#
# Youngs Moduli (GPa) = 98.13788 112.32433 35.62793
#
# Poissons Ratio (x) = 0.28738 0.28080
# Poissons Ratio (y) = 0.25109 0.10954
# Poissons Ratio (z) = 0.77346 0.34534
#
# Static dielectric constant tensor:
#      x y z
#    x 3.465330 0.000000 -0.143640 
#    y 0.000000 3.895300 0.000000 
#    z -0.143640 0.000000 3.477110 
# 
# 
# High freq. dielectric constant tensor:
#      x y z
#    x 1.772110 0.000000 -0.016760 
#    y 0.000000 1.799900 0.000000 
#    z -0.016760 0.000000 1.769240 
# 
# From -- ./inp_files/172553.got.cif
#   From: 2010.06.25/outbox.cif.g09.slc.cpg/sg12_87_cif.got.tgz:172553.got - 2010.06.28 00:19:55.
