data_PCOD8102861
_publ_section_title
;
Structure prediction by ZEFSAII (Michael W. Deem and Ramdas Pophale) SiO2 
 PCOD8102861
Probable space group: C 2/M
;
_chemical_formula_sum "Si O2"
_cell_formula_units_Z 56
_cell_length_a 22.399991
_cell_length_b 9.240401
_cell_length_c 18.467368
_cell_angle_alpha 90.000000
_cell_angle_beta 134.405451
_cell_angle_gamma 90.000000
_cell_volume 2730.793291
_symmetry_space_group_name_H-M "C 2/M"
_symmetry_group_IT_number 12
_symmetry_cell_setting 'monoclinic'
loop_
_space_group_symop_operation_xyz
x,y,z
-x,y,-z
-x,-y,-z
x,-y,z
1/2+x,1/2+y,z
1/2-x,1/2+y,-z
1/2-x,1/2-y,-z
1/2+x,1/2-y,z
loop_
_atom_site_type_symbol
_atom_site_label
_atom_site_fract_x
_atom_site_fract_y
_atom_site_fract_z
Si Si1 0.381088 0.664555 0.269802
Si Si2 0.311391 0.661441 0.739429
Si Si3 0.621049 0.159614 0.593916
Si Si4 0.467742 0.163985 0.629250
Si Si5 0.093893 0.671681 0.059658
Si Si6 0.217459 0.334447 0.043102
Si Si7 0.330611 0.668236 0.595382
O O1 0.412022 0.500000 0.286650
O O2 0.388537 0.708381 0.359605
O O3 0.440009 0.774831 0.275451
O O4 0.286930 0.683902 0.163731
O O5 0.334761 0.500000 0.786116
O O6 0.213113 0.672827 0.638375
O O7 0.342815 0.772364 0.825959
O O8 0.353499 0.697106 0.698515
O O9 0.551081 0.171971 0.472490
O O10 0.611762 0.000000 0.623733
O O11 0.408491 0.273532 0.618689
O O12 0.459263 0.000000 0.651258
O O13 0.095337 0.500000 0.064518
O O14 0.130971 0.718524 0.010778
O O15 0.000000 0.729230 0.000000
O O16 0.207347 0.500000 0.009857
O O17 0.250000 0.250000 0.000000
O O18 0.316443 0.500000 0.567590
O O19 0.250000 0.750000 0.500000
#
# Coordination Sequence:
#
# PCOD8102861 Si02
#       7
#     8   8   8   8   8   8   8
#     4  11  23  39  59  89 122 155 200 252 304 361
#     4  10  21  38  61  88 119 155 198 243 296 358
#     4  10  20  37  59  85 118 158 201 244 291 353
#     4  11  23  39  58  87 124 164 207 249 296 355
#     4  10  22  42  66  93 122 153 201 260 313 372
#     4  10  23  42  64  91 122 158 202 255 314 374
#     4  11  22  38  58  86 123 162 204 250 298 355
#
# _framework density 20.506862999999999
#
# number of rings (size 3 to 8) (size 9 to 14) (size 15 to 20)
#    0.000    1.571    2.857    1.714    0.000    7.143 
#    0.000    2.857    0.000    0.000    0.000    0.000 
#    0.000    0.000    0.000    0.000    0.000    0.000 
#
# Total GULP energy -347037.809092 kJ/mol
# GULP energy per Si atom -12394.207468 kJ/mol
# Density = 2.046019 g / cm^3
# Si number density = 20.506863 Si / 1000 Ang^3
#
#
#
# Elastic Constant Matrix: (Units=GPa)
#
#
# Indices 1 2 3 4 5 6 
#
# 1 123.7935 48.4222 30.2596 0.0000 -5.6144 0.0000
# 2 48.4222 88.0394 35.4113 0.0000 -9.5526 0.0000
# 3 30.2596 35.4113 46.0694 0.0000 1.4787 0.0000
# 4 0.0000 0.0000 0.0000 31.8900 0.0000 -3.2616
# 5 -5.6144 -9.5526 1.4787 0.0000 27.1700 0.0000
# 6 0.0000 0.0000 0.0000 -3.2616 0.0000 37.2404
#
#
#
# Elastic Compliance Matrix: (Units=1/GPa)
#
#
# Indices 1 2 3 4 5 6 
#
# 1 0.010716 -0.004272 -0.003784 0.000000 0.000918 0.000000
# 2 -0.004272 0.019368 -0.012293 0.000000 0.006596 0.000000
# 3 -0.003784 -0.012293 0.033864 0.000000 -0.006947 0.000000
# 4 0.000000 0.000000 0.000000 0.031641 0.000000 0.002771
# 5 0.000918 0.006596 -0.006947 0.000000 0.039692 0.000000
# 6 0.000000 0.000000 0.000000 0.002771 0.000000 0.027095
#
#
# Mechanical properties :
#
#
# Convention : Reuss Voigt Hill
#
# Bulk Modulus (GPa) = 43.01193 54.00983 48.51088
# Shear Modulus (GPa) = 23.71628 28.84735 26.28181
#
# Velocity S-wave (km/s) = 3.40443 3.75469 3.58384
# Velocity P-wave (km/s) = 6.03933 6.72247 6.39003
#
# Compressibility (1/GPa) = 0.02324936
#
# Stress axis : x y z
#
# Youngs Moduli (GPa) = 93.32218 51.63023 29.52973
#
# Poissons Ratio (x) = 0.22056 0.11174
# Poissons Ratio (y) = 0.39867 0.36302
# Poissons Ratio (z) = 0.35314 0.63471
#
# Static dielectric constant tensor:
#      x y z
#    x 3.094120 0.000000 -0.266720 
#    y 0.000000 3.758710 0.000000 
#    z -0.266720 0.000000 3.327440 
# 
# 
# High freq. dielectric constant tensor:
#      x y z
#    x 1.821170 0.000000 0.006880 
#    y 0.000000 1.801760 0.000000 
#    z 0.006880 0.000000 1.780600 
# 
# From -- ./inp_files/288462.got.cif
#   From: 2010.06.25/outbox.cif.g09.slc.cpg/sg12_145_cif.got.tgz:288462.got - 2010.06.28 00:19:55.
