data_PCOD8102937
_publ_section_title
;
Structure prediction by ZEFSAII (Michael W. Deem and Ramdas Pophale) SiO2 
 PCOD8102937
Probable space group: C 2/M
;
_chemical_formula_sum "Si O2"
_cell_formula_units_Z 64
_cell_length_a 15.469455
_cell_length_b 18.142726
_cell_length_c 16.108391
_cell_angle_alpha 90.000000
_cell_angle_beta 49.675964
_cell_angle_gamma 90.000000
_cell_volume 3446.758509
_symmetry_space_group_name_H-M "C 2/M"
_symmetry_group_IT_number 12
_symmetry_cell_setting 'monoclinic'
loop_
_space_group_symop_operation_xyz
x,y,z
-x,y,-z
-x,-y,-z
x,-y,z
1/2+x,1/2+y,z
1/2-x,1/2+y,-z
1/2-x,1/2-y,-z
1/2+x,1/2-y,z
loop_
_atom_site_type_symbol
_atom_site_label
_atom_site_fract_x
_atom_site_fract_y
_atom_site_fract_z
Si Si1 0.257683 0.085548 0.772099
Si Si2 0.116656 0.412862 0.820926
Si Si3 0.912159 0.710019 0.626901
Si Si4 0.444640 0.414669 0.225205
Si Si5 0.363180 0.912657 0.005090
Si Si6 0.827573 0.912603 0.998216
Si Si7 0.584473 0.299483 0.621403
Si Si8 0.756562 0.698343 0.370869
O O1 0.372433 0.131937 0.688953
O O2 0.173329 0.099186 0.748010
O O3 0.196735 0.113887 0.893485
O O4 0.292680 0.000000 0.757122
O O5 0.129914 0.500000 0.799072
O O6 0.190858 0.373737 0.704261
O O7 0.985744 0.386927 0.895002
O O8 0.159192 0.388208 0.886016
O O9 0.801290 0.751694 0.663091
O O10 0.000000 0.691017 0.500000
O O11 0.971066 0.760107 0.659762
O O12 0.462312 0.500000 0.235015
O O13 0.448313 0.373369 0.310305
O O14 0.547514 0.384867 0.104276
O O15 0.265735 0.878691 0.006890
O O16 0.361915 0.000000 0.003383
O O17 0.822580 0.000000 0.997528
O O18 0.663365 0.325620 0.496369
O O19 0.645052 0.243423 0.645665
#
# Coordination Sequence:
#
# PCOD8102937 Si02
#       8
#     8   8   8   8   8   8   8   8
#     4  10  20  37  60  85 112 144 189 236 275 328
#     4   9  18  33  56  81 110 146 183 225 272 326
#     4  10  22  40  59  80 113 152 185 230 289 337
#     4  10  20  37  60  83 112 148 188 232 276 330
#     4   8  16  32  51  79 114 144 176 222 279 331
#     4   9  18  32  54  82 112 143 178 225 282 330
#     4  10  22  39  58  80 111 153 187 226 289 340
#     4  10  21  39  58  78 113 150 185 232 284 339
#
# _framework density 18.568169999999999
#
# number of rings (size 3 to 8) (size 9 to 14) (size 15 to 20)
#    0.000    2.500    1.250    1.125    3.500    2.250 
#    0.000    3.125    0.000    2.250    0.000    0.000 
#    0.000    0.000    0.000    0.000    0.000    0.000 
#
# Total GULP energy -396791.796029 kJ/mol
# GULP energy per Si atom -12399.743626 kJ/mol
# Density = 1.852591 g / cm^3
# Si number density = 18.568170 Si / 1000 Ang^3
#
#
#
# Elastic Constant Matrix: (Units=GPa)
#
#
# Indices 1 2 3 4 5 6 
#
# 1 85.2875 32.8833 39.7103 0.0000 13.3334 0.0000
# 2 32.8833 71.9609 67.1420 0.0000 4.8432 0.0000
# 3 39.7103 67.1420 113.1173 0.0000 2.9612 0.0000
# 4 0.0000 0.0000 0.0000 26.3053 0.0000 -0.6709
# 5 13.3334 4.8432 2.9612 0.0000 21.2658 0.0000
# 6 0.0000 0.0000 0.0000 -0.6709 0.0000 21.9144
#
#
#
# Elastic Compliance Matrix: (Units=1/GPa)
#
#
# Indices 1 2 3 4 5 6 
#
# 1 0.016019 -0.003806 -0.003135 0.000000 -0.008740 0.000000
# 2 -0.003806 0.032491 -0.017883 0.000000 -0.002523 0.000000
# 3 -0.003135 -0.017883 0.020473 0.000000 0.003188 0.000000
# 4 0.000000 0.000000 0.000000 0.038045 0.000000 0.001165
# 5 -0.008740 -0.002523 0.003188 0.000000 0.052634 0.000000
# 6 0.000000 0.000000 0.000000 0.001165 0.000000 0.045668
#
#
# Mechanical properties :
#
#
# Convention : Reuss Voigt Hill
#
# Bulk Modulus (GPa) = 51.72613 61.09299 56.40956
# Shear Modulus (GPa) = 19.12602 22.60579 20.86590
#
# Velocity S-wave (km/s) = 3.21291 3.49298 3.35587
# Velocity P-wave (km/s) = 6.45613 7.01722 6.74251
#
# Compressibility (1/GPa) = 0.01933259
#
# Stress axis : x y z
#
# Youngs Moduli (GPa) = 62.42648 30.77740 48.84600
#
# Poissons Ratio (x) = 0.11715 0.15315
# Poissons Ratio (y) = 0.23761 0.87353
# Poissons Ratio (z) = 0.19573 0.55040
#
# Static dielectric constant tensor:
#      x y z
#    x 3.685450 0.000000 0.019950 
#    y 0.000000 3.055350 0.000000 
#    z 0.019950 0.000000 3.456570 
# 
# 
# High freq. dielectric constant tensor:
#      x y z
#    x 1.732120 0.000000 0.001730 
#    y 0.000000 1.690820 0.000000 
#    z 0.001730 0.000000 1.723130 
# 
# From -- ./inp_files/169704.got.cif
#   From: 2010.06.25/outbox.cif.g09.slc.cpg/sg12_85_cif.got.tgz:169704.got - 2010.06.28 00:19:55.
