data_PCOD8102870
_publ_section_title
;
Structure prediction by ZEFSAII (Michael W. Deem and Ramdas Pophale) SiO2 
 PCOD8102870
Probable space group: C 2/M
;
_chemical_formula_sum "Si O2"
_cell_formula_units_Z 56
_cell_length_a 32.601747
_cell_length_b 8.899546
_cell_length_c 19.022739
_cell_angle_alpha 90.000000
_cell_angle_beta 150.379717
_cell_angle_gamma 90.000000
_cell_volume 2727.898061
_symmetry_space_group_name_H-M "C 2/M"
_symmetry_group_IT_number 12
_symmetry_cell_setting 'monoclinic'
loop_
_space_group_symop_operation_xyz
x,y,z
-x,y,-z
-x,-y,-z
x,-y,z
1/2+x,1/2+y,z
1/2-x,1/2+y,-z
1/2-x,1/2-y,-z
1/2+x,1/2-y,z
loop_
_atom_site_type_symbol
_atom_site_label
_atom_site_fract_x
_atom_site_fract_y
_atom_site_fract_z
Si Si1 0.050772 0.332672 0.285343
Si Si2 0.173644 0.824656 0.845248
Si Si3 0.739842 0.165647 0.556341
Si Si4 0.650536 0.179432 0.659841
Si Si5 0.985674 0.824338 0.058183
Si Si6 0.699850 0.676678 0.212032
Si Si7 0.495501 0.326052 0.645635
O O1 0.011584 0.500000 0.228586
O O2 0.146928 0.341393 0.446961
O O3 0.006973 0.228831 0.277690
O O4 0.045855 0.263720 0.199940
O O5 0.158050 0.746252 0.748022
O O6 0.090009 0.800446 0.764386
O O7 0.193060 0.000000 0.863136
O O8 0.250000 0.750000 0.000000
O O9 0.750000 0.250000 0.500000
O O10 0.790164 0.245803 0.694542
O O11 0.775609 0.000000 0.595441
O O12 0.732123 0.241124 0.740441
O O13 0.566578 0.233969 0.496969
O O14 0.648138 0.000000 0.660660
O O15 0.006027 0.000000 0.092260
O O16 0.893572 0.787857 0.950612
O O17 0.000000 0.766514 0.000000
O O18 0.715693 0.500000 0.242571
O O19 0.469920 0.500000 0.603256
#
# Coordination Sequence:
#
# PCOD8102870 Si02
#       7
#     8   8   8   8   8   8   8
#     4  11  23  39  61  90 125 161 204 260 312 364
#     4  11  26  45  66  96 129 163 205 255 307 368
#     4  10  20  37  59  86 119 157 202 253 302 357
#     4  11  22  41  67  94 128 166 204 254 311 368
#     4  10  21  38  61  86 120 168 211 252 308 371
#     4   9  19  37  59  85 121 160 202 247 299 359
#     4  11  24  43  66  92 126 165 208 255 306 371
#
# _framework density 20.528627
#
# number of rings (size 3 to 8) (size 9 to 14) (size 15 to 20)
#    0.000    1.571    1.429    3.000    2.000    6.571 
#    0.000    1.429    0.000    0.000    0.000    0.000 
#    0.000    0.000    0.000    0.000    0.000    0.000 
#
# Total GULP energy -347185.196280 kJ/mol
# GULP energy per Si atom -12399.471296 kJ/mol
# Density = 2.048190 g / cm^3
# Si number density = 20.528627 Si / 1000 Ang^3
#
#
#
# Elastic Constant Matrix: (Units=GPa)
#
#
# Indices 1 2 3 4 5 6 
#
# 1 107.5473 43.9457 21.2076 0.0000 -11.3026 0.0000
# 2 43.9457 91.5185 32.2844 0.0000 -3.4455 0.0000
# 3 21.2076 32.2844 86.9216 0.0000 -6.2854 0.0000
# 4 0.0000 0.0000 0.0000 31.2771 0.0000 -4.0477
# 5 -11.3026 -3.4455 -6.2854 0.0000 41.5868 0.0000
# 6 0.0000 0.0000 0.0000 -4.0477 0.0000 31.7806
#
#
#
# Elastic Compliance Matrix: (Units=1/GPa)
#
#
# Indices 1 2 3 4 5 6 
#
# 1 0.011915 -0.005366 -0.000720 0.000000 0.002685 0.000000
# 2 -0.005366 0.014996 -0.004323 0.000000 -0.000870 0.000000
# 3 -0.000720 -0.004323 0.013392 0.000000 0.001470 0.000000
# 4 0.000000 0.000000 0.000000 0.032508 0.000000 0.004140
# 5 0.002685 -0.000870 0.001470 0.000000 0.024926 0.000000
# 6 0.000000 0.000000 0.000000 0.004140 0.000000 0.031993
#
#
# Mechanical properties :
#
#
# Convention : Reuss Voigt Hill
#
# Bulk Modulus (GPa) = 51.32328 53.42920 52.37624
# Shear Modulus (GPa) = 31.83806 33.49887 32.66846
#
# Velocity S-wave (km/s) = 3.94243 4.04395 3.99351
# Velocity P-wave (km/s) = 6.76600 6.92011 6.84349
#
# Compressibility (1/GPa) = 0.01948434
#
# Stress axis : x y z
#
# Youngs Moduli (GPa) = 83.92655 66.68425 74.66963
#
# Poissons Ratio (x) = 0.35786 0.05374
# Poissons Ratio (y) = 0.45039 0.32282
# Poissons Ratio (z) = 0.06041 0.28830
#
# Static dielectric constant tensor:
#      x y z
#    x 3.828750 0.000000 0.045580 
#    y 0.000000 3.670810 0.000000 
#    z 0.045580 0.000000 3.855080 
# 
# 
# High freq. dielectric constant tensor:
#      x y z
#    x 1.816550 0.000000 -0.001590 
#    y 0.000000 1.788870 0.000000 
#    z -0.001590 0.000000 1.814060 
# 
# From -- ./inp_files/292530.got.cif
#   From: 2010.06.25/outbox.cif.g09.slc.cpg/sg12_147_cif.got.tgz:292530.got - 2010.06.28 00:19:55.
