data_PCOD8102856
_publ_section_title
;
Structure prediction by ZEFSAII (Michael W. Deem and Ramdas Pophale) SiO2 
 PCOD8102856
Probable space group: C 2/M
;
_chemical_formula_sum "Si O2"
_cell_formula_units_Z 48
_cell_length_a 29.558751
_cell_length_b 8.866333
_cell_length_c 9.362521
_cell_angle_alpha 90.000000
_cell_angle_beta 98.236782
_cell_angle_gamma 90.000000
_cell_volume 2428.396929
_symmetry_space_group_name_H-M "C 2/M"
_symmetry_group_IT_number 12
_symmetry_cell_setting 'monoclinic'
loop_
_space_group_symop_operation_xyz
x,y,z
-x,y,-z
-x,-y,-z
x,-y,z
1/2+x,1/2+y,z
1/2-x,1/2+y,-z
1/2-x,1/2-y,-z
1/2+x,1/2-y,z
loop_
_atom_site_type_symbol
_atom_site_label
_atom_site_fract_x
_atom_site_fract_y
_atom_site_fract_z
Si Si1 0.624232 0.322375 0.343749
Si Si2 0.476141 0.677319 0.628889
Si Si3 0.966936 0.665770 0.114892
Si Si4 0.372351 0.825072 0.952665
Si Si5 0.209684 0.821368 0.573461
Si Si6 0.711985 0.176295 0.885057
O O1 0.620903 0.500000 0.324170
O O2 0.574713 0.254478 0.367793
O O3 0.640606 0.258176 0.199375
O O4 0.661307 0.277608 0.479900
O O5 0.500000 0.748394 0.500000
O O6 0.471205 0.500000 0.609968
O O7 0.510430 0.714370 0.771067
O O8 0.958832 0.500000 0.183293
O O9 0.919678 0.737487 0.038109
O O10 0.000000 0.640759 0.000000
O O11 0.376924 0.000000 0.916191
O O12 0.335473 0.794256 0.057457
O O13 0.250000 0.750000 0.500000
O O14 0.210581 0.755687 0.732023
O O15 0.216791 0.000000 0.583242
O O16 0.722363 0.000000 0.868820
O O17 0.750000 0.250000 0.000000
#
# Coordination Sequence:
#
# PCOD8102856 Si02
#       6
#     8   8   8   8   8   8
#     4  10  22  39  59  86 118 155 197 241 293 351
#     4  10  22  38  57  84 119 156 197 242 290 347
#     4  10  20  37  59  85 117 154 197 241 289 345
#     4  10  22  39  60  87 119 154 195 244 293 348
#     4  11  24  42  64  90 122 157 197 244 297 356
#     4  11  24  42  64  91 121 154 197 246 299 356
#
# _framework density 19.766124999999999
#
# number of rings (size 3 to 8) (size 9 to 14) (size 15 to 20)
#    0.000    1.667    1.667    2.000    2.333    6.667 
#    0.000    0.000    0.000    0.000    0.000    0.000 
#    0.000    0.000    0.000    0.000    0.000    0.000 
#
# Total GULP energy -297622.433636 kJ/mol
# GULP energy per Si atom -12400.934735 kJ/mol
# Density = 1.972114 g / cm^3
# Si number density = 19.766125 Si / 1000 Ang^3
#
#
#
# Elastic Constant Matrix: (Units=GPa)
#
#
# Indices 1 2 3 4 5 6 
#
# 1 138.1779 50.5334 81.0184 0.0000 14.6307 0.0000
# 2 50.5334 56.5451 53.2132 0.0000 2.9816 0.0000
# 3 81.0184 53.2132 165.9384 0.0000 8.0713 0.0000
# 4 0.0000 0.0000 0.0000 37.4765 0.0000 3.5944
# 5 14.6307 2.9816 8.0713 0.0000 37.7708 0.0000
# 6 0.0000 0.0000 0.0000 3.5944 0.0000 29.5149
#
#
#
# Elastic Compliance Matrix: (Units=1/GPa)
#
#
# Indices 1 2 3 4 5 6 
#
# 1 0.012433 -0.007697 -0.003433 0.000000 -0.003475 0.000000
# 2 -0.007697 0.030097 -0.005985 0.000000 0.001885 0.000000
# 3 -0.003433 -0.005985 0.009634 0.000000 -0.000257 0.000000
# 4 0.000000 0.000000 0.000000 0.026999 0.000000 -0.003288
# 5 -0.003475 0.001885 -0.000257 0.000000 0.027727 0.000000
# 6 0.000000 0.000000 0.000000 -0.003288 0.000000 0.034282
#
#
# Mechanical properties :
#
#
# Convention : Reuss Voigt Hill
#
# Bulk Modulus (GPa) = 55.76122 81.13237 68.44679
# Shear Modulus (GPa) = 27.56655 32.67889 30.12272
#
# Velocity S-wave (km/s) = 3.73853 4.07046 3.90802
# Velocity P-wave (km/s) = 6.84889 7.95153 7.42072
#
# Compressibility (1/GPa) = 0.01793361
#
# Stress axis : x y z
#
# Youngs Moduli (GPa) = 80.43308 33.22616 103.79709
#
# Poissons Ratio (x) = 0.25574 0.35632
# Poissons Ratio (y) = 0.61910 0.62123
# Poissons Ratio (z) = 0.27612 0.19886
#
# Static dielectric constant tensor:
#      x y z
#    x 4.069680 0.000000 -0.111210 
#    y 0.000000 3.610210 0.000000 
#    z -0.111210 0.000000 3.700070 
# 
# 
# High freq. dielectric constant tensor:
#      x y z
#    x 1.789880 0.000000 0.000700 
#    y 0.000000 1.763340 0.000000 
#    z 0.000700 0.000000 1.777370 
# 
# From -- ./inp_files/108622.got.cif
#   From: 2010.06.25/outbox.cif.g09.slc.cpg/sg12_55_cif.got.tgz:108622.got - 2010.06.28 00:19:55.
