data_PCOD8102316
_publ_section_title
;
Structure prediction by ZEFSAII (Michael W. Deem and Ramdas Pophale) SiO2 
 PCOD8102316
Probable space group: C 2/M
;
_chemical_formula_sum "Si O2"
_cell_formula_units_Z 52
_cell_length_a 9.187500
_cell_length_b 16.480925
_cell_length_c 18.529385
_cell_angle_alpha 90.000000
_cell_angle_beta 97.679700
_cell_angle_gamma 90.000000
_cell_volume 2780.526308
_symmetry_space_group_name_H-M "C 2/M"
_symmetry_group_IT_number 12
_symmetry_cell_setting 'monoclinic'
loop_
_space_group_symop_operation_xyz
x,y,z
-x,y,-z
-x,-y,-z
x,-y,z
1/2+x,1/2+y,z
1/2-x,1/2+y,-z
1/2-x,1/2-y,-z
1/2+x,1/2-y,z
loop_
_atom_site_type_symbol
_atom_site_label
_atom_site_fract_x
_atom_site_fract_y
_atom_site_fract_z
Si Si1 0.881533 0.679819 0.717863
Si Si2 0.724320 0.698541 0.402451
Si Si3 0.287105 0.594422 0.170132
Si Si4 0.500000 0.260399 0.500000
Si Si5 0.319994 0.904936 0.284196
Si Si6 0.912883 0.824715 0.821602
Si Si7 0.640528 0.784571 0.050920
O O1 0.796786 0.717653 0.643720
O O2 0.767868 0.626268 0.756109
O O3 0.952343 0.751119 0.770526
O O4 0.012873 0.623840 0.698590
O O5 0.585937 0.684465 0.446879
O O6 0.730669 0.621808 0.349625
O O7 0.877781 0.703280 0.455194
O O8 0.250516 0.500000 0.159841
O O9 0.461054 0.607922 0.176134
O O10 0.207717 0.641802 0.100495
O O11 0.242933 0.865068 0.209179
O O12 0.314424 0.000000 0.275925
O O13 0.903639 0.791165 0.901734
O O14 0.500000 0.819636 0.000000
O O15 0.750000 0.750000 0.000000
#
# Coordination Sequence:
#
# PCOD8102316 Si02
#       7
#     8   8   8   4   8   8   8
#     4  10  20  37  61  85 111 152 197 234 279 338
#     4  10  20  37  62  87 109 156 193 239 270 348
#     4  11  23  38  58  89 118 145 189 246 291 329
#     4  10  20  36  62  86 114 146 208 226 272 336
#     4  11  22  37  58  88 118 146 187 243 293 330
#     4  10  21  38  61  83 112 152 195 235 278 343
#     4  11  22  40  63  83 112 156 197 230 279 349
#
# _framework density 18.701495999999999
#
# number of rings (size 3 to 8) (size 9 to 14) (size 15 to 20)
#    0.000    1.538    3.077    3.692    4.308    0.308 
#    0.000    3.077    0.000    0.000    0.000    0.000 
#    0.000    0.000    0.000    0.000    0.000    0.000 
#
# Total GULP energy -322454.853898 kJ/mol
# GULP energy per Si atom -12402.109765 kJ/mol
# Density = 1.865893 g / cm^3
# Si number density = 18.701496 Si / 1000 Ang^3
#
#
#
# Elastic Constant Matrix: (Units=GPa)
#
#
# Indices 1 2 3 4 5 6 
#
# 1 103.3988 29.5826 40.8082 0.0000 -2.9878 0.0000
# 2 29.5826 107.7695 34.0210 0.0000 -7.8964 0.0000
# 3 40.8082 34.0210 102.9770 0.0000 -8.4038 0.0000
# 4 0.0000 0.0000 0.0000 13.7449 0.0000 0.5664
# 5 -2.9878 -7.8964 -8.4038 0.0000 38.1795 0.0000
# 6 0.0000 0.0000 0.0000 0.5664 0.0000 23.6500
#
#
#
# Elastic Compliance Matrix: (Units=1/GPa)
#
#
# Indices 1 2 3 4 5 6 
#
# 1 0.011834 -0.001994 -0.004062 0.000000 -0.000380 0.000000
# 2 -0.001994 0.010771 -0.002647 0.000000 0.001489 0.000000
# 3 -0.004062 -0.002647 0.012346 0.000000 0.001852 0.000000
# 4 0.000000 0.000000 0.000000 0.072826 0.000000 -0.001744
# 5 -0.000380 0.001489 0.001852 0.000000 0.026878 0.000000
# 6 0.000000 0.000000 0.000000 -0.001744 0.000000 0.042325
#
#
# Mechanical properties :
#
#
# Convention : Reuss Voigt Hill
#
# Bulk Modulus (GPa) = 56.99361 58.10763 57.55062
# Shear Modulus (GPa) = 24.97076 29.09711 27.03393
#
# Velocity S-wave (km/s) = 3.65804 3.94873 3.80616
# Velocity P-wave (km/s) = 6.95581 7.20615 7.08208
#
# Compressibility (1/GPa) = 0.01754583
#
# Stress axis : x y z
#
# Youngs Moduli (GPa) = 84.50321 92.84139 80.99694
#
# Poissons Ratio (x) = 0.18513 0.32900
# Poissons Ratio (y) = 0.16850 0.21438
# Poissons Ratio (z) = 0.34324 0.24573
#
# Static dielectric constant tensor:
#      x y z
#    x 3.544890 0.000000 -0.075260 
#    y 0.000000 3.186360 0.000000 
#    z -0.075260 0.000000 3.569390 
# 
# 
# High freq. dielectric constant tensor:
#      x y z
#    x 1.742190 0.000000 -0.000980 
#    y 0.000000 1.695880 0.000000 
#    z -0.000980 0.000000 1.735500 
# 
# From -- ./inp_files/256622.got.cif
#   From: 2010.06.25/outbox.cif.g09.slc.cpg/sg12_129_cif.got.tgz:256622.got - 2010.06.28 00:19:55.
