data_PCOD8102789
_publ_section_title
;
Structure prediction by ZEFSAII (Michael W. Deem and Ramdas Pophale) SiO2 
 PCOD8102789
Probable space group: C 2/M
;
_chemical_formula_sum "Si O2"
_cell_formula_units_Z 48
_cell_length_a 28.028886
_cell_length_b 9.007302
_cell_length_c 9.927802
_cell_angle_alpha 90.000000
_cell_angle_beta 89.549949
_cell_angle_gamma 90.000000
_cell_volume 2506.341646
_symmetry_space_group_name_H-M "C 2/M"
_symmetry_group_IT_number 12
_symmetry_cell_setting 'monoclinic'
loop_
_space_group_symop_operation_xyz
x,y,z
-x,y,-z
-x,-y,-z
x,-y,z
1/2+x,1/2+y,z
1/2-x,1/2+y,-z
1/2-x,1/2-y,-z
1/2+x,1/2-y,z
loop_
_atom_site_type_symbol
_atom_site_label
_atom_site_fract_x
_atom_site_fract_y
_atom_site_fract_z
Si Si1 0.050660 0.175120 0.849470
Si Si2 0.201342 0.826844 0.458744
Si Si3 0.647761 0.327595 0.728040
Si Si4 0.354219 0.828561 0.771600
Si Si5 0.445824 0.324158 0.845357
Si Si6 0.201987 0.328932 0.959482
O O1 0.093355 0.229810 0.751352
O O2 0.998825 0.226858 0.795245
O O3 0.048499 0.000000 0.857569
O O4 0.060068 0.231604 0.000697
O O5 0.250000 0.750000 0.500000
O O6 0.161237 0.799964 0.573271
O O7 0.183083 0.755750 0.321734
O O8 0.211152 0.000000 0.435773
O O9 0.652203 0.500000 0.767799
O O10 0.683899 0.238283 0.820457
O O11 0.406888 0.758955 0.754684
O O12 0.355439 0.000000 0.729166
O O13 0.337634 0.805905 0.925168
O O14 0.437861 0.500000 0.830338
O O15 0.213616 0.500000 0.935179
O O16 0.250000 0.250000 0.000000
#
# Coordination Sequence:
#
# PCOD8102789 Si02
#       6
#     8   8   8   8   8   8
#     4   8  15  30  56  87 113 139 178 227 277 329
#     4  11  24  40  59  81 109 150 190 228 279 332
#     4  10  20  37  59  83 110 141 182 231 279 327
#     4  11  23  38  55  81 115 149 186 227 272 328
#     4   9  16  31  58  86 111 144 181 223 277 328
#     4  11  23  36  54  81 109 141 183 230 279 327
#
# _framework density 19.151420000000002
#
# number of rings (size 3 to 8) (size 9 to 14) (size 15 to 20)
#    0.000    2.000    1.667    3.500    0.000    7.333 
#    0.000    3.333    0.000    5.000    0.000    0.000 
#    0.000    0.000    0.000    0.000    0.000    0.000 
#
# Total GULP energy -297600.364506 kJ/mol
# GULP energy per Si atom -12400.015188 kJ/mol
# Density = 1.910783 g / cm^3
# Si number density = 19.151420 Si / 1000 Ang^3
#
#
#
# Elastic Constant Matrix: (Units=GPa)
#
#
# Indices 1 2 3 4 5 6 
#
# 1 117.9947 38.5898 4.5743 0.0000 5.5837 0.0000
# 2 38.5898 89.2214 26.1754 0.0000 5.2429 0.0000
# 3 4.5743 26.1754 39.6444 0.0000 4.4448 0.0000
# 4 0.0000 0.0000 0.0000 26.8899 0.0000 5.5985
# 5 5.5837 5.2429 4.4448 0.0000 35.1848 0.0000
# 6 0.0000 0.0000 0.0000 5.5985 0.0000 31.4764
#
#
#
# Elastic Compliance Matrix: (Units=1/GPa)
#
#
# Indices 1 2 3 4 5 6 
#
# 1 0.010057 -0.004936 0.002227 0.000000 -0.001142 0.000000
# 2 -0.004936 0.016353 -0.010186 0.000000 -0.000367 0.000000
# 3 0.002227 -0.010186 0.032016 0.000000 -0.002880 0.000000
# 4 0.000000 0.000000 0.000000 0.038619 0.000000 -0.006869
# 5 -0.001142 -0.000367 -0.002880 0.000000 0.029021 0.000000
# 6 0.000000 0.000000 0.000000 -0.006869 0.000000 0.032992
#
#
# Mechanical properties :
#
#
# Convention : Reuss Voigt Hill
#
# Bulk Modulus (GPa) = 30.64281 42.83773 36.74027
# Shear Modulus (GPa) = 25.54583 30.54497 28.04540
#
# Velocity S-wave (km/s) = 3.65620 3.99798 3.83090
# Velocity P-wave (km/s) = 5.81883 6.61273 6.22844
#
# Compressibility (1/GPa) = 0.03263408
#
# Stress axis : x y z
#
# Youngs Moduli (GPa) = 99.43379 61.15107 31.23454
#
# Poissons Ratio (x) = 0.30184 -0.06955
# Poissons Ratio (y) = 0.49080 0.31817
# Poissons Ratio (z) = -0.22139 0.62291
#
# Static dielectric constant tensor:
#      x y z
#    x 14.267990 0.000000 -0.684210 
#    y 0.000000 3.426240 0.000000 
#    z -0.684210 0.000000 3.404130 
# 
# 
# High freq. dielectric constant tensor:
#      x y z
#    x 1.763350 0.000000 -0.002010 
#    y 0.000000 1.730960 0.000000 
#    z -0.002010 0.000000 1.723980 
# 
# From -- ./inp_files/108703.got.cif
#   From: 2010.06.25/outbox.cif.g09.slc.cpg/sg12_55_cif.got.tgz:108703.got - 2010.06.28 00:19:55.
