data_PCOD8102100
_publ_section_title
;
Structure prediction by ZEFSAII (Michael W. Deem and Ramdas Pophale) SiO2 
 PCOD8102100
Probable space group: C 2/M
;
_chemical_formula_sum "Si O2"
_cell_formula_units_Z 48
_cell_length_a 19.098346
_cell_length_b 12.349398
_cell_length_c 11.939512
_cell_angle_alpha 90.000000
_cell_angle_beta 63.381732
_cell_angle_gamma 90.000000
_cell_volume 2517.509928
_symmetry_space_group_name_H-M "C 2/M"
_symmetry_group_IT_number 12
_symmetry_cell_setting 'monoclinic'
loop_
_space_group_symop_operation_xyz
x,y,z
-x,y,-z
-x,-y,-z
x,-y,z
1/2+x,1/2+y,z
1/2-x,1/2+y,-z
1/2-x,1/2-y,-z
1/2+x,1/2-y,z
loop_
_atom_site_type_symbol
_atom_site_label
_atom_site_fract_x
_atom_site_fract_y
_atom_site_fract_z
Si Si1 0.868966 0.234054 0.858460
Si Si2 0.989865 0.122486 0.137767
Si Si3 0.155474 0.270181 0.702999
Si Si4 0.068140 0.377971 0.374170
Si Si5 0.799338 0.619507 0.544681
Si Si6 0.286773 0.129356 0.109145
O O1 0.923668 0.305474 0.740395
O O2 0.802148 0.172039 0.836137
O O3 0.925004 0.143691 0.870810
O O4 0.835453 0.314428 0.975973
O O5 0.925189 0.205892 0.227651
O O6 0.964074 0.000000 0.185888
O O7 0.000000 0.138696 0.000000
O O8 0.148521 0.347738 0.600414
O O9 0.224500 0.189839 0.623526
O O10 0.175612 0.338864 0.799110
O O11 0.045180 0.500000 0.354315
O O12 0.149223 0.376830 0.381481
O O13 0.000000 0.327677 0.500000
O O14 0.767450 0.500000 0.544389
O O15 0.289319 0.000000 0.092425
#
# Coordination Sequence:
#
# PCOD8102100 Si02
#       6
#     8   8   8   8   8   8
#     4  11  22  41  61  89 123 158 196 254 295 362
#     4  11  23  40  62  88 120 159 199 244 302 362
#     4  11  21  40  61  88 121 155 200 254 294 353
#     4  10  20  36  60  89 120 158 199 241 296 356
#     4  10  21  37  61  86 116 159 202 244 292 352
#     4  11  23  39  62  91 120 159 200 248 307 354
#
# _framework density 19.066459999999999
#
# number of rings (size 3 to 8) (size 9 to 14) (size 15 to 20)
#    0.000    1.333    3.333    3.000    0.000    0.000 
#    0.000    3.333    0.000    2.000    0.000    0.000 
#    0.000    0.000    0.000    0.000    0.000    0.000 
#
# Total GULP energy -297619.097470 kJ/mol
# GULP energy per Si atom -12400.795728 kJ/mol
# Density = 1.902306 g / cm^3
# Si number density = 19.066460 Si / 1000 Ang^3
#
#
#
# Elastic Constant Matrix: (Units=GPa)
#
#
# Indices 1 2 3 4 5 6 
#
# 1 62.5993 12.0797 12.8296 0.0000 -7.2311 0.0000
# 2 12.0797 83.3644 35.7345 0.0000 1.8279 0.0000
# 3 12.8296 35.7345 85.7023 0.0000 -4.8920 0.0000
# 4 0.0000 0.0000 0.0000 291.9797 0.0000 80.6023
# 5 -7.2311 1.8279 -4.8920 0.0000 29.2946 0.0000
# 6 0.0000 0.0000 0.0000 80.6023 0.0000 42.2927
#
#
#
# Elastic Compliance Matrix: (Units=1/GPa)
#
#
# Indices 1 2 3 4 5 6 
#
# 1 0.017131 -0.001915 -0.001532 0.000000 0.004092 0.000000
# 2 -0.001915 0.014931 -0.006077 0.000000 -0.002419 0.000000
# 3 -0.001532 -0.006077 0.014571 0.000000 0.002434 0.000000
# 4 0.000000 0.000000 0.000000 0.007227 0.000000 -0.013774
# 5 0.004092 -0.002419 0.002434 0.000000 0.035704 0.000000
# 6 0.000000 0.000000 0.000000 -0.013774 0.000000 0.049895
#
#
# Mechanical properties :
#
#
# Convention : Reuss Voigt Hill
#
# Bulk Modulus (GPa) = 36.25376 39.21707 37.73541
# Shear Modulus (GPa) = 29.81480 84.11486 56.96483
#
# Velocity S-wave (km/s) = 3.95869 6.64924 5.47191
# Velocity P-wave (km/s) = 6.32066 8.91982 7.73026
#
# Compressibility (1/GPa) = 0.02758335
#
# Stress axis : x y z
#
# Youngs Moduli (GPa) = 58.37379 66.97454 68.63178
#
# Poissons Ratio (x) = 0.12827 0.10517
# Poissons Ratio (y) = 0.11180 0.41708
# Poissons Ratio (z) = 0.08945 0.40701
#
# Static dielectric constant tensor:
#      x y z
#    x 3.500840 0.000000 0.064740 
#    y 0.000000 3.571740 0.000000 
#    z 0.064740 0.000000 3.628990 
# 
# 
# High freq. dielectric constant tensor:
#      x y z
#    x 1.748130 0.000000 -0.000340 
#    y 0.000000 1.746230 0.000000 
#    z -0.000340 0.000000 1.750730 
# 
# From -- ./inp_files/154215.got.cif
#   From: 2010.06.25/outbox.cif.g09.slc.cpg/sg12_78_cif.got.tgz:154215.got - 2010.06.28 00:19:55.
