data_PCOD8102754
_publ_section_title
;
Structure prediction by ZEFSAII (Michael W. Deem and Ramdas Pophale) SiO2 
 PCOD8102754
Probable space group: C 2/M
;
_chemical_formula_sum "Si O2"
_cell_formula_units_Z 56
_cell_length_a 19.594895
_cell_length_b 8.495024
_cell_length_c 20.205531
_cell_angle_alpha 90.000000
_cell_angle_beta 119.211870
_cell_angle_gamma 90.000000
_cell_volume 2935.641375
_symmetry_space_group_name_H-M "C 2/M"
_symmetry_group_IT_number 12
_symmetry_cell_setting 'monoclinic'
loop_
_space_group_symop_operation_xyz
x,y,z
-x,y,-z
-x,-y,-z
x,-y,z
1/2+x,1/2+y,z
1/2-x,1/2+y,-z
1/2-x,1/2-y,-z
1/2+x,1/2-y,z
loop_
_atom_site_type_symbol
_atom_site_label
_atom_site_fract_x
_atom_site_fract_y
_atom_site_fract_z
Si Si1 0.610835 0.683212 0.376299
Si Si2 0.757996 0.185817 0.377171
Si Si3 0.818415 0.318551 0.790624
Si Si4 0.920637 0.315772 0.499099
Si Si5 0.217683 0.685968 0.084468
Si Si6 0.862778 0.313378 0.084629
Si Si7 0.029375 0.681912 0.213504
O O1 0.612227 0.500000 0.394251
O O2 0.699742 0.737244 0.403478
O O3 0.574942 0.775997 0.421419
O O4 0.553201 0.715540 0.287945
O O5 0.735370 0.252833 0.293605
O O6 0.847570 0.224922 0.432853
O O7 0.743180 0.000000 0.373713
O O8 0.795856 0.500000 0.786635
O O9 0.803812 0.236308 0.854735
O O10 0.908864 0.294909 0.815932
O O11 0.907683 0.500000 0.482430
O O12 0.000000 0.259814 0.500000
O O13 0.210355 0.500000 0.084594
O O14 0.305666 0.735548 0.110633
O O15 0.158882 0.748352 0.999370
O O16 0.854509 0.500000 0.084531
O O17 0.948665 0.255945 0.145049
O O18 0.025071 0.500000 0.233763
#
# Coordination Sequence:
#
# PCOD8102754 Si02
#       7
#     8   8   8   8   8   8   8
#     4  11  22  37  58  81 106 139 178 217 262 316
#     4  10  20  37  59  81 108 140 176 217 262 314
#     4   8  16  31  52  76 100 130 169 214 256 297
#     4  11  24  40  57  80 110 141 174 215 262 311
#     4   9  17  31  50  73 102 136 174 212 255 309
#     4   9  18  31  49  73 102 137 173 212 259 309
#     4   9  18  34  53  75 103 134 173 218 263 308
#
# _framework density 19.075899
#
# number of rings (size 3 to 8) (size 9 to 14) (size 15 to 20)
#    0.000    2.429    0.000    3.429    0.000    3.429 
#    0.000    9.286    0.000    0.000    0.000    8.000 
#    0.000    0.000    0.000    0.000    0.000    0.000 
#
# Total GULP energy -347160.703809 kJ/mol
# GULP energy per Si atom -12398.596565 kJ/mol
# Density = 1.903248 g / cm^3
# Si number density = 19.075899 Si / 1000 Ang^3
#
#
#
# Elastic Constant Matrix: (Units=GPa)
#
#
# Indices 1 2 3 4 5 6 
#
# 1 123.2939 9.6861 74.2235 0.0000 -8.6987 0.0000
# 2 9.6861 28.4408 8.1075 0.0000 0.9359 0.0000
# 3 74.2235 8.1075 107.3135 0.0000 -2.5548 0.0000
# 4 0.0000 0.0000 0.0000 22.0120 0.0000 3.3491
# 5 -8.6987 0.9359 -2.5548 0.0000 35.4293 0.0000
# 6 0.0000 0.0000 0.0000 3.3491 0.0000 27.6048
#
#
#
# Elastic Compliance Matrix: (Units=1/GPa)
#
#
# Indices 1 2 3 4 5 6 
#
# 1 0.014299 -0.002212 -0.009655 0.000000 0.002873 0.000000
# 2 -0.002212 0.036324 -0.001252 0.000000 -0.001593 0.000000
# 3 -0.009655 -0.001252 0.016063 0.000000 -0.001179 0.000000
# 4 0.000000 0.000000 0.000000 0.046284 0.000000 -0.005615
# 5 0.002873 -0.001593 -0.001179 0.000000 0.028888 0.000000
# 6 0.000000 0.000000 0.000000 -0.005615 0.000000 0.036907
#
#
# Mechanical properties :
#
#
# Convention : Reuss Voigt Hill
#
# Bulk Modulus (GPa) = 24.72330 49.23137 36.97734
# Shear Modulus (GPa) = 22.88490 28.14460 25.51475
#
# Velocity S-wave (km/s) = 3.46739 3.84526 3.66121
# Velocity P-wave (km/s) = 5.38693 6.75121 6.10729
#
# Compressibility (1/GPa) = 0.04044767
#
# Stress axis : x y z
#
# Youngs Moduli (GPa) = 69.93326 27.53036 62.25620
#
# Poissons Ratio (x) = 0.06091 0.60106
# Poissons Ratio (y) = 0.15471 0.07794
# Poissons Ratio (z) = 0.67518 0.03447
#
# Static dielectric constant tensor:
#      x y z
#    x 3.559090 0.000000 -0.123830 
#    y 0.000000 3.257220 0.000000 
#    z -0.123830 0.000000 3.776970 
# 
# 
# High freq. dielectric constant tensor:
#      x y z
#    x 1.739590 0.000000 -0.002940 
#    y 0.000000 1.722320 0.000000 
#    z -0.002940 0.000000 1.752530 
# 
# From -- ./inp_files/314357.got.cif
#   From: 2010.06.25/outbox.cif.g09.slc.cpg/sg12_158_cif.got.tgz:314357.got - 2010.06.28 00:19:55.
