data_PCOD8102673
_publ_section_title
;
Structure prediction by ZEFSAII (Michael W. Deem and Ramdas Pophale) SiO2 
 PCOD8102673
Probable space group: C 2/M
;
_chemical_formula_sum "Si O2"
_cell_formula_units_Z 32
_cell_length_a 16.838400
_cell_length_b 21.678697
_cell_length_c 11.839227
_cell_angle_alpha 90.000000
_cell_angle_beta 157.626229
_cell_angle_gamma 90.000000
_cell_volume 1645.052889
_symmetry_space_group_name_H-M "C 2/M"
_symmetry_group_IT_number 12
_symmetry_cell_setting 'monoclinic'
loop_
_space_group_symop_operation_xyz
x,y,z
-x,y,-z
-x,-y,-z
x,-y,z
1/2+x,1/2+y,z
1/2-x,1/2+y,-z
1/2-x,1/2-y,-z
1/2+x,1/2-y,z
loop_
_atom_site_type_symbol
_atom_site_label
_atom_site_fract_x
_atom_site_fract_y
_atom_site_fract_z
Si Si1 0.849716 0.119690 0.704043
Si Si2 0.761959 0.431655 0.664159
Si Si3 0.516558 0.676953 0.713417
Si Si4 0.491096 0.187175 0.358664
O O1 0.780164 0.065502 0.526871
O O2 0.641345 0.145436 0.483776
O O3 0.970725 0.172321 0.788654
O O4 0.000000 0.094063 0.000000
O O5 0.715005 0.500000 0.652305
O O6 0.608464 0.378975 0.514788
O O7 0.000000 0.412192 0.000000
O O8 0.436189 0.741993 0.560176
O O9 0.761256 0.673072 0.008819
O O10 0.500000 0.167471 0.500000
#
# Coordination Sequence:
#
# PCOD8102673 Si02
#       4
#     8   8   8   8
#     4  10  20  37  58  82 114 149 185 235 285 334
#     4   9  20  39  60  82 112 152 196 234 276 334
#     4   9  22  34  55  85 113 151 185 236 282 338
#     4  11  19  35  56  86 119 143 187 234 288 345
#
# _framework density 19.452262000000001
#
# number of rings (size 3 to 8) (size 9 to 14) (size 15 to 20)
#    1.500    0.750    2.500    0.750    0.000    5.500 
#    0.000    1.250    0.000    6.750    0.000    0.000 
#    0.000    0.000    0.000    0.000    0.000    0.000 
#
# Total GULP energy -198225.294038 kJ/mol
# GULP energy per Si atom -12389.080877 kJ/mol
# Density = 1.940799 g / cm^3
# Si number density = 19.452262 Si / 1000 Ang^3
#
#
#
# Elastic Constant Matrix: (Units=GPa)
#
#
# Indices 1 2 3 4 5 6 
#
# 1 58.6436 0.6830 6.6966 0.0000 12.0010 0.0000
# 2 0.6830 90.3086 34.4430 0.0000 23.2592 0.0000
# 3 6.6966 34.4430 102.0242 0.0000 7.1141 0.0000
# 4 0.0000 0.0000 0.0000 19.9103 0.0000 8.1946
# 5 12.0010 23.2592 7.1141 0.0000 28.6651 0.0000
# 6 0.0000 0.0000 0.0000 8.1946 0.0000 16.2176
#
#
#
# Elastic Compliance Matrix: (Units=1/GPa)
#
#
# Indices 1 2 3 4 5 6 
#
# 1 0.019282 0.003085 -0.001597 0.000000 -0.010179 0.000000
# 2 0.003085 0.016307 -0.004778 0.000000 -0.013338 0.000000
# 3 -0.001597 -0.004778 0.011400 0.000000 0.001716 0.000000
# 4 0.000000 0.000000 0.000000 0.063413 0.000000 -0.032042
# 5 -0.010179 -0.013338 0.001716 0.000000 0.049544 0.000000
# 6 0.000000 0.000000 0.000000 -0.032042 0.000000 0.077851
#
#
# Mechanical properties :
#
#
# Convention : Reuss Voigt Hill
#
# Bulk Modulus (GPa) = 24.74709 37.18019 30.96364
# Shear Modulus (GPa) = 19.39140 26.90218 23.14679
#
# Velocity S-wave (km/s) = 3.16075 3.72288 3.45328
# Velocity P-wave (km/s) = 5.10588 6.13473 5.64380
#
# Compressibility (1/GPa) = 0.04040879
#
# Stress axis : x y z
#
# Youngs Moduli (GPa) = 51.86245 61.32285 87.72161
#
# Poissons Ratio (x) = -0.18919 0.14012
# Poissons Ratio (y) = -0.16000 0.41911
# Poissons Ratio (z) = 0.08284 0.29298
#
# Static dielectric constant tensor:
#      x y z
#    x 3.400380 0.000000 0.019270 
#    y 0.000000 3.199340 0.000000 
#    z 0.019270 0.000000 3.535970 
# 
# 
# High freq. dielectric constant tensor:
#      x y z
#    x 1.745190 0.000000 0.004250 
#    y 0.000000 1.730780 0.000000 
#    z 0.004250 0.000000 1.768240 
# 
# From -- ./inp_files/17140.got.cif
#   From: 2010.06.25/outbox.cif.g09.slc.cpg/sg12_9_cif.got.tgz:17140.got - 2010.06.28 00:19:55.
