data_PCOD8102971
_publ_section_title
;
Structure prediction by ZEFSAII (Michael W. Deem and Ramdas Pophale) SiO2 
 PCOD8102971
Probable space group: C 2/M
;
_chemical_formula_sum "Si O2"
_cell_formula_units_Z 56
_cell_length_a 18.473978
_cell_length_b 8.338921
_cell_length_c 22.738248
_cell_angle_alpha 90.000000
_cell_angle_beta 52.369034
_cell_angle_gamma 90.000000
_cell_volume 2774.152945
_symmetry_space_group_name_H-M "C 2/M"
_symmetry_group_IT_number 12
_symmetry_cell_setting 'monoclinic'
loop_
_space_group_symop_operation_xyz
x,y,z
-x,y,-z
-x,-y,-z
x,-y,z
1/2+x,1/2+y,z
1/2-x,1/2+y,-z
1/2-x,1/2-y,-z
1/2+x,1/2-y,z
loop_
_atom_site_type_symbol
_atom_site_label
_atom_site_fract_x
_atom_site_fract_y
_atom_site_fract_z
Si Si1 0.028291 0.314389 0.353601
Si Si2 0.848522 0.686187 0.936170
Si Si3 0.625525 0.690034 0.769852
Si Si4 0.338096 0.686817 0.490087
Si Si5 0.819175 0.310091 0.628739
Si Si6 0.953869 0.813958 0.781647
Si Si7 0.508333 0.686635 0.931796
O O1 0.040891 0.500000 0.332458
O O2 0.095698 0.262603 0.372650
O O3 0.055360 0.215029 0.282802
O O4 0.925011 0.282046 0.423278
O O5 0.856786 0.500000 0.947158
O O6 0.874376 0.717015 0.855115
O O7 0.914866 0.789068 0.943930
O O8 0.750000 0.750000 0.000000
O O9 0.628369 0.500000 0.771110
O O10 0.726357 0.754360 0.705356
O O11 0.553811 0.744431 0.754891
O O12 0.591243 0.757875 0.850446
O O13 0.351347 0.500000 0.470089
O O14 0.250000 0.750000 0.500000
O O15 0.329026 0.715332 0.563587
O O16 0.815921 0.500000 0.617690
O O17 0.940035 0.000000 0.802563
O O18 0.526997 0.500000 0.931727
O O19 0.500000 0.771096 0.000000
#
# Coordination Sequence:
#
# PCOD8102971 Si02
#       7
#     8   8   8   8   8   8   8
#     4  11  23  38  59  89 122 154 190 233 284 341
#     4  11  22  37  57  82 115 153 197 245 293 345
#     4   8  16  33  56  80 107 145 189 231 279 336
#     4  12  25  41  62  85 113 151 196 242 289 343
#     4  10  21  38  59  85 119 154 190 235 286 341
#     4  10  20  37  60  84 113 152 198 241 285 341
#     4   9  18  34  57  84 115 151 191 236 290 350
#
# _framework density 20.186342
#
# number of rings (size 3 to 8) (size 9 to 14) (size 15 to 20)
#    0.000    1.857    0.000    5.571    0.000    5.429 
#    0.000    5.714    0.000    0.000    0.000    0.000 
#    0.000    0.000    0.000    0.000    0.000    0.000 
#
# Total GULP energy -347209.682648 kJ/mol
# GULP energy per Si atom -12400.345809 kJ/mol
# Density = 2.014040 g / cm^3
# Si number density = 20.186342 Si / 1000 Ang^3
#
#
#
# Elastic Constant Matrix: (Units=GPa)
#
#
# Indices 1 2 3 4 5 6 
#
# 1 107.6332 10.5634 61.4560 0.0000 1.7249 0.0002
# 2 10.5634 40.8100 5.4438 0.0000 1.4101 -0.0003
# 3 61.4560 5.4438 140.4306 0.0000 0.3448 -0.0001
# 4 0.0000 0.0000 0.0000 27.1590 0.0000 3.3578
# 5 1.7249 1.4101 0.3448 0.0000 44.0795 0.0000
# 6 0.0002 -0.0003 -0.0001 3.3578 0.0000 25.3564
#
#
#
# Elastic Compliance Matrix: (Units=1/GPa)
#
#
# Indices 1 2 3 4 5 6 
#
# 1 0.012650 -0.002536 -0.005437 0.000000 -0.000371 0.000000
# 2 -0.002536 0.025167 0.000136 0.000000 -0.000707 0.000000
# 3 -0.005437 0.000136 0.009495 0.000000 0.000134 0.000000
# 4 0.000000 0.000000 0.000000 0.037433 0.000000 -0.004957
# 5 -0.000371 -0.000707 0.000134 0.000000 0.022722 0.000000
# 6 0.000000 0.000000 0.000000 -0.004957 0.000000 0.040094
#
#
# Mechanical properties :
#
#
# Convention : Reuss Voigt Hill
#
# Bulk Modulus (GPa) = 31.60829 49.31115 40.45972
# Shear Modulus (GPa) = 28.77197 33.41301 31.09249
#
# Velocity S-wave (km/s) = 3.77943 4.07286 3.92889
# Velocity P-wave (km/s) = 5.89387 6.82632 6.37716
#
# Compressibility (1/GPa) = 0.03163727
#
# Stress axis : x y z
#
# Youngs Moduli (GPa) = 79.05191 39.73526 105.32319
#
# Poissons Ratio (x) = 0.10078 0.57261
# Poissons Ratio (y) = 0.20050 -0.01433
# Poissons Ratio (z) = 0.42978 -0.00541
#
# Static dielectric constant tensor:
#      x y z
#    x 3.740310 0.000000 -0.067070 
#    y 0.000000 3.541960 0.000000 
#    z -0.067070 0.000000 4.174790 
# 
# 
# High freq. dielectric constant tensor:
#      x y z
#    x 1.785080 0.000000 0.001900 
#    y 0.000000 1.771700 0.000000 
#    z 0.001900 0.000000 1.807450 
# 
# From -- ./inp_files/342326.got.cif
#   From: 2010.06.25/outbox.cif.g09.slc.cpg/sg12_172_cif.got.tgz:342326.got - 2010.06.28 00:19:55.
