data_PCOD8102148
_publ_section_title
;
Structure prediction by ZEFSAII (Michael W. Deem and Ramdas Pophale) SiO2 
 PCOD8102148
Probable space group: C 2/M
;
_chemical_formula_sum "Si O2"
_cell_formula_units_Z 64
_cell_length_a 12.850602
_cell_length_b 26.374776
_cell_length_c 17.026862
_cell_angle_alpha 90.000000
_cell_angle_beta 34.710172
_cell_angle_gamma 90.000000
_cell_volume 3286.122590
_symmetry_space_group_name_H-M "C 2/M"
_symmetry_group_IT_number 12
_symmetry_cell_setting 'monoclinic'
loop_
_space_group_symop_operation_xyz
x,y,z
-x,y,-z
-x,-y,-z
x,-y,z
1/2+x,1/2+y,z
1/2-x,1/2+y,-z
1/2-x,1/2-y,-z
1/2+x,1/2-y,z
loop_
_atom_site_type_symbol
_atom_site_label
_atom_site_fract_x
_atom_site_fract_y
_atom_site_fract_z
Si Si1 0.009111 0.121487 0.859111
Si Si2 0.286170 0.747554 0.625062
Si Si3 0.590730 0.057711 0.634730
Si Si4 0.760644 0.370097 0.848163
Si Si5 0.290589 0.736627 0.153954
Si Si6 0.346235 0.362460 0.536704
Si Si7 0.516496 0.686940 0.704174
Si Si8 0.808260 0.444169 0.598924
O O1 0.122211 0.142539 0.862528
O O2 0.123349 0.076089 0.751034
O O3 0.963269 0.159942 0.818259
O O4 0.820157 0.106134 0.020392
O O5 0.500000 0.760303 0.500000
O O6 0.195583 0.767236 0.760666
O O7 0.254749 0.687995 0.629224
O O8 0.193431 0.777711 0.610450
O O9 0.406890 0.088874 0.728488
O O10 0.699636 0.091856 0.629514
O O11 0.714845 0.054729 0.480183
O O12 0.551110 0.000000 0.689765
O O13 0.814508 0.310685 0.825535
O O14 0.164602 0.784446 0.210982
O O15 0.500000 0.745164 0.000000
O O16 0.500000 0.382329 0.500000
O O17 0.424831 0.351934 0.400726
O O18 0.827825 0.500000 0.623802
O O19 0.000000 0.414668 0.500000
#
# Coordination Sequence:
#
# PCOD8102148 Si02
#       8
#     8   8   8   8   8   8   8   8
#     4  11  22  38  60  87 127 170 197 251 317 375
#     4  11  23  38  62  96 126 167 209 256 321 377
#     4  11  24  40  67  94 122 165 211 266 328 375
#     4  11  23  41  58  94 130 160 211 253 310 383
#     4  12  24  41  60  91 130 172 218 258 306 379
#     4  11  23  41  62  93 123 157 215 270 307 375
#     4  12  23  39  63  91 127 169 211 260 321 374
#     4  10  20  36  60  91 119 155 205 257 315 380
#
# _framework density 19.475840999999999
#
# number of rings (size 3 to 8) (size 9 to 14) (size 15 to 20)
#    0.000    0.875    7.500    1.125    1.750    4.250 
#    0.000    1.250    0.000    0.000    0.000    0.875 
#    0.000    0.000    0.000    0.000    0.000    0.000 
#
# Total GULP energy -396428.915130 kJ/mol
# GULP energy per Si atom -12388.403598 kJ/mol
# Density = 1.943151 g / cm^3
# Si number density = 19.475841 Si / 1000 Ang^3
#
#
#
# Elastic Constant Matrix: (Units=GPa)
#
#
# Indices 1 2 3 4 5 6 
#
# 1 84.2657 26.4597 18.3143 0.0612 2.7051 -0.2145
# 2 26.4597 91.5371 38.2802 0.1328 -5.3253 -0.4608
# 3 18.3143 38.2802 106.8839 0.2334 13.9765 -0.8391
# 4 0.0612 0.1328 0.2334 -36.0518 -0.0729 218.0905
# 5 2.7051 -5.3253 13.9765 -0.0729 25.0634 0.2517
# 6 -0.2145 -0.4608 -0.8391 218.0905 0.2517 -766.6506
#
#
#
# Elastic Compliance Matrix: (Units=1/GPa)
#
#
# Indices 1 2 3 4 5 6 
#
# 1 0.013220 -0.003617 -0.000736 0.000000 -0.001785 -0.000001
# 2 -0.003617 0.014645 -0.005483 -0.000002 0.006560 0.000000
# 3 -0.000736 -0.005483 0.012499 0.000003 -0.008055 -0.000012
# 4 0.000000 -0.000002 0.000003 0.038478 0.000000 0.010946
# 5 -0.001785 0.006560 -0.008055 0.000000 0.045977 0.000021
# 6 -0.000001 0.000000 -0.000012 0.010946 0.000021 0.001809
#
#
# Mechanical properties :
#
#
# Convention : Reuss Voigt Hill
#
# Bulk Modulus (GPa) = 48.33034 49.86613 49.09824
# Shear Modulus (GPa) = 32.63726 -142.21897 -54.79086
#
# Velocity S-wave (km/s) = 4.09807 -8.55464 -5.30978
# Velocity P-wave (km/s) = 6.87471 8.48033 3.51101
#
# Compressibility (1/GPa) = 0.02069093
#
# Stress axis : x y z
#
# Youngs Moduli (GPa) = 75.64044 68.28400 80.00608
#
# Poissons Ratio (x) = 0.24701 0.05891
# Poissons Ratio (y) = 0.27362 0.43866
# Poissons Ratio (z) = 0.05570 0.37439
#
# Static dielectric constant tensor:
#      x y z
#    x 3.661490 -0.000010 0.248330 
#    y -0.000010 3.504160 0.000030 
#    z 0.248330 0.000030 3.738070 
# 
# 
# High freq. dielectric constant tensor:
#      x y z
#    x 1.751470 0.000000 0.009510 
#    y 0.000000 1.747560 0.000000 
#    z 0.009510 0.000000 1.757910 
# 
# From -- ./inp_files/209381.got.cif
#   From: 2010.06.25/outbox.cif.g09.slc.cpg/sg12_105_cif.got.tgz:209381.got - 2010.06.28 00:19:55.
