data_PCOD8102740
_publ_section_title
;
Structure prediction by ZEFSAII (Michael W. Deem and Ramdas Pophale) SiO2 
 PCOD8102740
Probable space group: C 2/M
;
_chemical_formula_sum "Si O2"
_cell_formula_units_Z 48
_cell_length_a 21.813495
_cell_length_b 16.168978
_cell_length_c 21.813549
_cell_angle_alpha 90.000000
_cell_angle_beta 159.683675
_cell_angle_gamma 90.000000
_cell_volume 2671.267961
_symmetry_space_group_name_H-M "C 2/M"
_symmetry_group_IT_number 12
_symmetry_cell_setting 'monoclinic'
loop_
_space_group_symop_operation_xyz
x,y,z
-x,y,-z
-x,-y,-z
x,-y,z
1/2+x,1/2+y,z
1/2-x,1/2+y,-z
1/2-x,1/2-y,-z
1/2+x,1/2-y,z
loop_
_atom_site_type_symbol
_atom_site_label
_atom_site_fract_x
_atom_site_fract_y
_atom_site_fract_z
Si Si1 0.793702 0.000000 0.753367
Si Si2 0.523454 0.326648 0.091914
Si Si3 0.167731 0.645177 0.827031
Si Si4 0.531695 0.305688 0.325080
Si Si5 0.429134 0.000000 0.344147
Si Si6 0.883664 0.281832 0.716208
Si Si7 0.199151 0.405243 0.992669
O O1 0.899884 0.919083 0.833411
O O2 0.600544 0.000000 0.545542
O O3 0.756700 0.000000 0.792035
O O4 0.645395 0.261992 0.244582
O O5 0.500000 0.296120 0.000000
O O6 0.337367 0.322587 0.950865
O O7 0.058943 0.580529 0.685660
O O8 0.035180 0.719706 0.711192
O O9 0.222125 0.603523 0.941654
O O10 0.707038 0.329664 0.527943
O O11 0.571539 0.291233 0.290352
O O12 0.384845 0.376395 0.196553
O O13 0.039652 0.349030 0.867759
O O14 0.163900 0.500000 0.978199
#
# Coordination Sequence:
#
# PCOD8102740 Si02
#       7
#     4   8   8   8   4   8   8
#     4  11  24  31  48  81 116 165 190 218 257 317
#     4  12  21  35  55  80 113 155 194 222 269 328
#     4  11  19  36  55  79 113 151 183 224 271 331
#     4  10  20  37  59  79 111 148 182 232 283 328
#     4  11  21  36  47  78 125 150 194 223 256 330
#     4  10  21  38  56  82 112 145 188 229 277 334
#     4  11  21  36  59  84 109 143 184 236 288 329
#
# _framework density 17.968993999999999
#
# number of rings (size 3 to 8) (size 9 to 14) (size 15 to 20)
#    0.000    1.167    5.833    2.750    0.000    0.667 
#    0.000    0.000    0.000    0.500    0.000    1.167 
#    0.000    0.000    0.000    0.000    0.000    0.000 
#
# Total GULP energy -297586.688290 kJ/mol
# GULP energy per Si atom -12399.445345 kJ/mol
# Density = 1.792810 g / cm^3
# Si number density = 17.968994 Si / 1000 Ang^3
#
#
#
# Elastic Constant Matrix: (Units=GPa)
#
#
# Indices 1 2 3 4 5 6 
#
# 1 85.9520 39.5127 29.0323 -0.0094 -10.5721 -0.0017
# 2 39.5127 86.2167 42.8337 -0.0183 -12.9650 -0.0096
# 3 29.0323 42.8337 114.7506 -0.0360 -2.6293 -0.0152
# 4 -0.0094 -0.0183 -0.0360 18.5630 -0.0219 -6.8004
# 5 -10.5721 -12.9650 -2.6293 -0.0219 23.5224 -0.0075
# 6 -0.0017 -0.0096 -0.0152 -6.8004 -0.0075 25.3284
#
#
#
# Elastic Compliance Matrix: (Units=1/GPa)
#
#
# Indices 1 2 3 4 5 6 
#
# 1 0.015215 -0.005605 -0.001676 0.000003 0.003562 0.000000
# 2 -0.005605 0.017664 -0.005023 0.000016 0.006655 0.000010
# 3 -0.001676 -0.005023 0.010961 0.000016 -0.002296 0.000008
# 4 0.000003 0.000016 0.000016 0.059747 0.000073 0.016041
# 5 0.003562 0.006655 -0.002296 0.000073 0.047525 0.000035
# 6 0.000000 0.000010 0.000008 0.016041 0.000035 0.043788
#
#
# Mechanical properties :
#
#
# Convention : Reuss Voigt Hill
#
# Bulk Modulus (GPa) = 51.99486 56.63073 54.31279
# Shear Modulus (GPa) = 22.13193 25.18547 23.65870
#
# Velocity S-wave (km/s) = 3.51333 3.74787 3.63249
# Velocity P-wave (km/s) = 6.74216 7.09316 6.91988
#
# Compressibility (1/GPa) = 0.01923267
#
# Stress axis : x y z
#
# Youngs Moduli (GPa) = 65.72406 56.61359 91.23416
#
# Poissons Ratio (x) = 0.31731 0.15288
# Poissons Ratio (y) = 0.36838 0.45826
# Poissons Ratio (z) = 0.11013 0.28436
#
# Static dielectric constant tensor:
#      x y z
#    x 3.447760 -0.000020 -0.081060 
#    y -0.000020 3.165950 0.000000 
#    z -0.081060 0.000000 3.519280 
# 
# 
# High freq. dielectric constant tensor:
#      x y z
#    x 1.678960 0.000000 0.001600 
#    y 0.000000 1.677000 0.000000 
#    z 0.001600 0.000000 1.712050 
# 
# From -- ./inp_files/322597.got.cif
#   From: 2010.06.25/outbox.cif.g09.slc.cpg/sg12_162_cif.got.tgz:322597.got - 2010.06.28 00:19:55.
