data_PCOD8102462
_publ_section_title
;
Structure prediction by ZEFSAII (Michael W. Deem and Ramdas Pophale) SiO2 
 PCOD8102462
Probable space group: C 2/M
;
_chemical_formula_sum "Si O2"
_cell_formula_units_Z 48
_cell_length_a 17.893840
_cell_length_b 14.254050
_cell_length_c 17.936948
_cell_angle_alpha 90.000000
_cell_angle_beta 150.286905
_cell_angle_gamma 90.000000
_cell_volume 2267.627839
_symmetry_space_group_name_H-M "C 2/M"
_symmetry_group_IT_number 12
_symmetry_cell_setting 'monoclinic'
loop_
_space_group_symop_operation_xyz
x,y,z
-x,y,-z
-x,-y,-z
x,-y,z
1/2+x,1/2+y,z
1/2-x,1/2+y,-z
1/2-x,1/2-y,-z
1/2+x,1/2-y,z
loop_
_atom_site_type_symbol
_atom_site_label
_atom_site_fract_x
_atom_site_fract_y
_atom_site_fract_z
Si Si1 0.997768 0.105805 0.273212
Si Si2 0.731378 0.889682 0.598413
Si Si3 0.567081 0.795368 0.718348
Si Si4 0.838252 0.599983 0.889133
Si Si5 0.822838 0.205452 0.829691
Si Si6 0.176329 0.395195 0.952913
O O1 0.964073 0.182291 0.309660
O O2 0.148044 0.136088 0.360448
O O3 0.015095 0.000000 0.321926
O O4 0.856294 0.106841 0.093458
O O5 0.572393 0.847588 0.438749
O O6 0.784761 0.846469 0.721669
O O7 0.716229 0.000000 0.596207
O O8 0.715369 0.831623 0.803041
O O9 0.587485 0.824454 0.822420
O O10 0.745354 0.500000 0.805917
O O11 0.776111 0.683960 0.783417
O O12 0.849036 0.637380 0.983678
O O13 0.000000 0.574173 0.000000
O O14 0.000000 0.191834 0.000000
O O15 0.111604 0.500000 0.884204
#
# Coordination Sequence:
#
# PCOD8102462 Si02
#       6
#     8   8   8   8   8   8
#     4  10  22  41  63  91 127 163 207 256 304 363
#     4  11  26  45  62  89 128 167 208 258 312 371
#     4  12  23  39  66  94 126 164 206 255 314 370
#     4   9  19  36  59  91 126 157 201 256 304 361
#     4  11  24  40  66  92 125 166 209 251 310 366
#     4  10  20  36  64  95 122 160 206 256 308 362
#
# _framework density 21.167494000000001
#
# number of rings (size 3 to 8) (size 9 to 14) (size 15 to 20)
#    0.000    1.500    1.667    3.000    4.667    2.333 
#    0.000    0.833    0.000    2.000    0.000    0.000 
#    0.000    0.000    0.000    0.000    0.000    0.000 
#
# Total GULP energy -297373.566417 kJ/mol
# GULP energy per Si atom -12390.565267 kJ/mol
# Density = 2.111932 g / cm^3
# Si number density = 21.167494 Si / 1000 Ang^3
#
#
#
# Elastic Constant Matrix: (Units=GPa)
#
#
# Indices 1 2 3 4 5 6 
#
# 1 118.0152 42.6926 53.9584 0.0018 25.1306 0.0018
# 2 42.6926 104.3561 52.2276 0.0021 2.2306 0.0017
# 3 53.9584 52.2276 112.9346 0.0041 12.8744 0.0038
# 4 0.0018 0.0021 0.0041 33.0453 0.0011 -2.9830
# 5 25.1306 2.2306 12.8744 0.0011 18.5468 0.0003
# 6 0.0018 0.0017 0.0038 -2.9830 0.0003 29.9978
#
#
#
# Elastic Compliance Matrix: (Units=1/GPa)
#
#
# Indices 1 2 3 4 5 6 
#
# 1 0.015357 -0.004232 -0.003330 0.000000 -0.017989 0.000000
# 2 -0.004232 0.013762 -0.005221 0.000000 0.007703 0.000000
# 3 -0.003330 -0.005221 0.013329 -0.000001 -0.004113 -0.000001
# 4 0.000000 0.000000 -0.000001 0.030536 -0.000002 0.003037
# 5 -0.017989 0.007703 -0.004113 -0.000002 0.080220 0.000000
# 6 0.000000 0.000000 -0.000001 0.003037 0.000000 0.033638
#
#
# Mechanical properties :
#
#
# Convention : Reuss Voigt Hill
#
# Bulk Modulus (GPa) = 59.22869 70.34036 64.78452
# Shear Modulus (GPa) = 22.93225 28.74647 25.83936
#
# Velocity S-wave (km/s) = 3.29503 3.68917 3.49766
# Velocity P-wave (km/s) = 6.52058 7.17280 6.85446
#
# Compressibility (1/GPa) = 0.01688371
#
# Stress axis : x y z
#
# Youngs Moduli (GPa) = 65.11548 72.66430 75.02592
#
# Poissons Ratio (x) = 0.30750 0.24982
# Poissons Ratio (y) = 0.27555 0.39168
# Poissons Ratio (z) = 0.21682 0.37935
#
# Static dielectric constant tensor:
#      x y z
#    x 3.953780 0.000000 0.317490 
#    y 0.000000 4.173870 0.000000 
#    z 0.317490 0.000000 3.603440 
# 
# 
# High freq. dielectric constant tensor:
#      x y z
#    x 1.837340 0.000000 0.026090 
#    y 0.000000 1.851860 0.000000 
#    z 0.026090 0.000000 1.795570 
# 
# From -- ./inp_files/278238.got.cif
#   From: 2010.06.25/outbox.cif.g09.slc.cpg/sg12_140_cif.got.tgz:278238.got - 2010.06.28 00:19:55.
