data_PCOD8102501
_publ_section_title
;
Structure prediction by ZEFSAII (Michael W. Deem and Ramdas Pophale) SiO2 
 PCOD8102501
Probable space group: C 2/M
;
_chemical_formula_sum "Si O2"
_cell_formula_units_Z 64
_cell_length_a 9.431785
_cell_length_b 24.028908
_cell_length_c 20.625538
_cell_angle_alpha 90.000000
_cell_angle_beta 47.216531
_cell_angle_gamma 90.000000
_cell_volume 3430.721047
_symmetry_space_group_name_H-M "C 2/M"
_symmetry_group_IT_number 12
_symmetry_cell_setting 'monoclinic'
loop_
_space_group_symop_operation_xyz
x,y,z
-x,y,-z
-x,-y,-z
x,-y,z
1/2+x,1/2+y,z
1/2-x,1/2+y,-z
1/2-x,1/2-y,-z
1/2+x,1/2-y,z
loop_
_atom_site_type_symbol
_atom_site_label
_atom_site_fract_x
_atom_site_fract_y
_atom_site_fract_z
Si Si1 0.276982 0.102315 0.911144
Si Si2 0.042920 0.064016 0.413669
Si Si3 0.395917 0.741598 0.200239
Si Si4 0.204616 0.365430 0.756213
Si Si5 0.303442 0.726925 0.085858
Si Si6 0.510012 0.437263 0.102359
Si Si7 0.790332 0.436069 0.583423
Si Si8 0.542299 0.631880 0.754746
O O1 0.509464 0.102116 0.836802
O O2 0.193664 0.164160 0.939401
O O3 0.188041 0.071481 0.876230
O O4 0.200581 0.071766 0.999208
O O5 0.208384 0.103693 0.333355
O O6 0.000000 0.082712 0.500000
O O7 0.845360 0.072127 0.436246
O O8 0.114256 0.000000 0.388029
O O9 0.338839 0.801220 0.248994
O O10 0.277837 0.729778 0.171603
O O11 0.623338 0.740747 0.110620
O O12 0.364884 0.692971 0.262553
O O13 0.351037 0.366803 0.770586
O O14 0.500000 0.756489 0.000000
O O15 0.513258 0.500000 0.128354
O O16 0.519359 0.394665 0.158445
O O17 0.804918 0.500000 0.600295
O O18 0.711604 0.403173 0.669459
O O19 0.000000 0.412234 0.500000
#
# Coordination Sequence:
#
# PCOD8102501 Si02
#       8
#     8   8   8   8   8   8   8   8
#     4  10  20  37  54  79 114 149 193 235 278 333
#     4   9  19  38  62  86 112 140 180 232 282 340
#     4  11  21  36  54  81 114 148 190 239 279 337
#     4  10  23  38  59  84 114 154 186 234 287 334
#     4  11  19  34  54  78 105 149 195 239 281 320
#     4  11  22  37  56  80 114 155 192 237 286 336
#     4   9  19  37  60  86 110 138 182 232 284 341
#     4  11  21  39  57  82 117 149 190 235 287 337
#
# _framework density 18.654972000000001
#
# number of rings (size 3 to 8) (size 9 to 14) (size 15 to 20)
#    0.000    1.750    3.750    1.500    0.000    4.000 
#    0.000    2.500    0.000    3.000    0.000    0.000 
#    0.000    0.000    0.000    0.000    0.000    0.000 
#
# Total GULP energy -396835.969452 kJ/mol
# GULP energy per Si atom -12401.124045 kJ/mol
# Density = 1.861251 g / cm^3
# Si number density = 18.654972 Si / 1000 Ang^3
#
#
#
# Elastic Constant Matrix: (Units=GPa)
#
#
# Indices 1 2 3 4 5 6 
#
# 1 72.2795 31.4858 54.3659 0.0000 -3.0063 0.0000
# 2 31.4858 99.6460 50.4683 0.0000 -0.4679 0.0000
# 3 54.3659 50.4683 113.2961 0.0000 -4.3281 0.0000
# 4 0.0000 0.0000 0.0000 19.1314 0.0000 -0.3653
# 5 -3.0063 -0.4679 -4.3281 0.0000 35.1036 0.0000
# 6 0.0000 0.0000 0.0000 -0.3653 0.0000 20.9737
#
#
#
# Elastic Compliance Matrix: (Units=1/GPa)
#
#
# Indices 1 2 3 4 5 6 
#
# 1 0.021990 -0.002084 -0.009598 0.000000 0.000672 0.000000
# 2 -0.002084 0.013167 -0.004888 0.000000 -0.000606 0.000000
# 3 -0.009598 -0.004888 0.015650 0.000000 0.001042 0.000000
# 4 0.000000 0.000000 0.000000 0.052287 0.000000 0.000911
# 5 0.000672 -0.000606 0.001042 0.000000 0.028665 0.000000
# 6 0.000000 0.000000 0.000000 0.000911 0.000000 0.047695
#
#
# Mechanical properties :
#
#
# Convention : Reuss Voigt Hill
#
# Bulk Modulus (GPa) = 56.60693 61.98461 59.29577
# Shear Modulus (GPa) = 22.88496 24.96851 23.92674
#
# Velocity S-wave (km/s) = 3.50630 3.66244 3.58522
# Velocity P-wave (km/s) = 6.84121 7.15427 6.99949
#
# Compressibility (1/GPa) = 0.01766568
#
# Stress axis : x y z
#
# Youngs Moduli (GPa) = 45.47451 75.94713 63.89947
#
# Poissons Ratio (x) = 0.15827 0.61332
# Poissons Ratio (y) = 0.09477 0.31237
# Poissons Ratio (z) = 0.43647 0.37126
#
# Static dielectric constant tensor:
#      x y z
#    x 3.475130 0.000000 -0.079980 
#    y 0.000000 3.497020 0.000000 
#    z -0.079980 0.000000 3.352240 
# 
# 
# High freq. dielectric constant tensor:
#      x y z
#    x 1.730320 0.000000 -0.002080 
#    y 0.000000 1.725730 0.000000 
#    z -0.002080 0.000000 1.706680 
# 
# From -- ./inp_files/302328.got.cif
#   From: 2010.06.25/outbox.cif.g09.slc.cpg/sg12_152_cif.got.tgz:302328.got - 2010.06.28 00:19:55.
