data_PCOD8102565
_publ_section_title
;
Structure prediction by ZEFSAII (Michael W. Deem and Ramdas Pophale) SiO2 
 PCOD8102565
Probable space group: C 2/M
;
_chemical_formula_sum "Si O2"
_cell_formula_units_Z 48
_cell_length_a 9.028619
_cell_length_b 9.911473
_cell_length_c 25.721835
_cell_angle_alpha 90.000000
_cell_angle_beta 76.158451
_cell_angle_gamma 90.000000
_cell_volume 2234.926703
_symmetry_space_group_name_H-M "C 2/M"
_symmetry_group_IT_number 12
_symmetry_cell_setting 'monoclinic'
loop_
_space_group_symop_operation_xyz
x,y,z
-x,y,-z
-x,-y,-z
x,-y,z
1/2+x,1/2+y,z
1/2-x,1/2+y,-z
1/2-x,1/2-y,-z
1/2+x,1/2-y,z
loop_
_atom_site_type_symbol
_atom_site_label
_atom_site_fract_x
_atom_site_fract_y
_atom_site_fract_z
Si Si1 0.260772 0.153708 0.380655
Si Si2 0.039245 0.352249 0.729113
Si Si3 0.034467 0.147590 0.129365
Si Si4 0.012916 0.652520 0.440184
Si Si5 0.252682 0.226873 0.199951
Si Si6 0.623534 0.847572 0.033508
O O1 0.365213 0.216051 0.325528
O O2 0.115998 0.249505 0.397098
O O3 0.346825 0.155884 0.428453
O O4 0.209678 0.000000 0.371399
O O5 0.996207 0.500000 0.713064
O O6 0.137835 0.365301 0.773910
O O7 0.879084 0.280168 0.751343
O O8 0.865130 0.156851 0.168262
O O9 0.170951 0.147882 0.159995
O O10 0.052607 0.274215 0.089469
O O11 0.044946 0.000000 0.100800
O O12 0.079937 0.500000 0.434100
O O13 0.000000 0.706650 0.500000
O O14 0.682384 0.000000 0.043466
O O15 0.500000 0.865698 0.000000
O O16 0.750000 0.750000 0.000000
#
# Coordination Sequence:
#
# PCOD8102565 Si02
#       6
#     8   8   8   8   8   8
#     4  10  21  36  57  84 112 148 193 237 285 342
#     4  10  20  37  57  80 114 151 189 235 284 336
#     4  11  23  39  61  89 118 151 193 235 281 338
#     4  10  21  37  56  81 114 149 188 237 290 344
#     4  10  22  37  58  85 116 152 190 233 283 336
#     4  11  25  43  64  90 120 154 192 236 285 337
#
# _framework density 21.477215000000001
#
# number of rings (size 3 to 8) (size 9 to 14) (size 15 to 20)
#    0.000    1.667    0.000    4.000    0.000    9.000 
#    0.000    4.167    0.000    0.000    0.000    0.000 
#    0.000    0.000    0.000    0.000    0.000    0.000 
#
# Total GULP energy -297482.267607 kJ/mol
# GULP energy per Si atom -12395.094484 kJ/mol
# Density = 2.142833 g / cm^3
# Si number density = 21.477215 Si / 1000 Ang^3
#
#
#
# Elastic Constant Matrix: (Units=GPa)
#
#
# Indices 1 2 3 4 5 6 
#
# 1 78.0291 25.2868 9.1547 0.0000 -10.1878 0.0000
# 2 25.2868 127.7315 32.0012 0.0000 -20.3929 0.0000
# 3 9.1547 32.0012 87.9961 0.0000 -7.9809 0.0000
# 4 0.0000 0.0000 0.0000 30.5399 0.0000 -1.9347
# 5 -10.1878 -20.3929 -7.9809 0.0000 39.5388 0.0000
# 6 0.0000 0.0000 0.0000 -1.9347 0.0000 16.4722
#
#
#
# Elastic Compliance Matrix: (Units=1/GPa)
#
#
# Indices 1 2 3 4 5 6 
#
# 1 0.013906 -0.002280 -0.000407 0.000000 0.002325 0.000000
# 2 -0.002280 0.009615 -0.002916 0.000000 0.003783 0.000000
# 3 -0.000407 -0.002916 0.012551 0.000000 0.000924 0.000000
# 4 0.000000 0.000000 0.000000 0.032989 0.000000 0.003875
# 5 0.002325 0.003783 0.000924 0.000000 0.028028 0.000000
# 6 0.000000 0.000000 0.000000 0.003875 0.000000 0.061163
#
#
# Mechanical properties :
#
#
# Convention : Reuss Voigt Hill
#
# Bulk Modulus (GPa) = 40.21577 47.40466 43.81021
# Shear Modulus (GPa) = 28.12984 32.46445 30.29715
#
# Velocity S-wave (km/s) = 3.62298 3.89212 3.75996
# Velocity P-wave (km/s) = 6.02219 6.50524 6.26837
#
# Compressibility (1/GPa) = 0.02486587
#
# Stress axis : x y z
#
# Youngs Moduli (GPa) = 71.91222 104.00571 79.67578
#
# Poissons Ratio (x) = 0.23711 0.03241
# Poissons Ratio (y) = 0.16395 0.23236
# Poissons Ratio (z) = 0.02925 0.30331
#
# Static dielectric constant tensor:
#      x y z
#    x 3.798920 0.000000 0.009550 
#    y 0.000000 3.914210 0.000000 
#    z 0.009550 0.000000 3.972170 
# 
# 
# High freq. dielectric constant tensor:
#      x y z
#    x 1.842830 0.000000 0.002270 
#    y 0.000000 1.835740 0.000000 
#    z 0.002270 0.000000 1.850420 
# 
# From -- ./inp_files/332225.got.cif
#   From: 2010.06.25/outbox.cif.g09.slc.cpg/sg12_167_cif.got.tgz:332225.got - 2010.06.28 00:19:55.
