data_PCOD8102710
_publ_section_title
;
Structure prediction by ZEFSAII (Michael W. Deem and Ramdas Pophale) SiO2 
 PCOD8102710
Probable space group: C 2/M
;
_chemical_formula_sum "Si O2"
_cell_formula_units_Z 56
_cell_length_a 24.320847
_cell_length_b 10.528150
_cell_length_c 11.353483
_cell_angle_alpha 90.000000
_cell_angle_beta 69.957590
_cell_angle_gamma 90.000000
_cell_volume 2731.043091
_symmetry_space_group_name_H-M "C 2/M"
_symmetry_group_IT_number 12
_symmetry_cell_setting 'monoclinic'
loop_
_space_group_symop_operation_xyz
x,y,z
-x,y,-z
-x,-y,-z
x,-y,z
1/2+x,1/2+y,z
1/2-x,1/2+y,-z
1/2-x,1/2-y,-z
1/2+x,1/2-y,z
loop_
_atom_site_type_symbol
_atom_site_label
_atom_site_fract_x
_atom_site_fract_y
_atom_site_fract_z
Si Si1 0.052369 0.357140 0.677969
Si Si2 0.824018 0.362153 0.444257
Si Si3 0.338552 0.645078 0.780991
Si Si4 0.255951 0.710847 0.298994
Si Si5 0.433129 0.142270 0.065858
Si Si6 0.847247 0.858211 0.042291
Si Si7 0.529605 0.646800 0.351957
O O1 0.028200 0.500000 0.662891
O O2 0.110614 0.318602 0.560655
O O3 0.079668 0.358725 0.787594
O O4 0.003435 0.248456 0.706181
O O5 0.830022 0.500000 0.382279
O O6 0.784047 0.377028 0.589619
O O7 0.799204 0.277327 0.358365
O O8 0.338659 0.500000 0.748154
O O9 0.287525 0.698165 0.738077
O O10 0.403425 0.694689 0.698635
O O11 0.323300 0.670550 0.928984
O O12 0.294234 0.637115 0.174461
O O13 0.393634 0.248163 0.033150
O O14 0.421208 0.000000 0.021145
O O15 0.500000 0.181564 0.000000
O O16 0.876242 0.000000 0.022998
O O17 0.500000 0.659381 0.500000
O O18 0.523717 0.500000 0.310227
#
# Coordination Sequence:
#
# PCOD8102710 Si02
#       7
#     8   8   8   8   8   8   8
#     4  10  20  37  58  85 115 149 194 243 298 352
#     4  10  21  37  59  86 117 152 199 254 301 353
#     4  10  22  39  60  86 121 161 201 244 300 361
#     4  11  21  38  60  85 118 159 201 246 300 358
#     4  10  21  38  60  86 116 154 201 246 294 358
#     4  11  23  39  59  89 124 157 200 250 298 360
#     4  10  21  38  59  87 118 153 200 246 294 357
#
# _framework density 20.504985000000001
#
# number of rings (size 3 to 8) (size 9 to 14) (size 15 to 20)
#    0.000    1.714    1.429    3.000    0.000    1.714 
#    0.000    3.571    0.000    0.000    0.000    0.000 
#    0.000    0.000    0.000    0.000    0.000    0.000 
#
# Total GULP energy -346886.031941 kJ/mol
# GULP energy per Si atom -12388.786855 kJ/mol
# Density = 2.045831 g / cm^3
# Si number density = 20.504985 Si / 1000 Ang^3
#
#
#
# Elastic Constant Matrix: (Units=GPa)
#
#
# Indices 1 2 3 4 5 6 
#
# 1 67.9512 38.9170 13.3718 0.0000 -10.6369 0.0000
# 2 38.9170 85.1244 9.2238 0.0000 0.7409 0.0000
# 3 13.3718 9.2238 90.8132 0.0000 -11.1934 0.0000
# 4 0.0000 0.0000 0.0000 2.3287 0.0000 -15.5291
# 5 -10.6369 0.7409 -11.1934 0.0000 31.9317 0.0000
# 6 0.0000 0.0000 0.0000 -15.5291 0.0000 -1.4180
#
#
#
# Elastic Compliance Matrix: (Units=1/GPa)
#
#
# Indices 1 2 3 4 5 6 
#
# 1 0.021710 -0.009842 -0.001335 0.000000 0.006992 0.000000
# 2 -0.009842 0.016356 -0.000693 0.000000 -0.003901 0.000000
# 3 -0.001335 -0.000693 0.011733 0.000000 0.003684 0.000000
# 4 0.000000 0.000000 0.000000 0.005801 0.000000 -0.063525
# 5 0.006992 -0.003901 0.003684 0.000000 0.035028 0.000000
# 6 0.000000 0.000000 0.000000 -0.063525 0.000000 -0.009526
#
#
# Mechanical properties :
#
#
# Convention : Reuss Voigt Hill
#
# Bulk Modulus (GPa) = 38.37409 40.76821 39.57115
# Shear Modulus (GPa) = 44.04208 18.72688 31.38448
#
# Velocity S-wave (km/s) = 4.63954 3.02534 3.91650
# Velocity P-wave (km/s) = 6.88880 5.66823 6.30811
#
# Compressibility (1/GPa) = 0.02605925
#
# Stress axis : x y z
#
# Youngs Moduli (GPa) = 46.06114 61.13997 85.23189
#
# Poissons Ratio (x) = 0.60172 0.11381
# Poissons Ratio (y) = 0.45332 0.05906
# Poissons Ratio (z) = 0.06150 0.04236
#
# Static dielectric constant tensor:
#      x y z
#    x 3.806980 0.000000 -0.379600 
#    y 0.000000 3.732460 0.000000 
#    z -0.379600 0.000000 4.073570 
# 
# 
# High freq. dielectric constant tensor:
#      x y z
#    x 1.795630 0.000000 -0.020750 
#    y 0.000000 1.800060 0.000000 
#    z -0.020750 0.000000 1.816200 
# 
# From -- ./inp_files/180804.got.cif
#   From: 2010.06.25/outbox.cif.g09.slc.cpg/sg12_91_cif.got.tgz:180804.got - 2010.06.28 00:19:55.
