data_PCOD8102867
_publ_section_title
;
Structure prediction by ZEFSAII (Michael W. Deem and Ramdas Pophale) SiO2 
 PCOD8102867
Probable space group: C 2/M
;
_chemical_formula_sum "Si O2"
_cell_formula_units_Z 64
_cell_length_a 9.619897
_cell_length_b 27.657917
_cell_length_c 13.200061
_cell_angle_alpha 90.000000
_cell_angle_beta 78.021946
_cell_angle_gamma 90.000000
_cell_volume 3435.623370
_symmetry_space_group_name_H-M "C 2/M"
_symmetry_group_IT_number 12
_symmetry_cell_setting 'monoclinic'
loop_
_space_group_symop_operation_xyz
x,y,z
-x,y,-z
-x,-y,-z
x,-y,z
1/2+x,1/2+y,z
1/2-x,1/2+y,-z
1/2-x,1/2-y,-z
1/2+x,1/2-y,z
loop_
_atom_site_type_symbol
_atom_site_label
_atom_site_fract_x
_atom_site_fract_y
_atom_site_fract_z
Si Si1 0.967367 0.944409 0.391199
Si Si2 0.330130 0.703707 0.034032
Si Si3 0.894872 0.699516 0.258360
Si Si4 0.205438 0.383351 0.390066
Si Si5 0.091922 0.396109 0.630939
Si Si6 0.747885 0.054128 0.769688
Si Si7 0.647369 0.139845 0.926071
Si Si8 0.287173 0.211071 0.730266
O O1 0.844367 0.914930 0.353672
O O2 0.000000 0.924354 0.500000
O O3 0.094622 0.936701 0.294426
O O4 0.920653 0.000000 0.408040
O O5 0.298002 0.695424 0.156929
O O6 0.500000 0.708548 0.000000
O O7 0.250000 0.750000 0.000000
O O8 0.269638 0.656465 0.985558
O O9 0.850955 0.652416 0.326252
O O10 0.890202 0.685390 0.140578
O O11 0.776381 0.739139 0.302205
O O12 0.048531 0.719538 0.266945
O O13 0.151569 0.392713 0.510461
O O14 0.235224 0.327630 0.356638
O O15 0.078511 0.400688 0.335863
O O16 0.149240 0.441716 0.684634
O O17 0.707617 0.092619 0.861046
O O18 0.731089 0.000000 0.816561
O O19 0.500000 0.124138 0.000000
#
# Coordination Sequence:
#
# PCOD8102867 Si02
#       8
#     8   8   8   8   8   8   8   8
#     4  10  20  37  59  86 115 144 185 234 284 342
#     4  12  23  36  57  84 113 148 192 234 281 336
#     4  10  21  36  54  82 113 151 189 233 279 333
#     4  10  21  36  57  83 116 153 184 231 288 336
#     4   9  20  38  56  81 118 151 189 232 276 341
#     4  10  22  39  62  88 112 147 194 238 287 348
#     4  11  22  40  61  81 117 151 189 247 293 333
#     4  11  22  35  55  81 114 147 193 229 277 339
#
# _framework density 18.628352
#
# number of rings (size 3 to 8) (size 9 to 14) (size 15 to 20)
#    0.000    1.625    3.750    1.125    1.750    2.250 
#    0.000    1.250    0.000    0.375    0.000    0.000 
#    0.000    0.000    0.000    0.000    0.000    0.000 
#
# Total GULP energy -396740.428740 kJ/mol
# GULP energy per Si atom -12398.138398 kJ/mol
# Density = 1.858595 g / cm^3
# Si number density = 18.628352 Si / 1000 Ang^3
#
#
#
# Elastic Constant Matrix: (Units=GPa)
#
#
# Indices 1 2 3 4 5 6 
#
# 1 121.1823 65.3540 16.9758 0.0000 -1.3167 0.0000
# 2 65.3540 89.8512 23.6328 0.0000 -2.7684 0.0000
# 3 16.9758 23.6328 33.3382 0.0000 -0.8229 0.0000
# 4 0.0000 0.0000 0.0000 19.0988 0.0000 10.6472
# 5 -1.3167 -2.7684 -0.8229 0.0000 26.4850 0.0000
# 6 0.0000 0.0000 0.0000 10.6472 0.0000 18.6584
#
#
#
# Elastic Compliance Matrix: (Units=1/GPa)
#
#
# Indices 1 2 3 4 5 6 
#
# 1 0.013582 -0.009918 0.000106 0.000000 -0.000358 0.000000
# 2 -0.009918 0.020956 -0.009771 0.000000 0.001394 0.000000
# 3 0.000106 -0.009771 0.036871 0.000000 0.000130 0.000000
# 4 0.000000 0.000000 0.000000 0.076786 0.000000 -0.043817
# 5 -0.000358 0.001394 0.000130 0.000000 0.037889 0.000000
# 6 0.000000 0.000000 0.000000 -0.043817 0.000000 0.078599
#
#
# Mechanical properties :
#
#
# Convention : Reuss Voigt Hill
#
# Bulk Modulus (GPa) = 31.01386 50.69966 40.85676
# Shear Modulus (GPa) = 15.89331 22.07573 18.98452
#
# Velocity S-wave (km/s) = 2.92409 3.44621 3.19583
# Velocity P-wave (km/s) = 5.29956 6.56587 5.96640
#
# Compressibility (1/GPa) = 0.03224365
#
# Stress axis : x y z
#
# Youngs Moduli (GPa) = 73.62648 47.71837 27.12132
#
# Poissons Ratio (x) = 0.47327 -0.00287
# Poissons Ratio (y) = 0.73022 0.26500
# Poissons Ratio (z) = -0.00779 0.46625
#
# Static dielectric constant tensor:
#      x y z
#    x 3.679330 0.000000 0.068200 
#    y 0.000000 3.335350 0.000000 
#    z 0.068200 0.000000 3.452480 
# 
# 
# High freq. dielectric constant tensor:
#      x y z
#    x 1.735450 0.000000 -0.000980 
#    y 0.000000 1.713070 0.000000 
#    z -0.000980 0.000000 1.718280 
# 
# From -- ./inp_files/199803.got.cif
#   From: 2010.06.25/outbox.cif.g09.slc.cpg/sg12_100_cif.got.tgz:199803.got - 2010.06.28 00:19:55.
