data_PCOD8102990
_publ_section_title
;
Structure prediction by ZEFSAII (Michael W. Deem and Ramdas Pophale) SiO2 
 PCOD8102990
Probable space group: C 2/M
;
_chemical_formula_sum "Si O2"
_cell_formula_units_Z 48
_cell_length_a 24.263533
_cell_length_b 8.447005
_cell_length_c 12.002012
_cell_angle_alpha 90.000000
_cell_angle_beta 77.452828
_cell_angle_gamma 90.000000
_cell_volume 2401.114865
_symmetry_space_group_name_H-M "C 2/M"
_symmetry_group_IT_number 12
_symmetry_cell_setting 'monoclinic'
loop_
_space_group_symop_operation_xyz
x,y,z
-x,y,-z
-x,-y,-z
x,-y,z
1/2+x,1/2+y,z
1/2-x,1/2+y,-z
1/2-x,1/2-y,-z
1/2+x,1/2-y,z
loop_
_atom_site_type_symbol
_atom_site_label
_atom_site_fract_x
_atom_site_fract_y
_atom_site_fract_z
Si Si1 0.611687 0.315358 0.916532
Si Si2 0.787360 0.314952 0.260284
Si Si3 0.039576 0.684615 0.759671
Si Si4 0.359586 0.813520 0.434038
Si Si5 0.166678 0.685193 0.310428
Si Si6 0.079734 0.184151 0.177185
O O1 0.626523 0.500000 0.906472
O O2 0.666104 0.216055 0.854790
O O3 0.557959 0.280064 0.861709
O O4 0.596493 0.258124 0.046874
O O5 0.772442 0.500000 0.268988
O O6 0.811968 0.254122 0.368088
O O7 0.732225 0.214072 0.256339
O O8 0.048505 0.500000 0.780188
O O9 0.078675 0.737340 0.638049
O O10 0.975284 0.721585 0.757074
O O11 0.348699 0.742420 0.561146
O O12 0.354983 0.000000 0.444684
O O13 0.152726 0.500000 0.307480
O O14 0.130897 0.780497 0.236637
O O15 0.065184 0.000000 0.184035
#
# Coordination Sequence:
#
# PCOD8102990 Si02
#       6
#     8   8   8   8   8   8
#     4  10  21  38  59  82 110 145 185 228 273 324
#     4  10  20  37  60  85 112 141 181 230 277 326
#     4  10  20  37  61  86 111 141 182 229 276 325
#     4   8  18  36  58  84 111 142 180 225 273 324
#     4  11  22  37  57  81 112 149 186 223 272 329
#     4  11  24  39  54  79 115 150 185 226 273 325
#
# _framework density 19.990714000000001
#
# number of rings (size 3 to 8) (size 9 to 14) (size 15 to 20)
#    0.000    2.000    0.000    4.500    0.000    6.000 
#    0.000   12.500    0.000    0.000    0.000    0.000 
#    0.000    0.000    0.000    0.000    0.000    0.000 
#
# Total GULP energy -297691.747531 kJ/mol
# GULP energy per Si atom -12403.822814 kJ/mol
# Density = 1.994521 g / cm^3
# Si number density = 19.990714 Si / 1000 Ang^3
#
#
#
# Elastic Constant Matrix: (Units=GPa)
#
#
# Indices 1 2 3 4 5 6 
#
# 1 110.9069 5.7975 48.1764 0.0000 -5.3517 0.0000
# 2 5.7975 40.9786 20.6644 0.0000 -2.1996 0.0000
# 3 48.1764 20.6644 71.8148 0.0000 -5.2221 0.0000
# 4 0.0000 0.0000 0.0000 22.2385 0.0000 -1.6310
# 5 -5.3517 -2.1996 -5.2221 0.0000 21.6154 0.0000
# 6 0.0000 0.0000 0.0000 -1.6310 0.0000 35.9613
#
#
#
# Elastic Compliance Matrix: (Units=1/GPa)
#
#
# Indices 1 2 3 4 5 6 
#
# 1 0.013065 0.003032 -0.009547 0.000000 0.001237 0.000000
# 2 0.003032 0.029267 -0.010367 0.000000 0.001224 0.000000
# 3 -0.009547 -0.010367 0.023476 0.000000 0.002253 0.000000
# 4 0.000000 0.000000 0.000000 0.045117 0.000000 0.002046
# 5 0.001237 0.001224 0.002253 0.000000 0.047238 0.000000
# 6 0.000000 0.000000 0.000000 0.002046 0.000000 0.027900
#
#
# Mechanical properties :
#
#
# Convention : Reuss Voigt Hill
#
# Bulk Modulus (GPa) = 31.20573 41.44187 36.32380
# Shear Modulus (GPa) = 21.69113 25.90052 23.79582
#
# Velocity S-wave (km/s) = 3.29760 3.60339 3.45388
# Velocity P-wave (km/s) = 5.49025 6.17156 5.84085
#
# Compressibility (1/GPa) = 0.03204540
#
# Stress axis : x y z
#
# Youngs Moduli (GPa) = 76.54126 34.16774 42.59650
#
# Poissons Ratio (x) = -0.10361 0.40667
# Poissons Ratio (y) = -0.23210 0.44159
# Poissons Ratio (z) = 0.73074 0.35421
#
# Static dielectric constant tensor:
#      x y z
#    x 3.513080 0.000000 -0.037300 
#    y 0.000000 3.439900 0.000000 
#    z -0.037300 0.000000 3.858850 
# 
# 
# High freq. dielectric constant tensor:
#      x y z
#    x 1.781300 0.000000 -0.008550 
#    y 0.000000 1.772360 0.000000 
#    z -0.008550 0.000000 1.782690 
# 
# From -- ./inp_files/172121.got.cif
#   From: 2010.06.25/outbox.cif.g09.slc.cpg/sg12_87_cif.got.tgz:172121.got - 2010.06.28 00:19:55.
