data_PCOD8102858
_publ_section_title
;
Structure prediction by ZEFSAII (Michael W. Deem and Ramdas Pophale) SiO2 
 PCOD8102858
Probable space group: C 2/M
;
_chemical_formula_sum "Si O2"
_cell_formula_units_Z 56
_cell_length_a 13.405804
_cell_length_b 14.387373
_cell_length_c 17.795210
_cell_angle_alpha 90.000000
_cell_angle_beta 55.582530
_cell_angle_gamma 90.000000
_cell_volume 2831.395113
_symmetry_space_group_name_H-M "C 2/M"
_symmetry_group_IT_number 12
_symmetry_cell_setting 'monoclinic'
loop_
_space_group_symop_operation_xyz
x,y,z
-x,y,-z
-x,-y,-z
x,-y,z
1/2+x,1/2+y,z
1/2-x,1/2+y,-z
1/2-x,1/2-y,-z
1/2+x,1/2-y,z
loop_
_atom_site_type_symbol
_atom_site_label
_atom_site_fract_x
_atom_site_fract_y
_atom_site_fract_z
Si Si1 0.627525 0.754601 0.598207
Si Si2 0.079542 0.611292 0.322661
Si Si3 0.978882 0.276172 0.098452
Si Si4 0.907520 0.100737 0.971587
Si Si5 0.040063 0.892682 0.397551
Si Si6 0.856238 0.391264 0.871136
Si Si7 0.258954 0.760818 0.291230
O O1 0.750000 0.750000 0.500000
O O2 0.551145 0.844627 0.601159
O O3 0.553520 0.660115 0.616431
O O4 0.651958 0.763062 0.675993
O O5 0.081749 0.500000 0.336559
O O6 0.102957 0.643321 0.227546
O O7 0.184671 0.663286 0.325084
O O8 0.838377 0.274510 0.181719
O O9 0.037156 0.179601 0.106066
O O10 0.049878 0.360299 0.105647
O O11 0.000000 0.282496 0.000000
O O12 0.892584 0.000000 0.937112
O O13 0.780092 0.141499 0.054826
O O14 0.000000 0.087335 0.000000
O O15 0.172390 0.849732 0.331378
O O16 0.000000 0.879776 0.500000
O O17 0.043730 0.000000 0.371875
O O18 0.859097 0.500000 0.869659
#
# Coordination Sequence:
#
# PCOD8102858 Si02
#       7
#     8   8   8   8   8   8   8
#     4  11  22  40  63  92 125 156 201 256 306 362
#     4  10  22  39  63  91 122 161 204 250 308 369
#     4  11  22  37  60  87 119 162 201 248 305 360
#     4   9  18  33  55  81 111 149 195 242 291 349
#     4  10  22  41  66  92 122 163 205 248 308 374
#     4  10  20  37  59  85 117 157 204 249 297 361
#     4  11  23  40  64  92 125 160 205 259 302 361
#
# _framework density 19.778234999999999
#
# number of rings (size 3 to 8) (size 9 to 14) (size 15 to 20)
#    0.000    1.714    2.857    2.143    0.000    4.286 
#    0.000    0.714    0.000    0.000    0.000    0.000 
#    0.000    0.000    0.000    0.000    0.000    0.000 
#
# Total GULP energy -347086.615631 kJ/mol
# GULP energy per Si atom -12395.950558 kJ/mol
# Density = 1.973322 g / cm^3
# Si number density = 19.778235 Si / 1000 Ang^3
#
#
#
# Elastic Constant Matrix: (Units=GPa)
#
#
# Indices 1 2 3 4 5 6 
#
# 1 102.3780 37.3958 28.9115 0.0000 -20.5354 0.0000
# 2 37.3958 78.1578 30.0173 0.0000 -15.7679 0.0000
# 3 28.9115 30.0173 98.2776 0.0000 -27.7018 0.0000
# 4 0.0000 0.0000 0.0000 29.1293 0.0000 -0.5958
# 5 -20.5354 -15.7679 -27.7018 0.0000 37.2108 0.0000
# 6 0.0000 0.0000 0.0000 -0.5958 0.0000 25.6590
#
#
#
# Elastic Compliance Matrix: (Units=1/GPa)
#
#
# Indices 1 2 3 4 5 6 
#
# 1 0.012661 -0.004804 -0.001090 0.000000 0.004140 0.000000
# 2 -0.004804 0.016709 -0.003090 0.000000 0.002129 0.000000
# 3 -0.001090 -0.003090 0.013796 0.000000 0.008359 0.000000
# 4 0.000000 0.000000 0.000000 0.034346 0.000000 0.000797
# 5 0.004140 0.002129 0.008359 0.000000 0.036284 0.000000
# 6 0.000000 0.000000 0.000000 0.000797 0.000000 0.038991
#
#
# Mechanical properties :
#
#
# Convention : Reuss Voigt Hill
#
# Bulk Modulus (GPa) = 39.68697 52.38475 46.03586
# Shear Modulus (GPa) = 27.90869 30.56573 29.23721
#
# Velocity S-wave (km/s) = 3.76051 3.93545 3.84897
# Velocity P-wave (km/s) = 6.24218 6.86978 6.56349
#
# Compressibility (1/GPa) = 0.02519719
#
# Stress axis : x y z
#
# Youngs Moduli (GPa) = 78.98461 59.84647 72.48352
#
# Poissons Ratio (x) = 0.28749 0.07904
# Poissons Ratio (y) = 0.37942 0.22400
# Poissons Ratio (z) = 0.08613 0.18495
#
# Static dielectric constant tensor:
#      x y z
#    x 3.549680 0.000000 -0.189620 
#    y 0.000000 3.909640 0.000000 
#    z -0.189620 0.000000 3.755400 
# 
# 
# High freq. dielectric constant tensor:
#      x y z
#    x 1.772990 0.000000 -0.021370 
#    y 0.000000 1.776190 0.000000 
#    z -0.021370 0.000000 1.765440 
# 
# From -- ./inp_files/205001.got.cif
#   From: 2010.06.25/outbox.cif.g09.slc.cpg/sg12_103_cif.got.tgz:205001.got - 2010.06.28 00:19:55.
