data_PCOD8102411
_publ_section_title
;
Structure prediction by ZEFSAII (Michael W. Deem and Ramdas Pophale) SiO2 
 PCOD8102411
Probable space group: C 2/M
;
_chemical_formula_sum "Si O2"
_cell_formula_units_Z 44
_cell_length_a 13.375574
_cell_length_b 15.289219
_cell_length_c 12.364656
_cell_angle_alpha 90.000000
_cell_angle_beta 110.437276
_cell_angle_gamma 90.000000
_cell_volume 2369.435315
_symmetry_space_group_name_H-M "C 2/M"
_symmetry_group_IT_number 12
_symmetry_cell_setting 'monoclinic'
loop_
_space_group_symop_operation_xyz
x,y,z
-x,y,-z
-x,-y,-z
x,-y,z
1/2+x,1/2+y,z
1/2-x,1/2+y,-z
1/2-x,1/2-y,-z
1/2+x,1/2-y,z
loop_
_atom_site_type_symbol
_atom_site_label
_atom_site_fract_x
_atom_site_fract_y
_atom_site_fract_z
Si Si1 0.425906 0.317057 0.779398
Si Si2 0.544866 0.245124 0.636135
Si Si3 0.710626 0.151026 0.990367
Si Si4 0.789771 0.599761 0.250293
Si Si5 0.624156 0.596341 0.778585
Si Si6 0.000000 0.705993 0.000000
O O1 0.446999 0.251969 0.685059
O O2 0.311826 0.362766 0.723314
O O3 0.520057 0.389866 0.815580
O O4 0.429808 0.264607 0.892679
O O5 0.500000 0.249849 0.500000
O O6 0.606458 0.154842 0.677838
O O7 0.625138 0.328121 0.686474
O O8 0.732357 0.103271 0.885889
O O9 0.583728 0.147075 0.965292
O O10 0.750000 0.250000 0.000000
O O11 0.770834 0.100968 0.108415
O O12 0.809261 0.500000 0.293263
O O13 0.619929 0.500000 0.723215
#
# Coordination Sequence:
#
# PCOD8102411 Si02
#       6
#     8   8   8   8   8   4
#     4  10  20  36  63  90 120 154 202 253 303 349
#     4  10  23  42  62  88 126 167 199 250 306 359
#     4  12  19  36  58  88 123 161 191 250 312 366
#     4  12  23  39  64  93 122 160 208 252 301 361
#     4  10  20  37  59  89 119 157 202 249 300 356
#     4  12  18  34  64  84 122 164 198 242 310 372
#
# _framework density 18.569824000000001
#
# number of rings (size 3 to 8) (size 9 to 14) (size 15 to 20)
#    1.091    0.000    7.273    1.091    0.000    1.455 
#    0.000    4.545    0.000    0.000    0.000    0.000 
#    0.000    0.000    0.000    0.000    0.000    0.000 
#
# Total GULP energy -272728.857667 kJ/mol
# GULP energy per Si atom -12396.766258 kJ/mol
# Density = 1.852756 g / cm^3
# Si number density = 18.569824 Si / 1000 Ang^3
#
#
#
# Elastic Constant Matrix: (Units=GPa)
#
#
# Indices 1 2 3 4 5 6 
#
# 1 111.8646 46.3163 21.0445 0.0000 2.4124 0.0000
# 2 46.3163 121.1547 42.1543 0.0000 5.2129 0.0000
# 3 21.0445 42.1543 121.4013 0.0000 0.9075 0.0000
# 4 0.0000 0.0000 0.0000 12.6024 0.0000 3.2378
# 5 2.4124 5.2129 0.9075 0.0000 19.9380 0.0000
# 6 0.0000 0.0000 0.0000 3.2378 0.0000 16.0200
#
#
#
# Elastic Compliance Matrix: (Units=1/GPa)
#
#
# Indices 1 2 3 4 5 6 
#
# 1 0.010647 -0.003888 -0.000494 0.000000 -0.000249 0.000000
# 2 -0.003888 0.010915 -0.003099 0.000000 -0.002242 0.000000
# 3 -0.000494 -0.003099 0.009396 0.000000 0.000442 0.000000
# 4 0.000000 0.000000 0.000000 0.083696 0.000000 -0.016916
# 5 -0.000249 -0.002242 0.000442 0.000000 0.050752 0.000000
# 6 0.000000 0.000000 0.000000 -0.016916 0.000000 0.065841
#
#
# Mechanical properties :
#
#
# Convention : Reuss Voigt Hill
#
# Bulk Modulus (GPa) = 62.51560 63.71677 63.11619
# Shear Modulus (GPa) = 19.87751 26.03911 22.95831
#
# Velocity S-wave (km/s) = 3.27528 3.74869 3.51995
# Velocity P-wave (km/s) = 6.93120 7.28858 7.11213
#
# Compressibility (1/GPa) = 0.01599601
#
# Stress axis : x y z
#
# Youngs Moduli (GPa) = 93.91988 91.61660 106.43239
#
# Poissons Ratio (x) = 0.35619 0.05256
# Poissons Ratio (y) = 0.36515 0.32987
# Poissons Ratio (z) = 0.04638 0.28395
#
# Static dielectric constant tensor:
#      x y z
#    x 3.575760 0.000000 0.090250 
#    y 0.000000 3.317910 0.000000 
#    z 0.090250 0.000000 3.153360 
# 
# 
# High freq. dielectric constant tensor:
#      x y z
#    x 1.718600 0.000000 0.003390 
#    y 0.000000 1.709410 0.000000 
#    z 0.003390 0.000000 1.697870 
# 
# From -- ./inp_files/143270.got.cif
#   From: 2010.06.25/outbox.cif.g09.slc.cpg/sg12_72_cif.got.tgz:143270.got - 2010.06.28 00:19:55.
