data_PCOD8102396
_publ_section_title
;
Structure prediction by ZEFSAII (Michael W. Deem and Ramdas Pophale) SiO2 
 PCOD8102396
Probable space group: C 2/M
;
_chemical_formula_sum "Si O2"
_cell_formula_units_Z 40
_cell_length_a 17.175893
_cell_length_b 25.703216
_cell_length_c 8.689276
_cell_angle_alpha 90.000000
_cell_angle_beta 148.384132
_cell_angle_gamma 90.000000
_cell_volume 2010.969283
_symmetry_space_group_name_H-M "C 2/M"
_symmetry_group_IT_number 12
_symmetry_cell_setting 'monoclinic'
loop_
_space_group_symop_operation_xyz
x,y,z
-x,y,-z
-x,-y,-z
x,-y,z
1/2+x,1/2+y,z
1/2-x,1/2+y,-z
1/2-x,1/2-y,-z
1/2+x,1/2-y,z
loop_
_atom_site_type_symbol
_atom_site_label
_atom_site_fract_x
_atom_site_fract_y
_atom_site_fract_z
Si Si1 0.787262 0.398349 0.774579
Si Si2 0.332295 0.500000 0.261075
Si Si3 0.289939 0.701140 0.769401
Si Si4 0.388524 0.700755 0.583174
Si Si5 0.148168 0.500000 0.656199
Si Si6 0.881603 0.397880 0.584129
O O1 0.714942 0.449966 0.720883
O O2 0.673331 0.350628 0.605904
O O3 0.818563 0.405435 0.647985
O O4 0.942300 0.386588 0.121311
O O5 0.500000 0.500000 0.500000
O O6 0.275299 0.500000 0.993186
O O7 0.341401 0.702543 0.680496
O O8 0.182794 0.749936 0.624514
O O9 0.196739 0.648786 0.639932
O O10 0.431949 0.702347 0.122756
O O11 0.160722 0.450176 0.571352
O O12 0.000000 0.500000 0.500000
#
# Coordination Sequence:
#
# PCOD8102396 Si02
#       6
#     8   4   8   8   4   8
#     4  10  20  38  59  87 115 150 191 237 282 333
#     4  12  27  41  57  81 118 155 189 236 291 340
#     4   9  17  30  52  85 115 149 183 233 284 333
#     4   9  17  30  52  83 119 146 185 231 284 334
#     4  12  23  41  59  83 112 154 195 234 284 343
#     4  10  20  36  63  86 113 148 195 238 278 335
#
# _framework density 19.890905
#
# number of rings (size 3 to 8) (size 9 to 14) (size 15 to 20)
#    0.000    2.000    2.000    1.800    2.800    6.400 
#    0.000    1.000    0.000    2.400    0.000    0.000 
#    0.000    0.000    0.000    0.000    0.000    0.000 
#
# Total GULP energy -247965.733631 kJ/mol
# GULP energy per Si atom -12398.286682 kJ/mol
# Density = 1.984563 g / cm^3
# Si number density = 19.890905 Si / 1000 Ang^3
#
#
#
# Elastic Constant Matrix: (Units=GPa)
#
#
# Indices 1 2 3 4 5 6 
#
# 1 32.8221 41.2335 39.3565 0.0000 18.7705 0.0000
# 2 41.2335 215.3893 111.0582 0.0000 15.2084 0.0000
# 3 39.3565 111.0582 188.0233 0.0000 30.1666 0.0000
# 4 0.0000 0.0000 0.0000 38.6269 0.0000 15.4492
# 5 18.7705 15.2084 30.1666 0.0000 27.6789 0.0000
# 6 0.0000 0.0000 0.0000 15.4492 0.0000 6.8339
#
#
#
# Elastic Compliance Matrix: (Units=1/GPa)
#
#
# Indices 1 2 3 4 5 6 
#
# 1 0.065486 -0.008503 -0.002799 0.000000 -0.036687 0.000000
# 2 -0.008503 0.007793 -0.003710 0.000000 0.005528 0.000000
# 3 -0.002799 -0.003710 0.009046 0.000000 -0.005922 0.000000
# 4 0.000000 0.000000 0.000000 0.270161 0.000000 -0.610743
# 5 -0.036687 0.005528 -0.005922 0.000000 0.064425 0.000000
# 6 0.000000 0.000000 0.000000 -0.610743 0.000000 1.527016
#
#
# Mechanical properties :
#
#
# Convention : Reuss Voigt Hill
#
# Bulk Modulus (GPa) = 19.12000 91.05899 55.08950
# Shear Modulus (GPa) = 2.51081 30.93371 16.72226
#
# Velocity S-wave (km/s) = 1.12474 3.94784 2.90263
# Velocity P-wave (km/s) = 3.36452 8.16451 6.24417
#
# Compressibility (1/GPa) = 0.05230125
#
# Stress axis : x y z
#
# Youngs Moduli (GPa) = 15.27041 128.31556 110.54509
#
# Poissons Ratio (x) = 1.09105 0.30942
# Poissons Ratio (y) = 0.12984 0.41016
# Poissons Ratio (z) = 0.04274 0.47609
#
# Static dielectric constant tensor:
#      x y z
#    x 3.252390 0.000000 0.158150 
#    y 0.000000 3.777210 0.000000 
#    z 0.158150 0.000000 3.889820 
# 
# 
# High freq. dielectric constant tensor:
#      x y z
#    x 1.740250 0.000000 0.010740 
#    y 0.000000 1.791450 0.000000 
#    z 0.010740 0.000000 1.790810 
# 
# From -- ./inp_files/79966.got.cif
#   From: 2010.06.25/outbox.cif.g09.slc.cpg/sg12_40_cif.got.tgz:79966.got - 2010.06.28 00:19:55.
