data_PCOD8102112
_publ_section_title
;
Structure prediction by ZEFSAII (Michael W. Deem and Ramdas Pophale) SiO2 
 PCOD8102112
Probable space group: C 2/M
;
_chemical_formula_sum "Si O2"
_cell_formula_units_Z 64
_cell_length_a 9.583825
_cell_length_b 24.072617
_cell_length_c 14.975568
_cell_angle_alpha 90.000000
_cell_angle_beta 70.871575
_cell_angle_gamma 90.000000
_cell_volume 3264.217924
_symmetry_space_group_name_H-M "C 2/M"
_symmetry_group_IT_number 12
_symmetry_cell_setting 'monoclinic'
loop_
_space_group_symop_operation_xyz
x,y,z
-x,y,-z
-x,-y,-z
x,-y,z
1/2+x,1/2+y,z
1/2-x,1/2+y,-z
1/2-x,1/2-y,-z
1/2+x,1/2-y,z
loop_
_atom_site_type_symbol
_atom_site_label
_atom_site_fract_x
_atom_site_fract_y
_atom_site_fract_z
Si Si1 0.077090 0.563762 0.214648
Si Si2 0.690782 0.350058 0.877010
Si Si3 0.697004 0.226644 0.648136
Si Si4 0.373033 0.250496 0.772350
Si Si5 0.374186 0.935462 0.099361
Si Si6 0.674755 0.170371 0.477109
Si Si7 0.860723 0.846832 0.910187
Si Si8 0.130448 0.560225 0.404546
O O1 0.108383 0.500000 0.189381
O O2 0.220739 0.593119 0.146214
O O3 0.059158 0.576833 0.323741
O O4 0.933640 0.581047 0.186161
O O5 0.769832 0.303414 0.801354
O O6 0.531500 0.364189 0.869699
O O7 0.685794 0.330969 0.980260
O O8 0.541126 0.230031 0.732111
O O9 0.827218 0.216938 0.691959
O O10 0.702066 0.175022 0.577884
O O11 0.724773 0.284244 0.591489
O O12 0.339272 0.289950 0.861912
O O13 0.232842 0.897363 0.110665
O O14 0.325998 0.000000 0.104997
O O15 0.500000 0.922608 0.000000
O O16 0.500000 0.180345 0.500000
O O17 0.727833 0.111017 0.423924
O O18 0.215380 0.500000 0.379760
O O19 0.000000 0.551702 0.500000
#
# Coordination Sequence:
#
# PCOD8102112 Si02
#       8
#     8   8   8   8   8   8   8   8
#     4  10  21  38  65  92 121 164 207 252 307 368
#     4  11  24  41  58  86 125 164 212 252 310 374
#     4  11  23  38  61  88 116 166 202 256 309 364
#     4  12  24  41  59  86 124 159 213 255 310 372
#     4  10  21  40  63  92 123 158 210 260 305 364
#     4  10  20  36  60  89 125 152 201 255 306 364
#     4  11  25  39  59  88 122 164 203 259 317 361
#     4   9  19  34  58  93 125 155 194 248 307 363
#
# _framework density 19.606532999999999
#
# number of rings (size 3 to 8) (size 9 to 14) (size 15 to 20)
#    0.000    1.500    3.750    1.125    3.500    0.500 
#    2.250    1.250    0.000    0.000    0.000    0.875 
#    0.000    0.500    0.000    0.000    0.000    0.000 
#
# Total GULP energy -396690.472291 kJ/mol
# GULP energy per Si atom -12396.577259 kJ/mol
# Density = 1.956191 g / cm^3
# Si number density = 19.606533 Si / 1000 Ang^3
#
#
#
# Elastic Constant Matrix: (Units=GPa)
#
#
# Indices 1 2 3 4 5 6 
#
# 1 85.7643 46.0924 24.0895 0.0000 5.2276 0.0000
# 2 46.0924 97.4146 35.4812 0.0000 8.7899 0.0000
# 3 24.0895 35.4812 85.4033 0.0000 11.2429 0.0000
# 4 0.0000 0.0000 0.0000 30.7993 0.0000 4.4430
# 5 5.2276 8.7899 11.2429 0.0000 34.6204 0.0000
# 6 0.0000 0.0000 0.0000 4.4430 0.0000 30.8294
#
#
#
# Elastic Compliance Matrix: (Units=1/GPa)
#
#
# Indices 1 2 3 4 5 6 
#
# 1 0.015818 -0.006898 -0.001580 0.000000 -0.000124 0.000000
# 2 -0.006898 0.015179 -0.004169 0.000000 -0.001459 0.000000
# 3 -0.001580 -0.004169 0.014328 0.000000 -0.003356 0.000000
# 4 0.000000 0.000000 0.000000 0.033158 0.000000 -0.004779
# 5 -0.000124 -0.001459 -0.003356 0.000000 0.030364 0.000000
# 6 0.000000 0.000000 0.000000 -0.004779 0.000000 0.033125
#
#
# Mechanical properties :
#
#
# Convention : Reuss Voigt Hill
#
# Bulk Modulus (GPa) = 49.91649 53.32315 51.61982
# Shear Modulus (GPa) = 28.74511 30.11110 29.42810
#
# Velocity S-wave (km/s) = 3.83312 3.92314 3.87839
# Velocity P-wave (km/s) = 6.71601 6.91209 6.81476
#
# Compressibility (1/GPa) = 0.02003346
#
# Stress axis : x y z
#
# Youngs Moduli (GPa) = 63.21783 65.87987 69.79146
#
# Poissons Ratio (x) = 0.45444 0.11025
# Poissons Ratio (y) = 0.43607 0.29093
# Poissons Ratio (z) = 0.09986 0.27462
#
# Static dielectric constant tensor:
#      x y z
#    x 3.526690 0.000000 0.273510 
#    y 0.000000 3.903170 0.000000 
#    z 0.273510 0.000000 3.839810 
# 
# 
# High freq. dielectric constant tensor:
#      x y z
#    x 1.743810 0.000000 0.016850 
#    y 0.000000 1.764990 0.000000 
#    z 0.016850 0.000000 1.779740 
# 
# From -- ./inp_files/199772.got.cif
#   From: 2010.06.25/outbox.cif.g09.slc.cpg/sg12_100_cif.got.tgz:199772.got - 2010.06.28 00:19:55.
