data_PCOD8102243
_publ_section_title
;
Structure prediction by ZEFSAII (Michael W. Deem and Ramdas Pophale) SiO2 
 PCOD8102243
Probable space group: C 2/M
;
_chemical_formula_sum "Si O2"
_cell_formula_units_Z 56
_cell_length_a 16.032869
_cell_length_b 13.911129
_cell_length_c 27.736721
_cell_angle_alpha 90.000000
_cell_angle_beta 24.037145
_cell_angle_gamma 90.000000
_cell_volume 2519.845247
_symmetry_space_group_name_H-M "C 2/M"
_symmetry_group_IT_number 12
_symmetry_cell_setting 'monoclinic'
loop_
_space_group_symop_operation_xyz
x,y,z
-x,y,-z
-x,-y,-z
x,-y,z
1/2+x,1/2+y,z
1/2-x,1/2+y,-z
1/2-x,1/2-y,-z
1/2+x,1/2-y,z
loop_
_atom_site_type_symbol
_atom_site_label
_atom_site_fract_x
_atom_site_fract_y
_atom_site_fract_z
Si Si1 0.076484 0.215917 0.012552
Si Si2 0.118511 0.390123 0.844836
Si Si3 0.440208 0.887479 0.480308
Si Si4 0.719635 0.111270 0.245048
Si Si5 0.994665 0.609993 0.802281
Si Si6 0.074271 0.114895 0.608849
Si Si7 0.153826 0.612813 0.618813
O O1 0.053668 0.329973 0.035411
O O2 0.935146 0.164671 0.126974
O O3 0.307228 0.183450 0.898523
O O4 0.000000 0.187926 0.000000
O O5 0.086289 0.500000 0.877602
O O6 0.343470 0.348966 0.740261
O O7 0.106344 0.378493 0.793839
O O8 0.500000 0.839324 0.500000
O O9 0.631818 0.868992 0.344411
O O10 0.227705 0.845190 0.569720
O O11 0.401434 0.000000 0.507840
O O12 0.558455 0.153426 0.291158
O O13 0.763055 0.000000 0.212962
O O14 0.916295 0.500000 0.836304
O O15 0.159097 0.636203 0.673160
O O16 0.154421 0.153233 0.513847
O O17 0.072092 0.000000 0.609829
O O18 0.152100 0.500000 0.609817
#
# Coordination Sequence:
#
# PCOD8102243 Si02
#       7
#     8   8   8   8   8   8   8
#     4  12  23  37  60  84 116 156 202 253 301 346
#     4  10  23  41  57  79 116 165 208 243 287 351
#     4   8  14  28  54  86 120 157 193 236 287 350
#     4   9  17  31  55  89 120 143 183 242 309 360
#     4  10  20  36  61  90 119 149 193 248 303 361
#     4   8  15  31  55  82 116 152 191 238 292 355
#     4   8  14  28  55  89 116 142 178 235 305 364
#
# _framework density 22.223586999999998
#
# number of rings (size 3 to 8) (size 9 to 14) (size 15 to 20)
#    0.000    2.714    1.429    2.571    0.000    1.429 
#    0.000    8.571    3.143    3.429    0.000    0.000 
#    0.000    0.000    0.000    0.714    0.000    0.000 
#
# Total GULP energy -347070.870111 kJ/mol
# GULP energy per Si atom -12395.388218 kJ/mol
# Density = 2.217300 g / cm^3
# Si number density = 22.223587 Si / 1000 Ang^3
#
#
#
# Elastic Constant Matrix: (Units=GPa)
#
#
# Indices 1 2 3 4 5 6 
#
# 1 107.9631 20.7268 36.7697 -0.0014 4.1209 0.0022
# 2 20.7268 55.6184 32.1698 0.0173 -3.7069 0.0068
# 3 36.7697 32.1698 79.0724 0.1146 -5.1149 0.0189
# 4 -0.0014 0.0173 0.1146 16.6826 0.0147 -1.0067
# 5 4.1209 -3.7069 -5.1149 0.0147 24.8607 -0.0028
# 6 0.0022 0.0068 0.0189 -1.0067 -0.0028 16.5420
#
#
#
# Elastic Compliance Matrix: (Units=1/GPa)
#
#
# Indices 1 2 3 4 5 6 
#
# 1 0.011333 -0.001656 -0.004798 0.000039 -0.003113 0.000006
# 2 -0.001656 0.023814 -0.008788 0.000034 0.002017 0.000003
# 3 -0.004798 -0.008788 0.018668 -0.000124 0.003326 -0.000024
# 4 0.000039 0.000034 -0.000124 0.060165 -0.000062 0.003662
# 5 -0.003113 0.002017 0.003326 -0.000062 0.041725 -0.000001
# 6 0.000006 0.000003 -0.000024 0.003662 -0.000001 0.060675
#
#
# Mechanical properties :
#
#
# Convention : Reuss Voigt Hill
#
# Bulk Modulus (GPa) = 42.85927 46.88738 44.87332
# Shear Modulus (GPa) = 19.63545 21.81623 20.72584
#
# Velocity S-wave (km/s) = 2.97567 3.13656 3.05717
# Velocity P-wave (km/s) = 5.57974 5.85330 5.71816
#
# Compressibility (1/GPa) = 0.02333218
#
# Stress axis : x y z
#
# Youngs Moduli (GPa) = 88.23683 41.99172 53.56649
#
# Poissons Ratio (x) = 0.06953 0.25700
# Poissons Ratio (y) = 0.14610 0.47075
# Poissons Ratio (z) = 0.42334 0.36903
#
# Static dielectric constant tensor:
#      x y z
#    x 4.124790 0.000000 0.089280 
#    y 0.000000 3.834220 0.000040 
#    z 0.089280 0.000040 3.935370 
# 
# 
# High freq. dielectric constant tensor:
#      x y z
#    x 1.863590 0.000000 0.009190 
#    y 0.000000 1.867420 0.000010 
#    z 0.009190 0.000010 1.862390 
# 
# From -- ./inp_files/361401.got.cif
#   From: 2010.06.25/outbox.cif.g09.slc.cpg/sg12_181_cif.got.tgz:361401.got - 2010.06.28 00:19:55.
