data_PCOD8102258
_publ_section_title
;
Structure prediction by ZEFSAII (Michael W. Deem and Ramdas Pophale) SiO2 
 PCOD8102258
Probable space group: C 2/M
;
_chemical_formula_sum "Si O2"
_cell_formula_units_Z 64
_cell_length_a 24.148849
_cell_length_b 14.573765
_cell_length_c 9.534222
_cell_angle_alpha 90.000000
_cell_angle_beta 109.112932
_cell_angle_gamma 90.000000
_cell_volume 3170.500542
_symmetry_space_group_name_H-M "C 2/M"
_symmetry_group_IT_number 12
_symmetry_cell_setting 'monoclinic'
loop_
_space_group_symop_operation_xyz
x,y,z
-x,y,-z
-x,-y,-z
x,-y,z
1/2+x,1/2+y,z
1/2-x,1/2+y,-z
1/2-x,1/2-y,-z
1/2+x,1/2-y,z
loop_
_atom_site_type_symbol
_atom_site_label
_atom_site_fract_x
_atom_site_fract_y
_atom_site_fract_z
Si Si1 0.169860 0.896298 0.591180
Si Si2 0.981459 0.393112 0.329769
Si Si3 0.341838 0.807415 0.816166
Si Si4 0.854064 0.394089 0.116333
Si Si5 0.778766 0.274394 0.243384
Si Si6 0.719281 0.103095 0.490911
Si Si7 0.035436 0.251419 0.171849
Si Si8 0.961689 0.105890 0.600476
O O1 0.190180 0.825643 0.728944
O O2 0.212234 0.886539 0.491528
O O3 0.105298 0.871386 0.488304
O O4 0.173040 0.000000 0.655517
O O5 0.994610 0.500000 0.320148
O O6 0.912933 0.370942 0.251141
O O7 0.000000 0.359743 0.500000
O O8 0.020668 0.342720 0.246741
O O9 0.291251 0.736981 0.824329
O O10 0.318896 0.875055 0.677085
O O11 0.395748 0.748044 0.804404
O O12 0.363740 0.870765 0.961901
O O13 0.836622 0.500000 0.118449
O O14 0.800726 0.332212 0.129200
O O15 0.797002 0.327080 0.400218
O O16 0.704920 0.000000 0.529606
O O17 0.017575 0.162818 0.247706
O O18 0.000000 0.248617 0.000000
O O19 0.000000 0.137076 0.500000
O O20 0.972199 0.000000 0.645246
#
# Coordination Sequence:
#
# PCOD8102258 Si02
#       8
#     8   8   8   8   8   8   8   8
#     4   9  19  36  58  87 119 152 198 255 303 354
#     4  10  24  43  63  92 125 164 211 259 311 378
#     4  11  23  41  59  89 126 167 203 252 305 375
#     4  11  24  42  62  91 130 164 202 254 315 375
#     4  11  22  38  63  91 121 159 208 255 302 365
#     4  10  20  36  61  91 121 158 204 249 302 364
#     4  12  24  40  64  90 125 167 206 254 317 370
#     4  10  22  39  62  89 120 160 209 259 306 360
#
# _framework density 20.186088000000002
#
# number of rings (size 3 to 8) (size 9 to 14) (size 15 to 20)
#    0.000    1.500    1.250    4.500    5.250    2.000 
#    0.000    0.625    0.000    0.750    0.000    0.000 
#    0.000    0.000    0.000    0.000    0.000    0.000 
#
# Total GULP energy -396962.700431 kJ/mol
# GULP energy per Si atom -12405.084388 kJ/mol
# Density = 2.014014 g / cm^3
# Si number density = 20.186088 Si / 1000 Ang^3
#
#
#
# Elastic Constant Matrix: (Units=GPa)
#
#
# Indices 1 2 3 4 5 6 
#
# 1 104.8183 45.5400 53.1014 0.0000 0.5257 0.0000
# 2 45.5400 104.1223 48.9131 0.0000 -6.3472 0.0000
# 3 53.1014 48.9131 125.5632 0.0000 -1.2110 0.0000
# 4 0.0000 0.0000 0.0000 23.7566 0.0000 -3.1613
# 5 0.5257 -6.3472 -1.2110 0.0000 26.5141 0.0000
# 6 0.0000 0.0000 0.0000 -3.1613 0.0000 28.3784
#
#
#
# Elastic Compliance Matrix: (Units=1/GPa)
#
#
# Indices 1 2 3 4 5 6 
#
# 1 0.013367 -0.004003 -0.004107 0.000000 -0.001411 0.000000
# 2 -0.004003 0.013137 -0.003395 0.000000 0.003069 0.000000
# 3 -0.004107 -0.003395 0.011021 0.000000 -0.000228 0.000000
# 4 0.000000 0.000000 0.000000 0.042727 0.000000 0.004760
# 5 -0.001411 0.003069 -0.000228 0.000000 0.038468 0.000000
# 6 0.000000 0.000000 0.000000 0.004760 0.000000 0.035768
#
#
# Mechanical properties :
#
#
# Convention : Reuss Voigt Hill
#
# Bulk Modulus (GPa) = 68.89429 69.95696 69.42563
# Shear Modulus (GPa) = 27.42163 28.19313 27.80738
#
# Velocity S-wave (km/s) = 3.68970 3.74125 3.71556
# Velocity P-wave (km/s) = 7.23571 7.30711 7.27150
#
# Compressibility (1/GPa) = 0.01451499
#
# Stress axis : x y z
#
# Youngs Moduli (GPa) = 74.80897 76.12209 90.73211
#
# Poissons Ratio (x) = 0.30472 0.37267
# Poissons Ratio (y) = 0.29946 0.30803
# Poissons Ratio (z) = 0.30727 0.25843
#
# Static dielectric constant tensor:
#      x y z
#    x 3.812290 0.000000 0.011340 
#    y 0.000000 3.713400 0.000000 
#    z 0.011340 0.000000 3.533530 
# 
# 
# High freq. dielectric constant tensor:
#      x y z
#    x 1.794160 0.000000 0.001400 
#    y 0.000000 1.794120 0.000000 
#    z 0.001400 0.000000 1.780170 
# 
# From -- ./inp_files/104695.got.cif
#   From: 2010.06.25/outbox.cif.g09.slc.cpg/sg12_53_cif.got.tgz:104695.got - 2010.06.28 00:19:55.
