data_PCOD8102151
_publ_section_title
;
Structure prediction by ZEFSAII (Michael W. Deem and Ramdas Pophale) SiO2 
 PCOD8102151
Probable space group: C 2/M
;
_chemical_formula_sum "Si O2"
_cell_formula_units_Z 56
_cell_length_a 9.100617
_cell_length_b 28.382800
_cell_length_c 22.116789
_cell_angle_alpha 90.000000
_cell_angle_beta 151.720480
_cell_angle_gamma 90.000000
_cell_volume 2706.567582
_symmetry_space_group_name_H-M "C 2/M"
_symmetry_group_IT_number 12
_symmetry_cell_setting 'monoclinic'
loop_
_space_group_symop_operation_xyz
x,y,z
-x,y,-z
-x,-y,-z
x,-y,z
1/2+x,1/2+y,z
1/2-x,1/2+y,-z
1/2-x,1/2-y,-z
1/2+x,1/2-y,z
loop_
_atom_site_type_symbol
_atom_site_label
_atom_site_fract_x
_atom_site_fract_y
_atom_site_fract_z
Si Si1 0.289246 0.360719 0.481365
Si Si2 0.128486 0.445861 0.694076
Si Si3 0.319505 0.054068 0.145623
Si Si4 0.705452 0.304296 0.239264
Si Si5 0.174338 0.112978 0.856024
Si Si6 0.672072 0.781646 0.853959
Si Si7 0.213778 0.634313 0.239732
O O1 0.500000 0.349791 0.500000
O O2 0.480760 0.352852 0.611751
O O3 0.162294 0.414286 0.431824
O O4 0.009367 0.323567 0.383350
O O5 0.047511 0.500000 0.650492
O O6 0.196970 0.436928 0.789180
O O7 0.438208 0.431070 0.770097
O O8 0.600419 0.082879 0.218648
O O9 0.385038 0.000000 0.153507
O O10 0.000000 0.071284 0.000000
O O11 0.449240 0.345614 0.145058
O O12 0.580160 0.259223 0.229356
O O13 0.792724 0.291035 0.203442
O O14 0.199905 0.134684 0.798848
O O15 0.500000 0.094660 0.000000
O O16 0.558487 0.828269 0.847140
O O17 0.000000 0.765188 0.000000
#
# Coordination Sequence:
#
# PCOD8102151 Si02
#       7
#     8   8   8   8   8   8   8
#     4  11  22  44  62  88 126 162 210 252 298 366
#     4  10  22  39  62  89 124 166 205 255 306 359
#     4  10  20  36  60  91 122 157 207 257 307 363
#     4  11  24  42  62  91 124 161 204 253 305 367
#     4  11  23  41  63  91 128 161 201 255 312 365
#     4  12  23  40  66  93 123 159 207 257 310 366
#     4  12  23  39  65  91 121 168 204 251 305 360
#
# _framework density 20.690412999999999
#
# number of rings (size 3 to 8) (size 9 to 14) (size 15 to 20)
#    0.000    1.000    2.857    4.714    0.000    4.571 
#    0.000    0.714    0.000    0.000    0.000    0.000 
#    0.000    0.000    0.000    0.000    0.000    0.000 
#
# Total GULP energy -347394.713344 kJ/mol
# GULP energy per Si atom -12406.954048 kJ/mol
# Density = 2.064332 g / cm^3
# Si number density = 20.690413 Si / 1000 Ang^3
#
#
#
# Elastic Constant Matrix: (Units=GPa)
#
#
# Indices 1 2 3 4 5 6 
#
# 1 108.4271 48.5907 26.6125 -0.0048 4.8306 -0.0085
# 2 48.5907 112.1165 28.7575 -0.0017 11.0588 0.0011
# 3 26.6125 28.7575 108.0020 -0.0009 4.7714 -0.0212
# 4 -0.0048 -0.0017 -0.0009 30.3107 0.0063 9.8578
# 5 4.8306 11.0588 4.7714 0.0063 33.1007 0.0076
# 6 -0.0085 0.0011 -0.0212 9.8578 0.0076 37.7159
#
#
#
# Elastic Compliance Matrix: (Units=1/GPa)
#
#
# Indices 1 2 3 4 5 6 
#
# 1 0.011713 -0.004662 -0.001649 0.000001 0.000086 0.000002
# 2 -0.004662 0.011703 -0.001836 0.000001 -0.002965 -0.000002
# 3 -0.001649 -0.001836 0.010181 -0.000002 -0.000613 0.000006
# 4 0.000001 0.000001 -0.000002 0.036057 -0.000005 -0.009424
# 5 0.000086 -0.002965 -0.000613 -0.000005 0.031277 -0.000005
# 6 0.000002 -0.000002 0.000006 -0.009424 -0.000005 0.028977
#
#
# Mechanical properties :
#
#
# Convention : Reuss Voigt Hill
#
# Bulk Modulus (GPa) = 57.79176 59.60745 58.69961
# Shear Modulus (GPa) = 32.90117 35.19779 34.04948
#
# Velocity S-wave (km/s) = 3.99201 4.12899 4.06108
# Velocity P-wave (km/s) = 7.01716 7.18354 7.10083
#
# Compressibility (1/GPa) = 0.01730350
#
# Stress axis : x y z
#
# Youngs Moduli (GPa) = 85.37694 85.44659 98.21818
#
# Poissons Ratio (x) = 0.39834 0.16192
# Poissons Ratio (y) = 0.39801 0.18038
# Poissons Ratio (z) = 0.14075 0.15692
#
# Static dielectric constant tensor:
#      x y z
#    x 3.811160 -0.000010 0.159900 
#    y -0.000010 3.817200 -0.000010 
#    z 0.159900 -0.000010 3.943910 
# 
# 
# High freq. dielectric constant tensor:
#      x y z
#    x 1.815480 0.000000 0.007430 
#    y 0.000000 1.814360 0.000000 
#    z 0.007430 0.000000 1.812430 
# 
# From -- ./inp_files/303078.got.cif
#   From: 2010.06.25/outbox.cif.g09.slc.cpg/sg12_152_cif.got.tgz:303078.got - 2010.06.28 00:19:55.
