data_PCOD8102943
_publ_section_title
;
Structure prediction by ZEFSAII (Michael W. Deem and Ramdas Pophale) SiO2 
 PCOD8102943
Probable space group: C 2/M
;
_chemical_formula_sum "Si O2"
_cell_formula_units_Z 48
_cell_length_a 18.708029
_cell_length_b 9.148023
_cell_length_c 29.823850
_cell_angle_alpha 90.000000
_cell_angle_beta 150.447500
_cell_angle_gamma 90.000000
_cell_volume 2517.447506
_symmetry_space_group_name_H-M "C 2/M"
_symmetry_group_IT_number 12
_symmetry_cell_setting 'monoclinic'
loop_
_space_group_symop_operation_xyz
x,y,z
-x,y,-z
-x,-y,-z
x,-y,z
1/2+x,1/2+y,z
1/2-x,1/2+y,-z
1/2-x,1/2-y,-z
1/2+x,1/2-y,z
loop_
_atom_site_type_symbol
_atom_site_label
_atom_site_fract_x
_atom_site_fract_y
_atom_site_fract_z
Si Si1 0.303440 0.673028 0.754718
Si Si2 0.623651 0.672105 0.957353
Si Si3 0.164027 0.673686 0.586361
Si Si4 0.353359 0.330109 0.251734
Si Si5 0.687081 0.670468 0.422983
Si Si6 0.345744 0.161069 0.937042
O O1 0.290179 0.500000 0.752096
O O2 0.467812 0.725120 0.853632
O O3 0.256529 0.727479 0.679721
O O4 0.192524 0.741458 0.729536
O O5 0.640325 0.500000 0.961540
O O6 0.750000 0.750000 0.000000
O O7 0.642986 0.717193 0.019076
O O8 0.162305 0.500000 0.584455
O O9 0.239271 0.733507 0.582143
O O10 0.000000 0.734986 0.500000
O O11 0.324396 0.500000 0.245779
O O12 0.517633 0.296977 0.328568
O O13 0.262728 0.276731 0.159472
O O14 0.720879 0.500000 0.446326
O O15 0.750000 0.750000 0.500000
O O16 0.293038 0.000000 0.926127
O O17 0.500000 0.138464 0.000000
#
# Coordination Sequence:
#
# PCOD8102943 Si02
#       6
#     8   8   8   8   8   8
#     4  10  21  37  59  84 111 147 190 236 280 335
#     4  11  24  38  57  84 117 154 195 239 285 340
#     4   9  18  34  57  82 108 143 183 225 276 333
#     4  10  21  36  58  85 114 150 187 233 289 341
#     4  10  21  37  59  84 112 145 186 232 283 340
#     4  10  20  37  60  83 113 153 193 233 286 344
#
# _framework density 19.066932999999999
#
# number of rings (size 3 to 8) (size 9 to 14) (size 15 to 20)
#    0.000    2.000    1.667    1.500    2.333    3.667 
#    0.000    0.833    0.000    3.000    0.000    0.000 
#    0.000    0.000    0.000    0.000    0.000    0.000 
#
# Total GULP energy -297622.294108 kJ/mol
# GULP energy per Si atom -12400.928921 kJ/mol
# Density = 1.902354 g / cm^3
# Si number density = 19.066933 Si / 1000 Ang^3
#
#
#
# Elastic Constant Matrix: (Units=GPa)
#
#
# Indices 1 2 3 4 5 6 
#
# 1 165.5369 42.5467 91.0096 0.0000 -5.3196 0.0000
# 2 42.5467 37.2567 33.4337 0.0000 -0.6964 0.0002
# 3 91.0096 33.4337 155.4383 0.0003 -15.7711 0.0000
# 4 0.0000 0.0000 0.0003 27.5226 0.0000 0.3706
# 5 -5.3196 -0.6964 -15.7711 0.0000 38.9563 0.0000
# 6 0.0000 0.0002 0.0000 0.3706 0.0000 46.4351
#
#
#
# Elastic Compliance Matrix: (Units=1/GPa)
#
#
# Indices 1 2 3 4 5 6 
#
# 1 0.010570 -0.008029 -0.004515 0.000000 -0.000528 0.000000
# 2 -0.008029 0.039576 -0.004016 0.000000 -0.002015 0.000000
# 3 -0.004515 -0.004016 0.010294 0.000000 0.003479 0.000000
# 4 0.000000 0.000000 0.000000 0.036338 0.000000 -0.000290
# 5 -0.000528 -0.002015 0.003479 0.000000 0.026970 0.000000
# 6 0.000000 0.000000 0.000000 -0.000290 0.000000 0.021538
#
#
# Mechanical properties :
#
#
# Convention : Reuss Voigt Hill
#
# Bulk Modulus (GPa) = 36.60399 76.91243 56.75821
# Shear Modulus (GPa) = 26.66493 35.33227 30.99860
#
# Velocity S-wave (km/s) = 3.74370 4.30939 4.03647
# Velocity P-wave (km/s) = 6.15844 8.07384 7.18029
#
# Compressibility (1/GPa) = 0.02731943
#
# Stress axis : x y z
#
# Youngs Moduli (GPa) = 94.60688 25.26803 97.14316
#
# Poissons Ratio (x) = 0.20287 0.43865
# Poissons Ratio (y) = 0.75956 0.39014
# Poissons Ratio (z) = 0.42720 0.10148
#
# Static dielectric constant tensor:
#      x y z
#    x 3.555750 0.000000 -0.048820 
#    y 0.000000 4.066720 0.000000 
#    z -0.048820 0.000000 3.686440 
# 
# 
# High freq. dielectric constant tensor:
#      x y z
#    x 1.750340 0.000000 -0.000160 
#    y 0.000000 1.715140 0.000000 
#    z -0.000160 0.000000 1.760110 
# 
# From -- ./inp_files/244693.got.cif
#   From: 2010.06.25/outbox.cif.g09.slc.cpg/sg12_123_cif.got.tgz:244693.got - 2010.06.28 00:19:55.
