data_PCOD8102683
_publ_section_title
;
Structure prediction by ZEFSAII (Michael W. Deem and Ramdas Pophale) SiO2 
 PCOD8102683
Probable space group: C 2/M
;
_chemical_formula_sum "Si O2"
_cell_formula_units_Z 64
_cell_length_a 9.492437
_cell_length_b 19.708941
_cell_length_c 24.044454
_cell_angle_alpha 90.000000
_cell_angle_beta 46.841445
_cell_angle_gamma 90.000000
_cell_volume 3281.402926
_symmetry_space_group_name_H-M "C 2/M"
_symmetry_group_IT_number 12
_symmetry_cell_setting 'monoclinic'
loop_
_space_group_symop_operation_xyz
x,y,z
-x,y,-z
-x,-y,-z
x,-y,z
1/2+x,1/2+y,z
1/2-x,1/2+y,-z
1/2-x,1/2-y,-z
1/2+x,1/2-y,z
loop_
_atom_site_type_symbol
_atom_site_label
_atom_site_fract_x
_atom_site_fract_y
_atom_site_fract_z
Si Si1 0.630341 0.922556 0.706616
Si Si2 0.669474 0.074910 0.818432
Si Si3 0.707679 0.578975 0.798215
Si Si4 0.282230 0.813746 0.577644
Si Si5 0.609645 0.576030 0.702552
Si Si6 0.060966 0.819073 0.420844
Si Si7 0.537093 0.330217 0.054636
Si Si8 0.459724 0.821293 0.947677
O O1 0.564285 0.911172 0.788487
O O2 0.433942 0.904077 0.727331
O O3 0.811617 0.878198 0.639541
O O4 0.694012 0.000000 0.679023
O O5 0.619024 0.131314 0.876902
O O6 0.891665 0.079200 0.741192
O O7 0.619038 0.000000 0.855990
O O8 0.678183 0.500000 0.821730
O O9 0.608315 0.598826 0.767168
O O10 0.613573 0.623196 0.872294
O O11 0.500000 0.828759 0.500000
O O12 0.231863 0.875600 0.630741
O O13 0.297136 0.745999 0.611524
O O14 0.128250 0.805869 0.567753
O O15 0.695715 0.500000 0.673781
O O16 0.000000 0.840012 0.500000
O O17 0.533196 0.253836 0.081916
O O18 0.500000 0.331171 0.000000
O O19 0.754062 0.358722 0.000096
O O20 0.500000 0.809541 0.000000
#
# Coordination Sequence:
#
# PCOD8102683 Si02
#       8
#     8   8   8   8   8   8   8   8
#     4  10  22  40  61  87 119 157 200 246 298 351
#     4  10  20  37  58  83 114 150 196 243 294 353
#     4  10  22  37  58  87 118 154 198 249 298 353
#     4  11  24  41  64  91 124 159 197 244 292 351
#     4  10  22  40  61  87 121 157 198 248 297 353
#     4  11  24  41  64  91 124 158 198 245 290 352
#     4  10  21  37  55  80 116 151 197 245 294 355
#     4  10  21  35  55  82 112 151 193 243 296 350
#
# _framework density 19.503851999999998
#
# number of rings (size 3 to 8) (size 9 to 14) (size 15 to 20)
#    0.000    1.750    1.250    3.000    3.500    3.500 
#    0.000    0.000    0.000    0.000    0.000    0.000 
#    0.000    0.000    0.000    0.000    0.000    0.000 
#
# Total GULP energy -396626.788860 kJ/mol
# GULP energy per Si atom -12394.587152 kJ/mol
# Density = 1.945946 g / cm^3
# Si number density = 19.503852 Si / 1000 Ang^3
#
#
#
# Elastic Constant Matrix: (Units=GPa)
#
#
# Indices 1 2 3 4 5 6 
#
# 1 103.3490 38.3530 34.7350 0.0069 -6.2320 -0.0032
# 2 38.3530 111.7403 69.6295 -0.0055 0.6676 0.0010
# 3 34.7350 69.6295 78.4689 -0.0091 -0.6554 -0.0019
# 4 0.0069 -0.0055 -0.0091 56.6073 -0.0036 0.5202
# 5 -6.2320 0.6676 -0.6554 -0.0036 26.6071 0.0038
# 6 -0.0032 0.0010 -0.0019 0.5202 0.0038 28.2716
#
#
#
# Elastic Compliance Matrix: (Units=1/GPa)
#
#
# Indices 1 2 3 4 5 6 
#
# 1 0.011706 -0.001832 -0.003533 -0.000002 0.002701 0.000001
# 2 -0.001832 0.020329 -0.017239 -0.000001 -0.001364 -0.000002
# 3 -0.003533 -0.017239 0.029608 0.000003 0.000334 0.000002
# 4 -0.000002 -0.000001 0.000003 0.017669 0.000002 -0.000325
# 5 0.002701 -0.001364 0.000334 0.000002 0.038259 -0.000005
# 6 0.000001 -0.000002 0.000002 -0.000325 -0.000005 0.035377
#
#
# Mechanical properties :
#
#
# Convention : Reuss Voigt Hill
#
# Bulk Modulus (GPa) = 60.85180 64.33259 62.59219
# Shear Modulus (GPa) = 24.55378 32.35325 28.45351
#
# Velocity S-wave (km/s) = 3.55197 4.07727 3.82365
# Velocity P-wave (km/s) = 6.93467 7.43113 7.18719
#
# Compressibility (1/GPa) = 0.01643337
#
# Stress axis : x y z
#
# Youngs Moduli (GPa) = 85.42359 49.19178 33.77487
#
# Poissons Ratio (x) = 0.09014 0.11934
# Poissons Ratio (y) = 0.15652 0.58224
# Poissons Ratio (z) = 0.30184 0.84801
#
# Static dielectric constant tensor:
#      x y z
#    x 3.801980 0.000000 0.008150 
#    y 0.000000 3.628980 0.000010 
#    z 0.008150 0.000010 3.256370 
# 
# 
# High freq. dielectric constant tensor:
#      x y z
#    x 1.782330 0.000000 -0.001320 
#    y 0.000000 1.759570 0.000000 
#    z -0.001320 0.000000 1.746610 
# 
# From -- ./inp_files/333722.got.cif
#   From: 2010.06.25/outbox.cif.g09.slc.cpg/sg12_167_cif.got.tgz:333722.got - 2010.06.28 00:19:55.
