data_PCOD8102078
_publ_section_title
;
Structure prediction by ZEFSAII (Michael W. Deem and Ramdas Pophale) SiO2 
 PCOD8102078
Probable space group: C 2/M
;
_chemical_formula_sum "Si O2"
_cell_formula_units_Z 64
_cell_length_a 15.307929
_cell_length_b 8.789815
_cell_length_c 28.590375
_cell_angle_alpha 90.000000
_cell_angle_beta 123.298434
_cell_angle_gamma 90.000000
_cell_volume 3215.363033
_symmetry_space_group_name_H-M "C 2/M"
_symmetry_group_IT_number 12
_symmetry_cell_setting 'monoclinic'
loop_
_space_group_symop_operation_xyz
x,y,z
-x,y,-z
-x,-y,-z
x,-y,z
1/2+x,1/2+y,z
1/2-x,1/2+y,-z
1/2-x,1/2-y,-z
1/2+x,1/2-y,z
loop_
_atom_site_type_symbol
_atom_site_label
_atom_site_fract_x
_atom_site_fract_y
_atom_site_fract_z
Si Si1 0.960365 0.325272 0.360310
Si Si2 0.789078 0.174364 0.131626
Si Si3 0.697177 0.820855 0.439607
Si Si4 0.889150 0.678724 0.739633
Si Si5 0.069153 0.820451 0.062401
Si Si6 0.221658 0.674362 0.628510
Si Si7 0.575540 0.324241 0.742193
Si Si8 0.999404 0.820308 0.856399
O O1 0.960578 0.500000 0.343493
O O2 0.899296 0.309250 0.391476
O O3 0.900466 0.223463 0.303826
O O4 0.077747 0.263317 0.401488
O O5 0.688964 0.274585 0.090682
O O6 0.823264 0.202406 0.195481
O O7 0.883037 0.223536 0.124548
O O8 0.758763 0.000000 0.114301
O O9 0.750000 0.750000 0.500000
O O10 0.760322 0.772979 0.412219
O O11 0.701047 0.000000 0.445896
O O12 0.867327 0.500000 0.733625
O O13 0.787646 0.765928 0.691780
O O14 0.915601 0.735160 0.799415
O O15 0.982418 0.716211 0.731619
O O16 0.020717 0.761522 0.097004
O O17 0.063152 0.000000 0.059480
O O18 0.000000 0.750664 0.000000
O O19 0.250888 0.500000 0.626237
O O20 0.540421 0.500000 0.735526
O O21 0.981950 0.000000 0.845378
#
# Coordination Sequence:
#
# PCOD8102078 Si02
#       8
#     8   8   8   8   8   8   8   8
#     4  10  23  40  61  90 124 160 202 246 299 358
#     4   9  20  37  56  83 116 153 194 241 295 354
#     4  11  24  44  66  90 122 164 207 255 300 355
#     4  11  21  35  58  89 123 156 198 247 298 361
#     4  10  22  39  59  84 115 154 201 247 295 357
#     4  11  23  40  62  91 123 161 201 248 304 355
#     4  10  20  36  60  88 123 159 196 243 303 361
#     4   9  20  39  58  81 116 157 194 240 301 360
#
# _framework density 19.904440999999998
#
# number of rings (size 3 to 8) (size 9 to 14) (size 15 to 20)
#    0.000    1.875    1.250    3.000    1.750    5.750 
#    0.000    2.500    0.000    0.000    0.000    0.000 
#    0.000    0.000    0.000    0.000    0.000    0.000 
#
# Total GULP energy -396876.864524 kJ/mol
# GULP energy per Si atom -12402.402016 kJ/mol
# Density = 1.985914 g / cm^3
# Si number density = 19.904441 Si / 1000 Ang^3
#
#
#
# Elastic Constant Matrix: (Units=GPa)
#
#
# Indices 1 2 3 4 5 6 
#
# 1 99.3949 18.2856 54.2468 0.0000 -14.1291 0.0000
# 2 18.2856 45.1672 27.1094 0.0000 -2.6233 0.0000
# 3 54.2468 27.1094 124.4545 0.0000 -15.4437 0.0000
# 4 0.0000 0.0000 0.0000 31.3816 0.0000 0.5647
# 5 -14.1291 -2.6233 -15.4437 0.0000 24.0073 0.0000
# 6 0.0000 0.0000 0.0000 0.5647 0.0000 29.9152
#
#
#
# Elastic Compliance Matrix: (Units=1/GPa)
#
#
# Indices 1 2 3 4 5 6 
#
# 1 0.013865 -0.002374 -0.004940 0.000000 0.004723 0.000000
# 2 -0.002374 0.025892 -0.004812 0.000000 -0.001663 0.000000
# 3 -0.004940 -0.004812 0.011748 0.000000 0.004124 0.000000
# 4 0.000000 0.000000 0.000000 0.031877 0.000000 -0.000602
# 5 0.004723 -0.001663 0.004124 0.000000 0.046905 0.000000
# 6 0.000000 0.000000 0.000000 -0.000602 0.000000 0.033439
#
#
# Mechanical properties :
#
#
# Convention : Reuss Voigt Hill
#
# Bulk Modulus (GPa) = 36.69160 52.03337 44.36249
# Shear Modulus (GPa) = 25.37258 28.35248 26.86253
#
# Velocity S-wave (km/s) = 3.57419 3.77826 3.67764
# Velocity P-wave (km/s) = 5.95878 6.72547 6.35370
#
# Compressibility (1/GPa) = 0.02725419
#
# Stress axis : x y z
#
# Youngs Moduli (GPa) = 72.12284 38.62146 85.11794
#
# Poissons Ratio (x) = 0.09167 0.42052
# Poissons Ratio (y) = 0.17120 0.40957
# Poissons Ratio (z) = 0.35632 0.18584
#
# Static dielectric constant tensor:
#      x y z
#    x 3.686680 0.000000 -0.097470 
#    y 0.000000 3.519150 0.000000 
#    z -0.097470 0.000000 3.743070 
# 
# 
# High freq. dielectric constant tensor:
#      x y z
#    x 1.780040 0.000000 -0.003190 
#    y 0.000000 1.772720 0.000000 
#    z -0.003190 0.000000 1.772600 
# 
# From -- ./inp_files/375625.got.cif
#   From: 2010.06.25/outbox.cif.g09.slc.cpg/sg12_188_cif.got.tgz:375625.got - 2010.06.28 00:19:55.
