data_PCOD8102373
_publ_section_title
;
Structure prediction by ZEFSAII (Michael W. Deem and Ramdas Pophale) SiO2 
 PCOD8102373
Probable space group: C 2/M
;
_chemical_formula_sum "Si O2"
_cell_formula_units_Z 40
_cell_length_a 12.266735
_cell_length_b 14.406844
_cell_length_c 18.531334
_cell_angle_alpha 90.000000
_cell_angle_beta 151.767940
_cell_angle_gamma 90.000000
_cell_volume 1549.194332
_symmetry_space_group_name_H-M "C 2/M"
_symmetry_group_IT_number 12
_symmetry_cell_setting 'monoclinic'
loop_
_space_group_symop_operation_xyz
x,y,z
-x,y,-z
-x,-y,-z
x,-y,z
1/2+x,1/2+y,z
1/2-x,1/2+y,-z
1/2-x,1/2-y,-z
1/2+x,1/2-y,z
loop_
_atom_site_type_symbol
_atom_site_label
_atom_site_fract_x
_atom_site_fract_y
_atom_site_fract_z
Si Si1 0.119922 0.332005 0.382917
Si Si2 0.979155 0.273630 0.827707
Si Si3 0.277211 0.896960 0.920706
Si Si4 0.819270 0.393886 0.334698
Si Si5 0.910023 0.898145 0.333089
O O1 0.250000 0.250000 0.500000
O O2 0.979070 0.301719 0.230337
O O3 0.331087 0.399986 0.484224
O O4 0.931946 0.382996 0.322086
O O5 0.921835 0.163058 0.799776
O O6 0.745535 0.321283 0.719911
O O7 0.197082 0.312768 0.004104
O O8 0.258704 0.000000 0.945920
O O9 0.500000 0.892371 0.000000
O O10 0.070559 0.878245 0.743025
O O11 0.750029 0.500000 0.308662
O O12 0.000000 0.357984 0.500000
O O13 0.798612 0.000000 0.280456
#
# Coordination Sequence:
#
# PCOD8102373 Si02
#       5
#     8   8   8   8   8
#     4  12  22  37  59  91 116 154 203 251 293 351
#     4  11  20  37  63  88 120 152 201 248 298 351
#     4   8  17  34  59  90 121 151 187 241 307 361
#     4  11  23  39  58  84 125 165 196 242 304 363
#     4  10  20  36  62  93 121 151 191 245 308 362
#
# _framework density 25.819873000000001
#
# number of rings (size 3 to 8) (size 9 to 14) (size 15 to 20)
#    0.000    1.600    4.000    3.000    0.000    4.000 
#    0.000    1.000    0.000    5.400    0.000    0.000 
#    0.000    0.000    0.000    0.000    0.000    0.000 
#
# Total GULP energy -248009.661281 kJ/mol
# GULP energy per Si atom -12400.483064 kJ/mol
# Density = 2.576111 g / cm^3
# Si number density = 25.819873 Si / 1000 Ang^3
#
#
#
# Elastic Constant Matrix: (Units=GPa)
#
#
# Indices 1 2 3 4 5 6 
#
# 1 71.9803 29.7109 44.2614 0.0053 -6.7113 0.0025
# 2 29.7109 156.1226 46.5057 0.0108 -17.1997 0.0029
# 3 44.2614 46.5057 151.9484 0.0169 -4.6516 0.0070
# 4 0.0053 0.0108 0.0169 31.1418 0.0078 -7.1332
# 5 -6.7113 -17.1997 -4.6516 0.0078 48.2742 0.0026
# 6 0.0025 0.0029 0.0070 -7.1332 0.0026 25.9012
#
#
#
# Elastic Compliance Matrix: (Units=1/GPa)
#
#
# Indices 1 2 3 4 5 6 
#
# 1 0.017552 -0.001850 -0.004505 0.000000 0.001347 -0.000001
# 2 -0.001850 0.007509 -0.001690 -0.000002 0.002255 -0.000001
# 3 -0.004505 -0.001690 0.008398 -0.000004 -0.000419 -0.000003
# 4 0.000000 -0.000002 -0.000004 0.034273 -0.000007 0.009439
# 5 0.001347 0.002255 -0.000419 -0.000007 0.021665 -0.000004
# 6 -0.000001 -0.000001 -0.000003 0.009439 -0.000004 0.041208
#
#
# Mechanical properties :
#
#
# Convention : Reuss Voigt Hill
#
# Bulk Modulus (GPa) = 57.57617 69.00081 63.28849
# Shear Modulus (GPa) = 32.78971 38.36833 35.57902
#
# Velocity S-wave (km/s) = 3.56749 3.85905 3.71613
# Velocity P-wave (km/s) = 6.27032 6.82922 6.55573
#
# Compressibility (1/GPa) = 0.01736830
#
# Stress axis : x y z
#
# Youngs Moduli (GPa) = 56.97266 133.16878 119.07420
#
# Poissons Ratio (x) = 0.24634 0.53648
# Poissons Ratio (y) = 0.10539 0.20129
# Poissons Ratio (z) = 0.25669 0.22511
#
# Static dielectric constant tensor:
#      x y z
#    x 4.787830 0.000030 -0.020060 
#    y 0.000030 4.952330 0.000050 
#    z -0.020060 0.000050 5.455470 
# 
# 
# High freq. dielectric constant tensor:
#      x y z
#    x 2.044080 0.000000 0.012110 
#    y 0.000000 2.047640 0.000000 
#    z 0.012110 0.000000 2.036250 
# 
# From -- ./inp_files/205924.got.cif
#   From: 2010.06.25/outbox.cif.g09.slc.cpg/sg12_103_cif.got.tgz:205924.got - 2010.06.28 00:19:55.
