data_PCOD8102336
_publ_section_title
;
Structure prediction by ZEFSAII (Michael W. Deem and Ramdas Pophale) SiO2 
 PCOD8102336
Probable space group: C 2/M
;
_chemical_formula_sum "Si O2"
_cell_formula_units_Z 56
_cell_length_a 7.849290
_cell_length_b 18.526427
_cell_length_c 27.028090
_cell_angle_alpha 90.000000
_cell_angle_beta 134.164728
_cell_angle_gamma 90.000000
_cell_volume 2819.435999
_symmetry_space_group_name_H-M "C 2/M"
_symmetry_group_IT_number 12
_symmetry_cell_setting 'monoclinic'
loop_
_space_group_symop_operation_xyz
x,y,z
-x,y,-z
-x,-y,-z
x,-y,z
1/2+x,1/2+y,z
1/2-x,1/2+y,-z
1/2-x,1/2-y,-z
1/2+x,1/2-y,z
loop_
_atom_site_type_symbol
_atom_site_label
_atom_site_fract_x
_atom_site_fract_y
_atom_site_fract_z
Si Si1 0.521978 0.655699 0.624692
Si Si2 0.800321 0.667316 0.999769
Si Si3 0.622423 0.916145 0.133523
Si Si4 0.482966 0.583914 0.865939
Si Si5 0.435580 0.916300 0.764231
Si Si6 0.215514 0.919828 0.507080
Si Si7 0.571512 0.201990 0.571509
O O1 0.776295 0.631933 0.696032
O O2 0.387809 0.591266 0.568908
O O3 0.539758 0.722903 0.591747
O O4 0.346208 0.678322 0.633647
O O5 0.567051 0.628703 0.930979
O O6 0.750000 0.750000 0.000000
O O7 0.000000 0.657306 0.000000
O O8 0.894944 0.628504 0.068199
O O9 0.639234 0.897066 0.194779
O O10 0.867273 0.895956 0.153652
O O11 0.563893 0.000000 0.113895
O O12 0.516937 0.500000 0.885392
O O13 0.205757 0.603061 0.804106
O O14 0.384950 0.000000 0.743656
O O15 0.411943 0.861316 0.562837
O O16 0.000000 0.910977 0.500000
O O17 0.328300 0.000000 0.532705
O O18 0.500000 0.213314 0.500000
#
# Coordination Sequence:
#
# PCOD8102336 Si02
#       7
#     8   8   8   8   8   8   8
#     4  11  21  39  57  85 119 151 193 232 285 349
#     4  10  21  35  56  87 116 146 189 242 290 333
#     4   9  19  39  61  83 112 149 195 239 284 342
#     4   9  19  39  62  83 111 151 193 239 287 338
#     4  10  22  39  60  85 116 154 193 236 288 350
#     4  10  20  36  62  90 115 146 190 243 288 332
#     4  10  21  38  61  83 114 152 190 238 288 339
#
# _framework density 19.862128999999999
#
# number of rings (size 3 to 8) (size 9 to 14) (size 15 to 20)
#    0.000    2.143    0.000    3.857    2.000    4.857 
#    7.714    2.143    0.000    0.000    0.000    0.000 
#    0.000    0.000    0.000    0.000    0.000    0.000 
#
# Total GULP energy -347122.004109 kJ/mol
# GULP energy per Si atom -12397.214432 kJ/mol
# Density = 1.981692 g / cm^3
# Si number density = 19.862129 Si / 1000 Ang^3
#
#
#
# Elastic Constant Matrix: (Units=GPa)
#
#
# Indices 1 2 3 4 5 6 
#
# 1 88.7620 39.3562 33.9113 -0.0001 11.9862 -0.0002
# 2 39.3562 111.2890 56.9155 0.0001 6.0317 0.0000
# 3 33.9113 56.9155 97.4530 0.0005 18.0587 0.0001
# 4 -0.0001 0.0001 0.0005 51.0825 0.0000 7.1022
# 5 11.9862 6.0317 18.0587 0.0000 27.2178 -0.0001
# 6 -0.0002 0.0000 0.0001 7.1022 -0.0001 24.2709
#
#
#
# Elastic Compliance Matrix: (Units=1/GPa)
#
#
# Indices 1 2 3 4 5 6 
#
# 1 0.014268 -0.003813 -0.001973 0.000000 -0.004129 0.000000
# 2 -0.003813 0.013973 -0.007493 0.000000 0.003554 0.000000
# 3 -0.001973 -0.007493 0.016937 0.000000 -0.008709 0.000000
# 4 0.000000 0.000000 0.000000 0.020406 0.000000 -0.005971
# 5 -0.004129 0.003554 -0.008709 0.000000 0.043550 0.000000
# 6 0.000000 0.000000 0.000000 -0.005971 0.000000 0.042949
#
#
# Mechanical properties :
#
#
# Convention : Reuss Voigt Hill
#
# Bulk Modulus (GPa) = 53.69953 61.98554 57.84254
# Shear Modulus (GPa) = 27.04926 31.66898 29.35912
#
# Velocity S-wave (km/s) = 3.69433 3.99738 3.84884
# Velocity P-wave (km/s) = 6.72995 7.25128 6.99547
#
# Compressibility (1/GPa) = 0.01862214
#
# Stress axis : x y z
#
# Youngs Moduli (GPa) = 70.08658 71.56530 59.04074
#
# Poissons Ratio (x) = 0.27288 0.11648
# Poissons Ratio (y) = 0.26724 0.44236
# Poissons Ratio (z) = 0.13827 0.53620
#
# Static dielectric constant tensor:
#      x y z
#    x 4.012620 0.000000 0.249960 
#    y 0.000000 3.622430 0.000000 
#    z 0.249960 0.000000 3.546320 
# 
# 
# High freq. dielectric constant tensor:
#      x y z
#    x 1.787640 0.000000 0.010790 
#    y 0.000000 1.777800 0.000000 
#    z 0.010790 0.000000 1.751910 
# 
# From -- ./inp_files/372811.got.cif
#   From: 2010.06.25/outbox.cif.g09.slc.cpg/sg12_187_cif.got.tgz:372811.got - 2010.06.28 00:19:55.
