data_PCOD8102671
_publ_section_title
;
Structure prediction by ZEFSAII (Michael W. Deem and Ramdas Pophale) SiO2 
 PCOD8102671
Probable space group: C 2/M
;
_chemical_formula_sum "Si O2"
_cell_formula_units_Z 56
_cell_length_a 29.046105
_cell_length_b 9.296335
_cell_length_c 11.725475
_cell_angle_alpha 90.000000
_cell_angle_beta 69.748141
_cell_angle_gamma 90.000000
_cell_volume 2970.409552
_symmetry_space_group_name_H-M "C 2/M"
_symmetry_group_IT_number 12
_symmetry_cell_setting 'monoclinic'
loop_
_space_group_symop_operation_xyz
x,y,z
-x,y,-z
-x,-y,-z
x,-y,z
1/2+x,1/2+y,z
1/2-x,1/2+y,-z
1/2-x,1/2-y,-z
1/2+x,1/2-y,z
loop_
_atom_site_type_symbol
_atom_site_label
_atom_site_fract_x
_atom_site_fract_y
_atom_site_fract_z
Si Si1 0.739303 0.167076 0.893951
Si Si2 0.924571 0.669132 0.613650
Si Si3 0.300539 0.332246 0.441857
Si Si4 0.520615 0.170134 0.654274
Si Si5 0.042321 0.330659 0.883251
Si Si6 0.330998 0.663779 0.667259
Si Si7 0.153006 0.331928 0.806045
O O1 0.778934 0.211403 0.764421
O O2 0.686056 0.207710 0.887552
O O3 0.741860 0.000000 0.921470
O O4 0.750000 0.250000 0.000000
O O5 0.915817 0.500000 0.616087
O O6 0.964004 0.709932 0.677160
O O7 0.873344 0.742305 0.689002
O O8 0.944185 0.730072 0.475549
O O9 0.290284 0.500000 0.425086
O O10 0.250000 0.250000 0.500000
O O11 0.330860 0.312479 0.532019
O O12 0.332230 0.263123 0.314451
O O13 0.536415 0.237201 0.761908
O O14 0.526587 0.000000 0.648699
O O15 0.033615 0.500000 0.881775
O O16 0.096462 0.296784 0.885817
O O17 0.000000 0.262873 0.000000
O O18 0.341951 0.500000 0.689618
O O19 0.160003 0.500000 0.767545
#
# Coordination Sequence:
#
# PCOD8102671 Si02
#       7
#     8   8   8   8   8   8   8
#     4  10  22  39  54  74 107 144 181 221 265 319
#     4   9  17  30  52  77 102 135 174 217 264 316
#     4  11  21  35  57  83 112 143 179 224 276 330
#     4   8  15  29  47  74 106 130 169 226 266 305
#     4   9  17  29  50  78 106 139 177 222 275 321
#     4  10  21  36  51  76 113 141 171 221 269 317
#     4  10  20  37  58  82 113 144 181 231 280 325
#
# _framework density 18.852619000000001
#
# number of rings (size 3 to 8) (size 9 to 14) (size 15 to 20)
#    0.000    2.429    1.429    2.143    0.000    4.571 
#    0.000    4.286    0.000    1.286    0.000    0.000 
#    0.000    0.000    0.000    0.000    0.000    0.000 
#
# Total GULP energy -347148.856378 kJ/mol
# GULP energy per Si atom -12398.173442 kJ/mol
# Density = 1.880971 g / cm^3
# Si number density = 18.852619 Si / 1000 Ang^3
#
#
#
# Elastic Constant Matrix: (Units=GPa)
#
#
# Indices 1 2 3 4 5 6 
#
# 1 157.7537 43.1130 62.1270 0.0000 -4.7022 0.0000
# 2 43.1130 51.1891 32.2921 0.0000 -2.9171 0.0000
# 3 62.1270 32.2921 98.9506 0.0000 5.7085 0.0000
# 4 0.0000 0.0000 0.0000 26.3990 0.0000 -0.6065
# 5 -4.7022 -2.9171 5.7085 0.0000 34.0927 0.0000
# 6 0.0000 0.0000 0.0000 -0.6065 0.0000 27.3102
#
#
#
# Elastic Compliance Matrix: (Units=1/GPa)
#
#
# Indices 1 2 3 4 5 6 
#
# 1 0.009526 -0.005163 -0.004389 0.000000 0.001607 0.000000
# 2 -0.005163 0.027815 -0.005990 0.000000 0.002671 0.000000
# 3 -0.004389 -0.005990 0.015026 0.000000 -0.003634 0.000000
# 4 0.000000 0.000000 0.000000 0.037899 0.000000 0.000842
# 5 0.001607 0.002671 -0.003634 0.000000 0.030390 0.000000
# 6 0.000000 0.000000 0.000000 0.000842 0.000000 0.036635
#
#
# Mechanical properties :
#
#
# Convention : Reuss Voigt Hill
#
# Bulk Modulus (GPa) = 46.98424 64.77308 55.87866
# Shear Modulus (GPa) = 25.57938 28.91780 27.24859
#
# Velocity S-wave (km/s) = 3.68748 3.92074 3.80590
# Velocity P-wave (km/s) = 6.56552 7.41137 7.00123
#
# Compressibility (1/GPa) = 0.02128373
#
# Stress axis : x y z
#
# Youngs Moduli (GPa) = 104.97101 35.95233 66.55117
#
# Poissons Ratio (x) = 0.18563 0.29209
# Poissons Ratio (y) = 0.54198 0.39861
# Poissons Ratio (z) = 0.46072 0.21534
#
# Static dielectric constant tensor:
#      x y z
#    x 3.597650 0.000000 0.024920 
#    y 0.000000 3.139490 0.000000 
#    z 0.024920 0.000000 3.663190 
# 
# 
# High freq. dielectric constant tensor:
#      x y z
#    x 1.747260 0.000000 -0.001440 
#    y 0.000000 1.693070 0.000000 
#    z -0.001440 0.000000 1.725310 
# 
# From -- ./inp_files/187234.got.cif
#   From: 2010.06.25/outbox.cif.g09.slc.cpg/sg12_94_cif.got.tgz:187234.got - 2010.06.28 00:19:55.
