data_PCOD8102522
_publ_section_title
;
Structure prediction by ZEFSAII (Michael W. Deem and Ramdas Pophale) SiO2 
 PCOD8102522
Probable space group: C 2/M
;
_chemical_formula_sum "Si O2"
_cell_formula_units_Z 64
_cell_length_a 29.844402
_cell_length_b 8.969620
_cell_length_c 11.717915
_cell_angle_alpha 90.000000
_cell_angle_beta 86.530380
_cell_angle_gamma 90.000000
_cell_volume 3131.053504
_symmetry_space_group_name_H-M "C 2/M"
_symmetry_group_IT_number 12
_symmetry_cell_setting 'monoclinic'
loop_
_space_group_symop_operation_xyz
x,y,z
-x,y,-z
-x,-y,-z
x,-y,z
1/2+x,1/2+y,z
1/2-x,1/2+y,-z
1/2-x,1/2-y,-z
1/2+x,1/2-y,z
loop_
_atom_site_type_symbol
_atom_site_label
_atom_site_fract_x
_atom_site_fract_y
_atom_site_fract_z
Si Si1 0.793804 0.668387 0.039249
Si Si2 0.386570 0.671910 0.029668
Si Si3 0.833888 0.675173 0.676065
Si Si4 0.995667 0.174170 0.367458
Si Si5 0.254731 0.833776 0.284347
Si Si6 0.086393 0.322693 0.744542
Si Si7 0.414473 0.669195 0.778977
Si Si8 0.667169 0.177388 0.577671
O O1 0.796759 0.500000 0.988642
O O2 0.838892 0.756757 0.001426
O O3 0.790116 0.662525 0.175905
O O4 0.750000 0.750000 0.000000
O O5 0.378507 0.500000 0.063828
O O6 0.411177 0.754573 0.129408
O O7 0.419554 0.685882 0.915031
O O8 0.832342 0.500000 0.671502
O O9 0.787375 0.730120 0.738405
O O10 0.874880 0.724032 0.746309
O O11 0.839151 0.742765 0.548055
O O12 0.957770 0.272254 0.314695
O O13 0.000000 0.217818 0.500000
O O14 0.040739 0.217469 0.293242
O O15 0.984154 0.000000 0.355601
O O16 0.283784 0.770478 0.385848
O O17 0.236441 0.000000 0.311752
O O18 0.086602 0.500000 0.756069
O O19 0.128025 0.260009 0.664578
O O20 0.401756 0.500000 0.748662
O O21 0.664731 0.000000 0.578891
#
# Coordination Sequence:
#
# PCOD8102522 Si02
#       8
#     8   8   8   8   8   8   8   8
#     4  11  22  37  58  83 117 161 205 252 299 351
#     4  11  23  40  61  86 118 159 204 247 297 356
#     4  11  22  35  57  88 118 150 198 250 293 349
#     4  10  22  42  67  94 122 155 200 246 293 360
#     4  10  20  37  56  77 115 160 196 235 298 359
#     4  11  22  40  65  91 122 159 199 248 306 358
#     4  10  23  42  61  84 120 159 193 238 301 358
#     4   9  19  37  57  82 118 156 192 239 298 356
#
# _framework density 20.440404999999998
#
# number of rings (size 3 to 8) (size 9 to 14) (size 15 to 20)
#    0.000    1.625    1.250    3.375    0.000    6.250 
#    0.000    5.000    0.000    0.000    0.000    0.000 
#    0.000    0.000    0.000    0.000    0.000    0.000 
#
# Total GULP energy -396865.097611 kJ/mol
# GULP energy per Si atom -12402.034300 kJ/mol
# Density = 2.039388 g / cm^3
# Si number density = 20.440405 Si / 1000 Ang^3
#
#
#
# Elastic Constant Matrix: (Units=GPa)
#
#
# Indices 1 2 3 4 5 6 
#
# 1 112.7144 46.2245 41.6210 0.0000 -2.6799 0.0000
# 2 46.2245 91.4082 35.7700 0.0000 3.3339 0.0000
# 3 41.6210 35.7700 95.3880 0.0000 -4.3203 0.0000
# 4 0.0000 0.0000 0.0000 28.3926 0.0000 5.0698
# 5 -2.6799 3.3339 -4.3203 0.0000 38.3585 0.0000
# 6 0.0000 0.0000 0.0000 5.0698 0.0000 34.0060
#
#
#
# Elastic Compliance Matrix: (Units=1/GPa)
#
#
# Indices 1 2 3 4 5 6 
#
# 1 0.012145 -0.004823 -0.003451 0.000000 0.000879 0.000000
# 2 -0.004823 0.014844 -0.003553 0.000000 -0.002027 0.000000
# 3 -0.003451 -0.003553 0.013393 0.000000 0.001576 0.000000
# 4 0.000000 0.000000 0.000000 0.036184 0.000000 -0.005394
# 5 0.000879 -0.002027 0.001576 0.000000 0.026485 0.000000
# 6 0.000000 0.000000 0.000000 -0.005394 0.000000 0.030211
#
#
# Mechanical properties :
#
#
# Convention : Reuss Voigt Hill
#
# Bulk Modulus (GPa) = 59.78521 60.74907 60.26714
# Shear Modulus (GPa) = 30.77067 31.87776 31.32421
#
# Velocity S-wave (km/s) = 3.88414 3.95339 3.91892
# Velocity P-wave (km/s) = 7.03046 7.11503 7.07287
#
# Compressibility (1/GPa) = 0.01672655
#
# Stress axis : x y z
#
# Youngs Moduli (GPa) = 82.33676 67.36896 74.66526
#
# Poissons Ratio (x) = 0.32495 0.25765
# Poissons Ratio (y) = 0.39715 0.26532
# Poissons Ratio (z) = 0.28413 0.23939
#
# Static dielectric constant tensor:
#      x y z
#    x 3.607790 0.000000 -0.111920 
#    y 0.000000 3.585530 0.000000 
#    z -0.111920 0.000000 4.010590 
# 
# 
# High freq. dielectric constant tensor:
#      x y z
#    x 1.795600 0.000000 -0.000610 
#    y 0.000000 1.789520 0.000000 
#    z -0.000610 0.000000 1.816460 
# 
# From -- ./inp_files/187628.got.cif
#   From: 2010.06.25/outbox.cif.g09.slc.cpg/sg12_94_cif.got.tgz:187628.got - 2010.06.28 00:19:55.
