data_PCOD8102503
_publ_section_title
;
Structure prediction by ZEFSAII (Michael W. Deem and Ramdas Pophale) SiO2 
 PCOD8102503
Probable space group: C 2/M
;
_chemical_formula_sum "Si O2"
_cell_formula_units_Z 48
_cell_length_a 17.697805
_cell_length_b 13.319129
_cell_length_c 20.517316
_cell_angle_alpha 90.000000
_cell_angle_beta 32.531321
_cell_angle_gamma 90.000000
_cell_volume 2600.786697
_symmetry_space_group_name_H-M "C 2/M"
_symmetry_group_IT_number 12
_symmetry_cell_setting 'monoclinic'
loop_
_space_group_symop_operation_xyz
x,y,z
-x,y,-z
-x,-y,-z
x,-y,z
1/2+x,1/2+y,z
1/2-x,1/2+y,-z
1/2-x,1/2-y,-z
1/2+x,1/2-y,z
loop_
_atom_site_type_symbol
_atom_site_label
_atom_site_fract_x
_atom_site_fract_y
_atom_site_fract_z
Si Si1 0.911549 0.277263 0.887623
Si Si2 0.577003 0.113987 0.251595
Si Si3 0.667127 0.689936 0.870414
Si Si4 0.627048 0.108586 0.954670
Si Si5 0.930332 0.383623 0.486000
Si Si6 0.361465 0.616517 0.247989
O O1 0.965961 0.327687 0.782148
O O2 0.999018 0.175313 0.833340
O O3 0.750000 0.250000 0.000000
O O4 0.932937 0.352559 0.932491
O O5 0.744774 0.119221 0.144712
O O6 0.492684 0.163730 0.374013
O O7 0.532197 0.000000 0.272461
O O8 0.717294 0.803333 0.854160
O O9 0.706274 0.661885 0.768600
O O10 0.500000 0.674817 0.000000
O O11 0.706833 0.000000 0.905817
O O12 0.500000 0.086349 0.000000
O O13 0.974524 0.500000 0.453189
O O14 0.761397 0.370347 0.609150
O O15 0.000000 0.333896 0.500000
O O16 0.401755 0.500000 0.208929
#
# Coordination Sequence:
#
# PCOD8102503 Si02
#       6
#     8   8   8   8   8   8
#     4  12  23  37  52  84 119 148 189 224 288 347
#     4  11  22  36  57  84 116 148 186 239 283 333
#     4  11  19  35  56  86 110 141 194 231 284 344
#     4  10  20  37  55  75 109 150 188 225 269 337
#     4   9  18  35  59  84 109 147 190 233 289 331
#     4  11  22  37  59  85 116 147 189 242 282 333
#
# _framework density 18.455953999999998
#
# number of rings (size 3 to 8) (size 9 to 14) (size 15 to 20)
#    0.000    1.333    6.667    1.000    0.000    4.667 
#    0.000    0.000    0.000    0.000    0.000    3.500 
#    0.000    0.000    0.000    0.000    0.000    0.000 
#
# Total GULP energy -297404.929141 kJ/mol
# GULP energy per Si atom -12391.872048 kJ/mol
# Density = 1.841395 g / cm^3
# Si number density = 18.455954 Si / 1000 Ang^3
#
#
#
# Elastic Constant Matrix: (Units=GPa)
#
#
# Indices 1 2 3 4 5 6 
#
# 1 112.5788 49.9088 46.4722 0.0005 23.8700 -0.0002
# 2 49.9088 108.7034 49.2826 0.0013 16.5461 -0.0008
# 3 46.4722 49.2826 81.5118 0.0027 13.8909 -0.0016
# 4 0.0005 0.0013 0.0027 22.4943 -0.0012 6.8406
# 5 23.8700 16.5461 13.8909 -0.0012 34.4678 0.0005
# 6 -0.0002 -0.0008 -0.0016 6.8406 0.0005 12.7558
#
#
#
# Elastic Compliance Matrix: (Units=1/GPa)
#
#
# Indices 1 2 3 4 5 6 
#
# 1 0.013504 -0.003122 -0.004803 0.000000 -0.005918 -0.000001
# 2 -0.003122 0.013736 -0.006195 0.000000 -0.001935 0.000000
# 3 -0.004803 -0.006195 0.018982 -0.000003 -0.001350 0.000004
# 4 0.000000 0.000000 -0.000003 0.053118 0.000003 -0.028486
# 5 -0.005918 -0.001935 -0.001350 0.000003 0.034584 -0.000004
# 6 -0.000001 0.000000 0.000004 -0.028486 -0.000004 0.093672
#
#
# Mechanical properties :
#
#
# Convention : Reuss Voigt Hill
#
# Bulk Modulus (GPa) = 55.61129 66.01347 60.81238
# Shear Modulus (GPa) = 19.09632 24.41894 21.75763
#
# Velocity S-wave (km/s) = 3.22016 3.64138 3.43723
# Velocity P-wave (km/s) = 6.63500 7.31610 6.98386
#
# Compressibility (1/GPa) = 0.01798196
#
# Stress axis : x y z
#
# Youngs Moduli (GPa) = 74.05184 72.80191 52.68069
#
# Poissons Ratio (x) = 0.22727 0.25303
# Poissons Ratio (y) = 0.23117 0.32637
# Poissons Ratio (z) = 0.35568 0.45103
#
# Static dielectric constant tensor:
#      x y z
#    x 4.943350 0.000020 1.215840 
#    y 0.000020 3.667560 0.000020 
#    z 1.215840 0.000020 3.990020 
# 
# 
# High freq. dielectric constant tensor:
#      x y z
#    x 1.720320 0.000000 0.015490 
#    y 0.000000 1.702280 0.000000 
#    z 0.015490 0.000000 1.700060 
# 
# From -- ./inp_files/270134.got.cif
#   From: 2010.06.25/outbox.cif.g09.slc.cpg/sg12_136_cif.got.tgz:270134.got - 2010.06.28 00:19:55.
