data_PCOD8102234
_publ_section_title
;
Structure prediction by ZEFSAII (Michael W. Deem and Ramdas Pophale) SiO2 
 PCOD8102234
Probable space group: C 2/M
;
_chemical_formula_sum "Si O2"
_cell_formula_units_Z 64
_cell_length_a 30.128640
_cell_length_b 8.750376
_cell_length_c 15.157573
_cell_angle_alpha 90.000000
_cell_angle_beta 51.675080
_cell_angle_gamma 90.000000
_cell_volume 3134.964204
_symmetry_space_group_name_H-M "C 2/M"
_symmetry_group_IT_number 12
_symmetry_cell_setting 'monoclinic'
loop_
_space_group_symop_operation_xyz
x,y,z
-x,y,-z
-x,-y,-z
x,-y,z
1/2+x,1/2+y,z
1/2-x,1/2+y,-z
1/2-x,1/2-y,-z
1/2+x,1/2-y,z
loop_
_atom_site_type_symbol
_atom_site_label
_atom_site_fract_x
_atom_site_fract_y
_atom_site_fract_z
Si Si1 0.065306 0.832646 0.923017
Si Si2 0.292062 0.324813 0.382068
Si Si3 0.584294 0.181259 0.243993
Si Si4 0.128594 0.678877 0.001139
Si Si5 0.738203 0.178030 0.761526
Si Si6 0.599599 0.826097 0.713013
Si Si7 0.139314 0.318574 0.356177
Si Si8 0.458241 0.177522 0.394294
O O1 0.086679 0.772963 0.990526
O O2 0.074508 0.700393 0.840246
O O3 0.094759 0.000000 0.867062
O O4 0.000000 0.865173 0.000000
O O5 0.276992 0.500000 0.387292
O O6 0.250000 0.250000 0.500000
O O7 0.292626 0.243047 0.286859
O O8 0.351190 0.298028 0.358291
O O9 0.621654 0.236387 0.280429
O O10 0.520526 0.249920 0.333908
O O11 0.579324 0.000000 0.248404
O O12 0.615742 0.237074 0.116285
O O13 0.114691 0.500000 0.007872
O O14 0.194747 0.710127 0.895945
O O15 0.798647 0.255274 0.700762
O O16 0.748814 0.000000 0.735024
O O17 0.554099 0.793301 0.693317
O O18 0.622285 0.000000 0.677800
O O19 0.143037 0.500000 0.359693
O O20 0.092000 0.252462 0.482833
O O21 0.460856 0.000000 0.414808
#
# Coordination Sequence:
#
# PCOD8102234 Si02
#       8
#     8   8   8   8   8   8   8   8
#     4  11  23  37  55  83 118 155 197 247 303 361
#     4  12  24  39  60  86 120 158 199 244 296 355
#     4   9  18  35  60  89 116 150 200 255 307 359
#     4  10  21  38  60  84 115 157 204 251 300 362
#     4  11  23  39  58  84 120 160 205 251 297 357
#     4  11  21  35  57  86 118 156 200 240 293 358
#     4  10  20  36  61  89 117 154 199 252 311 364
#     4   9  18  33  57  89 120 149 193 250 303 361
#
# _framework density 20.414905999999998
#
# number of rings (size 3 to 8) (size 9 to 14) (size 15 to 20)
#    0.000    1.625    1.250    4.125    0.000    5.500 
#    0.000    1.250    0.000    3.750    0.000    0.000 
#    0.000    0.000    0.000    0.000    0.000    0.000 
#
# Total GULP energy -396653.436101 kJ/mol
# GULP energy per Si atom -12395.419878 kJ/mol
# Density = 2.036844 g / cm^3
# Si number density = 20.414906 Si / 1000 Ang^3
#
#
#
# Elastic Constant Matrix: (Units=GPa)
#
#
# Indices 1 2 3 4 5 6 
#
# 1 86.1017 31.5459 21.6669 0.0000 -2.1522 0.0000
# 2 31.5459 55.6839 30.8771 0.0000 2.5828 0.0003
# 3 21.6669 30.8771 108.9128 0.0000 0.9313 0.0000
# 4 0.0000 0.0000 0.0000 19.6782 0.0000 -4.1374
# 5 -2.1522 2.5828 0.9313 0.0000 39.7084 0.0000
# 6 0.0000 0.0003 0.0000 -4.1374 0.0000 23.3364
#
#
#
# Elastic Compliance Matrix: (Units=1/GPa)
#
#
# Indices 1 2 3 4 5 6 
#
# 1 0.014768 -0.008060 -0.000664 0.000000 0.001340 0.000000
# 2 -0.008060 0.025769 -0.005685 0.000000 -0.001980 0.000000
# 3 -0.000664 -0.005685 0.010925 0.000000 0.000078 0.000000
# 4 0.000000 0.000000 0.000000 0.052785 0.000000 0.009358
# 5 0.001340 -0.001980 0.000078 0.000000 0.025383 0.000000
# 6 0.000000 0.000000 0.000000 0.009358 0.000000 0.044511
#
#
# Mechanical properties :
#
#
# Convention : Reuss Voigt Hill
#
# Bulk Modulus (GPa) = 44.16443 46.54201 45.35322
# Shear Modulus (GPa) = 23.75210 27.65183 25.70197
#
# Velocity S-wave (km/s) = 3.41467 3.68434 3.55206
# Velocity P-wave (km/s) = 6.10139 6.39896 6.25194
#
# Compressibility (1/GPa) = 0.02264266
#
# Stress axis : x y z
#
# Youngs Moduli (GPa) = 67.71448 38.80636 91.53390
#
# Poissons Ratio (x) = 0.31278 0.06081
# Poissons Ratio (y) = 0.54578 0.52039
# Poissons Ratio (z) = 0.04498 0.22062
#
# Static dielectric constant tensor:
#      x y z
#    x 3.701130 0.000000 0.029780 
#    y 0.000000 3.471180 0.000000 
#    z 0.029780 0.000000 3.889030 
# 
# 
# High freq. dielectric constant tensor:
#      x y z
#    x 1.802520 0.000000 -0.004960 
#    y 0.000000 1.770920 0.000000 
#    z -0.004960 0.000000 1.811190 
# 
# From -- ./inp_files/249679.got.cif
#   From: 2010.06.25/outbox.cif.g09.slc.cpg/sg12_125_cif.got.tgz:249679.got - 2010.06.28 00:19:55.
