data_PCOD8102788
_publ_section_title
;
Structure prediction by ZEFSAII (Michael W. Deem and Ramdas Pophale) SiO2 
 PCOD8102788
Probable space group: C 2/M
;
_chemical_formula_sum "Si O2"
_cell_formula_units_Z 48
_cell_length_a 16.809443
_cell_length_b 16.594962
_cell_length_c 9.631445
_cell_angle_alpha 90.000000
_cell_angle_beta 72.756903
_cell_angle_gamma 90.000000
_cell_volume 2565.959037
_symmetry_space_group_name_H-M "C 2/M"
_symmetry_group_IT_number 12
_symmetry_cell_setting 'monoclinic'
loop_
_space_group_symop_operation_xyz
x,y,z
-x,y,-z
-x,-y,-z
x,-y,z
1/2+x,1/2+y,z
1/2-x,1/2+y,-z
1/2-x,1/2-y,-z
1/2+x,1/2-y,z
loop_
_atom_site_type_symbol
_atom_site_label
_atom_site_fract_x
_atom_site_fract_y
_atom_site_fract_z
Si Si1 0.252611 0.681842 0.212365
Si Si2 0.000000 0.693076 0.000000
Si Si3 0.162179 0.593832 0.496626
Si Si4 0.000000 0.309960 0.500000
Si Si5 0.308187 0.591768 0.922035
Si Si6 0.910728 0.766434 0.792584
Si Si7 0.167573 0.647394 0.800510
O O1 0.232489 0.634990 0.364712
O O2 0.169011 0.708151 0.175770
O O3 0.309566 0.758212 0.219940
O O4 0.301652 0.623583 0.082866
O O5 0.930138 0.637316 0.110007
O O6 0.043884 0.750896 0.087035
O O7 0.157701 0.500000 0.462101
O O8 0.073104 0.632932 0.514003
O O9 0.186838 0.606360 0.643423
O O10 0.973367 0.249623 0.635100
O O11 0.336914 0.500000 0.910822
O O12 0.379596 0.641371 0.803614
O O13 0.220476 0.600650 0.888564
#
# Coordination Sequence:
#
# PCOD8102788 Si02
#       7
#     8   4   8   4   8   8   8
#     4  10  20  38  58  81 109 156 193 218 270 347
#     4  12  18  36  62  84 108 138 198 234 264 332
#     4  11  22  35  54  85 116 144 181 236 288 325
#     4  10  21  36  57  80 116 150 186 222 281 344
#     4  11  21  38  59  84 115 147 187 238 279 322
#     4  10  20  37  59  83 108 153 194 222 273 341
#     4  11  21  37  59  84 110 149 189 233 274 337
#
# _framework density 18.706455999999999
#
# number of rings (size 3 to 8) (size 9 to 14) (size 15 to 20)
#    0.000    1.333    5.000    2.750    0.000    0.000 
#    0.000    4.167    0.000    0.000    0.000    0.000 
#    0.000    0.000    0.000    0.000    0.000    0.000 
#
# Total GULP energy -297687.956108 kJ/mol
# GULP energy per Si atom -12403.664838 kJ/mol
# Density = 1.866388 g / cm^3
# Si number density = 18.706456 Si / 1000 Ang^3
#
#
#
# Elastic Constant Matrix: (Units=GPa)
#
#
# Indices 1 2 3 4 5 6 
#
# 1 44.7062 9.6327 20.2512 0.0000 -4.5228 0.0000
# 2 9.6327 117.3441 41.8423 0.0000 -15.9461 0.0000
# 3 20.2512 41.8423 107.6622 0.0000 -9.1489 0.0000
# 4 0.0000 0.0000 0.0000 25.8630 0.0000 2.0365
# 5 -4.5228 -15.9461 -9.1489 0.0000 26.3033 0.0000
# 6 0.0000 0.0000 0.0000 2.0365 0.0000 15.0836
#
#
#
# Elastic Compliance Matrix: (Units=1/GPa)
#
#
# Indices 1 2 3 4 5 6 
#
# 1 0.024638 -0.000104 -0.004368 0.000000 0.002654 0.000000
# 2 -0.000104 0.010519 -0.003636 0.000000 0.005095 0.000000
# 3 -0.004368 -0.003636 0.011615 0.000000 0.001085 0.000000
# 4 0.000000 0.000000 0.000000 0.039081 0.000000 -0.005277
# 5 0.002654 0.005095 0.001085 0.000000 0.041940 0.000000
# 6 0.000000 0.000000 0.000000 -0.005277 0.000000 0.067009
#
#
# Mechanical properties :
#
#
# Convention : Reuss Voigt Hill
#
# Bulk Modulus (GPa) = 32.72696 45.90723 39.31710
# Shear Modulus (GPa) = 22.60349 26.64906 24.62627
#
# Velocity S-wave (km/s) = 3.47987 3.77847 3.63224
# Velocity P-wave (km/s) = 5.80336 6.60529 6.21727
#
# Compressibility (1/GPa) = 0.03055585
#
# Stress axis : x y z
#
# Youngs Moduli (GPa) = 40.58764 95.06392 86.09416
#
# Poissons Ratio (x) = 0.00991 0.37609
# Poissons Ratio (y) = 0.00423 0.31301
# Poissons Ratio (z) = 0.17730 0.34562
#
# Static dielectric constant tensor:
#      x y z
#    x 3.424990 0.000000 -0.099810 
#    y 0.000000 3.288610 0.000000 
#    z -0.099810 0.000000 3.661210 
# 
# 
# High freq. dielectric constant tensor:
#      x y z
#    x 1.718670 0.000000 0.000840 
#    y 0.000000 1.709500 0.000000 
#    z 0.000840 0.000000 1.743210 
# 
# From -- ./inp_files/74512.got.cif
#   From: 2010.06.25/outbox.cif.g09.slc.cpg/sg12_38_cif.got.tgz:74512.got - 2010.06.28 00:19:55.
