data_PCOD8102871
_publ_section_title
;
Structure prediction by ZEFSAII (Michael W. Deem and Ramdas Pophale) SiO2 
 PCOD8102871
Probable space group: C 2/M
;
_chemical_formula_sum "Si O2"
_cell_formula_units_Z 56
_cell_length_a 26.911937
_cell_length_b 13.221761
_cell_length_c 10.932279
_cell_angle_alpha 90.000000
_cell_angle_beta 133.444149
_cell_angle_gamma 90.000000
_cell_volume 2824.285000
_symmetry_space_group_name_H-M "C 2/M"
_symmetry_group_IT_number 12
_symmetry_cell_setting 'monoclinic'
loop_
_space_group_symop_operation_xyz
x,y,z
-x,y,-z
-x,-y,-z
x,-y,z
1/2+x,1/2+y,z
1/2-x,1/2+y,-z
1/2-x,1/2-y,-z
1/2+x,1/2-y,z
loop_
_atom_site_type_symbol
_atom_site_label
_atom_site_fract_x
_atom_site_fract_y
_atom_site_fract_z
Si Si1 0.184804 0.618674 0.994706
Si Si2 0.826641 0.222915 0.592708
Si Si3 0.055965 0.280839 0.840061
Si Si4 0.828362 0.116125 0.349774
Si Si5 0.398684 0.788725 0.341614
Si Si6 0.571965 0.384074 0.053591
Si Si7 0.420070 0.116782 0.627189
O O1 0.179429 0.500000 0.967748
O O2 0.124901 0.655601 0.986499
O O3 0.172032 0.672631 0.842029
O O4 0.256921 0.651423 0.171075
O O5 0.750000 0.250000 0.500000
O O6 0.826280 0.135003 0.490686
O O7 0.869679 0.178942 0.778052
O O8 0.859374 0.324916 0.593082
O O9 0.044928 0.275726 0.672340
O O10 0.992409 0.337846 0.795186
O O11 0.062389 0.167823 0.904868
O O12 0.888287 0.180719 0.388791
O O13 0.844785 0.000000 0.351740
O O14 0.417496 0.871311 0.475731
O O15 0.595486 0.500000 0.074397
O O16 0.500000 0.379281 0.000000
O O17 0.414658 0.000000 0.653898
#
# Coordination Sequence:
#
# PCOD8102871 Si02
#       7
#     8   8   8   8   8   8   8
#     4   9  18  33  57  85 120 160 195 241 311 370
#     4  11  24  43  65  90 125 161 211 270 313 380
#     4  10  21  37  60  90 124 156 205 256 306 370
#     4  10  20  37  59  86 121 161 201 255 313 367
#     4   9  21  34  59  87 126 157 201 250 307 378
#     4  11  23  43  66  87 121 172 218 258 312 371
#     4  11  22  39  63  93 124 160 202 255 320 382
#
# _framework density 19.828028
#
# number of rings (size 3 to 8) (size 9 to 14) (size 15 to 20)
#    0.857    1.000    1.429    3.000    0.000    2.286 
#    0.000    2.143    0.000    2.571    0.000    0.000 
#    0.000    0.000    0.000    0.000    0.000    0.000 
#
# Total GULP energy -347090.501936 kJ/mol
# GULP energy per Si atom -12396.089355 kJ/mol
# Density = 1.978290 g / cm^3
# Si number density = 19.828028 Si / 1000 Ang^3
#
#
#
# Elastic Constant Matrix: (Units=GPa)
#
#
# Indices 1 2 3 4 5 6 
#
# 1 92.3797 45.2192 8.2545 0.0000 6.2259 0.0000
# 2 45.2192 119.9380 37.4178 0.0000 -1.9006 0.0000
# 3 8.2545 37.4178 51.1152 0.0000 -4.0214 0.0000
# 4 0.0000 0.0000 0.0000 31.7474 0.0000 1.1030
# 5 6.2259 -1.9006 -4.0214 0.0000 31.0676 0.0000
# 6 0.0000 0.0000 0.0000 1.1030 0.0000 21.2541
#
#
#
# Elastic Compliance Matrix: (Units=1/GPa)
#
#
# Indices 1 2 3 4 5 6 
#
# 1 0.013677 -0.005757 0.001781 0.000000 -0.002863 0.000000
# 2 -0.005757 0.013233 -0.008691 0.000000 0.000838 0.000000
# 3 0.001781 -0.008691 0.025832 0.000000 0.002455 0.000000
# 4 0.000000 0.000000 0.000000 0.031556 0.000000 -0.001638
# 5 -0.002863 0.000838 0.002455 0.000000 0.033131 0.000000
# 6 0.000000 0.000000 0.000000 -0.001638 0.000000 0.047135
#
#
# Mechanical properties :
#
#
# Convention : Reuss Voigt Hill
#
# Bulk Modulus (GPa) = 36.48895 49.46842 42.97869
# Shear Modulus (GPa) = 25.12142 28.31660 26.71901
#
# Velocity S-wave (km/s) = 3.56331 3.78313 3.67486
# Velocity P-wave (km/s) = 5.94745 6.63971 6.30309
#
# Compressibility (1/GPa) = 0.02740556
#
# Stress axis : x y z
#
# Youngs Moduli (GPa) = 73.11604 75.56844 38.71240
#
# Poissons Ratio (x) = 0.43508 -0.06893
# Poissons Ratio (y) = 0.42096 0.33646
# Poissons Ratio (z) = -0.13020 0.65679
#
# Static dielectric constant tensor:
#      x y z
#    x 3.449610 0.000000 0.043920 
#    y 0.000000 3.468070 0.000000 
#    z 0.043920 0.000000 3.679870 
# 
# 
# High freq. dielectric constant tensor:
#      x y z
#    x 1.761260 0.000000 0.005380 
#    y 0.000000 1.771150 0.000000 
#    z 0.005380 0.000000 1.781330 
# 
# From -- ./inp_files/182608.got.cif
#   From: 2010.06.25/outbox.cif.g09.slc.cpg/sg12_92_cif.got.tgz:182608.got - 2010.06.28 00:19:55.
