data_PCOD8102868
_publ_section_title
;
Structure prediction by ZEFSAII (Michael W. Deem and Ramdas Pophale) SiO2 
 PCOD8102868
Probable space group: C 2/M
;
_chemical_formula_sum "Si O2"
_cell_formula_units_Z 56
_cell_length_a 30.392155
_cell_length_b 12.070833
_cell_length_c 7.419478
_cell_angle_alpha 90.000000
_cell_angle_beta 74.826578
_cell_angle_gamma 90.000000
_cell_volume 2627.008691
_symmetry_space_group_name_H-M "C 2/M"
_symmetry_group_IT_number 12
_symmetry_cell_setting 'monoclinic'
loop_
_space_group_symop_operation_xyz
x,y,z
-x,y,-z
-x,-y,-z
x,-y,z
1/2+x,1/2+y,z
1/2-x,1/2+y,-z
1/2-x,1/2-y,-z
1/2+x,1/2-y,z
loop_
_atom_site_type_symbol
_atom_site_label
_atom_site_fract_x
_atom_site_fract_y
_atom_site_fract_z
Si Si1 0.453122 0.000000 0.276039
Si Si2 0.339627 0.373122 0.439833
Si Si3 0.311604 0.299306 0.082015
Si Si4 0.262532 0.624853 0.794455
Si Si5 0.009831 0.124750 0.280713
Si Si6 0.944328 0.500000 0.855764
Si Si7 0.406301 0.771560 0.903516
Si Si8 0.576065 0.765597 0.704107
O O1 0.505415 0.000000 0.282303
O O2 0.430756 0.886993 0.379975
O O3 0.448737 0.000000 0.065823
O O4 0.351367 0.500000 0.473913
O O5 0.325998 0.367465 0.243729
O O6 0.299264 0.328917 0.611095
O O7 0.384928 0.302569 0.442860
O O8 0.283899 0.192419 0.178433
O O9 0.280448 0.371403 0.981316
O O10 0.354861 0.263888 0.912525
O O11 0.249930 0.500000 0.757632
O O12 0.059330 0.177421 0.200263
O O13 0.000000 0.121594 0.500000
O O14 0.971276 0.198548 0.226595
O O15 0.009381 0.000000 0.200588
O O16 0.918547 0.391433 0.807432
O O17 0.406329 0.785007 0.116404
#
# Coordination Sequence:
#
# PCOD8102868 Si02
#       8
#     4   8   8   8   8   4   8   8
#     4   9  16  32  58  80 116 148 188 232 292 332
#     4  10  21  38  63  90 121 159 199 243 296 356
#     4  10  22  39  62  89 120 151 202 247 295 365
#     4  10  22  40  64  88 120 157 192 249 308 356
#     4  11  24  37  53  81 119 156 193 238 286 343
#     4   9  16  32  56  82 110 146 186 238 284 343
#     4  10  21  36  60  85 110 151 194 238 289 349
#     4  10  20  37  59  86 116 152 196 237 286 347
#
# _framework density 21.317022000000001
#
# number of rings (size 3 to 8) (size 9 to 14) (size 15 to 20)
#    0.000    2.000    1.429    1.714    3.000    4.000 
#    1.286    1.429    7.857    0.000    0.000    0.000 
#    0.000    0.000    0.000    0.000    0.000    0.000 
#
# Total GULP energy -347181.358740 kJ/mol
# GULP energy per Si atom -12399.334241 kJ/mol
# Density = 2.126850 g / cm^3
# Si number density = 21.317022 Si / 1000 Ang^3
#
#
#
# Elastic Constant Matrix: (Units=GPa)
#
#
# Indices 1 2 3 4 5 6 
#
# 1 91.1355 44.8689 16.3043 0.0000 -38.9928 0.0000
# 2 44.8689 146.5162 13.6542 0.0000 -31.5068 0.0000
# 3 16.3043 13.6542 61.8335 0.0000 -24.4672 0.0000
# 4 0.0000 0.0000 0.0000 18.6580 0.0000 -27.3735
# 5 -38.9928 -31.5068 -24.4672 0.0000 38.9693 0.0000
# 6 0.0000 0.0000 0.0000 -27.3735 0.0000 8.2999
#
#
#
# Elastic Compliance Matrix: (Units=1/GPa)
#
#
# Indices 1 2 3 4 5 6 
#
# 1 0.020231 -0.002064 0.003288 0.000000 0.020639 0.000000
# 2 -0.002064 0.008528 0.000761 0.000000 0.005308 0.000000
# 3 0.003288 0.000761 0.022197 0.000000 0.017842 0.000000
# 4 0.000000 0.000000 0.000000 -0.013962 0.000000 -0.046048
# 5 0.020639 0.005308 0.017842 0.000000 0.061806 0.000000
# 6 0.000000 0.000000 0.000000 -0.046048 0.000000 -0.031387
#
#
# Mechanical properties :
#
#
# Convention : Reuss Voigt Hill
#
# Bulk Modulus (GPa) = 18.20592 49.90443 34.05517
# Shear Modulus (GPa) = 61.16119 28.16263 44.66191
#
# Velocity S-wave (km/s) = 5.36223 3.63868 4.58222
# Velocity P-wave (km/s) = 6.84815 6.41208 6.63370
#
# Compressibility (1/GPa) = 0.05492719
#
# Stress axis : x y z
#
# Youngs Moduli (GPa) = 49.42897 117.26680 45.05014
#
# Poissons Ratio (x) = 0.24200 -0.14812
# Poissons Ratio (y) = 0.10201 -0.03429
# Poissons Ratio (z) = -0.16252 -0.08927
#
# Static dielectric constant tensor:
#      x y z
#    x 3.979560 0.000000 -0.306810 
#    y 0.000000 4.121320 0.000000 
#    z -0.306810 0.000000 3.715570 
# 
# 
# High freq. dielectric constant tensor:
#      x y z
#    x 1.830400 0.000000 -0.007920 
#    y 0.000000 1.841440 0.000000 
#    z -0.007920 0.000000 1.828350 
# 
# From -- ./inp_files/109894.got.cif
#   From: 2010.06.25/outbox.cif.g09.slc.cpg/sg12_55_cif.got.tgz:109894.got - 2010.06.28 00:19:55.
