data_PCOD8102242
_publ_section_title
;
Structure prediction by ZEFSAII (Michael W. Deem and Ramdas Pophale) SiO2 
 PCOD8102242
Probable space group: C 2/M
;
_chemical_formula_sum "Si O2"
_cell_formula_units_Z 64
_cell_length_a 23.159707
_cell_length_b 13.298128
_cell_length_c 18.538242
_cell_angle_alpha 90.000000
_cell_angle_beta 146.956258
_cell_angle_gamma 90.000000
_cell_volume 3113.228593
_symmetry_space_group_name_H-M "C 2/M"
_symmetry_group_IT_number 12
_symmetry_cell_setting 'monoclinic'
loop_
_space_group_symop_operation_xyz
x,y,z
-x,y,-z
-x,-y,-z
x,-y,z
1/2+x,1/2+y,z
1/2-x,1/2+y,-z
1/2-x,1/2-y,-z
1/2+x,1/2-y,z
loop_
_atom_site_type_symbol
_atom_site_label
_atom_site_fract_x
_atom_site_fract_y
_atom_site_fract_z
Si Si1 0.675662 0.274684 0.855287
Si Si2 0.065515 0.793411 0.383962
Si Si3 0.791512 0.614910 0.232392
Si Si4 0.175059 0.615746 0.569442
Si Si5 0.395830 0.383645 0.427511
Si Si6 0.293368 0.115213 0.865513
Si Si7 0.933455 0.199876 0.001265
Si Si8 0.108481 0.881991 0.282256
O O1 0.559650 0.303276 0.761687
O O2 0.664149 0.184171 0.785295
O O3 0.729962 0.371020 0.874127
O O4 0.750000 0.250000 0.000000
O O5 0.094354 0.679699 0.436404
O O6 0.103051 0.867567 0.486414
O O7 0.130255 0.829687 0.382013
O O8 0.821097 0.500000 0.245390
O O9 0.839770 0.644219 0.361637
O O10 0.665236 0.624762 0.104383
O O11 0.146845 0.500000 0.525987
O O12 0.294524 0.639497 0.669780
O O13 0.500000 0.332710 0.500000
O O14 0.396210 0.500000 0.407437
O O15 0.285665 0.341872 0.279416
O O16 0.328454 0.000000 0.892243
O O17 0.397919 0.183857 0.972508
O O18 0.003765 0.170966 0.142981
O O19 0.000000 0.182621 0.000000
O O20 0.088792 0.000000 0.272101
#
# Coordination Sequence:
#
# PCOD8102242 Si02
#       8
#     8   8   8   8   8   8   8   8
#     4  11  24  39  58  90 123 162 204 249 311 373
#     4  12  22  38  65  89 124 161 204 253 315 366
#     4  10  21  39  62  91 123 162 207 255 308 367
#     4  10  23  41  63  91 126 164 207 256 309 368
#     4  10  20  36  61  90 116 155 206 252 302 364
#     4  10  22  40  59  86 124 159 202 255 307 367
#     4  11  21  37  64  89 119 160 207 252 304 357
#     4  11  24  41  62  93 125 162 210 259 308 364
#
# _framework density 20.557437
#
# number of rings (size 3 to 8) (size 9 to 14) (size 15 to 20)
#    0.000    1.375    2.500    4.125    0.000    2.250 
#    0.000    3.125    0.000    0.000    0.000    0.000 
#    0.000    0.000    0.000    0.000    0.000    0.000 
#
# Total GULP energy -396831.427681 kJ/mol
# GULP energy per Si atom -12400.982115 kJ/mol
# Density = 2.051065 g / cm^3
# Si number density = 20.557437 Si / 1000 Ang^3
#
#
#
# Elastic Constant Matrix: (Units=GPa)
#
#
# Indices 1 2 3 4 5 6 
#
# 1 77.6575 17.0671 17.3612 0.0000 -19.3064 0.0000
# 2 17.0671 74.1629 18.9711 0.0000 -13.6491 0.0000
# 3 17.3612 18.9711 97.6181 0.0000 -18.5349 0.0000
# 4 0.0000 0.0000 0.0000 31.7084 0.0000 -0.1964
# 5 -19.3064 -13.6491 -18.5349 0.0000 35.3776 0.0000
# 6 0.0000 0.0000 0.0000 -0.1964 0.0000 28.0376
#
#
#
# Elastic Compliance Matrix: (Units=1/GPa)
#
#
# Indices 1 2 3 4 5 6 
#
# 1 0.015287 -0.001963 -0.000996 0.000000 0.007063 0.000000
# 2 -0.001963 0.015109 -0.001870 0.000000 0.003778 0.000000
# 3 -0.000996 -0.001870 0.011709 0.000000 0.004870 0.000000
# 4 0.000000 0.000000 0.000000 0.031539 0.000000 0.000221
# 5 0.007063 0.003778 0.004870 0.000000 0.036130 0.000000
# 6 0.000000 0.000000 0.000000 0.000221 0.000000 0.035668
#
#
# Mechanical properties :
#
#
# Convention : Reuss Voigt Hill
#
# Bulk Modulus (GPa) = 30.81928 39.58193 35.20061
# Shear Modulus (GPa) = 30.13561 32.09398 31.11480
#
# Velocity S-wave (km/s) = 3.83289 3.95547 3.89466
# Velocity P-wave (km/s) = 5.88323 6.33696 6.11431
#
# Compressibility (1/GPa) = 0.03244722
#
# Stress axis : x y z
#
# Youngs Moduli (GPa) = 65.41399 66.18437 85.40337
#
# Poissons Ratio (x) = 0.12994 0.08507
# Poissons Ratio (y) = 0.12843 0.15969
# Poissons Ratio (z) = 0.06516 0.12375
#
# Static dielectric constant tensor:
#      x y z
#    x 3.686650 0.000000 -0.038680 
#    y 0.000000 3.733460 0.000000 
#    z -0.038680 0.000000 3.765160 
# 
# 
# High freq. dielectric constant tensor:
#      x y z
#    x 1.803170 0.000000 -0.005360 
#    y 0.000000 1.805590 0.000000 
#    z -0.005360 0.000000 1.804330 
# 
# From -- ./inp_files/290125.got.cif
#   From: 2010.06.25/outbox.cif.g09.slc.cpg/sg12_146_cif.got.tgz:290125.got - 2010.06.28 00:19:55.
