data_PCOD8102748
_publ_section_title
;
Structure prediction by ZEFSAII (Michael W. Deem and Ramdas Pophale) SiO2 
 PCOD8102748
Probable space group: C 2/M
;
_chemical_formula_sum "Si O2"
_cell_formula_units_Z 64
_cell_length_a 16.895624
_cell_length_b 23.931510
_cell_length_c 15.046582
_cell_angle_alpha 90.000000
_cell_angle_beta 30.913870
_cell_angle_gamma 90.000000
_cell_volume 3125.598183
_symmetry_space_group_name_H-M "C 2/M"
_symmetry_group_IT_number 12
_symmetry_cell_setting 'monoclinic'
loop_
_space_group_symop_operation_xyz
x,y,z
-x,y,-z
-x,-y,-z
x,-y,z
1/2+x,1/2+y,z
1/2-x,1/2+y,-z
1/2-x,1/2-y,-z
1/2+x,1/2-y,z
loop_
_atom_site_type_symbol
_atom_site_label
_atom_site_fract_x
_atom_site_fract_y
_atom_site_fract_z
Si Si1 0.834817 0.694411 0.394964
Si Si2 0.298564 0.564295 0.880539
Si Si3 0.606356 0.874344 0.213892
Si Si4 0.666047 0.939421 0.462569
Si Si5 0.317884 0.159282 0.678530
Si Si6 0.844716 0.089547 0.456075
Si Si7 0.154205 0.273455 0.805114
Si Si8 0.819320 0.114719 0.675482
O O1 0.750000 0.750000 0.500000
O O2 0.689166 0.653086 0.537554
O O3 0.904636 0.702479 0.231011
O O4 0.977212 0.673568 0.318039
O O5 0.257167 0.500000 0.941281
O O6 0.477399 0.575090 0.726136
O O7 0.263162 0.576195 0.811027
O O8 0.199367 0.605871 0.037778
O O9 0.513482 0.926383 0.345142
O O10 0.724440 0.851060 0.176027
O O11 0.742534 0.891902 0.325357
O O12 0.750430 0.947052 0.476515
O O13 0.675373 0.000000 0.405874
O O14 0.500000 0.161319 0.500000
O O15 0.256983 0.217768 0.699490
O O16 0.781233 0.082390 0.619231
O O17 0.243409 0.324654 0.765334
O O18 0.000000 0.254136 0.000000
O O19 0.000000 0.126232 0.500000
#
# Coordination Sequence:
#
# PCOD8102748 Si02
#       8
#     8   8   8   8   8   8   8   8
#     4  10  20  38  61  82 111 150 191 235 283 344
#     4  11  22  37  57  84 118 151 188 238 289 339
#     4  10  22  37  56  84 115 147 189 235 287 336
#     4  10  20  37  59  80 108 151 198 236 275 332
#     4  10  22  38  57  82 113 150 191 230 279 342
#     4   9  20  36  57  83 112 149 192 233 282 343
#     4  11  21  36  58  83 114 143 180 234 287 337
#     4   9  20  37  58  83 113 149 187 228 281 344
#
# _framework density 20.476082000000002
#
# number of rings (size 3 to 8) (size 9 to 14) (size 15 to 20)
#    0.000    2.000    0.000    4.125    0.000    9.500 
#    0.000    1.875    0.000    9.750    0.000    0.000 
#    0.000    0.000    0.000    0.000    0.000    0.000 
#
# Total GULP energy -396465.326755 kJ/mol
# GULP energy per Si atom -12389.541461 kJ/mol
# Density = 2.042948 g / cm^3
# Si number density = 20.476082 Si / 1000 Ang^3
#
#
#
# Elastic Constant Matrix: (Units=GPa)
#
#
# Indices 1 2 3 4 5 6 
#
# 1 105.5163 35.2130 14.6403 0.0011 15.8000 0.0045
# 2 35.2130 123.6192 27.8548 -0.0374 4.8721 0.0202
# 3 14.6403 27.8548 69.9601 0.0175 10.5252 -0.0043
# 4 0.0011 -0.0374 0.0175 25.2862 0.0000 8.6515
# 5 15.8000 4.8721 10.5252 0.0000 21.3340 -0.0028
# 6 0.0045 0.0202 -0.0043 8.6515 -0.0028 15.8855
#
#
#
# Elastic Compliance Matrix: (Units=1/GPa)
#
#
# Indices 1 2 3 4 5 6 
#
# 1 0.011674 -0.003000 -0.000055 -0.000006 -0.007934 0.000002
# 2 -0.003000 0.009660 -0.003479 0.000026 0.001732 -0.000026
# 3 -0.000055 -0.003479 0.016813 -0.000024 -0.007459 0.000021
# 4 -0.000006 0.000026 -0.000024 0.048604 0.000007 -0.026471
# 5 -0.007934 0.001732 -0.007459 0.000007 0.056034 0.000004
# 6 0.000002 -0.000026 0.000021 -0.026471 0.000004 0.077367
#
#
# Mechanical properties :
#
#
# Convention : Reuss Voigt Hill
#
# Bulk Modulus (GPa) = 39.87479 50.50130 45.18804
# Shear Modulus (GPa) = 20.69724 27.26031 23.97878
#
# Velocity S-wave (km/s) = 3.18276 3.65269 3.42579
# Velocity P-wave (km/s) = 5.74654 6.51971 6.14530
#
# Compressibility (1/GPa) = 0.02507850
#
# Stress axis : x y z
#
# Youngs Moduli (GPa) = 85.66004 103.52406 59.47897
#
# Poissons Ratio (x) = 0.31061 0.00326
# Poissons Ratio (y) = 0.25701 0.20691
# Poissons Ratio (z) = 0.00470 0.36013
#
# Static dielectric constant tensor:
#      x y z
#    x 4.225490 -0.000070 0.236910 
#    y -0.000070 3.693640 0.000000 
#    z 0.236910 0.000000 3.406180 
# 
# 
# High freq. dielectric constant tensor:
#      x y z
#    x 1.812070 -0.000010 0.016400 
#    y -0.000010 1.803840 0.000020 
#    z 0.016400 0.000020 1.778960 
# 
# From -- ./inp_files/228130.got.cif
#   From: 2010.06.25/outbox.cif.g09.slc.cpg/sg12_115_cif.got.tgz:228130.got - 2010.06.28 00:19:55.
