data_PCOD8102098
_publ_section_title
;
Structure prediction by ZEFSAII (Michael W. Deem and Ramdas Pophale) SiO2 
 PCOD8102098
Probable space group: C 2/M
;
_chemical_formula_sum "Si O2"
_cell_formula_units_Z 48
_cell_length_a 27.990680
_cell_length_b 8.680275
_cell_length_c 10.076169
_cell_angle_alpha 90.000000
_cell_angle_beta 91.167877
_cell_angle_gamma 90.000000
_cell_volume 2447.665972
_symmetry_space_group_name_H-M "C 2/M"
_symmetry_group_IT_number 12
_symmetry_cell_setting 'monoclinic'
loop_
_space_group_symop_operation_xyz
x,y,z
-x,y,-z
-x,-y,-z
x,-y,z
1/2+x,1/2+y,z
1/2-x,1/2+y,-z
1/2-x,1/2-y,-z
1/2+x,1/2-y,z
loop_
_atom_site_type_symbol
_atom_site_label
_atom_site_fract_x
_atom_site_fract_y
_atom_site_fract_z
Si Si1 0.271722 0.176252 0.372342
Si Si2 0.722790 0.181164 0.122676
Si Si3 0.023092 0.181345 0.135790
Si Si4 0.968045 0.675615 0.369756
Si Si5 0.372450 0.682207 0.778546
Si Si6 0.127643 0.675818 0.507186
O O1 0.250000 0.250000 0.500000
O O2 0.255050 0.279220 0.250144
O O3 0.328515 0.185240 0.389137
O O4 0.254238 0.000000 0.353012
O O5 0.669369 0.248149 0.132885
O O6 0.718293 0.000000 0.105896
O O7 0.750000 0.250000 0.000000
O O8 0.076458 0.247641 0.166349
O O9 0.988237 0.219835 0.254465
O O10 0.027075 0.000000 0.122610
O O11 0.000000 0.251741 0.000000
O O12 0.965581 0.500000 0.318859
O O13 0.916348 0.739847 0.409247
O O14 0.000000 0.691577 0.500000
O O15 0.370438 0.500000 0.790661
O O16 0.363896 0.726102 0.624788
O O17 0.117891 0.500000 0.460881
#
# Coordination Sequence:
#
# PCOD8102098 Si02
#       6
#     8   8   8   8   8   8
#     4  11  22  38  62  93 126 162 207 254 305 364
#     4  12  26  44  65  90 125 164 206 260 314 373
#     4  10  23  41  60  88 126 163 201 251 307 368
#     4  10  20  36  60  89 120 156 203 251 297 357
#     4  11  22  38  63  90 120 161 207 251 309 375
#     4  10  21  37  60  91 126 161 203 254 304 360
#
# _framework density 19.610519
#
# number of rings (size 3 to 8) (size 9 to 14) (size 15 to 20)
#    0.000    1.333    3.333    2.500    0.000    4.000 
#    0.000    3.333    0.000    0.000    0.000    0.000 
#    0.000    0.000    0.000    0.000    0.000    0.000 
#
# Total GULP energy -297652.550339 kJ/mol
# GULP energy per Si atom -12402.189597 kJ/mol
# Density = 1.956588 g / cm^3
# Si number density = 19.610519 Si / 1000 Ang^3
#
#
#
# Elastic Constant Matrix: (Units=GPa)
#
#
# Indices 1 2 3 4 5 6 
#
# 1 142.8625 33.3757 55.2933 0.0000 -21.7744 0.0000
# 2 33.3757 74.4517 26.6221 0.0000 -7.6286 0.0000
# 3 55.2933 26.6221 116.2944 0.0000 -14.7224 0.0000
# 4 0.0000 0.0000 0.0000 53.7379 0.0000 -3.4766
# 5 -21.7744 -7.6286 -14.7224 0.0000 36.5562 0.0000
# 6 0.0000 0.0000 0.0000 -3.4766 0.0000 30.4683
#
#
#
# Elastic Compliance Matrix: (Units=1/GPa)
#
#
# Indices 1 2 3 4 5 6 
#
# 1 0.009523 -0.002654 -0.003448 0.000000 0.003730 0.000000
# 2 -0.002654 0.015481 -0.002185 0.000000 0.000770 0.000000
# 3 -0.003448 -0.002185 0.010980 0.000000 0.001913 0.000000
# 4 0.000000 0.000000 0.000000 0.018747 0.000000 0.002139
# 5 0.003730 0.000770 0.001913 0.000000 0.030508 0.000000
# 6 0.000000 0.000000 0.000000 0.002139 0.000000 0.033065
#
#
# Mechanical properties :
#
#
# Convention : Reuss Voigt Hill
#
# Bulk Modulus (GPa) = 51.51594 62.68788 57.10191
# Shear Modulus (GPa) = 35.37370 38.70699 37.04034
#
# Velocity S-wave (km/s) = 4.25174 4.44755 4.35075
# Velocity P-wave (km/s) = 7.10138 7.64265 7.37698
#
# Compressibility (1/GPa) = 0.01941147
#
# Stress axis : x y z
#
# Youngs Moduli (GPa) = 105.01232 64.59399 91.07070
#
# Poissons Ratio (x) = 0.17142 0.31401
# Poissons Ratio (y) = 0.27868 0.19896
# Poissons Ratio (z) = 0.36208 0.14112
#
# Static dielectric constant tensor:
#      x y z
#    x 3.948380 0.000000 -0.006450 
#    y 0.000000 3.575130 0.000000 
#    z -0.006450 0.000000 3.417720 
# 
# 
# High freq. dielectric constant tensor:
#      x y z
#    x 1.786020 0.000000 -0.000770 
#    y 0.000000 1.761340 0.000000 
#    z -0.000770 0.000000 1.758880 
# 
# From -- ./inp_files/108692.got.cif
#   From: 2010.06.25/outbox.cif.g09.slc.cpg/sg12_55_cif.got.tgz:108692.got - 2010.06.28 00:19:55.
