data_PCOD8102227
_publ_section_title
;
Structure prediction by ZEFSAII (Michael W. Deem and Ramdas Pophale) SiO2 
 PCOD8102227
Probable space group: C 2/M
;
_chemical_formula_sum "Si O2"
_cell_formula_units_Z 56
_cell_length_a 31.185051
_cell_length_b 8.990837
_cell_length_c 23.434818
_cell_angle_alpha 90.000000
_cell_angle_beta 26.556864
_cell_angle_gamma 90.000000
_cell_volume 2937.643077
_symmetry_space_group_name_H-M "C 2/M"
_symmetry_group_IT_number 12
_symmetry_cell_setting 'monoclinic'
loop_
_space_group_symop_operation_xyz
x,y,z
-x,y,-z
-x,-y,-z
x,-y,z
1/2+x,1/2+y,z
1/2-x,1/2+y,-z
1/2-x,1/2-y,-z
1/2+x,1/2-y,z
loop_
_atom_site_type_symbol
_atom_site_label
_atom_site_fract_x
_atom_site_fract_y
_atom_site_fract_z
Si Si1 0.559021 0.328667 0.836661
Si Si2 0.770214 0.174462 0.284107
Si Si3 0.362499 0.824861 0.071980
Si Si4 0.606590 0.327758 0.198251
Si Si5 0.308820 0.172379 0.009101
Si Si6 0.149526 0.826859 0.608799
Si Si7 0.082699 0.675578 0.575030
O O1 0.535723 0.500000 0.877069
O O2 0.649482 0.274931 0.766091
O O3 0.581360 0.301496 0.743998
O O4 0.467143 0.234293 0.964452
O O5 0.783852 0.258656 0.208421
O O6 0.667054 0.221292 0.431560
O O7 0.775595 0.000000 0.266372
O O8 0.361715 0.000000 0.078720
O O9 0.334000 0.773631 0.042488
O O10 0.578598 0.500000 0.227303
O O11 0.629634 0.270857 0.107324
O O12 0.517691 0.235838 0.330546
O O13 0.695923 0.300641 0.133755
O O14 0.335426 0.000000 0.967408
O O15 0.250000 0.750000 0.500000
O O16 0.096411 0.752694 0.619427
O O17 0.167998 0.000000 0.575350
O O18 0.079808 0.500000 0.587761
#
# Coordination Sequence:
#
# PCOD8102227 Si02
#       7
#     8   8   8   8   8   8   8
#     4  10  21  38  56  78 110 150 187 224 276 331
#     4  10  22  40  56  74 109 154 190 226 274 332
#     4  11  23  37  56  83 109 142 187 235 280 324
#     4  10  20  36  61  89 112 143 183 226 281 340
#     4   9  20  39  59  83 117 146 177 228 285 337
#     4  11  21  35  56  83 114 148 185 227 275 329
#     4  11  22  38  57  82 115 151 187 229 281 332
#
# _framework density 19.062899999999999
#
# number of rings (size 3 to 8) (size 9 to 14) (size 15 to 20)
#    0.000    1.714    1.429    3.000    0.000    8.571 
#    0.000    0.714    0.000    4.286    0.000    0.000 
#    0.000    0.000    0.000    0.000    0.000    0.000 
#
# Total GULP energy -347351.598462 kJ/mol
# GULP energy per Si atom -12405.414231 kJ/mol
# Density = 1.901951 g / cm^3
# Si number density = 19.062900 Si / 1000 Ang^3
#
#
#
# Elastic Constant Matrix: (Units=GPa)
#
#
# Indices 1 2 3 4 5 6 
#
# 1 70.5467 35.0321 50.4990 -0.0034 -2.1072 0.0033
# 2 35.0321 74.3653 53.5041 -0.0021 0.3581 0.0054
# 3 50.4990 53.5041 129.9445 -0.0069 -7.1031 0.0050
# 4 -0.0034 -0.0021 -0.0069 37.6626 0.0029 -1.3438
# 5 -2.1072 0.3581 -7.1031 0.0029 28.0032 -0.0038
# 6 0.0033 0.0054 0.0050 -1.3438 -0.0038 30.9445
#
#
#
# Elastic Compliance Matrix: (Units=1/GPa)
#
#
# Indices 1 2 3 4 5 6 
#
# 1 0.021256 -0.005795 -0.005864 0.000000 0.000186 0.000000
# 2 -0.005795 0.020831 -0.006453 0.000000 -0.002339 -0.000002
# 3 -0.005864 -0.006453 0.012789 0.000001 0.002885 0.000000
# 4 0.000000 0.000000 0.000001 0.026593 -0.000002 0.001155
# 5 0.000186 -0.002339 0.002885 -0.000002 0.036486 0.000004
# 6 0.000000 -0.000002 0.000000 0.001155 0.000004 0.032366
#
#
# Mechanical properties :
#
#
# Convention : Reuss Voigt Hill
#
# Bulk Modulus (GPa) = 53.61373 61.43631 57.52502
# Shear Modulus (GPa) = 25.93863 28.37683 27.15773
#
# Velocity S-wave (km/s) = 3.69275 3.86241 3.77853
# Velocity P-wave (km/s) = 6.80937 7.22420 7.01985
#
# Compressibility (1/GPa) = 0.01865194
#
# Stress axis : x y z
#
# Youngs Moduli (GPa) = 47.04544 48.00535 78.19072
#
# Poissons Ratio (x) = 0.27819 0.45853
# Poissons Ratio (y) = 0.27263 0.50456
# Poissons Ratio (z) = 0.27589 0.30977
#
# Static dielectric constant tensor:
#      x y z
#    x 3.412150 -0.000010 0.002670 
#    y -0.000010 3.502630 0.000030 
#    z 0.002670 0.000030 3.530910 
# 
# 
# High freq. dielectric constant tensor:
#      x y z
#    x 1.734650 0.000000 -0.006390 
#    y 0.000000 1.745750 0.000000 
#    z -0.006390 0.000000 1.747550 
# 
# From -- ./inp_files/237336.got.cif
#   From: 2010.06.25/outbox.cif.g09.slc.cpg/sg12_119_cif.got.tgz:237336.got - 2010.06.28 00:19:55.
