data_PCOD8102311
_publ_section_title
;
Structure prediction by ZEFSAII (Michael W. Deem and Ramdas Pophale) SiO2 
 PCOD8102311
Probable space group: C 2/M
;
_chemical_formula_sum "Si O2"
_cell_formula_units_Z 52
_cell_length_a 9.675266
_cell_length_b 14.640664
_cell_length_c 31.707203
_cell_angle_alpha 90.000000
_cell_angle_beta 146.850077
_cell_angle_gamma 90.000000
_cell_volume 2456.039142
_symmetry_space_group_name_H-M "C 2/M"
_symmetry_group_IT_number 12
_symmetry_cell_setting 'monoclinic'
loop_
_space_group_symop_operation_xyz
x,y,z
-x,y,-z
-x,-y,-z
x,-y,z
1/2+x,1/2+y,z
1/2-x,1/2+y,-z
1/2-x,1/2-y,-z
1/2+x,1/2-y,z
loop_
_atom_site_type_symbol
_atom_site_label
_atom_site_fract_x
_atom_site_fract_y
_atom_site_fract_z
Si Si1 0.820654 0.104956 0.699046
Si Si2 0.635481 0.899127 0.183674
Si Si3 0.529428 0.720582 0.601496
Si Si4 0.032678 0.106535 0.167848
Si Si5 0.035606 0.398279 0.252043
Si Si6 0.000000 0.751987 0.500000
Si Si7 0.734032 0.239299 0.946828
O O1 0.595109 0.171578 0.625878
O O2 0.921834 0.128054 0.771632
O O3 0.067022 0.122671 0.732970
O O4 0.721801 0.000000 0.670800
O O5 0.491061 0.896325 0.190969
O O6 0.499328 0.828908 0.118550
O O7 0.615311 0.000000 0.157833
O O8 0.727354 0.662514 0.677055
O O9 0.549089 0.693035 0.556526
O O10 0.254133 0.695995 0.551439
O O11 0.285263 0.140820 0.209163
O O12 0.808544 0.166852 0.090536
O O13 0.973089 0.000000 0.144402
O O14 0.089428 0.500000 0.282686
O O15 0.750000 0.250000 0.000000
O O16 0.000000 0.196472 0.000000
#
# Coordination Sequence:
#
# PCOD8102311 Si02
#       7
#     8   8   8   8   8   4   8
#     4  10  20  36  62  84 102 138 184 229 273 306
#     4  10  21  37  56  82 108 135 182 234 270 310
#     4  11  20  39  56  79 116 143 178 219 260 321
#     4  10  21  37  56  82 108 135 182 234 270 310
#     4  10  20  36  62  84 102 138 184 229 273 306
#     4  10  24  36  54  82 116 154 172 204 270 326
#     4  12  24  36  54  79 110 151 182 209 272 337
#
# _framework density 21.1723
#
# number of rings (size 3 to 8) (size 9 to 14) (size 15 to 20)
#    0.000    1.538    0.000    5.538    0.000    1.231 
#    0.000    4.615    0.000    0.000    0.000    0.000 
#    0.000    0.000    0.000    0.000    0.000    0.000 
#
# Total GULP energy -322259.765441 kJ/mol
# GULP energy per Si atom -12394.606363 kJ/mol
# Density = 2.112411 g / cm^3
# Si number density = 21.172300 Si / 1000 Ang^3
#
#
#
# Elastic Constant Matrix: (Units=GPa)
#
#
# Indices 1 2 3 4 5 6 
#
# 1 111.3618 7.0544 15.8527 -0.0002 0.4987 0.0000
# 2 7.0544 86.4399 44.7704 -0.0001 1.5697 0.0001
# 3 15.8527 44.7704 85.3304 0.0002 -1.8460 0.0003
# 4 -0.0002 -0.0001 0.0002 -2.3174 -0.0002 -0.7146
# 5 0.4987 1.5697 -1.8460 -0.0002 38.2997 0.0001
# 6 0.0000 0.0001 0.0003 -0.7146 0.0001 18.8199
#
#
#
# Elastic Compliance Matrix: (Units=1/GPa)
#
#
# Indices 1 2 3 4 5 6 
#
# 1 0.009228 0.000194 -0.001821 -0.000001 -0.000216 0.000000
# 2 0.000194 0.015932 -0.008418 -0.000002 -0.001061 0.000000
# 3 -0.001821 -0.008418 0.016499 0.000002 0.001164 0.000000
# 4 -0.000001 -0.000002 0.000002 -0.426517 -0.000002 -0.016195
# 5 -0.000216 -0.001061 0.001164 -0.000002 0.026212 0.000000
# 6 0.000000 0.000000 0.000000 -0.016195 0.000000 0.052520
#
#
# Mechanical properties :
#
#
# Convention : Reuss Voigt Hill
#
# Bulk Modulus (GPa) = 46.36237 46.49856 46.43047
# Shear Modulus (GPa) = -17.93107 25.32407 3.69650
#
# Velocity S-wave (km/s) = -2.91333 3.46221 1.32276
# Velocity P-wave (km/s) = 3.26014 6.16378 4.93055
#
# Compressibility (1/GPa) = 0.02156921
#
# Stress axis : x y z
#
# Youngs Moduli (GPa) = 108.37044 62.76578 60.60849
#
# Poissons Ratio (x) = -0.01217 0.11035
# Poissons Ratio (y) = -0.02101 0.51021
# Poissons Ratio (z) = 0.19731 0.52837
#
# Static dielectric constant tensor:
#      x y z
#    x 4.003930 0.000000 -0.019970 
#    y 0.000000 3.965340 0.000000 
#    z -0.019970 0.000000 3.703830 
# 
# 
# High freq. dielectric constant tensor:
#      x y z
#    x 1.853060 0.000000 0.001040 
#    y 0.000000 1.812600 0.000000 
#    z 0.001040 0.000000 1.823090 
# 
# From -- ./inp_files/372626.got.cif
#   From: 2010.06.25/outbox.cif.g09.slc.cpg/sg12_187_cif.got.tgz:372626.got - 2010.06.28 00:19:55.
