data_PCOD8102952
_publ_section_title
;
Structure prediction by ZEFSAII (Michael W. Deem and Ramdas Pophale) SiO2 
 PCOD8102952
Probable space group: C 2/M
;
_chemical_formula_sum "Si O2"
_cell_formula_units_Z 56
_cell_length_a 18.114427
_cell_length_b 13.546626
_cell_length_c 26.829960
_cell_angle_alpha 90.000000
_cell_angle_beta 25.355529
_cell_angle_gamma 90.000000
_cell_volume 2819.400531
_symmetry_space_group_name_H-M "C 2/M"
_symmetry_group_IT_number 12
_symmetry_cell_setting 'monoclinic'
loop_
_space_group_symop_operation_xyz
x,y,z
-x,y,-z
-x,-y,-z
x,-y,z
1/2+x,1/2+y,z
1/2-x,1/2+y,-z
1/2-x,1/2-y,-z
1/2+x,1/2-y,z
loop_
_atom_site_type_symbol
_atom_site_label
_atom_site_fract_x
_atom_site_fract_y
_atom_site_fract_z
Si Si1 0.991950 0.692974 0.137578
Si Si2 0.637650 0.113015 0.328253
Si Si3 0.349471 0.748292 0.127728
Si Si4 0.736924 0.180929 0.460404
Si Si5 0.686924 0.265786 0.385026
Si Si6 0.854407 0.888693 0.920827
Si Si7 0.098733 0.109373 0.222725
O O1 0.936025 0.676179 0.114587
O O2 0.831860 0.665154 0.271226
O O3 0.037404 0.810374 0.113297
O O4 0.150786 0.624211 0.055570
O O5 0.756854 0.158465 0.212263
O O6 0.439431 0.119300 0.431464
O O7 0.664809 0.166919 0.364735
O O8 0.690146 0.000000 0.303955
O O9 0.207550 0.808885 0.184517
O O10 0.500000 0.706909 0.000000
O O11 0.750000 0.250000 0.500000
O O12 0.748409 0.245303 0.403196
O O13 0.901161 0.109009 0.361520
O O14 0.500000 0.320121 0.500000
O O15 0.894970 0.864643 0.839151
O O16 0.907832 0.000000 0.903302
O O17 0.174690 0.000000 0.186128
#
# Coordination Sequence:
#
# PCOD8102952 Si02
#       7
#     8   8   8   8   8   8   8
#     4  10  20  37  60  83 120 152 184 239 287 342
#     4  10  22  38  59  87 117 155 196 239 288 346
#     4  11  22  38  57  85 123 157 191 234 293 352
#     4  11  20  37  61  84 120 151 188 242 296 342
#     4   9  20  35  58  86 110 154 190 234 285 341
#     4  10  21  37  62  90 110 145 195 239 287 338
#     4  11  22  37  61  89 115 148 194 247 290 333
#
# _framework density 19.862378
#
# number of rings (size 3 to 8) (size 9 to 14) (size 15 to 20)
#    0.000    1.714    4.286    0.429    0.000    6.571 
#    0.000    0.000    0.000    1.286    0.000    0.000 
#    0.000    0.000    0.000    0.000    0.000    0.000 
#
# Total GULP energy -347150.755570 kJ/mol
# GULP energy per Si atom -12398.241270 kJ/mol
# Density = 1.981717 g / cm^3
# Si number density = 19.862378 Si / 1000 Ang^3
#
#
#
# Elastic Constant Matrix: (Units=GPa)
#
#
# Indices 1 2 3 4 5 6 
#
# 1 85.5027 25.5765 30.9890 0.0022 10.9268 -0.0011
# 2 25.5765 43.3728 9.8265 0.0011 4.1860 0.0036
# 3 30.9890 9.8265 153.7588 -0.0071 5.8942 0.0055
# 4 0.0022 0.0011 -0.0071 16.5900 0.0059 3.6163
# 5 10.9268 4.1860 5.8942 0.0059 34.9896 -0.0009
# 6 -0.0011 0.0036 0.0055 3.6163 -0.0009 16.8066
#
#
#
# Elastic Compliance Matrix: (Units=1/GPa)
#
#
# Indices 1 2 3 4 5 6 
#
# 1 0.015495 -0.008247 -0.002464 -0.000002 -0.003437 0.000004
# 2 -0.008247 0.028015 -0.000099 0.000001 -0.000759 -0.000007
# 3 -0.002464 -0.000099 0.007022 0.000004 -0.000402 -0.000003
# 4 -0.000002 0.000001 0.000004 0.063243 -0.000011 -0.013608
# 5 -0.003437 -0.000759 -0.000402 -0.000011 0.029812 0.000004
# 6 0.000004 -0.000007 -0.000003 -0.013608 0.000004 0.062428
#
#
# Mechanical properties :
#
#
# Convention : Reuss Voigt Hill
#
# Bulk Modulus (GPa) = 34.58875 46.15760 40.37317
# Shear Modulus (GPa) = 21.07276 28.09341 24.58308
#
# Velocity S-wave (km/s) = 3.26074 3.76493 3.52187
# Velocity P-wave (km/s) = 5.62393 6.49529 6.07525
#
# Compressibility (1/GPa) = 0.02891113
#
# Stress axis : x y z
#
# Youngs Moduli (GPa) = 64.53777 35.69519 142.40893
#
# Poissons Ratio (x) = 0.29438 0.35090
# Poissons Ratio (y) = 0.53225 0.01412
# Poissons Ratio (z) = 0.15902 0.00354
#
# Static dielectric constant tensor:
#      x y z
#    x 3.630760 0.000000 -0.036580 
#    y 0.000000 3.124480 0.000030 
#    z -0.036580 0.000030 4.146780 
# 
# 
# High freq. dielectric constant tensor:
#      x y z
#    x 1.780050 0.000000 -0.008290 
#    y 0.000000 1.727340 0.000000 
#    z -0.008290 0.000000 1.804540 
# 
# From -- ./inp_files/340319.got.cif
#   From: 2010.06.25/outbox.cif.g09.slc.cpg/sg12_171_cif.got.tgz:340319.got - 2010.06.28 00:19:55.
