data_PCOD8102931
_publ_section_title
;
Structure prediction by ZEFSAII (Michael W. Deem and Ramdas Pophale) SiO2 
 PCOD8102931
Probable space group: C 2/M
;
_chemical_formula_sum "Si O2"
_cell_formula_units_Z 64
_cell_length_a 14.739379
_cell_length_b 9.069211
_cell_length_c 30.435206
_cell_angle_alpha 90.000000
_cell_angle_beta 127.959318
_cell_angle_gamma 90.000000
_cell_volume 3207.730151
_symmetry_space_group_name_H-M "C 2/M"
_symmetry_group_IT_number 12
_symmetry_cell_setting 'monoclinic'
loop_
_space_group_symop_operation_xyz
x,y,z
-x,y,-z
-x,-y,-z
x,-y,z
1/2+x,1/2+y,z
1/2-x,1/2+y,-z
1/2-x,1/2-y,-z
1/2+x,1/2-y,z
loop_
_atom_site_type_symbol
_atom_site_label
_atom_site_fract_x
_atom_site_fract_y
_atom_site_fract_z
Si Si1 0.775435 0.327020 0.744162
Si Si2 0.886411 0.169737 0.940675
Si Si3 0.456824 0.173696 0.328447
Si Si4 0.183485 0.671312 0.343794
Si Si5 0.708777 0.672559 0.943789
Si Si6 0.575979 0.666415 0.439276
Si Si7 0.190761 0.334113 0.546197
Si Si8 0.444297 0.331326 0.857592
O O1 0.753630 0.500000 0.742771
O O2 0.661094 0.241044 0.725230
O O3 0.810098 0.284189 0.704984
O O4 0.879233 0.278519 0.805970
O O5 0.780175 0.269541 0.923670
O O6 0.899278 0.193740 0.893077
O O7 0.861579 0.000000 0.945446
O O8 0.000000 0.223592 0.000000
O O9 0.557045 0.214567 0.323819
O O10 0.481189 0.245753 0.383141
O O11 0.444288 0.000000 0.330854
O O12 0.207000 0.500000 0.358925
O O13 0.283120 0.758096 0.399439
O O14 0.726977 0.500000 0.955570
O O15 0.577314 0.711625 0.895015
O O16 0.750000 0.750000 0.000000
O O17 0.531740 0.500000 0.433548
O O18 0.695487 0.667254 0.449258
O O19 0.590797 0.745610 0.490800
O O20 0.147860 0.500000 0.541726
O O21 0.424080 0.500000 0.836790
#
# Coordination Sequence:
#
# PCOD8102931 Si02
#       8
#     8   8   8   8   8   8   8   8
#     4  11  24  41  60  84 115 150 197 245 288 342
#     4  10  20  39  63  89 123 160 194 234 289 346
#     4  10  20  37  60  83 111 150 195 240 294 351
#     4   9  20  38  58  80 111 152 192 236 292 351
#     4  11  22  38  62  93 125 158 196 237 286 344
#     4   9  16  28  49  79 114 149 186 233 292 351
#     4   9  16  27  49  81 112 145 188 237 289 347
#     4  10  23  42  61  84 120 159 194 237 292 346
#
# _framework density 19.951803000000002
#
# number of rings (size 3 to 8) (size 9 to 14) (size 15 to 20)
#    0.000    2.125    1.250    1.875    0.000    7.250 
#    0.000    4.375    0.000    3.750    0.000    0.000 
#    0.000    0.000    0.000    0.000    0.000    0.000 
#
# Total GULP energy -396948.824215 kJ/mol
# GULP energy per Si atom -12404.650757 kJ/mol
# Density = 1.990639 g / cm^3
# Si number density = 19.951803 Si / 1000 Ang^3
#
#
#
# Elastic Constant Matrix: (Units=GPa)
#
#
# Indices 1 2 3 4 5 6 
#
# 1 69.9323 28.3303 28.1437 0.0000 4.8361 0.0000
# 2 28.3303 92.3790 46.1611 0.0000 3.5712 0.0000
# 3 28.1437 46.1611 108.1716 0.0000 -1.4183 0.0000
# 4 0.0000 0.0000 0.0000 41.3675 0.0000 1.1349
# 5 4.8361 3.5712 -1.4183 0.0000 25.9690 0.0000
# 6 0.0000 0.0000 0.0000 1.1349 0.0000 27.6958
#
#
#
# Elastic Compliance Matrix: (Units=1/GPa)
#
#
# Indices 1 2 3 4 5 6 
#
# 1 0.017171 -0.003692 -0.002929 0.000000 -0.002850 0.000000
# 2 -0.003692 0.014681 -0.005326 0.000000 -0.001622 0.000000
# 3 -0.002929 -0.005326 0.012305 0.000000 0.001950 0.000000
# 4 0.000000 0.000000 0.000000 0.024201 0.000000 -0.000992
# 5 -0.002850 -0.001622 0.001950 0.000000 0.039368 0.000000
# 6 0.000000 0.000000 0.000000 -0.000992 0.000000 0.036147
#
#
# Mechanical properties :
#
#
# Convention : Reuss Voigt Hill
#
# Bulk Modulus (GPa) = 49.35076 52.86148 51.10612
# Shear Modulus (GPa) = 28.64973 30.19632 29.42303
#
# Velocity S-wave (km/s) = 3.79350 3.89455 3.84436
# Velocity P-wave (km/s) = 6.63146 6.83926 6.73616
#
# Compressibility (1/GPa) = 0.02026311
#
# Stress axis : x y z
#
# Youngs Moduli (GPa) = 58.23699 68.11456 81.26782
#
# Poissons Ratio (x) = 0.25148 0.23807
# Poissons Ratio (y) = 0.21501 0.43281
# Poissons Ratio (z) = 0.17060 0.36276
#
# Static dielectric constant tensor:
#      x y z
#    x 3.579080 0.000000 0.023340 
#    y 0.000000 3.704500 0.000000 
#    z 0.023340 0.000000 3.564660 
# 
# 
# High freq. dielectric constant tensor:
#      x y z
#    x 1.776910 0.000000 0.001800 
#    y 0.000000 1.783670 0.000000 
#    z 0.001800 0.000000 1.776110 
# 
# From -- ./inp_files/375479.got.cif
#   From: 2010.06.25/outbox.cif.g09.slc.cpg/sg12_188_cif.got.tgz:375479.got - 2010.06.28 00:19:55.
