data_PCOD8102982
_publ_section_title
;
Structure prediction by ZEFSAII (Michael W. Deem and Ramdas Pophale) SiO2 
 PCOD8102982
Probable space group: C 2/M
;
_chemical_formula_sum "Si O2"
_cell_formula_units_Z 56
_cell_length_a 9.382046
_cell_length_b 18.478796
_cell_length_c 17.096301
_cell_angle_alpha 90.000000
_cell_angle_beta 108.714304
_cell_angle_gamma 90.000000
_cell_volume 2807.262809
_symmetry_space_group_name_H-M "C 2/M"
_symmetry_group_IT_number 12
_symmetry_cell_setting 'monoclinic'
loop_
_space_group_symop_operation_xyz
x,y,z
-x,y,-z
-x,-y,-z
x,-y,z
1/2+x,1/2+y,z
1/2-x,1/2+y,-z
1/2-x,1/2-y,-z
1/2+x,1/2-y,z
loop_
_atom_site_type_symbol
_atom_site_label
_atom_site_fract_x
_atom_site_fract_y
_atom_site_fract_z
Si Si1 0.770734 0.083884 0.176555
Si Si2 0.903539 0.585087 0.557128
Si Si3 0.507586 0.915951 0.252885
Si Si4 0.667307 0.209905 0.055177
Si Si5 0.283589 0.797524 0.212570
Si Si6 0.642823 0.681671 0.474993
Si Si7 0.475882 0.326317 0.715857
O O1 0.652233 0.101681 0.224946
O O2 0.739869 0.133226 0.094396
O O3 0.936611 0.102397 0.238304
O O4 0.764058 0.000000 0.150300
O O5 0.896980 0.500000 0.551677
O O6 0.968984 0.609309 0.652860
O O7 0.733297 0.612773 0.522746
O O8 0.000000 0.615699 0.500000
O O9 0.366056 0.870140 0.195937
O O10 0.465714 0.000000 0.240285
O O11 0.672760 0.265967 0.127540
O O12 0.500000 0.192446 0.000000
O O13 0.750000 0.250000 0.000000
O O14 0.413520 0.741704 0.259057
O O15 0.178517 0.814774 0.266192
O O16 0.500000 0.700749 0.500000
O O17 0.750000 0.750000 0.500000
O O18 0.580114 0.660723 0.380304
#
# Coordination Sequence:
#
# PCOD8102982 Si02
#       7
#     8   8   8   8   8   8   8
#     4  10  22  40  61  87 117 152 193 236 288 349
#     4  10  21  37  56  81 116 157 199 244 292 337
#     4  10  20  37  60  84 116 156 198 240 282 339
#     4  11  22  39  62  88 114 144 182 230 289 350
#     4  11  21  38  59  83 113 148 192 232 286 351
#     4  12  23  35  54  82 116 153 199 250 295 334
#     4  11  22  36  58  82 114 156 196 243 287 342
#
# _framework density 19.948257000000002
#
# number of rings (size 3 to 8) (size 9 to 14) (size 15 to 20)
#    0.000    1.286    0.000    8.143    0.000    1.714 
#    0.000    0.714    0.000    1.714    0.000    0.000 
#    0.000    0.000    0.000    0.000    0.000    0.000 
#
# Total GULP energy -347205.708516 kJ/mol
# GULP energy per Si atom -12400.203876 kJ/mol
# Density = 1.990285 g / cm^3
# Si number density = 19.948257 Si / 1000 Ang^3
#
#
#
# Elastic Constant Matrix: (Units=GPa)
#
#
# Indices 1 2 3 4 5 6 
#
# 1 109.8737 46.5432 11.8133 0.0000 1.0356 0.0000
# 2 46.5432 89.7894 55.4423 0.0000 2.1529 0.0000
# 3 11.8133 55.4423 93.4970 0.0000 11.4713 0.0000
# 4 0.0000 0.0000 0.0000 25.2233 0.0000 2.5479
# 5 1.0356 2.1529 11.4713 0.0000 41.2927 0.0000
# 6 0.0000 0.0000 0.0000 2.5479 0.0000 31.1193
#
#
#
# Elastic Compliance Matrix: (Units=1/GPa)
#
#
# Indices 1 2 3 4 5 6 
#
# 1 0.012390 -0.008679 0.003690 0.000000 -0.000883 0.000000
# 2 -0.008679 0.023820 -0.013358 0.000000 0.002687 0.000000
# 3 0.003690 -0.013358 0.018714 0.000000 -0.004595 0.000000
# 4 0.000000 0.000000 0.000000 0.039977 0.000000 -0.003273
# 5 -0.000883 0.002687 -0.004595 0.000000 0.025376 0.000000
# 6 0.000000 0.000000 0.000000 -0.003273 0.000000 0.032402
#
#
# Mechanical properties :
#
#
# Convention : Reuss Voigt Hill
#
# Bulk Modulus (GPa) = 54.85898 57.86196 56.36047
# Shear Modulus (GPa) = 25.58206 31.48447 28.53326
#
# Velocity S-wave (km/s) = 3.58498 3.97710 3.78612
# Velocity P-wave (km/s) = 6.68554 7.08229 6.88677
#
# Compressibility (1/GPa) = 0.01822856
#
# Stress axis : x y z
#
# Youngs Moduli (GPa) = 80.71282 41.98189 53.43574
#
# Poissons Ratio (x) = 0.36438 -0.19716
# Poissons Ratio (y) = 0.70053 0.71378
# Poissons Ratio (z) = -0.29780 0.56078
#
# Static dielectric constant tensor:
#      x y z
#    x 4.121730 0.000000 -0.065460 
#    y 0.000000 3.697320 0.000000 
#    z -0.065460 0.000000 3.856370 
# 
# 
# High freq. dielectric constant tensor:
#      x y z
#    x 1.787000 0.000000 0.000010 
#    y 0.000000 1.780970 0.000000 
#    z 0.000010 0.000000 1.781420 
# 
# From -- ./inp_files/257202.got.cif
#   From: 2010.06.25/outbox.cif.g09.slc.cpg/sg12_129_cif.got.tgz:257202.got - 2010.06.28 00:19:55.
