data_PCOD8102439
_publ_section_title
;
Structure prediction by ZEFSAII (Michael W. Deem and Ramdas Pophale) SiO2 
 PCOD8102439
Probable space group: C 2/M
;
_chemical_formula_sum "Si O2"
_cell_formula_units_Z 44
_cell_length_a 5.099895
_cell_length_b 23.115563
_cell_length_c 21.538070
_cell_angle_alpha 90.000000
_cell_angle_beta 123.562372
_cell_angle_gamma 90.000000
_cell_volume 2115.757033
_symmetry_space_group_name_H-M "C 2/M"
_symmetry_group_IT_number 12
_symmetry_cell_setting 'monoclinic'
loop_
_space_group_symop_operation_xyz
x,y,z
-x,y,-z
-x,-y,-z
x,-y,z
1/2+x,1/2+y,z
1/2-x,1/2+y,-z
1/2-x,1/2-y,-z
1/2+x,1/2-y,z
loop_
_atom_site_type_symbol
_atom_site_label
_atom_site_fract_x
_atom_site_fract_y
_atom_site_fract_z
Si Si1 0.776485 0.213574 0.836686
Si Si2 0.125319 0.000000 0.948937
Si Si3 0.283648 0.614882 0.085395
Si Si4 0.645735 0.568365 0.776584
Si Si5 0.295468 0.712381 0.412914
Si Si6 0.999455 0.375574 0.710287
O O1 0.491999 0.232174 0.844306
O O2 0.642707 0.182568 0.758732
O O3 0.005056 0.169903 0.903143
O O4 0.001748 0.942496 0.898404
O O5 0.500000 0.000000 0.000000
O O6 0.000000 0.000000 0.000000
O O7 0.192692 0.606773 0.146414
O O8 0.000000 0.617125 0.000000
O O9 0.701906 0.500000 0.795287
O O10 0.275343 0.582464 0.722777
O O11 0.794339 0.587877 0.731441
O O12 0.500000 0.698263 0.500000
O O13 0.486446 0.750972 0.388926
O O14 0.208782 0.649300 0.373510
#
# Coordination Sequence:
#
# PCOD8102439 Si02
#       6
#     8   4   8   8   8   8
#     4  11  23  39  59  84 119 158 195 237 300 377
#     4  10  22  38  60  82 108 142 189 258 313 352
#     4  10  23  42  61  88 116 155 206 265 318 360
#     4  11  23  40  62  88 118 157 207 260 308 358
#     4  10  20  36  63  97 128 159 199 247 296 353
#     4  11  22  39  63  88 123 161 200 246 303 366
#
# _framework density 20.796339
#
# number of rings (size 3 to 8) (size 9 to 14) (size 15 to 20)
#    0.000    1.455    0.909    4.909    0.000    9.455 
#    0.000    0.000    0.000    3.273    0.000    0.000 
#    0.000    0.000    0.000    0.000    0.000    0.000 
#
# Total GULP energy -272751.450934 kJ/mol
# GULP energy per Si atom -12397.793224 kJ/mol
# Density = 2.074901 g / cm^3
# Si number density = 20.796339 Si / 1000 Ang^3
#
#
#
# Elastic Constant Matrix: (Units=GPa)
#
#
# Indices 1 2 3 4 5 6 
#
# 1 126.0896 23.4025 28.5490 0.0000 -12.6941 0.0000
# 2 23.4025 93.2775 26.2692 0.0000 3.5588 0.0000
# 3 28.5490 26.2692 82.1935 0.0000 5.5570 0.0000
# 4 0.0000 0.0000 0.0000 37.7939 0.0000 -4.9647
# 5 -12.6941 3.5588 5.5570 0.0000 17.2150 0.0000
# 6 0.0000 0.0000 0.0000 -4.9647 0.0000 29.4922
#
#
#
# Elastic Compliance Matrix: (Units=1/GPa)
#
#
# Indices 1 2 3 4 5 6 
#
# 1 0.009949 -0.001859 -0.003459 0.000000 0.008837 0.000000
# 2 -0.001859 0.012155 -0.003043 0.000000 -0.002901 0.000000
# 3 -0.003459 -0.003043 0.014793 0.000000 -0.006697 0.000000
# 4 0.000000 0.000000 0.000000 0.027058 0.000000 0.004555
# 5 0.008837 -0.002901 -0.006697 0.000000 0.067366 0.000000
# 6 0.000000 0.000000 0.000000 0.004555 0.000000 0.034674
#
#
# Mechanical properties :
#
#
# Convention : Reuss Voigt Hill
#
# Bulk Modulus (GPa) = 49.56621 50.88910 50.22765
# Shear Modulus (GPa) = 26.39341 31.78955 29.09148
#
# Velocity S-wave (km/s) = 3.56636 3.91399 3.74421
# Velocity P-wave (km/s) = 6.39096 6.70441 6.54956
#
# Compressibility (1/GPa) = 0.02017503
#
# Stress axis : x y z
#
# Youngs Moduli (GPa) = 100.51535 82.27237 67.59930
#
# Poissons Ratio (x) = 0.15295 0.23382
# Poissons Ratio (y) = 0.18687 0.20569
# Poissons Ratio (z) = 0.34767 0.25034
#
# Static dielectric constant tensor:
#      x y z
#    x 3.862070 0.000000 0.009560 
#    y 0.000000 4.168820 0.000000 
#    z 0.009560 0.000000 3.637140 
# 
# 
# High freq. dielectric constant tensor:
#      x y z
#    x 1.825860 0.000000 -0.004010 
#    y 0.000000 1.820130 0.000000 
#    z -0.004010 0.000000 1.792950 
# 
# From -- ./inp_files/253263.got.cif
#   From: 2010.06.25/outbox.cif.g09.slc.cpg/sg12_127_cif.got.tgz:253263.got - 2010.06.28 00:19:55.
