data_PCOD8102644
_publ_section_title
;
Structure prediction by ZEFSAII (Michael W. Deem and Ramdas Pophale) SiO2 
 PCOD8102644
Probable space group: C 2/M
;
_chemical_formula_sum "Si O2"
_cell_formula_units_Z 40
_cell_length_a 13.810102
_cell_length_b 16.823018
_cell_length_c 17.352962
_cell_angle_alpha 90.000000
_cell_angle_beta 25.542568
_cell_angle_gamma 90.000000
_cell_volume 1738.339450
_symmetry_space_group_name_H-M "C 2/M"
_symmetry_group_IT_number 12
_symmetry_cell_setting 'monoclinic'
loop_
_space_group_symop_operation_xyz
x,y,z
-x,y,-z
-x,-y,-z
x,-y,z
1/2+x,1/2+y,z
1/2-x,1/2+y,-z
1/2-x,1/2-y,-z
1/2+x,1/2-y,z
loop_
_atom_site_type_symbol
_atom_site_label
_atom_site_fract_x
_atom_site_fract_y
_atom_site_fract_z
Si Si1 0.771154 0.407158 0.984620
Si Si2 0.064328 0.661752 0.655954
Si Si3 0.008133 0.913869 0.404479
Si Si4 0.342132 0.310910 0.321757
Si Si5 0.897857 0.302993 0.148515
O O1 0.801009 0.500000 0.980376
O O2 0.846274 0.387437 0.841838
O O3 0.927907 0.355812 0.928240
O O4 0.511492 0.383334 0.182976
O O5 0.278872 0.625775 0.544395
O O6 0.111734 0.657573 0.529073
O O7 0.035757 0.753132 0.703735
O O8 0.216155 0.857951 0.236359
O O9 0.000000 0.927717 0.500000
O O10 0.038468 0.000000 0.341350
O O11 0.285476 0.263693 0.283867
O O12 0.000000 0.258840 0.000000
#
# Coordination Sequence:
#
# PCOD8102644 Si02
#       5
#     8   8   8   8   8
#     4  11  22  37  58  86 118 150 188 234 284 339
#     4  10  20  37  58  80 117 157 190 227 277 340
#     4  11  20  33  54  86 123 148 175 224 289 350
#     4  10  22  38  55  81 114 154 198 232 270 336
#     4  11  22  36  56  85 119 152 186 231 285 343
#
# _framework density 23.010466000000001
#
# number of rings (size 3 to 8) (size 9 to 14) (size 15 to 20)
#    0.000    1.400    4.000    4.800    0.000    6.400 
#    0.000    0.000    0.000    0.600    0.000    4.200 
#    0.000    0.000    0.000    0.000    0.000    0.000 
#
# Total GULP energy -247816.821139 kJ/mol
# GULP energy per Si atom -12390.841057 kJ/mol
# Density = 2.295809 g / cm^3
# Si number density = 23.010466 Si / 1000 Ang^3
#
#
#
# Elastic Constant Matrix: (Units=GPa)
#
#
# Indices 1 2 3 4 5 6 
#
# 1 46.5268 38.2065 37.0598 0.0577 27.6913 -0.0074
# 2 38.2065 82.6663 31.6829 0.0114 13.1139 -0.0349
# 3 37.0598 31.6829 142.2010 -0.0525 50.0946 -0.1432
# 4 0.0577 0.0114 -0.0525 22.9326 -0.0331 -6.2870
# 5 27.6913 13.1139 50.0946 -0.0331 44.6005 0.0500
# 6 -0.0074 -0.0349 -0.1432 -6.2870 0.0500 13.9271
#
#
#
# Elastic Compliance Matrix: (Units=1/GPa)
#
#
# Indices 1 2 3 4 5 6 
#
# 1 0.055986 -0.021432 0.000347 -0.000169 -0.028848 0.000007
# 2 -0.021432 0.021455 -0.002747 0.000052 0.010083 0.000001
# 3 0.000347 -0.002747 0.012155 0.000063 -0.013060 0.000193
# 4 -0.000169 0.000052 0.000063 0.049766 0.000031 0.022466
# 5 -0.028848 0.010083 -0.013060 0.000031 0.052037 -0.000297
# 6 0.000007 0.000001 0.000193 0.022466 -0.000297 0.081947
#
#
# Mechanical properties :
#
#
# Convention : Reuss Voigt Hill
#
# Bulk Modulus (GPa) = 23.84798 53.92139 38.88469
# Shear Modulus (GPa) = 14.92593 27.25502 21.09047
#
# Velocity S-wave (km/s) = 2.54964 3.44533 3.03076
# Velocity P-wave (km/s) = 4.36509 6.26988 5.40210
#
# Compressibility (1/GPa) = 0.04193227
#
# Stress axis : x y z
#
# Youngs Moduli (GPa) = 17.86168 46.60840 82.27090
#
# Poissons Ratio (x) = 0.99891 -0.02855
# Poissons Ratio (y) = 0.38281 0.22600
# Poissons Ratio (z) = -0.00620 0.12803
#
# Static dielectric constant tensor:
#      x y z
#    x 4.143140 -0.000030 0.673270 
#    y -0.000030 4.243280 0.000620 
#    z 0.673270 0.000620 4.811250 
# 
# 
# High freq. dielectric constant tensor:
#      x y z
#    x 1.865600 0.000000 0.031540 
#    y 0.000000 1.890330 0.000030 
#    z 0.031540 0.000030 1.929420 
# 
# From -- ./inp_files/317092.got.cif
#   From: 2010.06.25/outbox.cif.g09.slc.cpg/sg12_159_cif.got.tgz:317092.got - 2010.06.28 00:19:55.
