data_PCOD8102179
_publ_section_title
;
Structure prediction by ZEFSAII (Michael W. Deem and Ramdas Pophale) SiO2 
 PCOD8102179
Probable space group: C 2/M
;
_chemical_formula_sum "Si O2"
_cell_formula_units_Z 56
_cell_length_a 9.407401
_cell_length_b 25.666255
_cell_length_c 20.307129
_cell_angle_alpha 90.000000
_cell_angle_beta 36.179092
_cell_angle_gamma 90.000000
_cell_volume 2894.420871
_symmetry_space_group_name_H-M "C 2/M"
_symmetry_group_IT_number 12
_symmetry_cell_setting 'monoclinic'
loop_
_space_group_symop_operation_xyz
x,y,z
-x,y,-z
-x,-y,-z
x,-y,z
1/2+x,1/2+y,z
1/2-x,1/2+y,-z
1/2-x,1/2-y,-z
1/2+x,1/2-y,z
loop_
_atom_site_type_symbol
_atom_site_label
_atom_site_fract_x
_atom_site_fract_y
_atom_site_fract_z
Si Si1 0.580638 0.297658 0.044581
Si Si2 0.810081 0.438744 0.518109
Si Si3 0.004371 0.637286 0.921978
Si Si4 0.772966 0.231625 0.759526
Si Si5 0.776442 0.602027 0.394307
Si Si6 0.741946 0.438226 0.268944
Si Si7 0.241628 0.720156 0.619850
O O1 0.343487 0.288213 0.178267
O O2 0.500000 0.296365 0.000000
O O3 0.750000 0.250000 0.000000
O O4 0.727383 0.350655 0.003919
O O5 0.805552 0.500000 0.527326
O O6 0.905298 0.423881 0.409360
O O7 0.536179 0.417853 0.632033
O O8 0.000000 0.414890 0.500000
O O9 0.176433 0.686918 0.844354
O O10 0.103244 0.586936 0.847308
O O11 0.000000 0.623677 0.000000
O O12 0.710902 0.215032 0.709292
O O13 0.058707 0.237202 0.659866
O O14 0.500000 0.584976 0.500000
O O15 0.869943 0.579940 0.289478
O O16 0.811266 0.663551 0.389824
O O17 0.757401 0.500000 0.256471
O O18 0.500000 0.740845 0.500000
#
# Coordination Sequence:
#
# PCOD8102179 Si02
#       7
#     8   8   8   8   8   8   8
#     4  10  20  36  61  85 105 145 201 250 288 327
#     4   9  18  36  61  89 118 147 191 242 284 343
#     4  11  22  39  58  83 114 148 205 250 284 340
#     4  11  20  38  57  80 113 154 192 234 282 335
#     4   9  18  35  56  84 115 152 194 229 278 353
#     4  10  20  37  62  86 115 156 191 237 296 346
#     4  11  22  36  54  85 122 154 184 227 281 349
#
# _framework density 19.347566
#
# number of rings (size 3 to 8) (size 9 to 14) (size 15 to 20)
#    0.000    1.857    1.429    5.143    0.000    2.000 
#    5.143    0.000    0.000    0.429    0.000    0.000 
#    0.000    0.000    0.000    0.000    0.000    0.000 
#
# Total GULP energy -347123.512585 kJ/mol
# GULP energy per Si atom -12397.268307 kJ/mol
# Density = 1.930353 g / cm^3
# Si number density = 19.347566 Si / 1000 Ang^3
#
#
#
# Elastic Constant Matrix: (Units=GPa)
#
#
# Indices 1 2 3 4 5 6 
#
# 1 130.9408 24.7447 36.7547 -0.0033 19.4195 0.0001
# 2 24.7447 48.4242 21.1835 -0.0020 -4.2936 0.0011
# 3 36.7547 21.1835 77.6937 -0.0210 5.6671 -0.0238
# 4 -0.0033 -0.0020 -0.0210 19.0374 0.0003 -25.1392
# 5 19.4195 -4.2936 5.6671 0.0003 34.7504 0.0030
# 6 0.0001 0.0011 -0.0238 -25.1392 0.0030 -26.5551
#
#
#
# Elastic Compliance Matrix: (Units=1/GPa)
#
#
# Indices 1 2 3 4 5 6 
#
# 1 0.010206 -0.004305 -0.003238 0.000000 -0.005707 0.000002
# 2 -0.004305 0.025822 -0.005477 0.000002 0.006489 0.000005
# 3 -0.003238 -0.005477 0.016004 -0.000001 -0.001477 -0.000013
# 4 0.000000 0.000002 -0.000001 0.023345 0.000002 -0.022100
# 5 -0.005707 0.006489 -0.001477 0.000002 0.033009 0.000003
# 6 0.000002 0.000005 -0.000013 -0.022100 0.000003 -0.016736
#
#
# Mechanical properties :
#
#
# Convention : Reuss Voigt Hill
#
# Bulk Modulus (GPa) = 38.47399 46.93605 42.70502
# Shear Modulus (GPa) = 39.57145 17.07158 28.32152
#
# Velocity S-wave (km/s) = 4.52740 2.97368 3.83015
# Velocity P-wave (km/s) = 6.87449 6.00853 6.45605
#
# Compressibility (1/GPa) = 0.02599159
#
# Stress axis : x y z
#
# Youngs Moduli (GPa) = 97.98291 38.72667 62.48398
#
# Poissons Ratio (x) = 0.16670 0.20233
# Poissons Ratio (y) = 0.42178 0.34225
# Poissons Ratio (z) = 0.31728 0.21212
#
# Static dielectric constant tensor:
#      x y z
#    x 3.800040 0.000000 -0.091690 
#    y 0.000000 3.283540 -0.000020 
#    z -0.091690 -0.000020 3.904330 
# 
# 
# High freq. dielectric constant tensor:
#      x y z
#    x 1.757070 0.000000 0.012250 
#    y 0.000000 1.727150 0.000000 
#    z 0.012250 0.000000 1.749810 
# 
# From -- ./inp_files/259806.got.cif
#   From: 2010.06.25/outbox.cif.g09.slc.cpg/sg12_130_cif.got.tgz:259806.got - 2010.06.28 00:19:55.
