data_PCOD8102413
_publ_section_title
;
Structure prediction by ZEFSAII (Michael W. Deem and Ramdas Pophale) SiO2 
 PCOD8102413
Probable space group: C 2/M
;
_chemical_formula_sum "Si O2"
_cell_formula_units_Z 64
_cell_length_a 14.670054
_cell_length_b 22.890148
_cell_length_c 8.798130
_cell_angle_alpha 90.000000
_cell_angle_beta 88.139479
_cell_angle_gamma 90.000000
_cell_volume 2952.851984
_symmetry_space_group_name_H-M "C 2/M"
_symmetry_group_IT_number 12
_symmetry_cell_setting 'monoclinic'
loop_
_space_group_symop_operation_xyz
x,y,z
-x,y,-z
-x,-y,-z
x,-y,z
1/2+x,1/2+y,z
1/2-x,1/2+y,-z
1/2-x,1/2-y,-z
1/2+x,1/2-y,z
loop_
_atom_site_type_symbol
_atom_site_label
_atom_site_fract_x
_atom_site_fract_y
_atom_site_fract_z
Si Si1 0.288548 0.230229 0.651943
Si Si2 0.408880 0.132492 0.082600
Si Si3 0.906614 0.163683 0.597762
Si Si4 0.756224 0.390883 0.593557
Si Si5 0.416085 0.066305 0.396925
Si Si6 0.412198 0.376582 0.925657
Si Si7 0.247121 0.566220 0.076254
Si Si8 0.656996 0.739946 0.918890
O O1 0.250000 0.250000 0.500000
O O2 0.369168 0.276368 0.682929
O O3 0.322842 0.163541 0.637259
O O4 0.193871 0.227155 0.750131
O O5 0.404925 0.108947 0.254220
O O6 0.405817 0.202724 0.081419
O O7 0.500000 0.109879 0.000000
O O8 0.329794 0.109691 0.978066
O O9 0.832482 0.130971 0.495936
O O10 0.927701 0.124331 0.743348
O O11 0.000000 0.175873 0.500000
O O12 0.819948 0.433075 0.491307
O O13 0.725748 0.423007 0.749420
O O14 0.500000 0.086364 0.500000
O O15 0.433275 0.000000 0.339745
O O16 0.500000 0.404323 0.000000
O O17 0.332125 0.421745 0.963233
O O18 0.397092 0.313400 0.004879
O O19 0.214136 0.500000 0.056465
O O20 0.750000 0.750000 0.000000
#
# Coordination Sequence:
#
# PCOD8102413 Si02
#       8
#     8   8   8   8   8   8   8   8
#     4  10  20  36  63  90 128 172 212 266 327 399
#     4  12  25  43  69 103 139 178 230 280 346 413
#     4  11  24  41  64  99 135 178 222 272 342 407
#     4  11  22  43  65  94 134 174 224 280 339 404
#     4  11  25  45  68  97 137 183 232 286 339 402
#     4  12  25  44  70  97 138 178 228 285 339 412
#     4  12  25  44  72 100 133 180 230 286 342 405
#     4  12  21  43  68  98 135 177 224 275 347 407
#
# _framework density 21.673962
#
# number of rings (size 3 to 8) (size 9 to 14) (size 15 to 20)
#    0.000    0.625    3.750    4.875    1.750    2.750 
#    4.500    0.625    0.000    2.625    0.000    0.000 
#    0.000    0.000    0.000    0.000    0.000    0.000 
#
# Total GULP energy -396581.257568 kJ/mol
# GULP energy per Si atom -12393.164299 kJ/mol
# Density = 2.162463 g / cm^3
# Si number density = 21.673962 Si / 1000 Ang^3
#
#
#
# Elastic Constant Matrix: (Units=GPa)
#
#
# Indices 1 2 3 4 5 6 
#
# 1 109.6531 -1.3626 24.6466 0.0000 -5.1458 0.0000
# 2 -1.3626 67.7587 11.7793 0.0000 0.6482 0.0000
# 3 24.6466 11.7793 124.2527 0.0000 -6.9366 0.0000
# 4 0.0000 0.0000 0.0000 29.5547 0.0000 -11.1951
# 5 -5.1458 0.6482 -6.9366 0.0000 41.8536 0.0000
# 6 0.0000 0.0000 0.0000 -11.1951 0.0000 75.6359
#
#
#
# Elastic Compliance Matrix: (Units=1/GPa)
#
#
# Indices 1 2 3 4 5 6 
#
# 1 0.009594 0.000516 -0.001904 0.000000 0.000856 0.000000
# 2 0.000516 0.015043 -0.001552 0.000000 -0.000427 0.000000
# 3 -0.001904 -0.001552 0.008641 0.000000 0.001222 0.000000
# 4 0.000000 0.000000 0.000000 0.035845 0.000000 0.005306
# 5 0.000856 -0.000427 0.001222 0.000000 0.024207 0.000000
# 6 0.000000 0.000000 0.000000 0.005306 0.000000 0.014007
#
#
# Mechanical properties :
#
#
# Convention : Reuss Voigt Hill
#
# Bulk Modulus (GPa) = 36.50066 41.31012 38.90539
# Shear Modulus (GPa) = 40.86619 47.18224 44.02421
#
# Velocity S-wave (km/s) = 4.34694 4.67080 4.51178
# Velocity P-wave (km/s) = 6.48628 6.94188 6.71794
#
# Compressibility (1/GPa) = 0.02739677
#
# Stress axis : x y z
#
# Youngs Moduli (GPa) = 104.22899 66.47811 115.72459
#
# Poissons Ratio (x) = -0.03429 0.22036
# Poissons Ratio (y) = -0.05376 0.17963
# Poissons Ratio (z) = 0.19847 0.10319
#
# Static dielectric constant tensor:
#      x y z
#    x 3.657240 0.000000 0.166720 
#    y 0.000000 4.237970 0.000000 
#    z 0.166720 0.000000 4.123060 
# 
# 
# High freq. dielectric constant tensor:
#      x y z
#    x 1.847180 0.000000 -0.002810 
#    y 0.000000 1.841780 0.000000 
#    z -0.002810 0.000000 1.873890 
# 
# From -- ./inp_files/65893.got.cif
#   From: 2010.06.25/outbox.cif.g09.slc.cpg/sg12_33_cif.got.tgz:65893.got - 2010.06.28 00:19:55.
