data_PCOD8102250
_publ_section_title
;
Structure prediction by ZEFSAII (Michael W. Deem and Ramdas Pophale) SiO2 
 PCOD8102250
Probable space group: C 2/M
;
_chemical_formula_sum "Si O2"
_cell_formula_units_Z 56
_cell_length_a 27.105311
_cell_length_b 8.954334
_cell_length_c 12.517859
_cell_angle_alpha 90.000000
_cell_angle_beta 67.876136
_cell_angle_gamma 90.000000
_cell_volume 2814.511903
_symmetry_space_group_name_H-M "C 2/M"
_symmetry_group_IT_number 12
_symmetry_cell_setting 'monoclinic'
loop_
_space_group_symop_operation_xyz
x,y,z
-x,y,-z
-x,-y,-z
x,-y,z
1/2+x,1/2+y,z
1/2-x,1/2+y,-z
1/2-x,1/2-y,-z
1/2+x,1/2-y,z
loop_
_atom_site_type_symbol
_atom_site_label
_atom_site_fract_x
_atom_site_fract_y
_atom_site_fract_z
Si Si1 0.304566 0.675894 0.423798
Si Si2 0.159341 0.830959 0.837641
Si Si3 0.986829 0.324669 0.317295
Si Si4 0.107765 0.675898 0.262823
Si Si5 0.805471 0.675415 0.981614
Si Si6 0.395374 0.677056 0.513385
Si Si7 0.539032 0.669621 0.877123
O O1 0.298892 0.500000 0.438619
O O2 0.250000 0.750000 0.500000
O O3 0.316472 0.724950 0.293525
O O4 0.352331 0.731003 0.461066
O O5 0.096370 0.823108 0.882537
O O6 0.178023 0.000000 0.848508
O O7 0.178671 0.719383 0.912205
O O8 0.979424 0.500000 0.337672
O O9 0.953022 0.244921 0.437697
O O10 0.964653 0.276335 0.220981
O O11 0.048403 0.277283 0.276101
O O12 0.111834 0.500000 0.280669
O O13 0.148694 0.728535 0.137828
O O14 0.123877 0.762253 0.356929
O O15 0.798075 0.500000 0.981329
O O16 0.750000 0.750000 0.000000
O O17 0.400478 0.500000 0.512387
O O18 0.525122 0.500000 0.853027
O O19 0.500000 0.729794 0.000000
#
# Coordination Sequence:
#
# PCOD8102250 Si02
#       7
#     8   8   8   8   8   8   8
#     4  10  23  41  62  90 124 158 201 253 304 360
#     4  10  21  41  63  89 125 158 196 251 304 356
#     4  11  22  38  61  90 126 163 202 248 304 367
#     4  10  24  43  61  88 126 164 203 252 306 359
#     4  11  25  44  65  90 122 161 207 255 304 362
#     4  11  23  41  64  93 125 159 205 253 303 366
#     4  10  20  36  61  90 123 161 201 248 302 358
#
# _framework density 19.896878000000001
#
# number of rings (size 3 to 8) (size 9 to 14) (size 15 to 20)
#    0.000    1.571    1.429    2.571    2.000    6.571 
#    0.000    0.000    0.000    0.000    0.000    0.000 
#    0.000    0.000    0.000    0.000    0.000    0.000 
#
# Total GULP energy -347346.699730 kJ/mol
# GULP energy per Si atom -12405.239276 kJ/mol
# Density = 1.985159 g / cm^3
# Si number density = 19.896878 Si / 1000 Ang^3
#
#
#
# Elastic Constant Matrix: (Units=GPa)
#
#
# Indices 1 2 3 4 5 6 
#
# 1 116.8646 46.4344 74.7156 0.0000 -10.1046 0.0000
# 2 46.4344 56.5147 43.6348 0.0000 3.0241 0.0000
# 3 74.7156 43.6348 127.4009 0.0000 6.9528 0.0000
# 4 0.0000 0.0000 0.0000 39.0084 0.0000 2.2794
# 5 -10.1046 3.0241 6.9528 0.0000 35.6785 0.0000
# 6 0.0000 0.0000 0.0000 2.2794 0.0000 33.4303
#
#
#
# Elastic Compliance Matrix: (Units=1/GPa)
#
#
# Indices 1 2 3 4 5 6 
#
# 1 0.017657 -0.008966 -0.007681 0.000000 0.007258 0.000000
# 2 -0.008966 0.028616 -0.004317 0.000000 -0.004123 0.000000
# 3 -0.007681 -0.004317 0.014081 0.000000 -0.004553 0.000000
# 4 0.000000 0.000000 0.000000 0.025738 0.000000 -0.001755
# 5 0.007258 -0.004123 -0.004553 0.000000 0.031320 0.000000
# 6 0.000000 0.000000 0.000000 -0.001755 0.000000 0.030033
#
#
# Mechanical properties :
#
#
# Convention : Reuss Voigt Hill
#
# Bulk Modulus (GPa) = 54.27294 70.03887 62.15591
# Shear Modulus (GPa) = 25.57348 30.68980 28.13164
#
# Velocity S-wave (km/s) = 3.58900 3.93166 3.76423
# Velocity P-wave (km/s) = 6.67165 7.47582 7.08515
#
# Compressibility (1/GPa) = 0.01842539
#
# Stress axis : x y z
#
# Youngs Moduli (GPa) = 56.63330 34.94603 71.01861
#
# Poissons Ratio (x) = 0.31333 0.54546
# Poissons Ratio (y) = 0.50778 0.30662
# Poissons Ratio (z) = 0.43498 0.15088
#
# Static dielectric constant tensor:
#      x y z
#    x 3.719110 0.000000 -0.047410 
#    y 0.000000 3.592530 0.000000 
#    z -0.047410 0.000000 3.793580 
# 
# 
# High freq. dielectric constant tensor:
#      x y z
#    x 1.784800 0.000000 -0.003520 
#    y 0.000000 1.770930 0.000000 
#    z -0.003520 0.000000 1.792230 
# 
# From -- ./inp_files/180696.got.cif
#   From: 2010.06.25/outbox.cif.g09.slc.cpg/sg12_91_cif.got.tgz:180696.got - 2010.06.28 00:19:55.
