data_PCOD8102770
_publ_section_title
;
Structure prediction by ZEFSAII (Michael W. Deem and Ramdas Pophale) SiO2 
 PCOD8102770
Probable space group: C 2/M
;
_chemical_formula_sum "Si O2"
_cell_formula_units_Z 64
_cell_length_a 15.296157
_cell_length_b 9.242700
_cell_length_c 23.840001
_cell_angle_alpha 90.000000
_cell_angle_beta 90.000000
_cell_angle_gamma 90.000000
_cell_volume 3370.446662
_symmetry_space_group_name_H-M "C 2/M"
_symmetry_group_IT_number 12
_symmetry_cell_setting 'monoclinic'
loop_
_space_group_symop_operation_xyz
x,y,z
-x,y,-z
-x,-y,-z
x,-y,z
1/2+x,1/2+y,z
1/2-x,1/2+y,-z
1/2-x,1/2-y,-z
1/2+x,1/2-y,z
loop_
_atom_site_type_symbol
_atom_site_label
_atom_site_fract_x
_atom_site_fract_y
_atom_site_fract_z
Si Si1 0.853626 0.833762 0.358729
Si Si2 0.341945 0.833123 0.630234
Si Si3 0.986674 0.170383 0.936674
Si Si4 0.353626 0.333762 0.141271
Si Si5 0.099545 0.329240 0.250000
Si Si6 0.658055 0.833123 0.130234
Si Si7 0.599716 0.171340 0.750000
Si Si8 0.013326 0.829617 0.436674
O O1 0.759022 0.815537 0.387897
O O2 0.853464 0.733689 0.304447
O O3 0.927885 0.782054 0.401828
O O4 0.868313 0.000000 0.340405
O O5 0.354256 0.770525 0.693561
O O6 0.400297 0.744657 0.587067
O O7 0.371962 0.000000 0.627925
O O8 0.900297 0.244657 0.912933
O O9 0.072115 0.217946 0.901828
O O10 0.971782 0.000000 0.934047
O O11 0.000000 0.224044 0.000000
O O12 0.368313 0.500000 0.159595
O O13 0.259022 0.315537 0.112103
O O14 0.353464 0.233689 0.195553
O O15 0.106230 0.500000 0.250000
O O16 0.145744 0.270525 0.193561
O O17 0.000081 0.275367 0.250000
O O18 0.628038 0.000000 0.127925
O O19 0.608356 0.000000 0.750000
O O20 0.000000 0.775956 0.500000
O O21 0.028218 0.000000 0.434047
#
# Coordination Sequence:
#
# PCOD8102770 Si02
#       8
#     8   8   8   8   8   8   8   8
#     4  10  21  37  58  82 111 148 184 222 276 335
#     4  10  20  37  59  82 109 145 186 225 270 329
#     4  10  22  39  56  79 113 148 185 233 282 325
#     4  10  21  37  58  82 111 148 184 222 276 335
#     4   9  17  31  53  80 109 135 168 222 273 316
#     4  10  20  37  59  82 109 145 186 225 270 329
#     4  11  20  33  57  86 113 141 178 226 275 326
#     4  10  22  39  56  79 113 148 185 233 282 325
#
# _framework density 18.988581
#
# number of rings (size 3 to 8) (size 9 to 14) (size 15 to 20)
#    0.000    2.000    2.500    1.125    0.000    4.500 
#    0.000    0.625    0.000    0.000    0.000    0.000 
#    0.000    0.000    0.000    0.000    0.000    0.000 
#
# Total GULP energy -396868.422405 kJ/mol
# GULP energy per Si atom -12402.138200 kJ/mol
# Density = 1.894536 g / cm^3
# Si number density = 18.988581 Si / 1000 Ang^3
#
#
#
# Elastic Constant Matrix: (Units=GPa)
#
#
# Indices 1 2 3 4 5 6 
#
# 1 116.5692 38.0889 50.0161 0.0000 0.0000 0.0000
# 2 38.0889 47.5577 42.5756 0.0000 0.0000 0.0000
# 3 50.0161 42.5756 132.7241 0.0000 0.0000 0.0000
# 4 0.0000 0.0000 0.0000 16.0935 0.0000 0.0000
# 5 0.0000 0.0000 0.0000 0.0000 13.6221 0.0000
# 6 0.0000 0.0000 0.0000 0.0000 0.0000 28.3780
#
#
#
# Elastic Compliance Matrix: (Units=1/GPa)
#
#
# Indices 1 2 3 4 5 6 
#
# 1 0.011992 -0.007798 -0.002018 0.000000 0.000000 0.000000
# 2 -0.007798 0.034570 -0.008151 0.000000 0.000000 0.000000
# 3 -0.002018 -0.008151 0.010909 0.000000 0.000000 0.000000
# 4 0.000000 0.000000 0.000000 0.062137 0.000000 0.000000
# 5 0.000000 0.000000 0.000000 0.000000 0.073410 0.000000
# 6 0.000000 0.000000 0.000000 0.000000 0.000000 0.035239
#
#
# Mechanical properties :
#
#
# Convention : Reuss Voigt Hill
#
# Bulk Modulus (GPa) = 46.42947 62.02359 54.22653
# Shear Modulus (GPa) = 18.42507 22.69675 20.56091
#
# Velocity S-wave (km/s) = 3.11838 3.46104 3.29417
# Velocity P-wave (km/s) = 6.12128 6.97899 6.56416
#
# Compressibility (1/GPa) = 0.02153805
#
# Stress axis : x y z
#
# Youngs Moduli (GPa) = 83.38586 28.92719 91.66478
#
# Poissons Ratio (x) = 0.22559 0.18495
# Poissons Ratio (y) = 0.65028 0.74712
# Poissons Ratio (z) = 0.16824 0.23577
#
# Static dielectric constant tensor:
#      x y z
#    x 3.561950 0.000000 0.000000 
#    y 0.000000 3.257050 0.000000 
#    z 0.000000 0.000000 3.520120 
# 
# 
# High freq. dielectric constant tensor:
#      x y z
#    x 1.750710 0.000000 0.000000 
#    y 0.000000 1.717850 0.000000 
#    z 0.000000 0.000000 1.733220 
# 
# From -- ./inp_files/338772.got.cif
#   From: 2010.06.25/outbox.cif.g09.slc.cpg/sg12_170_cif.got.tgz:338772.got - 2010.06.28 00:19:55.
