data_PCOD8102406
_publ_section_title
;
Structure prediction by ZEFSAII (Michael W. Deem and Ramdas Pophale) SiO2 
 PCOD8102406
Probable space group: C 2/M
;
_chemical_formula_sum "Si O2"
_cell_formula_units_Z 48
_cell_length_a 13.890247
_cell_length_b 19.511927
_cell_length_c 16.077214
_cell_angle_alpha 90.000000
_cell_angle_beta 145.941597
_cell_angle_gamma 90.000000
_cell_volume 2440.271595
_symmetry_space_group_name_H-M "C 2/M"
_symmetry_group_IT_number 12
_symmetry_cell_setting 'monoclinic'
loop_
_space_group_symop_operation_xyz
x,y,z
-x,y,-z
-x,-y,-z
x,-y,z
1/2+x,1/2+y,z
1/2-x,1/2+y,-z
1/2-x,1/2-y,-z
1/2+x,1/2-y,z
loop_
_atom_site_type_symbol
_atom_site_label
_atom_site_fract_x
_atom_site_fract_y
_atom_site_fract_z
Si Si1 0.647660 0.638586 0.794544
Si Si2 0.806491 0.500000 0.697870
Si Si3 0.045371 0.000000 0.653920
Si Si4 0.002755 0.762372 0.821506
Si Si5 0.173971 0.846914 0.081132
Si Si6 0.405951 0.112609 0.116993
Si Si7 0.333898 0.753336 0.325326
O O1 0.543904 0.568796 0.706103
O O2 0.523842 0.682738 0.764084
O O3 0.680446 0.680003 0.732396
O O4 0.825237 0.616581 0.966938
O O5 0.726755 0.500000 0.732882
O O6 0.635994 0.500000 0.521588
O O7 0.926544 0.565406 0.765517
O O8 0.807108 0.757541 0.705166
O O9 0.050635 0.688491 0.820712
O O10 0.119932 0.781743 0.984975
O O11 0.264251 0.906495 0.088074
O O12 0.308666 0.817488 0.245000
O O13 0.000000 0.876875 0.000000
O O14 0.500000 0.760572 0.500000
#
# Coordination Sequence:
#
# PCOD8102406 Si02
#       7
#     8   4   4   8   8   8   8
#     4  11  22  40  61  88 122 158 200 250 294 354
#     4  11  27  41  60  86 123 166 197 241 298 366
#     4  11  27  43  53  86 131 161 195 238 304 361
#     4  10  20  36  63  89 115 155 206 252 292 345
#     4   9  18  37  59  89 122 145 197 259 296 344
#     4  11  20  40  63  89 114 160 209 242 295 353
#     4  11  22  32  55  92 123 157 193 242 304 353
#
# _framework density 19.669941000000001
#
# number of rings (size 3 to 8) (size 9 to 14) (size 15 to 20)
#    0.000    1.500    3.333    2.500    4.667    4.667 
#    0.000    0.417    0.000    3.000    0.000   11.667 
#    0.000    0.000    0.000    0.000    0.000    0.000 
#
# Total GULP energy -297416.838001 kJ/mol
# GULP energy per Si atom -12392.368250 kJ/mol
# Density = 1.962517 g / cm^3
# Si number density = 19.669941 Si / 1000 Ang^3
#
#
#
# Elastic Constant Matrix: (Units=GPa)
#
#
# Indices 1 2 3 4 5 6 
#
# 1 107.3606 91.9325 48.1149 -0.0050 24.9042 -0.0049
# 2 91.9325 0.1711 77.0758 0.0085 -8.8170 0.0112
# 3 48.1149 77.0758 120.8811 -0.0140 16.9356 -0.0102
# 4 -0.0050 0.0085 -0.0140 7.4002 -0.0011 -5.8175
# 5 24.9042 -8.8170 16.9356 -0.0011 27.4651 0.0025
# 6 -0.0049 0.0112 -0.0102 -5.8175 0.0025 22.3372
#
#
#
# Elastic Compliance Matrix: (Units=1/GPa)
#
#
# Indices 1 2 3 4 5 6 
#
# 1 0.006113 0.007172 -0.007172 -0.000028 0.001182 -0.000013
# 2 0.007172 -0.007135 0.003203 0.000030 -0.010769 0.000016
# 3 -0.007172 0.003203 0.008789 0.000011 0.002112 0.000003
# 4 -0.000028 0.000030 0.000011 0.169920 0.000030 0.044254
# 5 0.001182 -0.010769 0.002112 0.000030 0.030578 0.000011
# 6 -0.000013 0.000016 0.000003 0.044254 0.000011 0.056294
#
#
# Mechanical properties :
#
#
# Convention : Reuss Voigt Hill
#
# Bulk Modulus (GPa) = 70.55096 73.62882 72.08989
# Shear Modulus (GPa) = 19.02035 12.19314 15.60675
#
# Velocity S-wave (km/s) = 3.11300 2.49245 2.81985
# Velocity P-wave (km/s) = 6.99044 6.76731 6.87978
#
# Compressibility (1/GPa) = 0.01417415
#
# Stress axis : x y z
#
# Youngs Moduli (GPa) = 163.58974 -140.15263 113.78193
#
# Poissons Ratio (x) = 1.00520 0.81603
# Poissons Ratio (y) = -1.17330 -0.36450
# Poissons Ratio (z) = 1.17324 0.44897
#
# Static dielectric constant tensor:
#      x y z
#    x 4.131430 0.000000 0.146760 
#    y 0.000000 3.354760 0.000000 
#    z 0.146760 0.000000 3.494110 
# 
# 
# High freq. dielectric constant tensor:
#      x y z
#    x 1.782880 0.000000 0.007680 
#    y 0.000000 1.740630 0.000000 
#    z 0.007680 0.000000 1.762210 
# 
# From -- ./inp_files/61759.got.cif
#   From: 2010.06.25/outbox.cif.g09.slc.cpg/sg12_31_cif.got.tgz:61759.got - 2010.06.28 00:19:55.
