data_PCOD8102085
_publ_section_title
;
Structure prediction by ZEFSAII (Michael W. Deem and Ramdas Pophale) SiO2 
 PCOD8102085
Probable space group: C 2/M
;
_chemical_formula_sum "Si O2"
_cell_formula_units_Z 64
_cell_length_a 29.028381
_cell_length_b 9.037556
_cell_length_c 12.462237
_cell_angle_alpha 90.000000
_cell_angle_beta 88.701908
_cell_angle_gamma 90.000000
_cell_volume 3268.574230
_symmetry_space_group_name_H-M "C 2/M"
_symmetry_group_IT_number 12
_symmetry_cell_setting 'monoclinic'
loop_
_space_group_symop_operation_xyz
x,y,z
-x,y,-z
-x,-y,-z
x,-y,z
1/2+x,1/2+y,z
1/2-x,1/2+y,-z
1/2-x,1/2-y,-z
1/2+x,1/2-y,z
loop_
_atom_site_type_symbol
_atom_site_label
_atom_site_fract_x
_atom_site_fract_y
_atom_site_fract_z
Si Si1 0.417629 0.831588 0.195164
Si Si2 0.729068 0.174175 0.898896
Si Si3 0.359928 0.329398 0.043217
Si Si4 0.484974 0.168724 0.883059
Si Si5 0.655819 0.832113 0.376893
Si Si6 0.394541 0.328652 0.811746
Si Si7 0.151990 0.328664 0.616750
Si Si8 0.756850 0.171639 0.312269
O O1 0.407102 0.720532 0.096864
O O2 0.472783 0.819244 0.204300
O O3 0.390585 0.781847 0.304383
O O4 0.404099 0.000000 0.165511
O O5 0.675907 0.220909 0.895818
O O6 0.754669 0.236949 0.794228
O O7 0.735571 0.000000 0.905261
O O8 0.750000 0.250000 0.000000
O O9 0.348393 0.500000 0.068624
O O10 0.361347 0.301193 0.915833
O O11 0.443820 0.257733 0.831336
O O12 0.468374 0.000000 0.897891
O O13 0.500000 0.229588 0.000000
O O14 0.630282 0.730755 0.292558
O O15 0.635027 0.800974 0.495919
O O16 0.710886 0.803824 0.385004
O O17 0.646726 0.000000 0.340753
O O18 0.403608 0.500000 0.793679
O O19 0.165566 0.500000 0.634067
O O20 0.197553 0.232596 0.633661
O O21 0.764988 0.000000 0.284818
#
# Coordination Sequence:
#
# PCOD8102085 Si02
#       8
#     8   8   8   8   8   8   8   8
#     4  10  20  36  60  89 117 150 192 239 292 349
#     4  12  24  37  54  80 117 157 196 240 291 352
#     4  11  22  36  56  84 118 152 190 237 294 353
#     4  10  20  36  61  90 119 154 195 237 293 363
#     4  10  23  41  60  84 118 159 203 248 293 351
#     4  11  24  39  59  88 120 155 196 246 301 355
#     4  10  21  39  62  88 118 157 203 248 293 342
#     4  11  22  37  59  88 118 155 200 244 295 350
#
# _framework density 19.580403
#
# number of rings (size 3 to 8) (size 9 to 14) (size 15 to 20)
#    0.000    1.375    2.500    3.375    0.000    5.750 
#    0.000    0.625    0.000    3.750    0.000    0.000 
#    0.000    0.000    0.000    0.000    0.000    0.000 
#
# Total GULP energy -396780.793884 kJ/mol
# GULP energy per Si atom -12399.399809 kJ/mol
# Density = 1.953584 g / cm^3
# Si number density = 19.580403 Si / 1000 Ang^3
#
#
#
# Elastic Constant Matrix: (Units=GPa)
#
#
# Indices 1 2 3 4 5 6 
#
# 1 85.4484 39.1874 35.5512 0.0000 -5.2951 0.0000
# 2 39.1874 108.9914 48.6822 0.0000 0.5210 0.0000
# 3 35.5512 48.6822 105.4068 0.0000 -4.9989 0.0000
# 4 0.0000 0.0000 0.0000 28.5813 0.0000 5.6856
# 5 -5.2951 0.5210 -4.9989 0.0000 24.0078 0.0000
# 6 0.0000 0.0000 0.0000 5.6856 0.0000 33.2415
#
#
#
# Elastic Compliance Matrix: (Units=1/GPa)
#
#
# Indices 1 2 3 4 5 6 
#
# 1 0.015000 -0.004038 -0.003063 0.000000 0.002758 0.000000
# 2 -0.004038 0.012692 -0.004601 0.000000 -0.002124 0.000000
# 3 -0.003063 -0.004601 0.012744 0.000000 0.002078 0.000000
# 4 0.000000 0.000000 0.000000 0.036220 0.000000 -0.006195
# 5 0.002758 -0.002124 0.002078 0.000000 0.042740 0.000000
# 6 0.000000 0.000000 0.000000 -0.006195 0.000000 0.031142
#
#
# Mechanical properties :
#
#
# Convention : Reuss Voigt Hill
#
# Bulk Modulus (GPa) = 58.71434 60.74314 59.72874
# Shear Modulus (GPa) = 27.83648 28.92784 28.38216
#
# Velocity S-wave (km/s) = 3.77457 3.84785 3.81138
# Velocity P-wave (km/s) = 7.00342 7.12959 7.06678
#
# Compressibility (1/GPa) = 0.01703162
#
# Stress axis : x y z
#
# Youngs Moduli (GPa) = 66.66485 78.78981 78.47088
#
# Poissons Ratio (x) = 0.31817 0.24039
# Poissons Ratio (y) = 0.26921 0.36101
# Poissons Ratio (z) = 0.20422 0.36248
#
# Static dielectric constant tensor:
#      x y z
#    x 3.812990 0.000000 -0.234740 
#    y 0.000000 3.592120 0.000000 
#    z -0.234740 0.000000 3.578970 
# 
# 
# High freq. dielectric constant tensor:
#      x y z
#    x 1.760060 0.000000 -0.009510 
#    y 0.000000 1.764030 0.000000 
#    z -0.009510 0.000000 1.760000 
# 
# From -- ./inp_files/187427.got.cif
#   From: 2010.06.25/outbox.cif.g09.slc.cpg/sg12_94_cif.got.tgz:187427.got - 2010.06.28 00:19:55.
