data_PCOD8102166
_publ_section_title
;
Structure prediction by ZEFSAII (Michael W. Deem and Ramdas Pophale) SiO2 
 PCOD8102166
Probable space group: C 2/M
;
_chemical_formula_sum "Si O2"
_cell_formula_units_Z 64
_cell_length_a 29.353456
_cell_length_b 13.696040
_cell_length_c 11.806165
_cell_angle_alpha 90.000000
_cell_angle_beta 39.026050
_cell_angle_gamma 90.000000
_cell_volume 2988.674605
_symmetry_space_group_name_H-M "C 2/M"
_symmetry_group_IT_number 12
_symmetry_cell_setting 'monoclinic'
loop_
_space_group_symop_operation_xyz
x,y,z
-x,y,-z
-x,-y,-z
x,-y,z
1/2+x,1/2+y,z
1/2-x,1/2+y,-z
1/2-x,1/2-y,-z
1/2+x,1/2-y,z
loop_
_atom_site_type_symbol
_atom_site_label
_atom_site_fract_x
_atom_site_fract_y
_atom_site_fract_z
Si Si1 0.582148 0.700740 0.365261
Si Si2 0.738185 0.384408 0.430938
Si Si3 0.031730 0.771363 0.059301
Si Si4 0.150152 0.389561 0.187544
Si Si5 0.126451 0.612029 0.969507
Si Si6 0.299519 0.613419 0.013879
Si Si7 0.177599 0.114713 0.778264
Si Si8 0.404190 0.385095 0.423380
O O1 0.500000 0.672773 0.500000
O O2 0.591515 0.818218 0.359738
O O3 0.631022 0.671842 0.163688
O O4 0.609960 0.640558 0.418722
O O5 0.743753 0.500000 0.405729
O O6 0.810104 0.341072 0.232554
O O7 0.733775 0.351139 0.571298
O O8 0.665823 0.347987 0.508729
O O9 0.054429 0.674227 0.084548
O O10 0.098999 0.841685 0.908607
O O11 0.000000 0.739248 0.000000
O O12 0.973895 0.827399 0.246796
O O13 0.130966 0.500000 0.261984
O O14 0.151505 0.378791 0.050103
O O15 0.228918 0.357874 0.079629
O O16 0.109663 0.500000 0.970667
O O17 0.317274 0.500000 0.967361
O O18 0.288511 0.643654 0.166242
O O19 0.166163 0.000000 0.788872
O O20 0.417589 0.500000 0.382346
#
# Coordination Sequence:
#
# PCOD8102166 Si02
#       8
#     8   8   8   8   8   8   8   8
#     4  12  24  38  59  91 127 161 204 254 305 365
#     4   9  19  38  63  90 119 158 204 253 305 358
#     4  12  24  40  60  92 125 168 208 245 305 369
#     4  10  22  43  67  88 118 164 213 257 304 362
#     4  10  22  42  66  89 120 162 211 260 305 355
#     4  10  21  38  63  94 126 163 202 251 312 367
#     4  10  20  36  60  92 129 159 197 251 309 370
#     4  11  23  40  64  93 125 159 200 249 307 373
#
# _framework density 21.414175
#
# number of rings (size 3 to 8) (size 9 to 14) (size 15 to 20)
#    0.000    1.500    1.250    4.125    0.000    6.500 
#    2.250    0.625    0.000    0.000    0.000    0.000 
#    0.000    0.000    0.000    0.000    0.000    0.000 
#
# Total GULP energy -396931.306347 kJ/mol
# GULP energy per Si atom -12404.103323 kJ/mol
# Density = 2.136544 g / cm^3
# Si number density = 21.414175 Si / 1000 Ang^3
#
#
#
# Elastic Constant Matrix: (Units=GPa)
#
#
# Indices 1 2 3 4 5 6 
#
# 1 143.7923 46.7208 40.9875 0.0000 9.9722 0.0000
# 2 46.7208 73.7615 41.0656 0.0000 -1.4752 0.0000
# 3 40.9875 41.0656 77.1114 0.0000 2.5163 0.0000
# 4 0.0000 0.0000 0.0000 37.4038 0.0000 -3.5617
# 5 9.9722 -1.4752 2.5163 0.0000 25.3214 0.0000
# 6 0.0000 0.0000 0.0000 -3.5617 0.0000 26.7559
#
#
#
# Elastic Compliance Matrix: (Units=1/GPa)
#
#
# Indices 1 2 3 4 5 6 
#
# 1 0.009426 -0.004725 -0.002371 0.000000 -0.003752 0.000000
# 2 -0.004725 0.021757 -0.009207 0.000000 0.004043 0.000000
# 3 -0.002371 -0.009207 0.019181 0.000000 -0.001509 0.000000
# 4 0.000000 0.000000 0.000000 0.027079 0.000000 0.003605
# 5 -0.003752 0.004043 -0.001509 0.000000 0.041355 0.000000
# 6 0.000000 0.000000 0.000000 0.003605 0.000000 0.037855
#
#
# Mechanical properties :
#
#
# Convention : Reuss Voigt Hill
#
# Bulk Modulus (GPa) = 56.31632 61.35702 58.83667
# Shear Modulus (GPa) = 25.61757 28.95562 27.28660
#
# Velocity S-wave (km/s) = 3.46250 3.68118 3.57351
# Velocity P-wave (km/s) = 6.50699 6.83980 6.67547
#
# Compressibility (1/GPa) = 0.01775684
#
# Stress axis : x y z
#
# Youngs Moduli (GPa) = 106.09024 45.96253 52.13465
#
# Poissons Ratio (x) = 0.21718 0.12363
# Poissons Ratio (y) = 0.50130 0.48000
# Poissons Ratio (z) = 0.25158 0.42317
#
# Static dielectric constant tensor:
#      x y z
#    x 3.956820 0.000000 0.146720 
#    y 0.000000 3.997560 0.000000 
#    z 0.146720 0.000000 3.860550 
# 
# 
# High freq. dielectric constant tensor:
#      x y z
#    x 1.846200 0.000000 0.010180 
#    y 0.000000 1.851750 0.000000 
#    z 0.010180 0.000000 1.833570 
# 
# From -- ./inp_files/183762.got.cif
#   From: 2010.06.25/outbox.cif.g09.slc.cpg/sg12_92_cif.got.tgz:183762.got - 2010.06.28 00:19:55.
