data_PCOD8102793
_publ_section_title
;
Structure prediction by ZEFSAII (Michael W. Deem and Ramdas Pophale) SiO2 
 PCOD8102793
Probable space group: C 2/M
;
_chemical_formula_sum "Si O2"
_cell_formula_units_Z 64
_cell_length_a 24.123291
_cell_length_b 8.998048
_cell_length_c 28.742056
_cell_angle_alpha 90.000000
_cell_angle_beta 32.542742
_cell_angle_gamma 90.000000
_cell_volume 3356.041658
_symmetry_space_group_name_H-M "C 2/M"
_symmetry_group_IT_number 12
_symmetry_cell_setting 'monoclinic'
loop_
_space_group_symop_operation_xyz
x,y,z
-x,y,-z
-x,-y,-z
x,-y,z
1/2+x,1/2+y,z
1/2-x,1/2+y,-z
1/2-x,1/2-y,-z
1/2+x,1/2-y,z
loop_
_atom_site_type_symbol
_atom_site_label
_atom_site_fract_x
_atom_site_fract_y
_atom_site_fract_z
Si Si1 0.687059 0.823031 0.746686
Si Si2 0.593854 0.827157 0.401951
Si Si3 0.713480 0.672932 0.157040
Si Si4 0.547423 0.167311 0.328985
Si Si5 0.849099 0.668576 0.412029
Si Si6 0.896021 0.324733 0.096009
Si Si7 0.056400 0.676598 0.750399
Si Si8 0.177612 0.675897 0.088363
O O1 0.801901 0.760301 0.660429
O O2 0.630865 0.762444 0.833388
O O3 0.619834 0.767165 0.750374
O O4 0.695340 0.000000 0.742105
O O5 0.500000 0.768242 0.500000
O O6 0.557117 0.795309 0.375949
O O7 0.615335 0.000000 0.396199
O O8 0.717961 0.500000 0.140273
O O9 0.607897 0.708580 0.257713
O O10 0.804987 0.720513 0.126205
O O11 0.722956 0.774543 0.105421
O O12 0.429760 0.180430 0.396916
O O13 0.588593 0.000000 0.288842
O O14 0.818356 0.500000 0.423397
O O15 0.750000 0.750000 0.500000
O O16 0.892398 0.739512 0.333275
O O17 0.909169 0.500000 0.090990
O O18 0.000000 0.255267 0.000000
O O19 0.053741 0.500000 0.750249
O O20 0.939060 0.735147 0.836165
O O21 0.182957 0.500000 0.079923
O O22 0.250000 0.750000 0.000000
#
# Coordination Sequence:
#
# PCOD8102793 Si02
#       8
#     8   8   8   8   8   8   8   8
#     4  10  20  37  59  83 111 147 188 235 280 329
#     4  10  22  38  57  82 114 154 191 230 289 350
#     4  11  21  36  61  89 113 146 194 242 286 336
#     4  10  20  38  60  79 113 155 191 235 292 347
#     4  10  21  38  57  83 111 148 192 234 286 341
#     4   9  19  34  56  85 114 146 187 230 280 339
#     4   9  20  38  59  80 113 153 189 228 285 345
#     4  11  23  41  62  87 118 155 194 236 285 342
#
# _framework density 19.070084999999999
#
# number of rings (size 3 to 8) (size 9 to 14) (size 15 to 20)
#    0.000    2.000    2.500    0.750    3.500    0.750 
#    0.000    1.250    0.000    1.875    0.000    0.000 
#    0.000    0.000    0.000    0.000    0.000    0.000 
#
# Total GULP energy -396794.581152 kJ/mol
# GULP energy per Si atom -12399.830661 kJ/mol
# Density = 1.902668 g / cm^3
# Si number density = 19.070085 Si / 1000 Ang^3
#
#
#
# Elastic Constant Matrix: (Units=GPa)
#
#
# Indices 1 2 3 4 5 6 
#
# 1 137.3185 33.2063 57.9379 -0.0028 9.9593 0.0000
# 2 33.2063 41.7027 35.7332 -0.0087 -0.2165 0.0115
# 3 57.9379 35.7332 147.7127 0.0037 13.5588 -0.0077
# 4 -0.0028 -0.0087 0.0037 31.3468 -0.0026 -0.4002
# 5 9.9593 -0.2165 13.5588 -0.0026 27.7543 0.0033
# 6 0.0000 0.0115 -0.0077 -0.4002 0.0033 24.9076
#
#
#
# Elastic Compliance Matrix: (Units=1/GPa)
#
#
# Indices 1 2 3 4 5 6 
#
# 1 0.009828 -0.005970 -0.002180 -0.000001 -0.002508 0.000002
# 2 -0.005970 0.034304 -0.006468 0.000010 0.005570 -0.000018
# 3 -0.002180 -0.006468 0.009551 -0.000003 -0.003934 0.000006
# 4 -0.000001 0.000010 -0.000003 0.031908 0.000005 0.000513
# 5 -0.002508 0.005570 -0.003934 0.000005 0.038896 -0.000009
# 6 0.000002 -0.000018 0.000006 0.000513 -0.000009 0.040157
#
#
# Mechanical properties :
#
#
# Convention : Reuss Voigt Hill
#
# Bulk Modulus (GPa) = 40.90706 64.49874 52.70290
# Shear Modulus (GPa) = 24.74887 30.12550 27.43719
#
# Velocity S-wave (km/s) = 3.60639 3.97889 3.79721
# Velocity P-wave (km/s) = 6.23208 7.41648 6.84993
#
# Compressibility (1/GPa) = 0.02444566
#
# Stress axis : x y z
#
# Youngs Moduli (GPa) = 101.75075 29.15079 104.70230
#
# Poissons Ratio (x) = 0.17404 0.22829
# Poissons Ratio (y) = 0.60749 0.67722
# Poissons Ratio (z) = 0.22185 0.18855
#
# Static dielectric constant tensor:
#      x y z
#    x 3.851820 0.000000 0.113110 
#    y 0.000000 3.236860 0.000000 
#    z 0.113110 0.000000 3.630350 
# 
# 
# High freq. dielectric constant tensor:
#      x y z
#    x 1.757870 0.000000 0.003140 
#    y 0.000000 1.710880 0.000000 
#    z 0.003140 0.000000 1.750870 
# 
# From -- ./inp_files/382231.got.cif
#   From: 2010.06.25/outbox.cif.g09.slc.cpg/sg12_192_cif.got.tgz:382231.got - 2010.06.28 00:19:55.
