data_PCOD8102648
_publ_section_title
;
Structure prediction by ZEFSAII (Michael W. Deem and Ramdas Pophale) SiO2 
 PCOD8102648
Probable space group: C 2/M
;
_chemical_formula_sum "Si O2"
_cell_formula_units_Z 48
_cell_length_a 14.233297
_cell_length_b 8.802095
_cell_length_c 19.137799
_cell_angle_alpha 90.000000
_cell_angle_beta 90.409960
_cell_angle_gamma 90.000000
_cell_volume 2397.576289
_symmetry_space_group_name_H-M "C 2/M"
_symmetry_group_IT_number 12
_symmetry_cell_setting 'monoclinic'
loop_
_space_group_symop_operation_xyz
x,y,z
-x,y,-z
-x,-y,-z
x,-y,z
1/2+x,1/2+y,z
1/2-x,1/2+y,-z
1/2-x,1/2-y,-z
1/2+x,1/2-y,z
loop_
_atom_site_type_symbol
_atom_site_label
_atom_site_fract_x
_atom_site_fract_y
_atom_site_fract_z
Si Si1 0.351174 0.322123 0.499459
Si Si2 0.348211 0.673978 0.010643
Si Si3 0.191689 0.177464 0.840268
Si Si4 0.107165 0.821220 0.135912
Si Si5 0.965657 0.677994 0.241003
Si Si6 0.000757 0.178993 0.613144
O O1 0.338692 0.500000 0.499763
O O2 0.250000 0.250000 0.500000
O O3 0.406687 0.273515 0.429868
O O4 0.409331 0.272955 0.568232
O O5 0.327668 0.500000 0.997532
O O6 0.417269 0.721078 0.946487
O O7 0.250000 0.750000 0.000000
O O8 0.377622 0.702259 0.091672
O O9 0.285287 0.276805 0.847177
O O10 0.132342 0.235258 0.773938
O O11 0.217528 0.000000 0.831429
O O12 0.042225 0.720606 0.184011
O O13 0.091232 0.000000 0.151340
O O14 0.946878 0.500000 0.238717
O O15 0.003754 0.726044 0.316344
O O16 0.000518 0.000000 0.629565
#
# Coordination Sequence:
#
# PCOD8102648 Si02
#       6
#     8   8   8   8   8   8
#     4   9  19  37  64  90 112 141 179 219 269 326
#     4   8  16  31  54  79 104 138 184 235 288 337
#     4  10  20  37  58  81 110 146 188 238 289 340
#     4  10  20  37  58  81 110 146 188 238 289 340
#     4  12  25  38  54  82 116 154 193 230 276 332
#     4   9  20  40  59  81 115 150 180 221 272 326
#
# _framework density 20.020218
#
# number of rings (size 3 to 8) (size 9 to 14) (size 15 to 20)
#    0.000    2.333    0.000    3.500    0.000    4.667 
#    0.000    8.333    0.000    0.000    0.000    0.000 
#    0.000    0.000    0.000    0.000    0.000    0.000 
#
# Total GULP energy -297410.896537 kJ/mol
# GULP energy per Si atom -12392.120689 kJ/mol
# Density = 1.997465 g / cm^3
# Si number density = 20.020218 Si / 1000 Ang^3
#
#
#
# Elastic Constant Matrix: (Units=GPa)
#
#
# Indices 1 2 3 4 5 6 
#
# 1 68.6269 12.1261 23.2670 0.0000 0.8044 0.0000
# 2 12.1261 54.3539 35.1700 0.0000 0.2235 0.0000
# 3 23.2670 35.1700 101.4386 0.0000 6.4097 0.0000
# 4 0.0000 0.0000 0.0000 26.4736 0.0000 -1.5630
# 5 0.8044 0.2235 6.4097 0.0000 22.2256 0.0000
# 6 0.0000 0.0000 0.0000 -1.5630 0.0000 34.7020
#
#
#
# Elastic Compliance Matrix: (Units=1/GPa)
#
#
# Indices 1 2 3 4 5 6 
#
# 1 0.015901 -0.001515 -0.003144 0.000000 0.000346 0.000000
# 2 -0.001515 0.023967 -0.008098 0.000000 0.002149 0.000000
# 3 -0.003144 -0.008098 0.013623 0.000000 -0.003734 0.000000
# 4 0.000000 0.000000 0.000000 0.037874 0.000000 0.001706
# 5 0.000346 0.002149 -0.003734 0.000000 0.046036 0.000000
# 6 0.000000 0.000000 0.000000 0.001706 0.000000 0.028894
#
#
# Mechanical properties :
#
#
# Convention : Reuss Voigt Hill
#
# Bulk Modulus (GPa) = 35.74275 40.61618 38.17947
# Shear Modulus (GPa) = 24.85912 26.93732 25.89822
#
# Velocity S-wave (km/s) = 3.52760 3.67209 3.60057
# Velocity P-wave (km/s) = 5.87231 6.18956 6.03302
#
# Compressibility (1/GPa) = 0.02797770
#
# Stress axis : x y z
#
# Youngs Moduli (GPa) = 62.88896 41.72428 73.40568
#
# Poissons Ratio (x) = 0.06319 0.23079
# Poissons Ratio (y) = 0.09525 0.59444
# Poissons Ratio (z) = 0.19772 0.33788
#
# Static dielectric constant tensor:
#      x y z
#    x 3.388230 0.000000 -0.003270 
#    y 0.000000 3.501590 0.000000 
#    z -0.003270 0.000000 3.962480 
# 
# 
# High freq. dielectric constant tensor:
#      x y z
#    x 1.774970 0.000000 0.000600 
#    y 0.000000 1.777170 0.000000 
#    z 0.000600 0.000000 1.789550 
# 
# From -- ./inp_files/267695.got.cif
#   From: 2010.06.25/outbox.cif.g09.slc.cpg/sg12_134_cif.got.tgz:267695.got - 2010.06.28 00:19:55.
