data_PCOD8102045
_publ_section_title
;
Structure prediction by ZEFSAII (Michael W. Deem and Ramdas Pophale) SiO2 
 PCOD8102045
Probable space group: C 2/M
;
_chemical_formula_sum "Si O2"
_cell_formula_units_Z 64
_cell_length_a 16.419675
_cell_length_b 8.294967
_cell_length_c 22.341805
_cell_angle_alpha 90.000000
_cell_angle_beta 89.841952
_cell_angle_gamma 90.000000
_cell_volume 3042.957060
_symmetry_space_group_name_H-M "C 2/M"
_symmetry_group_IT_number 12
_symmetry_cell_setting 'monoclinic'
loop_
_space_group_symop_operation_xyz
x,y,z
-x,y,-z
-x,-y,-z
x,-y,z
1/2+x,1/2+y,z
1/2-x,1/2+y,-z
1/2-x,1/2-y,-z
1/2+x,1/2-y,z
loop_
_atom_site_type_symbol
_atom_site_label
_atom_site_fract_x
_atom_site_fract_y
_atom_site_fract_z
Si Si1 0.159833 0.191961 0.504637
Si Si2 0.580083 0.187148 0.622881
Si Si3 0.341304 0.692464 0.741840
Si Si4 0.907896 0.816011 0.619079
Si Si5 0.250471 0.808756 0.067219
Si Si6 0.087664 0.309429 0.865027
Si Si7 0.911003 0.190364 0.864259
Si Si8 0.660862 0.190640 0.744030
O O1 0.250000 0.250000 0.500000
O O2 0.125034 0.286924 0.560804
O O3 0.118009 0.260204 0.444249
O O4 0.149486 0.000000 0.512722
O O5 0.503634 0.303183 0.624626
O O6 0.634200 0.247427 0.678385
O O7 0.555360 0.000000 0.629603
O O8 0.343382 0.500000 0.737932
O O9 0.368443 0.767955 0.677840
O O10 0.400377 0.750063 0.795435
O O11 0.251162 0.757660 0.756387
O O12 0.879208 0.000000 0.617690
O O13 0.334685 0.743192 0.097144
O O14 0.167062 0.741843 0.098355
O O15 0.250287 0.000000 0.071509
O O16 0.250000 0.750000 0.000000
O O17 0.086372 0.500000 0.869228
O O18 0.100650 0.247472 0.796541
O O19 0.999247 0.248758 0.888631
O O20 0.909781 0.000000 0.868671
O O21 0.664110 0.000000 0.746725
#
# Coordination Sequence:
#
# PCOD8102045 Si02
#       8
#     8   8   8   8   8   8   8   8
#     4  11  23  39  57  78 106 143 188 235 287 347
#     4  11  22  35  55  82 111 146 187 232 286 341
#     4   9  16  32  58  82 108 145 189 235 283 339
#     4  10  21  36  55  79 108 145 187 231 284 342
#     4  10  22  40  61  86 118 157 195 234 284 344
#     4  10  20  37  61  87 117 154 196 240 290 343
#     4  10  20  36  60  88 116 150 194 240 289 342
#     4   9  17  33  57  83 112 148 191 236 283 341
#
# _framework density 21.032173
#
# number of rings (size 3 to 8) (size 9 to 14) (size 15 to 20)
#    0.000    2.000    1.250    2.625    0.000    6.000 
#    0.000    3.125    0.000    2.250    0.000    0.000 
#    0.000    0.000    0.000    0.000    0.000    0.000 
#
# Total GULP energy -396600.113515 kJ/mol
# GULP energy per Si atom -12393.753547 kJ/mol
# Density = 2.098430 g / cm^3
# Si number density = 21.032173 Si / 1000 Ang^3
#
#
#
# Elastic Constant Matrix: (Units=GPa)
#
#
# Indices 1 2 3 4 5 6 
#
# 1 173.4559 7.3339 71.2929 0.0000 2.2669 0.0000
# 2 7.3339 17.3131 15.3357 0.0000 4.2576 0.0000
# 3 71.2929 15.3357 162.3798 0.0000 1.4943 0.0000
# 4 0.0000 0.0000 0.0000 24.7254 0.0000 -0.7774
# 5 2.2669 4.2576 1.4943 0.0000 32.9101 0.0000
# 6 0.0000 0.0000 0.0000 -0.7774 0.0000 29.0146
#
#
#
# Elastic Compliance Matrix: (Units=1/GPa)
#
#
# Indices 1 2 3 4 5 6 
#
# 1 0.007039 -0.000183 -0.003070 0.000000 -0.000322 0.000000
# 2 -0.000183 0.065153 -0.005998 0.000000 -0.008144 0.000000
# 3 -0.003070 -0.005998 0.008067 0.000000 0.000621 0.000000
# 4 0.000000 0.000000 0.000000 0.040478 0.000000 0.001085
# 5 -0.000322 -0.008144 0.000621 0.000000 0.031433 0.000000
# 6 0.000000 0.000000 0.000000 0.001085 0.000000 0.034494
#
#
# Mechanical properties :
#
#
# Convention : Reuss Voigt Hill
#
# Bulk Modulus (GPa) = 16.19256 60.11930 38.15593
# Shear Modulus (GPa) = 22.14806 34.60912 28.37859
#
# Velocity S-wave (km/s) = 3.24860 4.06092 3.67726
# Velocity P-wave (km/s) = 4.66764 7.11580 6.01753
#
# Compressibility (1/GPa) = 0.06175676
#
# Stress axis : x y z
#
# Youngs Moduli (GPa) = 142.06543 15.34846 123.95971
#
# Poissons Ratio (x) = 0.00281 0.38058
# Poissons Ratio (y) = 0.02601 0.74350
# Poissons Ratio (z) = 0.43617 0.09206
#
# Static dielectric constant tensor:
#      x y z
#    x 4.039040 0.000000 0.063370 
#    y 0.000000 13.703770 0.000000 
#    z 0.063370 0.000000 3.771600 
# 
# 
# High freq. dielectric constant tensor:
#      x y z
#    x 1.837770 0.000000 0.000070 
#    y 0.000000 1.780210 0.000000 
#    z 0.000070 0.000000 1.836110 
# 
# From -- ./inp_files/338840.got.cif
#   From: 2010.06.25/outbox.cif.g09.slc.cpg/sg12_170_cif.got.tgz:338840.got - 2010.06.28 00:19:55.
