data_PCOD8102569
_publ_section_title
;
Structure prediction by ZEFSAII (Michael W. Deem and Ramdas Pophale) SiO2 
 PCOD8102569
Probable space group: C 2/M
;
_chemical_formula_sum "Si O2"
_cell_formula_units_Z 44
_cell_length_a 9.138521
_cell_length_b 23.800378
_cell_length_c 12.174379
_cell_angle_alpha 90.000000
_cell_angle_beta 123.274248
_cell_angle_gamma 90.000000
_cell_volume 2213.813012
_symmetry_space_group_name_H-M "C 2/M"
_symmetry_group_IT_number 12
_symmetry_cell_setting 'monoclinic'
loop_
_space_group_symop_operation_xyz
x,y,z
-x,y,-z
-x,-y,-z
x,-y,z
1/2+x,1/2+y,z
1/2-x,1/2+y,-z
1/2-x,1/2-y,-z
1/2+x,1/2-y,z
loop_
_atom_site_type_symbol
_atom_site_label
_atom_site_fract_x
_atom_site_fract_y
_atom_site_fract_z
Si Si1 0.082353 0.614844 0.257646
Si Si2 0.134155 0.898440 0.465324
Si Si3 0.398102 0.500000 0.072405
Si Si4 0.794529 0.500000 0.403049
Si Si5 0.639829 0.609811 0.810485
Si Si6 0.389190 0.000000 0.207926
Si Si7 0.149335 0.692264 0.972049
O O1 0.214567 0.636972 0.408624
O O2 0.187381 0.598582 0.190944
O O3 0.000596 0.556835 0.267230
O O4 0.940495 0.664237 0.173718
O O5 0.000000 0.924400 0.500000
O O6 0.015343 0.863000 0.329377
O O7 0.220338 0.946338 0.430897
O O8 0.432736 0.553223 0.164146
O O9 0.500000 0.500000 0.000000
O O10 0.196739 0.500000 0.947965
O O11 0.749372 0.500000 0.252892
O O12 0.000000 0.500000 0.500000
O O13 0.693126 0.651687 0.928240
O O14 0.250000 0.750000 0.000000
O O15 0.000000 0.701509 0.000000
#
# Coordination Sequence:
#
# PCOD8102569 Si02
#       7
#     8   8   4   4   8   4   8
#     4  10  20  37  61  84 112 155 194 233 285 353
#     4  10  20  37  57  81 114 161 197 228 278 347
#     4  12  23  33  50  87 125 156 189 237 288 342
#     4  12  21  32  50  86 132 157 187 229 286 342
#     4  10  21  37  60  83 114 152 199 233 282 354
#     4  12  21  33  54  86 125 155 187 234 288 338
#     4  10  22  42  62  85 110 148 198 249 296 346
#
# _framework density 19.875212000000001
#
# number of rings (size 3 to 8) (size 9 to 14) (size 15 to 20)
#    0.000    1.455    3.636    2.455    0.000    4.364 
#    3.273    0.909    0.000    0.000    0.000    0.000 
#    0.000    0.000    0.000    0.000    0.000    0.000 
#
# Total GULP energy -272558.849159 kJ/mol
# GULP energy per Si atom -12389.038598 kJ/mol
# Density = 1.982998 g / cm^3
# Si number density = 19.875212 Si / 1000 Ang^3
#
#
#
# Elastic Constant Matrix: (Units=GPa)
#
#
# Indices 1 2 3 4 5 6 
#
# 1 67.0954 38.4212 37.5069 0.0000 3.4145 0.0000
# 2 38.4212 109.8940 55.4123 0.0000 9.9783 0.0000
# 3 37.5069 55.4123 188.6960 0.0000 25.5352 0.0000
# 4 0.0000 0.0000 0.0000 14.3539 0.0000 4.1916
# 5 3.4145 9.9783 25.5352 0.0000 31.0884 0.0000
# 6 0.0000 0.0000 0.0000 4.1916 0.0000 28.4458
#
#
#
# Elastic Compliance Matrix: (Units=1/GPa)
#
#
# Indices 1 2 3 4 5 6 
#
# 1 0.019451 -0.005739 -0.002409 0.000000 0.001684 0.000000
# 2 -0.005739 0.012400 -0.002303 0.000000 -0.001458 0.000000
# 3 -0.002409 -0.002303 0.007109 0.000000 -0.004835 0.000000
# 4 0.000000 0.000000 0.000000 0.072800 0.000000 -0.010727
# 5 0.001684 -0.001458 -0.004835 0.000000 0.036421 0.000000
# 6 0.000000 0.000000 0.000000 -0.010727 0.000000 0.036735
#
#
# Mechanical properties :
#
#
# Convention : Reuss Voigt Hill
#
# Bulk Modulus (GPa) = 55.37722 69.81846 62.59784
# Shear Modulus (GPa) = 23.60289 30.40061 27.00175
#
# Velocity S-wave (km/s) = 3.44983 3.91522 3.68987
# Velocity P-wave (km/s) = 6.61750 7.45944 7.05105
#
# Compressibility (1/GPa) = 0.01805797
#
# Stress axis : x y z
#
# Youngs Moduli (GPa) = 51.41030 80.64588 140.66460
#
# Poissons Ratio (x) = 0.46281 0.33886
# Poissons Ratio (y) = 0.29504 0.32400
# Poissons Ratio (z) = 0.12385 0.18576
#
# Static dielectric constant tensor:
#      x y z
#    x 3.827430 0.000000 0.209090 
#    y 0.000000 3.505170 0.000000 
#    z 0.209090 0.000000 4.555060 
# 
# 
# High freq. dielectric constant tensor:
#      x y z
#    x 1.780850 0.000000 0.014480 
#    y 0.000000 1.717840 0.000000 
#    z 0.014480 0.000000 1.811640 
# 
# From -- ./inp_files/121806.got.cif
#   From: 2010.06.25/outbox.cif.g09.slc.cpg/sg12_61_cif.got.tgz:121806.got - 2010.06.28 00:19:55.
