data_PCOD8102576
_publ_section_title
;
Structure prediction by ZEFSAII (Michael W. Deem and Ramdas Pophale) SiO2 
 PCOD8102576
Probable space group: C 2/M
;
_chemical_formula_sum "Si O2"
_cell_formula_units_Z 48
_cell_length_a 10.754029
_cell_length_b 25.169538
_cell_length_c 9.857913
_cell_angle_alpha 90.000000
_cell_angle_beta 110.111237
_cell_angle_gamma 90.000000
_cell_volume 2505.586679
_symmetry_space_group_name_H-M "C 2/M"
_symmetry_group_IT_number 12
_symmetry_cell_setting 'monoclinic'
loop_
_space_group_symop_operation_xyz
x,y,z
-x,y,-z
-x,-y,-z
x,-y,z
1/2+x,1/2+y,z
1/2-x,1/2+y,-z
1/2-x,1/2-y,-z
1/2+x,1/2-y,z
loop_
_atom_site_type_symbol
_atom_site_label
_atom_site_fract_x
_atom_site_fract_y
_atom_site_fract_z
Si Si1 0.562569 0.000000 0.302401
Si Si2 0.500000 0.916566 0.500000
Si Si3 0.259852 0.395874 0.728860
Si Si4 0.721119 0.000000 0.888051
Si Si5 0.482619 0.607005 0.339149
Si Si6 0.175750 0.000000 0.772898
Si Si7 0.311429 0.716683 0.841051
Si Si8 0.420359 0.714571 0.179646
O O1 0.562089 0.949765 0.400431
O O2 0.437197 0.000000 0.153464
O O3 0.688320 0.000000 0.255540
O O4 0.620799 0.882492 0.603384
O O5 0.261953 0.448357 0.819702
O O6 0.371061 0.404105 0.658607
O O7 0.286322 0.345973 0.833330
O O8 0.798369 0.000000 0.057473
O O9 0.500000 0.625727 0.500000
O O10 0.401789 0.552681 0.297903
O O11 0.409523 0.653703 0.226673
O O12 0.423195 0.731517 0.767998
O O13 0.175394 0.749461 0.760335
O O14 0.367063 0.726170 0.010468
#
# Coordination Sequence:
#
# PCOD8102576 Si02
#       8
#     4   4   8   4   8   4   8   8
#     4   9  19  35  53  77 115 149 179 224 271 325
#     4   9  18  36  56  74 108 152 186 215 270 340
#     4  10  20  37  57  82 108 148 186 226 274 337
#     4  10  21  36  57  84 113 141 190 230 272 330
#     4  11  23  37  55  83 116 145 182 230 278 332
#     4  12  22  35  57  84 113 149 181 229 284 331
#     4   9  18  37  61  81 108 143 190 231 282 329
#     4   9  19  38  58  82 110 145 184 237 280 329
#
# _framework density 19.15719
#
# number of rings (size 3 to 8) (size 9 to 14) (size 15 to 20)
#    0.000    2.167    0.000    3.500    0.000    2.667 
#   10.500    1.667    0.000    0.000    0.000    0.000 
#    0.000    0.000    0.000    0.000    0.000    0.000 
#
# Total GULP energy -297430.551196 kJ/mol
# GULP energy per Si atom -12392.939633 kJ/mol
# Density = 1.911359 g / cm^3
# Si number density = 19.157190 Si / 1000 Ang^3
#
#
#
# Elastic Constant Matrix: (Units=GPa)
#
#
# Indices 1 2 3 4 5 6 
#
# 1 157.4386 71.1138 25.4257 0.0000 -7.9791 0.0000
# 2 71.1138 103.3507 6.5068 0.0000 -5.0570 0.0000
# 3 25.4257 6.5068 52.7156 0.0000 -1.7614 0.0000
# 4 0.0000 0.0000 0.0000 13.6793 0.0000 10.4438
# 5 -7.9791 -5.0570 -1.7614 0.0000 21.8756 0.0000
# 6 0.0000 0.0000 0.0000 10.4438 0.0000 32.8737
#
#
#
# Elastic Compliance Matrix: (Units=1/GPa)
#
#
# Indices 1 2 3 4 5 6 
#
# 1 0.010060 -0.006582 -0.003979 0.000000 0.001827 0.000000
# 2 -0.006582 0.014161 0.001460 0.000000 0.000990 0.000000
# 3 -0.003979 0.001460 0.020727 0.000000 0.000555 0.000000
# 4 0.000000 0.000000 0.000000 0.096513 0.000000 -0.030662
# 5 0.001827 0.000990 0.000555 0.000000 0.046653 0.000000
# 6 0.000000 0.000000 0.000000 -0.030662 0.000000 0.040160
#
#
# Mechanical properties :
#
#
# Convention : Reuss Voigt Hill
#
# Bulk Modulus (GPa) = 37.38804 57.73306 47.56055
# Shear Modulus (GPa) = 19.57775 27.71630 23.64702
#
# Velocity S-wave (km/s) = 3.20027 3.80779 3.51717
# Velocity P-wave (km/s) = 5.76320 7.03806 6.43229
#
# Compressibility (1/GPa) = 0.02674652
#
# Stress axis : x y z
#
# Youngs Moduli (GPa) = 99.40425 70.61439 48.24618
#
# Poissons Ratio (x) = 0.46480 0.19195
# Poissons Ratio (y) = 0.65430 -0.07043
# Poissons Ratio (z) = 0.39549 -0.10308
#
# Static dielectric constant tensor:
#      x y z
#    x 3.966060 0.000000 0.062000 
#    y 0.000000 3.398420 0.000000 
#    z 0.062000 0.000000 3.463210 
# 
# 
# High freq. dielectric constant tensor:
#      x y z
#    x 1.765300 0.000000 0.001530 
#    y 0.000000 1.735010 0.000000 
#    z 0.001530 0.000000 1.734920 
# 
# From -- ./inp_files/51535.got.cif
#   From: 2010.06.25/outbox.cif.g09.slc.cpg/sg12_26_cif.got.tgz:51535.got - 2010.06.28 00:19:55.
