data_PCOD8102264
_publ_section_title
;
Structure prediction by ZEFSAII (Michael W. Deem and Ramdas Pophale) SiO2 
 PCOD8102264
Probable space group: C 2/M
;
_chemical_formula_sum "Si O2"
_cell_formula_units_Z 56
_cell_length_a 29.844810
_cell_length_b 8.508202
_cell_length_c 11.164327
_cell_angle_alpha 90.000000
_cell_angle_beta 113.570370
_cell_angle_gamma 90.000000
_cell_volume 2598.391750
_symmetry_space_group_name_H-M "C 2/M"
_symmetry_group_IT_number 12
_symmetry_cell_setting 'monoclinic'
loop_
_space_group_symop_operation_xyz
x,y,z
-x,y,-z
-x,-y,-z
x,-y,z
1/2+x,1/2+y,z
1/2-x,1/2+y,-z
1/2-x,1/2-y,-z
1/2+x,1/2-y,z
loop_
_atom_site_type_symbol
_atom_site_label
_atom_site_fract_x
_atom_site_fract_y
_atom_site_fract_z
Si Si1 0.275792 0.817172 0.647039
Si Si2 0.734193 0.817086 0.852837
Si Si3 0.129262 0.817380 0.727701
Si Si4 0.421336 0.685251 0.087548
Si Si5 0.626778 0.679069 0.191680
Si Si6 0.450542 0.819781 0.506969
Si Si7 0.529266 0.679073 0.230450
O O1 0.250000 0.750000 0.500000
O O2 0.260387 0.749901 0.761101
O O3 0.333825 0.783748 0.695156
O O4 0.264364 0.000000 0.635914
O O5 0.677219 0.787268 0.773451
O O6 0.746170 0.000000 0.869067
O O7 0.750000 0.750000 0.000000
O O8 0.095735 0.757579 0.801021
O O9 0.096329 0.785495 0.576668
O O10 0.144066 0.000000 0.751692
O O11 0.418321 0.500000 0.072365
O O12 0.477213 0.737491 0.121506
O O13 0.381197 0.750086 0.950255
O O14 0.646314 0.500000 0.215265
O O15 0.571672 0.687789 0.179718
O O16 0.500000 0.753454 0.500000
O O17 0.455943 0.802569 0.653354
O O18 0.441409 0.000000 0.460657
O O19 0.523743 0.500000 0.274276
#
# Coordination Sequence:
#
# PCOD8102264 Si02
#       7
#     8   8   8   8   8   8   8
#     4  12  27  48  71  97 132 177 228 283 344 404
#     4  12  26  47  73 103 137 173 222 280 340 408
#     4  11  22  38  65  95 127 168 216 265 323 389
#     4   9  18  35  61  94 128 164 206 255 308 377
#     4  10  21  39  65  94 127 164 209 264 324 388
#     4  11  23  38  56  84 125 170 214 267 323 377
#     4  10  20  36  61  91 124 166 212 257 311 385
#
# _framework density 21.551791999999999
#
# number of rings (size 3 to 8) (size 9 to 14) (size 15 to 20)
#    0.000    1.286    1.429    4.714    2.000    4.000 
#    0.000    1.429    0.000    1.714    0.000    0.000 
#    0.000    0.000    0.000    0.000    0.000    0.000 
#
# Total GULP energy -347055.971891 kJ/mol
# GULP energy per Si atom -12394.856139 kJ/mol
# Density = 2.150274 g / cm^3
# Si number density = 21.551792 Si / 1000 Ang^3
#
#
#
# Elastic Constant Matrix: (Units=GPa)
#
#
# Indices 1 2 3 4 5 6 
#
# 1 90.1288 27.2326 37.6503 0.0000 14.9667 0.0000
# 2 27.2326 94.5810 36.1493 0.0000 -4.2958 0.0000
# 3 37.6503 36.1493 143.0222 0.0000 10.0615 0.0000
# 4 0.0000 0.0000 0.0000 29.7251 0.0000 0.1019
# 5 14.9667 -4.2958 10.0615 0.0000 38.6672 0.0000
# 6 0.0000 0.0000 0.0000 0.1019 0.0000 27.0917
#
#
#
# Elastic Compliance Matrix: (Units=1/GPa)
#
#
# Indices 1 2 3 4 5 6 
#
# 1 0.013986 -0.003311 -0.002484 0.000000 -0.005135 0.000000
# 2 -0.003311 0.012659 -0.002564 0.000000 0.003355 0.000000
# 3 -0.002484 -0.002564 0.008400 0.000000 -0.001509 0.000000
# 4 0.000000 0.000000 0.000000 0.033642 0.000000 -0.000126
# 5 -0.005135 0.003355 -0.001509 0.000000 0.028615 0.000000
# 6 0.000000 0.000000 0.000000 -0.000126 0.000000 0.036912
#
#
# Mechanical properties :
#
#
# Convention : Reuss Voigt Hill
#
# Bulk Modulus (GPa) = 54.56307 58.86625 56.71466
# Shear Modulus (GPa) = 31.83916 34.21014 33.02465
#
# Velocity S-wave (km/s) = 3.84778 3.98847 3.91876
# Velocity P-wave (km/s) = 6.71660 6.97020 6.84457
#
# Compressibility (1/GPa) = 0.01832742
#
# Stress axis : x y z
#
# Youngs Moduli (GPa) = 71.50083 78.99780 119.04819
#
# Poissons Ratio (x) = 0.26155 0.29568
# Poissons Ratio (y) = 0.23673 0.30523
# Poissons Ratio (z) = 0.17758 0.20255
#
# Static dielectric constant tensor:
#      x y z
#    x 4.100220 0.000000 -0.086830 
#    y 0.000000 3.689110 0.000000 
#    z -0.086830 0.000000 4.123300 
# 
# 
# High freq. dielectric constant tensor:
#      x y z
#    x 1.853850 0.000000 0.008160 
#    y 0.000000 1.823920 0.000000 
#    z 0.008160 0.000000 1.862080 
# 
# From -- ./inp_files/187750.got.cif
#   From: 2010.06.25/outbox.cif.g09.slc.cpg/sg12_94_cif.got.tgz:187750.got - 2010.06.28 00:19:55.
