data_PCOD8102552
_publ_section_title
;
Structure prediction by ZEFSAII (Michael W. Deem and Ramdas Pophale) SiO2 
 PCOD8102552
Probable space group: C 2/M
;
_chemical_formula_sum "Si O2"
_cell_formula_units_Z 56
_cell_length_a 18.422906
_cell_length_b 27.918305
_cell_length_c 9.653885
_cell_angle_alpha 90.000000
_cell_angle_beta 33.570081
_cell_angle_gamma 90.000000
_cell_volume 2745.619178
_symmetry_space_group_name_H-M "C 2/M"
_symmetry_group_IT_number 12
_symmetry_cell_setting 'monoclinic'
loop_
_space_group_symop_operation_xyz
x,y,z
-x,y,-z
-x,-y,-z
x,-y,z
1/2+x,1/2+y,z
1/2-x,1/2+y,-z
1/2-x,1/2-y,-z
1/2+x,1/2-y,z
loop_
_atom_site_type_symbol
_atom_site_label
_atom_site_fract_x
_atom_site_fract_y
_atom_site_fract_z
Si Si1 0.096477 0.445329 0.040944
Si Si2 0.280686 0.390332 0.568423
Si Si3 0.798820 0.286418 0.234328
Si Si4 0.000136 0.946264 0.658508
Si Si5 0.928764 0.278387 0.324381
Si Si6 0.365542 0.116680 0.464877
Si Si7 0.298712 0.052893 0.824137
O O1 0.050369 0.500000 0.105852
O O2 0.159765 0.432277 0.088336
O O3 0.975068 0.410780 0.201804
O O4 0.202109 0.435504 0.754446
O O5 0.235815 0.342617 0.722325
O O6 0.430334 0.405290 0.359766
O O7 0.262683 0.384355 0.431017
O O8 0.866277 0.276351 0.272841
O O9 0.657632 0.258857 0.444942
O O10 0.911350 0.269958 0.941904
O O11 0.000000 0.929385 0.500000
O O12 0.063078 0.000000 0.569166
O O13 0.855593 0.947971 0.947798
O O14 0.908233 0.329476 0.428853
O O15 0.354185 0.091188 0.629680
O O16 0.355252 0.000000 0.697761
#
# Coordination Sequence:
#
# PCOD8102552 Si02
#       7
#     8   8   8   8   8   8   8
#     4  11  21  36  58  83 117 158 192 226 281 353
#     4  11  21  35  59  87 113 145 194 243 288 338
#     4   9  18  34  56  84 113 150 193 240 295 356
#     4  10  20  37  57  77 110 156 198 232 277 347
#     4   9  18  34  56  81 117 152 188 239 298 355
#     4  11  22  35  55  89 120 144 185 245 296 336
#     4  10  22  38  56  81 116 159 198 230 280 352
#
# _framework density 20.396128000000001
#
# number of rings (size 3 to 8) (size 9 to 14) (size 15 to 20)
#    0.000    1.857    2.857    1.714    0.000    5.714 
#    0.000    4.286    0.000    2.571    0.000    0.000 
#    0.000    0.000    0.000    0.000    0.000    0.000 
#
# Total GULP energy -346994.239783 kJ/mol
# GULP energy per Si atom -12392.651421 kJ/mol
# Density = 2.034971 g / cm^3
# Si number density = 20.396128 Si / 1000 Ang^3
#
#
#
# Elastic Constant Matrix: (Units=GPa)
#
#
# Indices 1 2 3 4 5 6 
#
# 1 51.0074 22.8231 10.4928 0.0000 -8.7544 0.0000
# 2 22.8231 89.2831 24.9437 0.0000 -10.5630 0.0000
# 3 10.4928 24.9437 70.5035 0.0000 -11.7909 0.0000
# 4 0.0000 0.0000 0.0000 50.6998 0.0000 17.8505
# 5 -8.7544 -10.5630 -11.7909 0.0000 32.0602 0.0000
# 6 0.0000 0.0000 0.0000 17.8505 0.0000 28.7864
#
#
#
# Elastic Compliance Matrix: (Units=1/GPa)
#
#
# Indices 1 2 3 4 5 6 
#
# 1 0.022784 -0.005076 -0.000889 0.000000 0.004222 0.000000
# 2 -0.005076 0.013773 -0.003826 0.000000 0.001745 0.000000
# 3 -0.000889 -0.003826 0.016429 0.000000 0.004539 0.000000
# 4 0.000000 0.000000 0.000000 0.025233 0.000000 -0.015647
# 5 0.004222 0.001745 0.004539 0.000000 0.034588 0.000000
# 6 0.000000 0.000000 0.000000 -0.015647 0.000000 0.044441
#
#
# Mechanical properties :
#
#
# Convention : Reuss Voigt Hill
#
# Bulk Modulus (GPa) = 29.93640 36.36812 33.15226
# Shear Modulus (GPa) = 26.60078 32.47823 29.53951
#
# Velocity S-wave (km/s) = 3.61530 3.99478 3.80977
# Velocity P-wave (km/s) = 5.66891 6.25678 5.97009
#
# Compressibility (1/GPa) = 0.03340415
#
# Stress axis : x y z
#
# Youngs Moduli (GPa) = 43.89073 72.60489 60.86979
#
# Poissons Ratio (x) = 0.36857 0.05410
# Poissons Ratio (y) = 0.22280 0.23286
# Poissons Ratio (z) = 0.03901 0.27775
#
# Static dielectric constant tensor:
#      x y z
#    x 3.493590 0.000000 -0.323980 
#    y 0.000000 3.784220 0.000000 
#    z -0.323980 0.000000 3.871820 
# 
# 
# High freq. dielectric constant tensor:
#      x y z
#    x 1.770960 0.000000 -0.016770 
#    y 0.000000 1.791990 0.000000 
#    z -0.016770 0.000000 1.795060 
# 
# From -- ./inp_files/53287.got.cif
#   From: 2010.06.25/outbox.cif.g09.slc.cpg/sg12_27_cif.got.tgz:53287.got - 2010.06.28 00:19:55.
