data_PCOD8102665
_publ_section_title
;
Structure prediction by ZEFSAII (Michael W. Deem and Ramdas Pophale) SiO2 
 PCOD8102665
Probable space group: C 2/M
;
_chemical_formula_sum "Si O2"
_cell_formula_units_Z 40
_cell_length_a 9.031897
_cell_length_b 9.947611
_cell_length_c 31.234116
_cell_angle_alpha 90.000000
_cell_angle_beta 41.903580
_cell_angle_gamma 90.000000
_cell_volume 1874.238336
_symmetry_space_group_name_H-M "C 2/M"
_symmetry_group_IT_number 12
_symmetry_cell_setting 'monoclinic'
loop_
_space_group_symop_operation_xyz
x,y,z
-x,y,-z
-x,-y,-z
x,-y,z
1/2+x,1/2+y,z
1/2-x,1/2+y,-z
1/2-x,1/2-y,-z
1/2+x,1/2-y,z
loop_
_atom_site_type_symbol
_atom_site_label
_atom_site_fract_x
_atom_site_fract_y
_atom_site_fract_z
Si Si1 0.520848 0.352324 0.324606
Si Si2 0.751985 0.649925 0.538518
Si Si3 0.749516 0.347705 0.959978
Si Si4 0.520892 0.647448 0.845445
Si Si5 0.003636 0.271541 0.760826
O O1 0.419438 0.500000 0.344056
O O2 0.402515 0.283487 0.390942
O O3 0.787171 0.363588 0.271988
O O4 0.447952 0.284424 0.296423
O O5 0.663103 0.500000 0.544964
O O6 0.750000 0.750000 0.500000
O O7 0.000000 0.636501 0.500000
O O8 0.845176 0.500000 0.948127
O O9 0.889159 0.273943 0.893104
O O10 0.500000 0.365662 0.000000
O O11 0.750000 0.250000 0.000000
O O12 0.424771 0.500000 0.879429
O O13 0.497816 0.657024 0.798962
O O14 0.772649 0.648395 0.808679
#
# Coordination Sequence:
#
# PCOD8102665 Si02
#       5
#     8   8   8   8   8
#     4  10  20  37  58  81 115 155 193 238 291 345
#     4  10  21  37  58  85 116 152 196 244 293 347
#     4  11  25  43  64  90 120 155 195 239 287 342
#     4  11  23  39  61  89 119 152 193 239 288 345
#     4  10  22  37  58  86 117 152 194 238 288 345
#
# _framework density 21.342002000000001
#
# number of rings (size 3 to 8) (size 9 to 14) (size 15 to 20)
#    0.000    1.600    0.000    4.200    0.000   10.000 
#    0.000    5.000    0.000    0.000    0.000    0.000 
#    0.000    0.000    0.000    0.000    0.000    0.000 
#
# Total GULP energy -247841.811794 kJ/mol
# GULP energy per Si atom -12392.090590 kJ/mol
# Density = 2.129343 g / cm^3
# Si number density = 21.342002 Si / 1000 Ang^3
#
#
#
# Elastic Constant Matrix: (Units=GPa)
#
#
# Indices 1 2 3 4 5 6 
#
# 1 86.9571 31.7908 25.6305 -0.0001 12.3185 -0.0001
# 2 31.7908 149.6066 55.4863 0.0001 19.1661 0.0000
# 3 25.6305 55.4863 124.6919 0.0003 11.8126 0.0000
# 4 -0.0001 0.0001 0.0003 22.6842 0.0001 -6.8944
# 5 12.3185 19.1661 11.8126 0.0001 39.9053 0.0001
# 6 -0.0001 0.0000 0.0000 -6.8944 0.0001 10.2448
#
#
#
# Elastic Compliance Matrix: (Units=1/GPa)
#
#
# Indices 1 2 3 4 5 6 
#
# 1 0.013020 -0.001828 -0.001610 0.000000 -0.002665 0.000000
# 2 -0.001828 0.008595 -0.003201 0.000000 -0.002616 0.000000
# 3 -0.001610 -0.003201 0.009859 0.000000 -0.000884 0.000000
# 4 0.000000 0.000000 0.000000 0.055418 0.000000 0.037295
# 5 -0.002665 -0.002616 -0.000884 0.000000 0.027400 0.000000
# 6 0.000000 0.000000 0.000000 0.037295 0.000000 0.122709
#
#
# Mechanical properties :
#
#
# Convention : Reuss Voigt Hill
#
# Bulk Modulus (GPa) = 54.95973 65.23009 60.09491
# Shear Modulus (GPa) = 19.50490 31.12339 25.31414
#
# Velocity S-wave (km/s) = 3.02639 3.82293 3.44774
# Velocity P-wave (km/s) = 6.16603 7.07933 6.63841
#
# Compressibility (1/GPa) = 0.01819514
#
# Stress axis : x y z
#
# Youngs Moduli (GPa) = 76.80242 116.34601 101.43056
#
# Poissons Ratio (x) = 0.21270 0.16335
# Poissons Ratio (y) = 0.14041 0.32469
# Poissons Ratio (z) = 0.12369 0.37243
#
# Static dielectric constant tensor:
#      x y z
#    x 3.805040 0.000000 0.015620 
#    y 0.000000 4.199990 0.000000 
#    z 0.015620 0.000000 4.104680 
# 
# 
# High freq. dielectric constant tensor:
#      x y z
#    x 1.839370 0.000000 0.001780 
#    y 0.000000 1.831580 0.000000 
#    z 0.001780 0.000000 1.849570 
# 
# From -- ./inp_files/332106.got.cif
#   From: 2010.06.25/outbox.cif.g09.slc.cpg/sg12_167_cif.got.tgz:332106.got - 2010.06.28 00:19:55.
