data_PCOD8102829
_publ_section_title
;
Structure prediction by ZEFSAII (Michael W. Deem and Ramdas Pophale) SiO2 
 PCOD8102829
Probable space group: C 2/M
;
_chemical_formula_sum "Si O2"
_cell_formula_units_Z 48
_cell_length_a 20.535980
_cell_length_b 8.530514
_cell_length_c 17.405689
_cell_angle_alpha 90.000000
_cell_angle_beta 126.157575
_cell_angle_gamma 90.000000
_cell_volume 2461.893169
_symmetry_space_group_name_H-M "C 2/M"
_symmetry_group_IT_number 12
_symmetry_cell_setting 'monoclinic'
loop_
_space_group_symop_operation_xyz
x,y,z
-x,y,-z
-x,-y,-z
x,-y,z
1/2+x,1/2+y,z
1/2-x,1/2+y,-z
1/2-x,1/2-y,-z
1/2+x,1/2-y,z
loop_
_atom_site_type_symbol
_atom_site_label
_atom_site_fract_x
_atom_site_fract_y
_atom_site_fract_z
Si Si1 0.473144 0.817539 0.094323
Si Si2 0.449975 0.686566 0.393070
Si Si3 0.304329 0.181880 0.604423
Si Si4 0.231651 0.818634 0.719478
Si Si5 0.117475 0.818291 0.104004
Si Si6 0.520590 0.316080 0.281506
O O1 0.562420 0.780937 0.124279
O O2 0.467741 0.768635 0.179346
O O3 0.455615 0.000000 0.073253
O O4 0.405608 0.723484 0.999560
O O5 0.500000 0.755821 0.500000
O O6 0.451129 0.500000 0.398110
O O7 0.358381 0.748090 0.332693
O O8 0.490861 0.746968 0.343185
O O9 0.250000 0.250000 0.500000
O O10 0.255998 0.208118 0.648807
O O11 0.386023 0.279108 0.664409
O O12 0.323958 0.000000 0.603802
O O13 0.289496 0.722582 0.816777
O O14 0.236850 0.000000 0.746455
O O15 0.100876 0.000000 0.107806
O O16 0.506550 0.500000 0.264017
#
# Coordination Sequence:
#
# PCOD8102829 Si02
#       6
#     8   8   8   8   8   8
#     4  11  21  36  58  85 118 154 191 233 291 352
#     4   9  19  37  60  84 114 157 198 237 286 346
#     4  11  22  35  56  83 114 149 192 243 293 345
#     4  10  20  37  59  84 115 154 196 235 288 349
#     4  11  21  35  58  88 118 149 190 240 294 342
#     4  11  21  36  59  87 117 149 194 243 290 344
#
# _framework density 19.49719
#
# number of rings (size 3 to 8) (size 9 to 14) (size 15 to 20)
#    0.000    1.500    1.667    6.000    0.000    3.333 
#    0.000    2.500    0.000    3.500    0.000    0.000 
#    0.000    0.000    0.000    0.000    0.000    0.000 
#
# Total GULP energy -297709.479348 kJ/mol
# GULP energy per Si atom -12404.561640 kJ/mol
# Density = 1.945281 g / cm^3
# Si number density = 19.497190 Si / 1000 Ang^3
#
#
#
# Elastic Constant Matrix: (Units=GPa)
#
#
# Indices 1 2 3 4 5 6 
#
# 1 76.5864 18.9892 36.8102 0.0000 -4.4999 0.0000
# 2 18.9892 64.3401 23.5609 0.0000 -1.5548 0.0000
# 3 36.8102 23.5609 144.5035 0.0000 -3.6558 0.0000
# 4 0.0000 0.0000 0.0000 33.6223 0.0000 -0.7131
# 5 -4.4999 -1.5548 -3.6558 0.0000 36.2466 0.0000
# 6 0.0000 0.0000 0.0000 -0.7131 0.0000 17.6166
#
#
#
# Elastic Compliance Matrix: (Units=1/GPa)
#
#
# Indices 1 2 3 4 5 6 
#
# 1 0.015599 -0.003326 -0.003395 0.000000 0.001452 0.000000
# 2 -0.003326 0.017245 -0.001961 0.000000 0.000129 0.000000
# 3 -0.003395 -0.001961 0.008113 0.000000 0.000313 0.000000
# 4 0.000000 0.000000 0.000000 0.029768 0.000000 0.001205
# 5 0.001452 0.000129 0.000313 0.000000 0.027806 0.000000
# 6 0.000000 0.000000 0.000000 0.001205 0.000000 0.056813
#
#
# Mechanical properties :
#
#
# Convention : Reuss Voigt Hill
#
# Bulk Modulus (GPa) = 42.38469 49.35009 45.86739
# Shear Modulus (GPa) = 27.68992 31.23508 29.46250
#
# Velocity S-wave (km/s) = 3.77264 4.00688 3.89152
# Velocity P-wave (km/s) = 6.38460 6.83909 6.61575
#
# Compressibility (1/GPa) = 0.02359342
#
# Stress axis : x y z
#
# Youngs Moduli (GPa) = 64.10856 57.98691 123.26398
#
# Poissons Ratio (x) = 0.19284 0.41843
# Poissons Ratio (y) = 0.21320 0.24177
# Poissons Ratio (z) = 0.21762 0.11373
#
# Static dielectric constant tensor:
#      x y z
#    x 3.494240 0.000000 -0.032940 
#    y 0.000000 3.445620 0.000000 
#    z -0.032940 0.000000 3.814730 
# 
# 
# High freq. dielectric constant tensor:
#      x y z
#    x 1.739170 0.000000 -0.002610 
#    y 0.000000 1.750650 0.000000 
#    z -0.002610 0.000000 1.779500 
# 
# From -- ./inp_files/281841.got.cif
#   From: 2010.06.25/outbox.cif.g09.slc.cpg/sg12_141_cif.got.tgz:281841.got - 2010.06.28 00:19:55.
