data_PCOD8102588
_publ_section_title
;
Structure prediction by ZEFSAII (Michael W. Deem and Ramdas Pophale) SiO2 
 PCOD8102588
Probable space group: C 2/M
;
_chemical_formula_sum "Si O2"
_cell_formula_units_Z 44
_cell_length_a 8.987557
_cell_length_b 12.409172
_cell_length_c 26.483738
_cell_angle_alpha 90.000000
_cell_angle_beta 47.842783
_cell_angle_gamma 90.000000
_cell_volume 2189.582132
_symmetry_space_group_name_H-M "C 2/M"
_symmetry_group_IT_number 12
_symmetry_cell_setting 'monoclinic'
loop_
_space_group_symop_operation_xyz
x,y,z
-x,y,-z
-x,-y,-z
x,-y,z
1/2+x,1/2+y,z
1/2-x,1/2+y,-z
1/2-x,1/2-y,-z
1/2+x,1/2-y,z
loop_
_atom_site_type_symbol
_atom_site_label
_atom_site_fract_x
_atom_site_fract_y
_atom_site_fract_z
Si Si1 0.221451 0.814909 0.705288
Si Si2 0.044193 0.235395 0.844970
Si Si3 0.647876 0.625468 0.269522
Si Si4 0.000000 0.254999 0.500000
Si Si5 0.652724 0.623775 0.919634
Si Si6 0.383887 0.879289 0.426476
O O1 0.098326 0.842608 0.784852
O O2 0.281345 0.686713 0.695019
O O3 0.429496 0.880544 0.655168
O O4 0.083974 0.845001 0.688768
O O5 0.216564 0.328834 0.807819
O O6 0.038113 0.160606 0.895316
O O7 0.834610 0.295673 0.887143
O O8 0.679322 0.500000 0.270712
O O9 0.804099 0.182654 0.554670
O O10 0.964844 0.327441 0.459352
O O11 0.726436 0.500000 0.897319
O O12 0.500000 0.635365 0.000000
O O13 0.313256 0.000000 0.453959
#
# Coordination Sequence:
#
# PCOD8102588 Si02
#       6
#     8   8   8   4   8   8
#     4  10  21  37  61  90 114 150 196 242 291 348
#     4  10  20  41  58  85 120 147 194 248 288 343
#     4  10  20  37  57  83 118 149 182 239 297 340
#     4  10  24  40  62  88 120 160 202 230 286 356
#     4  11  23  39  60  84 117 160 197 237 294 351
#     4  11  22  41  62  87 122 156 195 243 290 342
#
# _framework density 20.095158999999999
#
# number of rings (size 3 to 8) (size 9 to 14) (size 15 to 20)
#    1.091    0.545    1.818    3.273    0.000    1.455 
#    0.000    8.182    0.000    3.818    0.000    0.000 
#    0.000    0.000    0.000    0.000    0.000    0.000 
#
# Total GULP energy -272603.615142 kJ/mol
# GULP energy per Si atom -12391.073416 kJ/mol
# Density = 2.004942 g / cm^3
# Si number density = 20.095159 Si / 1000 Ang^3
#
#
#
# Elastic Constant Matrix: (Units=GPa)
#
#
# Indices 1 2 3 4 5 6 
#
# 1 57.5547 15.2447 21.6530 0.0003 -7.1495 0.0002
# 2 15.2447 97.5979 27.2085 0.0006 5.9342 0.0002
# 3 21.6530 27.2085 72.7574 0.0013 -13.2315 0.0007
# 4 0.0003 0.0006 0.0013 -47.1312 -0.0007 -24.7904
# 5 -7.1495 5.9342 -13.2315 -0.0007 28.1183 -0.0002
# 6 0.0002 0.0002 0.0007 -24.7904 -0.0002 8.8458
#
#
#
# Elastic Compliance Matrix: (Units=1/GPa)
#
#
# Indices 1 2 3 4 5 6 
#
# 1 0.020066 -0.002061 -0.004587 0.000000 0.003379 0.000000
# 2 -0.002061 0.012286 -0.004974 0.000000 -0.005458 0.000000
# 3 -0.004587 -0.004974 0.018534 0.000000 0.008605 0.000000
# 4 0.000000 0.000000 0.000000 -0.008576 0.000000 -0.024034
# 5 0.003379 -0.005458 0.008605 0.000000 0.041624 0.000000
# 6 0.000000 0.000000 0.000000 -0.024034 0.000000 0.045693
#
#
# Mechanical properties :
#
#
# Convention : Reuss Voigt Hill
#
# Bulk Modulus (GPa) = 36.17445 39.56917 37.87181
# Shear Modulus (GPa) = 30.84801 8.88684 19.86743
#
# Velocity S-wave (km/s) = 3.92228 2.10523 3.14772
# Velocity P-wave (km/s) = 6.20911 5.06389 5.66551
#
# Compressibility (1/GPa) = 0.02764382
#
# Stress axis : x y z
#
# Youngs Moduli (GPa) = 49.83574 81.39022 53.95441
#
# Poissons Ratio (x) = 0.16775 0.24746
# Poissons Ratio (y) = 0.10272 0.26836
# Poissons Ratio (z) = 0.22857 0.40482
#
# Static dielectric constant tensor:
#      x y z
#    x 3.565970 0.000000 -0.159850 
#    y 0.000000 3.508710 0.000000 
#    z -0.159850 0.000000 3.693200 
# 
# 
# High freq. dielectric constant tensor:
#      x y z
#    x 1.788070 0.000000 -0.015120 
#    y 0.000000 1.774680 0.000000 
#    z -0.015120 0.000000 1.779630 
# 
# From -- ./inp_files/355452.got.cif
#   From: 2010.06.25/outbox.cif.g09.slc.cpg/sg12_178_cif.got.tgz:355452.got - 2010.06.28 00:19:55.
