data_PCOD8102749
_publ_section_title
;
Structure prediction by ZEFSAII (Michael W. Deem and Ramdas Pophale) SiO2 
 PCOD8102749
Probable space group: C 2/M
;
_chemical_formula_sum "Si O2"
_cell_formula_units_Z 56
_cell_length_a 18.594526
_cell_length_b 9.004944
_cell_length_c 20.666125
_cell_angle_alpha 90.000000
_cell_angle_beta 55.752578
_cell_angle_gamma 90.000000
_cell_volume 2860.411397
_symmetry_space_group_name_H-M "C 2/M"
_symmetry_group_IT_number 12
_symmetry_cell_setting 'monoclinic'
loop_
_space_group_symop_operation_xyz
x,y,z
-x,y,-z
-x,-y,-z
x,-y,z
1/2+x,1/2+y,z
1/2-x,1/2+y,-z
1/2-x,1/2-y,-z
1/2+x,1/2-y,z
loop_
_atom_site_type_symbol
_atom_site_label
_atom_site_fract_x
_atom_site_fract_y
_atom_site_fract_z
Si Si1 0.905300 0.325255 0.776639
Si Si2 0.906990 0.675491 0.516842
Si Si3 0.164575 0.832893 0.064161
Si Si4 0.589329 0.175924 0.632133
Si Si5 0.732871 0.675161 0.791387
Si Si6 0.408070 0.332260 0.037045
Si Si7 0.762230 0.676682 0.344488
O O1 0.907408 0.500000 0.788592
O O2 0.886053 0.248319 0.853777
O O3 0.831864 0.286219 0.760923
O O4 0.997583 0.262868 0.705160
O O5 0.891610 0.500000 0.530380
O O6 0.899783 0.732661 0.446704
O O7 0.832736 0.758005 0.594315
O O8 0.000000 0.719260 0.500000
O O9 0.187621 0.000000 0.073913
O O10 0.250000 0.750000 0.000000
O O11 0.103902 0.829729 0.032984
O O12 0.669217 0.233105 0.635802
O O13 0.585662 0.000000 0.634235
O O14 0.723184 0.500000 0.783933
O O15 0.671070 0.736446 0.880880
O O16 0.705857 0.763096 0.740773
O O17 0.416168 0.500000 0.058965
O O18 0.500000 0.247180 0.000000
O O19 0.757898 0.500000 0.345289
#
# Coordination Sequence:
#
# PCOD8102749 Si02
#       7
#     8   8   8   8   8   8   8
#     4  10  20  38  60  82 110 147 192 237 278 328
#     4  10  20  39  66  88 107 147 196 227 264 331
#     4  11  21  36  58  84 112 148 189 236 287 334
#     4   9  20  37  58  84 117 149 182 229 281 333
#     4  10  20  37  59  80 108 153 197 231 273 333
#     4   9  19  35  55  80 111 146 190 239 280 324
#     4  11  23  37  55  85 122 150 176 228 290 332
#
# _framework density 19.577601999999999
#
# number of rings (size 3 to 8) (size 9 to 14) (size 15 to 20)
#    0.000    2.000    1.429    2.143    2.000    3.143 
#    0.000    2.143    0.000    2.143    0.000    0.000 
#    0.000    0.000    0.000    0.000    0.000    0.000 
#
# Total GULP energy -347171.978548 kJ/mol
# GULP energy per Si atom -12398.999234 kJ/mol
# Density = 1.953304 g / cm^3
# Si number density = 19.577602 Si / 1000 Ang^3
#
#
#
# Elastic Constant Matrix: (Units=GPa)
#
#
# Indices 1 2 3 4 5 6 
#
# 1 128.2960 31.8795 40.9609 0.0000 -0.2638 0.0000
# 2 31.8795 41.4388 27.1238 0.0000 1.7858 -0.0002
# 3 40.9609 27.1238 108.9288 0.0000 9.1856 0.0000
# 4 0.0000 0.0000 0.0000 32.7963 0.0000 6.5562
# 5 -0.2638 1.7858 9.1856 0.0000 39.8536 0.0000
# 6 0.0000 -0.0002 0.0000 6.5562 0.0000 18.7673
#
#
#
# Elastic Compliance Matrix: (Units=1/GPa)
#
#
# Indices 1 2 3 4 5 6 
#
# 1 0.010096 -0.006298 -0.002302 0.000000 0.000880 0.000000
# 2 -0.006298 0.032765 -0.005775 0.000000 -0.000179 0.000000
# 3 -0.002302 -0.005775 0.011691 0.000000 -0.002451 0.000000
# 4 0.000000 0.000000 0.000000 0.032781 0.000000 -0.011452
# 5 0.000880 -0.000179 -0.002451 0.000000 0.025671 0.000000
# 6 0.000000 0.000000 0.000000 -0.011452 0.000000 0.057285
#
#
# Mechanical properties :
#
#
# Convention : Reuss Voigt Hill
#
# Bulk Modulus (GPa) = 38.75882 53.17691 45.96786
# Shear Modulus (GPa) = 24.08008 30.19673 27.13840
#
# Velocity S-wave (km/s) = 3.51091 3.93162 3.72721
# Velocity P-wave (km/s) = 6.02294 6.91601 6.48487
#
# Compressibility (1/GPa) = 0.02580058
#
# Stress axis : x y z
#
# Youngs Moduli (GPa) = 99.04543 30.52020 85.53666
#
# Poissons Ratio (x) = 0.19222 0.19695
# Poissons Ratio (y) = 0.62380 0.49400
# Poissons Ratio (z) = 0.22805 0.17626
#
# Static dielectric constant tensor:
#      x y z
#    x 3.605090 0.000000 -0.239800 
#    y 0.000000 3.308920 0.000000 
#    z -0.239800 0.000000 3.393650 
# 
# 
# High freq. dielectric constant tensor:
#      x y z
#    x 1.775730 0.000000 -0.000180 
#    y 0.000000 1.727680 0.000000 
#    z -0.000180 0.000000 1.777890 
# 
# From -- ./inp_files/275141.got.cif
#   From: 2010.06.25/outbox.cif.g09.slc.cpg/sg12_138_cif.got.tgz:275141.got - 2010.06.28 00:19:55.
