data_PCOD8102183
_publ_section_title
;
Structure prediction by ZEFSAII (Michael W. Deem and Ramdas Pophale) SiO2 
 PCOD8102183
Probable space group: C 2/M
;
_chemical_formula_sum "Si O2"
_cell_formula_units_Z 56
_cell_length_a 20.064238
_cell_length_b 11.083626
_cell_length_c 14.786186
_cell_angle_alpha 90.000000
_cell_angle_beta 113.053622
_cell_angle_gamma 90.000000
_cell_volume 3025.617545
_symmetry_space_group_name_H-M "C 2/M"
_symmetry_group_IT_number 12
_symmetry_cell_setting 'monoclinic'
loop_
_space_group_symop_operation_xyz
x,y,z
-x,y,-z
-x,-y,-z
x,-y,z
1/2+x,1/2+y,z
1/2-x,1/2+y,-z
1/2-x,1/2-y,-z
1/2+x,1/2-y,z
loop_
_atom_site_type_symbol
_atom_site_label
_atom_site_fract_x
_atom_site_fract_y
_atom_site_fract_z
Si Si1 0.902422 0.641349 0.623328
Si Si2 0.140151 0.762910 0.890229
Si Si3 0.067899 0.000000 0.915879
Si Si4 0.563644 0.858471 0.688779
Si Si5 0.291926 0.141385 0.909233
Si Si6 0.324499 0.141799 0.398750
Si Si7 0.600394 0.500000 0.139254
Si Si8 0.825401 0.237052 0.745958
O O1 0.904684 0.500000 0.646910
O O2 0.846886 0.669215 0.513266
O O3 0.879400 0.711464 0.700383
O O4 0.981684 0.690219 0.636749
O O5 0.096436 0.673553 0.802947
O O6 0.216803 0.790253 0.885157
O O7 0.093944 0.883509 0.875947
O O8 0.148888 0.695084 0.990348
O O9 0.981671 0.000000 0.871248
O O10 0.104440 0.000000 0.033423
O O11 0.612881 0.806081 0.633913
O O12 0.562101 0.000000 0.676624
O O13 0.318361 0.164745 0.821650
O O14 0.282347 0.000000 0.921831
O O15 0.251806 0.214347 0.340648
O O16 0.311628 0.000000 0.375578
O O17 0.642181 0.615480 0.197009
#
# Coordination Sequence:
#
# PCOD8102183 Si02
#       8
#     8   8   4   8   8   8   4   8
#     4  10  22  38  58  85 117 152 190 240 296 345
#     4  11  21  37  59  84 119 152 191 239 278 346
#     4  11  22  40  58  83 119 158 194 233 284 341
#     4  10  20  37  60  87 115 150 194 239 289 339
#     4  11  23  36  57  88 117 151 192 234 289 338
#     4  10  20  36  61  86 112 147 198 245 285 335
#     4  11  24  38  60  85 114 156 200 235 281 347
#     4  12  21  39  59  85 119 152 193 240 286 346
#
# _framework density 18.508617999999998
#
# number of rings (size 3 to 8) (size 9 to 14) (size 15 to 20)
#    0.000    1.286    4.286    2.571    0.000    1.714 
#    0.000    0.000    0.000    3.429    0.000    4.000 
#    0.000    0.000    0.000    0.000    0.000    0.000 
#
# Total GULP energy -347318.645448 kJ/mol
# GULP energy per Si atom -12404.237337 kJ/mol
# Density = 1.846649 g / cm^3
# Si number density = 18.508618 Si / 1000 Ang^3
#
#
#
# Elastic Constant Matrix: (Units=GPa)
#
#
# Indices 1 2 3 4 5 6 
#
# 1 82.8758 13.3641 18.8639 0.0000 -0.5907 0.0000
# 2 13.3641 32.9292 9.8633 0.0000 6.9454 0.0000
# 3 18.8639 9.8633 64.5258 0.0000 4.2363 0.0000
# 4 0.0000 0.0000 0.0000 25.9307 0.0000 -7.0816
# 5 -0.5907 6.9454 4.2363 0.0000 30.0008 0.0000
# 6 0.0000 0.0000 0.0000 -7.0816 0.0000 36.4481
#
#
#
# Elastic Compliance Matrix: (Units=1/GPa)
#
#
# Indices 1 2 3 4 5 6 
#
# 1 0.013638 -0.004927 -0.003358 0.000000 0.001883 0.000000
# 2 -0.004927 0.035016 -0.003405 0.000000 -0.007723 0.000000
# 3 -0.003358 -0.003405 0.017111 0.000000 -0.001694 0.000000
# 4 0.000000 0.000000 0.000000 0.040725 0.000000 0.007913
# 5 0.001883 -0.007723 -0.001694 0.000000 0.035397 0.000000
# 6 0.000000 0.000000 0.000000 0.007913 0.000000 0.028974
#
#
# Mechanical properties :
#
#
# Convention : Reuss Voigt Hill
#
# Bulk Modulus (GPa) = 23.59223 29.39039 26.49131
# Shear Modulus (GPa) = 23.99587 27.69189 25.84388
#
# Velocity S-wave (km/s) = 3.60456 3.87222 3.74078
# Velocity P-wave (km/s) = 5.48617 5.99215 5.74474
#
# Compressibility (1/GPa) = 0.04238683
#
# Stress axis : x y z
#
# Youngs Moduli (GPa) = 73.32253 28.55801 58.44187
#
# Poissons Ratio (x) = 0.14069 0.19623
# Poissons Ratio (y) = 0.36123 0.19901
# Poissons Ratio (z) = 0.24620 0.09725
#
# Static dielectric constant tensor:
#      x y z
#    x 3.553160 0.000000 0.036010 
#    y 0.000000 3.174760 0.000000 
#    z 0.036010 0.000000 3.446090 
# 
# 
# High freq. dielectric constant tensor:
#      x y z
#    x 1.728480 0.000000 0.001420 
#    y 0.000000 1.705090 0.000000 
#    z 0.001420 0.000000 1.729240 
# 
# From -- ./inp_files/223955.got.cif
#   From: 2010.06.25/outbox.cif.g09.slc.cpg/sg12_112_cif.got.tgz:223955.got - 2010.06.28 00:19:55.
