data_PCOD8102455
_publ_section_title
;
Structure prediction by ZEFSAII (Michael W. Deem and Ramdas Pophale) SiO2 
 PCOD8102455
Probable space group: C 2/M
;
_chemical_formula_sum "Si O2"
_cell_formula_units_Z 36
_cell_length_a 11.328838
_cell_length_b 15.408292
_cell_length_c 13.960948
_cell_angle_alpha 90.000000
_cell_angle_beta 41.678287
_cell_angle_gamma 90.000000
_cell_volume 1620.473902
_symmetry_space_group_name_H-M "C 2/M"
_symmetry_group_IT_number 12
_symmetry_cell_setting 'monoclinic'
loop_
_space_group_symop_operation_xyz
x,y,z
-x,y,-z
-x,-y,-z
x,-y,z
1/2+x,1/2+y,z
1/2-x,1/2+y,-z
1/2-x,1/2-y,-z
1/2+x,1/2-y,z
loop_
_atom_site_type_symbol
_atom_site_label
_atom_site_fract_x
_atom_site_fract_y
_atom_site_fract_z
Si Si1 0.327531 0.225630 0.782990
Si Si2 0.293721 0.096034 0.645144
Si Si3 0.000000 0.327800 0.000000
Si Si4 0.577934 0.900870 0.751989
Si Si5 0.357098 0.663707 0.450198
O O1 0.234436 0.169384 0.755648
O O2 0.163223 0.268529 0.938964
O O3 0.442029 0.163249 0.781029
O O4 0.438604 0.305682 0.668001
O O5 0.500000 0.112933 0.500000
O O6 0.175807 0.101935 0.621126
O O7 0.265469 0.000000 0.705679
O O8 0.068229 0.386763 0.871348
O O9 0.779992 0.883566 0.592049
O O10 0.525280 0.000000 0.760499
O O11 0.250000 0.750000 0.500000
#
# Coordination Sequence:
#
# PCOD8102455 Si02
#       5
#     8   8   4   8   8
#     4  11  23  42  64  92 122 163 205 250 302 368
#     4  11  20  35  64  98 123 148 194 260 314 354
#     4  12  27  42  61  86 126 174 210 240 293 368
#     4  11  23  42  63  90 123 161 203 255 307 356
#     4  10  20  36  64  93 119 152 201 253 304 358
#
# _framework density 22.215723000000001
#
# number of rings (size 3 to 8) (size 9 to 14) (size 15 to 20)
#    0.000    1.111    4.444    5.000    0.000    0.000 
#    0.000   10.000    0.000    0.000    0.000    0.000 
#    0.000    0.000    0.000    0.000    0.000    0.000 
#
# Total GULP energy -223121.860814 kJ/mol
# GULP energy per Si atom -12395.658934 kJ/mol
# Density = 2.216516 g / cm^3
# Si number density = 22.215723 Si / 1000 Ang^3
#
#
#
# Elastic Constant Matrix: (Units=GPa)
#
#
# Indices 1 2 3 4 5 6 
#
# 1 69.8769 37.3561 45.7146 0.0011 15.3346 -0.0006
# 2 37.3561 108.7797 49.2206 0.0005 -5.1985 -0.0002
# 3 45.7146 49.2206 114.0138 0.0035 2.5290 -0.0014
# 4 0.0011 0.0005 0.0035 18.0932 -0.0018 5.1591
# 5 15.3346 -5.1985 2.5290 -0.0018 42.1800 0.0006
# 6 -0.0006 -0.0002 -0.0014 5.1591 0.0006 30.5964
#
#
#
# Elastic Compliance Matrix: (Units=1/GPa)
#
#
# Indices 1 2 3 4 5 6 
#
# 1 0.023714 -0.005411 -0.006975 -0.000001 -0.008870 0.000000
# 2 -0.005411 0.012783 -0.003432 0.000001 0.003749 0.000000
# 3 -0.006975 -0.003432 0.013020 -0.000002 0.001332 0.000001
# 4 -0.000001 0.000001 -0.000002 0.058061 0.000003 -0.009790
# 5 -0.008870 0.003749 0.001332 0.000003 0.027315 -0.000001
# 6 0.000000 0.000000 0.000001 -0.009790 -0.000001 0.034334
#
#
# Mechanical properties :
#
#
# Convention : Reuss Voigt Hill
#
# Bulk Modulus (GPa) = 55.93043 61.91700 58.92372
# Shear Modulus (GPa) = 24.17518 28.86586 26.52052
#
# Velocity S-wave (km/s) = 3.30237 3.60855 3.45885
# Velocity P-wave (km/s) = 6.30647 6.73004 6.52170
#
# Compressibility (1/GPa) = 0.01787935
#
# Stress axis : x y z
#
# Youngs Moduli (GPa) = 42.16999 78.22730 76.80622
#
# Poissons Ratio (x) = 0.42330 0.53575
# Poissons Ratio (y) = 0.22819 0.26361
# Poissons Ratio (z) = 0.29415 0.26849
#
# Static dielectric constant tensor:
#      x y z
#    x 3.498110 -0.000040 0.241210 
#    y -0.000040 3.518840 0.000010 
#    z 0.241210 0.000010 4.102590 
# 
# 
# High freq. dielectric constant tensor:
#      x y z
#    x 1.861450 0.000000 0.008680 
#    y 0.000000 1.878440 0.000000 
#    z 0.008680 0.000000 1.860670 
# 
# From -- ./inp_files/204800.got.cif
#   From: 2010.06.25/outbox.cif.g09.slc.cpg/sg12_103_cif.got.tgz:204800.got - 2010.06.28 00:19:55.
