data_PCOD8102368
_publ_section_title
;
Structure prediction by ZEFSAII (Michael W. Deem and Ramdas Pophale) SiO2 
 PCOD8102368
Probable space group: C 2/M
;
_chemical_formula_sum "Si O2"
_cell_formula_units_Z 64
_cell_length_a 12.059763
_cell_length_b 14.132862
_cell_length_c 27.667728
_cell_angle_alpha 90.000000
_cell_angle_beta 38.375549
_cell_angle_gamma 90.000000
_cell_volume 2927.543716
_symmetry_space_group_name_H-M "C 2/M"
_symmetry_group_IT_number 12
_symmetry_cell_setting 'monoclinic'
loop_
_space_group_symop_operation_xyz
x,y,z
-x,y,-z
-x,-y,-z
x,-y,z
1/2+x,1/2+y,z
1/2-x,1/2+y,-z
1/2-x,1/2-y,-z
1/2+x,1/2-y,z
loop_
_atom_site_type_symbol
_atom_site_label
_atom_site_fract_x
_atom_site_fract_y
_atom_site_fract_z
Si Si1 0.010918 0.394508 0.362303
Si Si2 0.614680 0.389002 0.059921
Si Si3 0.605639 0.394946 0.346900
Si Si4 0.322865 0.612155 0.785640
Si Si5 0.404142 0.610521 0.229740
Si Si6 0.783452 0.340347 0.521924
Si Si7 0.486323 0.202844 0.949280
Si Si8 0.183504 0.192149 0.417639
O O1 0.028576 0.500000 0.336843
O O2 0.205717 0.343592 0.291723
O O3 0.947592 0.394676 0.440256
O O4 0.867105 0.347203 0.376200
O O5 0.592974 0.500000 0.052491
O O6 0.531302 0.368605 0.140891
O O7 0.518596 0.317066 0.055685
O O8 0.819128 0.357013 0.987212
O O9 0.681451 0.500000 0.332267
O O10 0.665220 0.358299 0.274268
O O11 0.391597 0.404549 0.419031
O O12 0.681124 0.320450 0.360499
O O13 0.301494 0.500000 0.799715
O O14 0.496559 0.649235 0.756017
O O15 0.153013 0.664786 0.863579
O O16 0.373102 0.500000 0.247245
O O17 0.750000 0.250000 0.500000
O O18 0.828001 0.302557 0.561038
O O19 0.500000 0.177657 0.000000
O O20 0.000000 0.140979 0.500000
#
# Coordination Sequence:
#
# PCOD8102368 Si02
#       8
#     8   8   8   8   8   8   8   8
#     4  10  20  36  62  92 122 164 218 265 326 390
#     4  10  22  41  66 100 140 171 211 269 322 386
#     4  11  23  42  66  92 124 166 217 272 326 377
#     4  10  22  41  66  99 130 166 223 281 322 386
#     4   9  19  39  63  91 128 168 209 268 330 384
#     4  10  21  37  54  88 122 162 208 266 318 380
#     4  11  22  40  71 102 128 175 221 255 326 394
#     4  11  22  39  62  89 122 167 216 269 322 386
#
# _framework density 21.861329999999999
#
# number of rings (size 3 to 8) (size 9 to 14) (size 15 to 20)
#    0.000    1.750    3.750    1.125    0.000    4.250 
#    2.250    2.500    0.000    8.250    0.000    0.000 
#    0.000    0.000    0.000    0.000    0.000    0.000 
#
# Total GULP energy -396503.733464 kJ/mol
# GULP energy per Si atom -12390.741671 kJ/mol
# Density = 2.181157 g / cm^3
# Si number density = 21.861330 Si / 1000 Ang^3
#
#
#
# Elastic Constant Matrix: (Units=GPa)
#
#
# Indices 1 2 3 4 5 6 
#
# 1 124.6744 26.7275 72.9533 0.0004 -17.2133 0.0000
# 2 26.7275 61.4076 24.8661 -0.0005 -6.4586 0.0003
# 3 72.9533 24.8661 133.2914 -0.0026 -15.6042 0.0011
# 4 0.0004 -0.0005 -0.0026 23.7799 0.0003 8.7969
# 5 -17.2133 -6.4586 -15.6042 0.0003 37.7971 -0.0003
# 6 0.0000 0.0003 0.0011 8.7969 -0.0003 23.2515
#
#
#
# Elastic Compliance Matrix: (Units=1/GPa)
#
#
# Indices 1 2 3 4 5 6 
#
# 1 0.012502 -0.002717 -0.006014 -0.000001 0.002746 0.000001
# 2 -0.002717 0.018315 -0.001795 0.000000 0.001151 0.000000
# 3 -0.006014 -0.001795 0.011319 0.000002 0.001628 -0.000001
# 4 -0.000001 0.000000 0.000002 0.048896 0.000000 -0.018499
# 5 0.002746 0.001151 0.001628 0.000000 0.028576 0.000000
# 6 0.000001 0.000000 -0.000001 -0.018499 0.000000 0.050007
#
#
# Mechanical properties :
#
#
# Convention : Reuss Voigt Hill
#
# Bulk Modulus (GPa) = 47.42918 63.16302 55.29610
# Shear Modulus (GPa) = 25.29148 29.95414 27.62281
#
# Velocity S-wave (km/s) = 3.40502 3.70562 3.55850
# Velocity P-wave (km/s) = 6.09930 6.87489 6.49868
#
# Compressibility (1/GPa) = 0.02108406
#
# Stress axis : x y z
#
# Youngs Moduli (GPa) = 79.98911 54.59966 88.34430
#
# Poissons Ratio (x) = 0.14836 0.53131
# Poissons Ratio (y) = 0.21735 0.15856
# Poissons Ratio (z) = 0.48106 0.09800
#
# Static dielectric constant tensor:
#      x y z
#    x 4.125340 0.000000 -0.073360 
#    y 0.000000 4.023010 0.000000 
#    z -0.073360 0.000000 3.987990 
# 
# 
# High freq. dielectric constant tensor:
#      x y z
#    x 1.856350 0.000000 -0.006780 
#    y 0.000000 1.847370 0.000000 
#    z -0.006780 0.000000 1.862650 
# 
# From -- ./inp_files/358411.got.cif
#   From: 2010.06.25/outbox.cif.g09.slc.cpg/sg12_180_cif.got.tgz:358411.got - 2010.06.28 00:19:55.
