data_PCOD8102511
_publ_section_title
;
Structure prediction by ZEFSAII (Michael W. Deem and Ramdas Pophale) SiO2 
 PCOD8102511
Probable space group: C 2/M
;
_chemical_formula_sum "Si O2"
_cell_formula_units_Z 64
_cell_length_a 19.659436
_cell_length_b 24.052145
_cell_length_c 11.204466
_cell_angle_alpha 90.000000
_cell_angle_beta 140.017316
_cell_angle_gamma 90.000000
_cell_volume 3404.293992
_symmetry_space_group_name_H-M "C 2/M"
_symmetry_group_IT_number 12
_symmetry_cell_setting 'monoclinic'
loop_
_space_group_symop_operation_xyz
x,y,z
-x,y,-z
-x,-y,-z
x,-y,z
1/2+x,1/2+y,z
1/2-x,1/2+y,-z
1/2-x,1/2-y,-z
1/2+x,1/2-y,z
loop_
_atom_site_type_symbol
_atom_site_label
_atom_site_fract_x
_atom_site_fract_y
_atom_site_fract_z
Si Si1 0.094049 0.647451 0.538187
Si Si2 0.478470 0.384423 0.105432
Si Si3 0.804178 0.936679 0.535743
Si Si4 0.734098 0.561890 0.241653
Si Si5 0.322797 0.846001 0.776224
Si Si6 0.600256 0.720153 0.862049
Si Si7 0.190125 0.758640 0.736958
Si Si8 0.509045 0.171688 0.188651
O O1 0.187713 0.607384 0.708576
O O2 0.127701 0.712057 0.579452
O O3 0.054342 0.631550 0.352337
O O4 0.000000 0.636334 0.500000
O O5 0.575776 0.415621 0.297699
O O6 0.453322 0.334935 0.161048
O O7 0.500000 0.361273 0.000000
O O8 0.383010 0.428113 0.966693
O O9 0.757757 0.931834 0.605325
O O10 0.732218 0.901277 0.347787
O O11 0.802385 0.000000 0.487038
O O12 0.768381 0.500000 0.248916
O O13 0.230392 0.805388 0.699016
O O14 0.394979 0.815397 0.773681
O O15 0.407117 0.859834 0.994666
O O16 0.613725 0.715575 0.736527
O O17 0.526393 0.771129 0.798659
O O18 0.714448 0.726252 0.073375
#
# Coordination Sequence:
#
# PCOD8102511 Si02
#       8
#     8   8   8   8   8   8   8   8
#     4  12  22  37  59  88 123 160 198 241 298 356
#     4  10  21  35  62  92 118 155 197 248 300 353
#     4  10  21  39  61  87 115 152 203 252 297 348
#     4  10  21  39  59  85 121 156 199 249 298 348
#     4  10  22  38  59  86 120 156 198 249 288 350
#     4  10  20  37  55  85 124 156 188 231 299 364
#     4  10  22  35  56  86 119 161 188 235 298 357
#     4  10  22  37  56  87 124 156 196 239 292 355
#
# _framework density 18.799786999999998
#
# number of rings (size 3 to 8) (size 9 to 14) (size 15 to 20)
#    0.000    1.750    3.750    0.375    5.250    2.250 
#    0.000    1.875    0.000    3.750    0.000    0.000 
#    0.000    0.000    0.000    0.000    0.000    0.000 
#
# Total GULP energy -396719.828603 kJ/mol
# GULP energy per Si atom -12397.494644 kJ/mol
# Density = 1.875700 g / cm^3
# Si number density = 18.799787 Si / 1000 Ang^3
#
#
#
# Elastic Constant Matrix: (Units=GPa)
#
#
# Indices 1 2 3 4 5 6 
#
# 1 113.6124 57.8937 46.2078 0.0000 12.4515 0.0000
# 2 57.8937 114.1292 51.7450 0.0000 12.4699 0.0000
# 3 46.2078 51.7450 98.9986 0.0000 1.5224 0.0000
# 4 0.0000 0.0000 0.0000 20.8451 0.0000 4.0542
# 5 12.4515 12.4699 1.5224 0.0000 16.5655 0.0000
# 6 0.0000 0.0000 0.0000 4.0542 0.0000 12.0286
#
#
#
# Elastic Compliance Matrix: (Units=1/GPa)
#
#
# Indices 1 2 3 4 5 6 
#
# 1 0.013246 -0.004277 -0.003849 0.000000 -0.006384 0.000000
# 2 -0.004277 0.014064 -0.005249 0.000000 -0.006890 0.000000
# 3 -0.003849 -0.005249 0.014557 0.000000 0.005507 0.000000
# 4 0.000000 0.000000 0.000000 0.051338 0.000000 -0.017304
# 5 -0.006384 -0.006890 0.005507 0.000000 0.069845 0.000000
# 6 0.000000 0.000000 0.000000 -0.017304 0.000000 0.088968
#
#
# Mechanical properties :
#
#
# Convention : Reuss Voigt Hill
#
# Bulk Modulus (GPa) = 66.14952 70.93701 68.54327
# Shear Modulus (GPa) = 17.61763 21.28075 19.44919
#
# Velocity S-wave (km/s) = 3.06456 3.36812 3.21992
# Velocity P-wave (km/s) = 6.91265 7.27602 7.09666
#
# Compressibility (1/GPa) = 0.01511727
#
# Stress axis : x y z
#
# Youngs Moduli (GPa) = 75.49294 71.10349 68.69730
#
# Poissons Ratio (x) = 0.30409 0.26443
# Poissons Ratio (y) = 0.32286 0.36059
# Poissons Ratio (z) = 0.29059 0.37322
#
# Static dielectric constant tensor:
#      x y z
#    x 3.535750 0.000000 0.044340 
#    y 0.000000 3.242530 0.000000 
#    z 0.044340 0.000000 3.656000 
# 
# 
# High freq. dielectric constant tensor:
#      x y z
#    x 1.730630 0.000000 0.012020 
#    y 0.000000 1.706050 0.000000 
#    z 0.012020 0.000000 1.742380 
# 
# From -- ./inp_files/169692.got.cif
#   From: 2010.06.25/outbox.cif.g09.slc.cpg/sg12_85_cif.got.tgz:169692.got - 2010.06.28 00:19:55.
