data_PCOD8102678
_publ_section_title
;
Structure prediction by ZEFSAII (Michael W. Deem and Ramdas Pophale) SiO2 
 PCOD8102678
Probable space group: C 2/M
;
_chemical_formula_sum "Si O2"
_cell_formula_units_Z 48
_cell_length_a 19.520857
_cell_length_b 9.051065
_cell_length_c 30.116444
_cell_angle_alpha 90.000000
_cell_angle_beta 27.281063
_cell_angle_gamma 90.000000
_cell_volume 2438.961892
_symmetry_space_group_name_H-M "C 2/M"
_symmetry_group_IT_number 12
_symmetry_cell_setting 'monoclinic'
loop_
_space_group_symop_operation_xyz
x,y,z
-x,y,-z
-x,-y,-z
x,-y,z
1/2+x,1/2+y,z
1/2-x,1/2+y,-z
1/2-x,1/2-y,-z
1/2+x,1/2-y,z
loop_
_atom_site_type_symbol
_atom_site_label
_atom_site_fract_x
_atom_site_fract_y
_atom_site_fract_z
Si Si1 0.481346 0.172797 0.368658
Si Si2 0.716020 0.672629 0.586937
Si Si3 0.476891 0.330202 0.963287
Si Si4 0.812733 0.331009 0.921505
Si Si5 0.143728 0.671634 0.714927
Si Si6 0.274210 0.171767 0.233063
O O1 0.420923 0.247011 0.358643
O O2 0.370807 0.207959 0.473003
O O3 0.641918 0.237787 0.287021
O O4 0.497173 0.000000 0.350408
O O5 0.681690 0.500000 0.607682
O O6 0.732565 0.735101 0.627013
O O7 0.528994 0.500000 0.927596
O O8 0.569635 0.227863 0.876614
O O9 0.500000 0.274827 0.000000
O O10 0.301546 0.312697 0.053473
O O11 0.834464 0.500000 0.923203
O O12 0.973636 0.267450 0.814620
O O13 0.750000 0.250000 0.000000
O O14 0.147666 0.500000 0.699293
O O15 0.225676 0.699418 0.714341
O O16 0.254827 0.000000 0.233126
#
# Coordination Sequence:
#
# PCOD8102678 Si02
#       6
#     8   8   8   8   8   8
#     4  10  22  41  63  86 119 154 190 241 297 351
#     4  10  22  40  63  91 116 149 196 240 290 354
#     4  10  22  38  58  85 116 155 199 242 294 349
#     4  10  20  37  58  82 116 155 194 236 288 347
#     4  10  22  38  58  86 121 159 195 238 292 346
#     4  11  23  39  59  87 120 155 200 245 290 344
#
# _framework density 19.680505
#
# number of rings (size 3 to 8) (size 9 to 14) (size 15 to 20)
#    0.000    1.833    1.667    1.500    2.333    5.000 
#    0.000    3.333    0.000    0.000    0.000    0.000 
#    0.000    0.000    0.000    0.000    0.000    0.000 
#
# Total GULP energy -297729.715680 kJ/mol
# GULP energy per Si atom -12405.404820 kJ/mol
# Density = 1.963571 g / cm^3
# Si number density = 19.680505 Si / 1000 Ang^3
#
#
#
# Elastic Constant Matrix: (Units=GPa)
#
#
# Indices 1 2 3 4 5 6 
#
# 1 67.9760 22.7688 -0.0612 -0.0027 5.9523 0.0047
# 2 22.7688 69.6460 16.0586 -0.0016 7.0452 0.0004
# 3 -0.0612 16.0586 37.0294 0.0028 -1.3440 0.0030
# 4 -0.0027 -0.0016 0.0028 31.9835 0.0010 3.5298
# 5 5.9523 7.0452 -1.3440 0.0010 39.0574 0.0016
# 6 0.0047 0.0004 0.0030 3.5298 0.0016 33.1017
#
#
#
# Elastic Compliance Matrix: (Units=1/GPa)
#
#
# Indices 1 2 3 4 5 6 
#
# 1 0.016829 -0.005949 0.002557 0.000001 -0.001404 -0.000003
# 2 -0.005949 0.018446 -0.008107 0.000001 -0.002700 0.000001
# 3 0.002557 -0.008107 0.030603 -0.000003 0.002126 -0.000003
# 4 0.000001 0.000001 -0.000003 0.031638 -0.000001 -0.003374
# 5 -0.001404 -0.002700 0.002126 -0.000001 0.026377 -0.000001
# 6 -0.000003 0.000001 -0.000003 -0.003374 -0.000001 0.030570
#
#
# Mechanical properties :
#
#
# Convention : Reuss Voigt Hill
#
# Bulk Modulus (GPa) = 23.32181 28.02042 25.67112
# Shear Modulus (GPa) = 26.07494 29.88755 27.98124
#
# Velocity S-wave (km/s) = 3.64388 3.90120 3.77473
# Velocity P-wave (km/s) = 5.43873 5.87886 5.66307
#
# Compressibility (1/GPa) = 0.04287831
#
# Stress axis : x y z
#
# Youngs Moduli (GPa) = 59.42111 54.21317 32.67674
#
# Poissons Ratio (x) = 0.32253 -0.08355
# Poissons Ratio (y) = 0.35352 0.26492
# Poissons Ratio (z) = -0.15194 0.43952
#
# Static dielectric constant tensor:
#      x y z
#    x 3.664700 0.000000 -0.075920 
#    y 0.000000 3.575490 0.000000 
#    z -0.075920 0.000000 3.584130 
# 
# 
# High freq. dielectric constant tensor:
#      x y z
#    x 1.775540 0.000000 -0.002550 
#    y 0.000000 1.767710 0.000000 
#    z -0.002550 0.000000 1.764970 
# 
# From -- ./inp_files/229960.got.cif
#   From: 2010.06.25/outbox.cif.g09.slc.cpg/sg12_115_cif.got.tgz:229960.got - 2010.06.28 00:19:55.
