data_PCOD8102284
_publ_section_title
;
Structure prediction by ZEFSAII (Michael W. Deem and Ramdas Pophale) SiO2 
 PCOD8102284
Probable space group: C 2/M
;
_chemical_formula_sum "Si O2"
_cell_formula_units_Z 64
_cell_length_a 15.036586
_cell_length_b 8.609106
_cell_length_c 23.707118
_cell_angle_alpha 90.000000
_cell_angle_beta 91.627638
_cell_angle_gamma 90.000000
_cell_volume 3067.685255
_symmetry_space_group_name_H-M "C 2/M"
_symmetry_group_IT_number 12
_symmetry_cell_setting 'monoclinic'
loop_
_space_group_symop_operation_xyz
x,y,z
-x,y,-z
-x,-y,-z
x,-y,z
1/2+x,1/2+y,z
1/2-x,1/2+y,-z
1/2-x,1/2-y,-z
1/2+x,1/2-y,z
loop_
_atom_site_type_symbol
_atom_site_label
_atom_site_fract_x
_atom_site_fract_y
_atom_site_fract_z
Si Si1 0.629142 0.318207 0.351034
Si Si2 0.520119 0.317281 0.563509
Si Si3 0.655915 0.321936 0.755577
Si Si4 0.831926 0.318502 0.361173
Si Si5 0.735823 0.182523 0.061183
Si Si6 0.364983 0.178081 0.766057
Si Si7 0.074520 0.180261 0.119659
Si Si8 0.394263 0.181251 0.133322
O O1 0.623201 0.500000 0.338244
O O2 0.563668 0.267158 0.399856
O O3 0.729440 0.270605 0.370616
O O4 0.598335 0.228927 0.294197
O O5 0.500000 0.261844 0.500000
O O6 0.537404 0.500000 0.566795
O O7 0.609894 0.231295 0.584252
O O8 0.628174 0.500000 0.764132
O O9 0.628488 0.269895 0.692509
O O10 0.760056 0.295666 0.766130
O O11 0.603714 0.217845 0.799921
O O12 0.839894 0.500000 0.350036
O O13 0.636589 0.218511 0.080037
O O14 0.801607 0.262758 0.106290
O O15 0.752739 0.000000 0.061381
O O16 0.750000 0.250000 0.000000
O O17 0.408410 0.284477 0.814440
O O18 0.390805 0.000000 0.778270
O O19 0.973522 0.227679 0.103335
O O20 0.090323 0.000000 0.107279
O O21 0.406984 0.000000 0.123456
#
# Coordination Sequence:
#
# PCOD8102284 Si02
#       8
#     8   8   8   8   8   8   8   8
#     4   9  20  38  58  83 118 159 202 250 312 377
#     4  10  22  40  60  83 116 160 208 255 311 381
#     4  10  20  37  62  91 127 166 206 255 315 381
#     4  10  21  37  58  86 119 156 201 255 311 371
#     4  12  26  48  72  98 132 173 220 268 319 380
#     4  10  20  36  61  92 127 163 207 259 314 380
#     4  12  25  42  66  97 132 173 215 264 322 379
#     4  12  25  42  66  98 132 171 216 265 321 381
#
# _framework density 20.862634
#
# number of rings (size 3 to 8) (size 9 to 14) (size 15 to 20)
#    0.000    1.375    1.250    4.500    1.750    3.250 
#    0.000    2.500    0.000    0.000    0.000    0.000 
#    0.000    0.000    0.000    0.000    0.000    0.000 
#
# Total GULP energy -397018.241342 kJ/mol
# GULP energy per Si atom -12406.820042 kJ/mol
# Density = 2.081515 g / cm^3
# Si number density = 20.862634 Si / 1000 Ang^3
#
#
#
# Elastic Constant Matrix: (Units=GPa)
#
#
# Indices 1 2 3 4 5 6 
#
# 1 62.6986 16.9393 20.2804 0.0000 -17.9136 0.0000
# 2 16.9393 84.4325 25.5890 0.0000 1.3769 0.0000
# 3 20.2804 25.5890 99.4408 0.0000 -17.6283 0.0000
# 4 0.0000 0.0000 0.0000 35.0420 0.0000 1.8038
# 5 -17.9136 1.3769 -17.6283 0.0000 27.1834 0.0000
# 6 0.0000 0.0000 0.0000 1.8038 0.0000 33.3908
#
#
#
# Elastic Compliance Matrix: (Units=1/GPa)
#
#
# Indices 1 2 3 4 5 6 
#
# 1 0.021276 -0.004244 -0.000817 0.000000 0.013706 0.000000
# 2 -0.004244 0.013937 -0.003776 0.000000 -0.005951 0.000000
# 3 -0.000817 -0.003776 0.012579 0.000000 0.007810 0.000000
# 4 0.000000 0.000000 0.000000 0.028617 0.000000 -0.001546
# 5 0.013706 -0.005951 0.007810 0.000000 0.051185 0.000000
# 6 0.000000 0.000000 0.000000 -0.001546 0.000000 0.030032
#
#
# Mechanical properties :
#
#
# Convention : Reuss Voigt Hill
#
# Bulk Modulus (GPa) = 33.20356 41.35435 37.27896
# Shear Modulus (GPa) = 26.97744 31.37411 29.17578
#
# Velocity S-wave (km/s) = 3.59987 3.88215 3.74367
# Velocity P-wave (km/s) = 5.76443 6.32139 6.04932
#
# Compressibility (1/GPa) = 0.03011725
#
# Stress axis : x y z
#
# Youngs Moduli (GPa) = 47.00068 71.75308 79.49722
#
# Poissons Ratio (x) = 0.30455 0.06497
# Poissons Ratio (y) = 0.19949 0.30016
# Poissons Ratio (z) = 0.03841 0.27092
#
# Static dielectric constant tensor:
#      x y z
#    x 3.923570 0.000000 -0.032430 
#    y 0.000000 3.775930 0.000000 
#    z -0.032430 0.000000 3.774570 
# 
# 
# High freq. dielectric constant tensor:
#      x y z
#    x 1.825620 0.000000 -0.002670 
#    y 0.000000 1.820530 0.000000 
#    z -0.002670 0.000000 1.811290 
# 
# From -- ./inp_files/338884.got.cif
#   From: 2010.06.25/outbox.cif.g09.slc.cpg/sg12_170_cif.got.tgz:338884.got - 2010.06.28 00:19:55.
