data_PCOD8102821
_publ_section_title
;
Structure prediction by ZEFSAII (Michael W. Deem and Ramdas Pophale) SiO2 
 PCOD8102821
Probable space group: C 2/M
;
_chemical_formula_sum "Si O2"
_cell_formula_units_Z 64
_cell_length_a 18.894063
_cell_length_b 8.884044
_cell_length_c 31.897378
_cell_angle_alpha 90.000000
_cell_angle_beta 142.589286
_cell_angle_gamma 90.000000
_cell_volume 3252.780488
_symmetry_space_group_name_H-M "C 2/M"
_symmetry_group_IT_number 12
_symmetry_cell_setting 'monoclinic'
loop_
_space_group_symop_operation_xyz
x,y,z
-x,y,-z
-x,-y,-z
x,-y,z
1/2+x,1/2+y,z
1/2-x,1/2+y,-z
1/2-x,1/2-y,-z
1/2+x,1/2-y,z
loop_
_atom_site_type_symbol
_atom_site_label
_atom_site_fract_x
_atom_site_fract_y
_atom_site_fract_z
Si Si1 0.028801 0.171792 0.968190
Si Si2 0.881397 0.321155 0.288642
Si Si3 0.550510 0.178955 0.588076
Si Si4 0.066700 0.177510 0.314203
Si Si5 0.779463 0.330744 0.056091
Si Si6 0.018342 0.675653 0.204782
Si Si7 0.673971 0.178132 0.563940
Si Si8 0.637689 0.825478 0.174304
O O1 0.970304 0.270195 0.904464
O O2 0.984821 0.000000 0.942512
O O3 0.168057 0.180132 0.033204
O O4 0.000000 0.239180 0.000000
O O5 0.880904 0.500000 0.287518
O O6 0.915220 0.255335 0.350387
O O7 0.753803 0.263350 0.216171
O O8 0.974083 0.264514 0.298553
O O9 0.639519 0.239781 0.594212
O O10 0.419875 0.234921 0.514568
O O11 0.554227 0.000000 0.592026
O O12 0.197041 0.228910 0.389294
O O13 0.056990 0.221557 0.261227
O O14 0.047895 0.000000 0.310577
O O15 0.813144 0.500000 0.059792
O O16 0.890904 0.261643 0.131958
O O17 0.750000 0.250000 0.000000
O O18 0.014493 0.500000 0.216090
O O19 0.107724 0.703395 0.208788
O O20 0.667519 0.000000 0.563980
O O21 0.658298 0.000000 0.174857
#
# Coordination Sequence:
#
# PCOD8102821 Si02
#       8
#     8   8   8   8   8   8   8   8
#     4  10  22  38  59  86 114 150 191 233 283 341
#     4  11  23  38  57  82 116 155 195 234 286 345
#     4   8  15  31  57  85 111 148 189 232 282 335
#     4  11  23  37  56  86 118 152 193 237 284 335
#     4  10  20  37  59  84 113 145 187 234 286 338
#     4  10  22  39  59  83 115 152 188 235 288 339
#     4   8  15  31  56  85 115 143 187 239 280 329
#     4  11  23  40  60  84 114 150 193 239 290 340
#
# _framework density 19.675474999999999
#
# number of rings (size 3 to 8) (size 9 to 14) (size 15 to 20)
#    0.000    2.125    1.250    2.625    1.750    3.250 
#    0.000    0.000    0.000    2.250    0.000    8.750 
#    0.000    0.000    0.000    0.000    0.000    0.000 
#
# Total GULP energy -396770.554400 kJ/mol
# GULP energy per Si atom -12399.079825 kJ/mol
# Density = 1.963069 g / cm^3
# Si number density = 19.675475 Si / 1000 Ang^3
#
#
#
# Elastic Constant Matrix: (Units=GPa)
#
#
# Indices 1 2 3 4 5 6 
#
# 1 95.6959 28.4992 27.2196 0.0000 14.3545 0.0000
# 2 28.4992 55.9839 24.1355 0.0001 4.9055 0.0000
# 3 27.2196 24.1355 81.7973 0.0000 16.6558 0.0000
# 4 0.0000 0.0001 0.0000 19.1481 0.0000 -4.0703
# 5 14.3545 4.9055 16.6558 0.0000 38.8041 0.0000
# 6 0.0000 0.0000 0.0000 -4.0703 0.0000 23.5607
#
#
#
# Elastic Compliance Matrix: (Units=1/GPa)
#
#
# Indices 1 2 3 4 5 6 
#
# 1 0.013180 -0.005522 -0.002089 0.000000 -0.003281 0.000000
# 2 -0.005522 0.022779 -0.005165 0.000000 0.001380 0.000000
# 3 -0.002089 -0.005165 0.015510 0.000000 -0.005232 0.000000
# 4 0.000000 0.000000 0.000000 0.054215 0.000000 0.009366
# 5 -0.003281 0.001380 -0.005232 0.000000 0.029055 0.000000
# 6 0.000000 0.000000 0.000000 0.009366 0.000000 0.044062
#
#
# Mechanical properties :
#
#
# Convention : Reuss Voigt Hill
#
# Bulk Modulus (GPa) = 38.58222 43.68733 41.13477
# Shear Modulus (GPa) = 23.47517 26.54412 25.00965
#
# Velocity S-wave (km/s) = 3.45790 3.67699 3.56913
# Velocity P-wave (km/s) = 5.96613 6.34659 6.15929
#
# Compressibility (1/GPa) = 0.02591867
#
# Stress axis : x y z
#
# Youngs Moduli (GPa) = 75.86987 43.90042 64.47628
#
# Poissons Ratio (x) = 0.24240 0.13467
# Poissons Ratio (y) = 0.41893 0.33300
# Poissons Ratio (z) = 0.15847 0.22673
#
# Static dielectric constant tensor:
#      x y z
#    x 3.751050 -0.000010 0.337090 
#    y -0.000010 3.564250 0.000000 
#    z 0.337090 0.000000 3.996090 
# 
# 
# High freq. dielectric constant tensor:
#      x y z
#    x 1.773340 0.000000 0.008560 
#    y 0.000000 1.738990 0.000000 
#    z 0.008560 0.000000 1.777290 
# 
# From -- ./inp_files/378272.got.cif
#   From: 2010.06.25/outbox.cif.g09.slc.cpg/sg12_190_cif.got.tgz:378272.got - 2010.06.28 00:19:55.
