data_PCOD8102362
_publ_section_title
;
Structure prediction by ZEFSAII (Michael W. Deem and Ramdas Pophale) SiO2 
 PCOD8102362
Probable space group: C 2/M
;
_chemical_formula_sum "Si O2"
_cell_formula_units_Z 64
_cell_length_a 14.843475
_cell_length_b 30.933602
_cell_length_c 8.718149
_cell_angle_alpha 90.000000
_cell_angle_beta 125.968180
_cell_angle_gamma 90.000000
_cell_volume 3239.836875
_symmetry_space_group_name_H-M "C 2/M"
_symmetry_group_IT_number 12
_symmetry_cell_setting 'monoclinic'
loop_
_space_group_symop_operation_xyz
x,y,z
-x,y,-z
-x,-y,-z
x,-y,z
1/2+x,1/2+y,z
1/2-x,1/2+y,-z
1/2-x,1/2-y,-z
1/2+x,1/2-y,z
loop_
_atom_site_type_symbol
_atom_site_label
_atom_site_fract_x
_atom_site_fract_y
_atom_site_fract_z
Si Si1 0.128617 0.627083 0.948894
Si Si2 0.269052 0.296642 0.587316
Si Si3 0.758455 0.951832 0.937166
Si Si4 0.730950 0.703358 0.049215
Si Si5 0.258458 0.451832 0.579740
Si Si6 0.628620 0.872918 0.308338
Si Si7 0.499999 0.333560 0.182152
Si Si8 0.999999 0.929541 0.181702
O O1 0.187544 0.582631 0.959914
O O2 0.178753 0.668717 0.915355
O O3 0.999998 0.623611 0.773049
O O4 0.143856 0.633858 0.143853
O O5 0.250000 0.250000 0.500000
O O6 0.264061 0.294409 0.764060
O O7 0.178757 0.331283 0.442151
O O8 0.390507 0.309864 0.647397
O O9 0.753003 0.938709 0.752999
O O10 0.709448 0.000000 0.914919
O O11 0.886840 0.952676 0.124104
O O12 0.750000 0.750000 0.000000
O O13 0.609497 0.690135 0.866388
O O14 0.209451 0.500000 0.503972
O O15 0.187549 0.417369 0.415170
O O16 0.386844 0.452676 0.649576
O O17 0.500000 0.381512 0.250857
O O18 0.500000 0.335253 0.000000
O O19 0.000000 0.928958 0.000000
#
# Coordination Sequence:
#
# PCOD8102362 Si02
#       8
#     8   8   8   8   8   8   8   8
#     4  11  25  43  60  82 118 163 205 248 298 349
#     4  11  23  41  64  92 122 156 197 242 297 356
#     4  10  20  36  62  92 119 152 196 245 300 362
#     4  11  23  41  64  92 122 156 197 242 297 356
#     4  10  20  36  62  92 119 152 196 245 300 362
#     4  11  25  43  60  82 118 163 205 248 298 349
#     4   9  18  35  62  88 119 155 188 237 296 353
#     4   9  15  32  59  90 122 152 186 235 299 357
#
# _framework density 19.754080999999999
#
# number of rings (size 3 to 8) (size 9 to 14) (size 15 to 20)
#    0.000    1.750    2.500    1.875    1.750    4.500 
#    0.000    6.250    0.000    1.500    0.000    0.000 
#    0.000    0.000    0.000    0.000    0.000    0.000 
#
# Total GULP energy -396764.961751 kJ/mol
# GULP energy per Si atom -12398.905055 kJ/mol
# Density = 1.970912 g / cm^3
# Si number density = 19.754081 Si / 1000 Ang^3
#
#
#
# Elastic Constant Matrix: (Units=GPa)
#
#
# Indices 1 2 3 4 5 6 
#
# 1 105.5947 49.9587 42.4950 0.0000 20.3708 0.0000
# 2 49.9587 151.0015 44.0769 0.0000 12.6635 0.0000
# 3 42.4950 44.0769 87.1465 0.0000 19.3473 0.0000
# 4 0.0000 0.0000 0.0000 29.3976 0.0000 -7.9379
# 5 20.3708 12.6635 19.3473 0.0000 29.0226 0.0000
# 6 0.0000 0.0000 0.0000 -7.9379 0.0000 25.7088
#
#
#
# Elastic Compliance Matrix: (Units=1/GPa)
#
#
# Indices 1 2 3 4 5 6 
#
# 1 0.013463 -0.002852 -0.003874 0.000000 -0.005623 0.000000
# 2 -0.002852 0.008394 -0.002918 0.000000 0.000284 0.000000
# 3 -0.003874 -0.002918 0.016377 0.000000 -0.006925 0.000000
# 4 0.000000 0.000000 0.000000 0.037110 0.000000 0.011458
# 5 -0.005623 0.000284 -0.006925 0.000000 0.042895 0.000000
# 6 0.000000 0.000000 0.000000 0.011458 0.000000 0.042435
#
#
# Mechanical properties :
#
#
# Convention : Reuss Voigt Hill
#
# Bulk Modulus (GPa) = 52.78076 68.53377 60.65727
# Shear Modulus (GPa) = 26.84150 30.63993 28.74072
#
# Velocity S-wave (km/s) = 3.69017 3.94263 3.81849
# Velocity P-wave (km/s) = 6.70323 7.44947 7.08618
#
# Compressibility (1/GPa) = 0.01894630
#
# Stress axis : x y z
#
# Youngs Moduli (GPa) = 74.27583 119.13440 61.05956
#
# Poissons Ratio (x) = 0.33976 0.23657
# Poissons Ratio (y) = 0.21183 0.17817
# Poissons Ratio (z) = 0.28777 0.34763
#
# Static dielectric constant tensor:
#      x y z
#    x 3.654020 0.000000 0.242210 
#    y 0.000000 3.672730 0.000000 
#    z 0.242210 0.000000 3.541500 
# 
# 
# High freq. dielectric constant tensor:
#      x y z
#    x 1.765950 0.000000 0.017280 
#    y 0.000000 1.787020 0.000000 
#    z 0.017280 0.000000 1.757920 
# 
# From -- ./inp_files/68630.got.cif
#   From: 2010.06.25/outbox.cif.g09.slc.cpg/sg12_35_cif.got.tgz:68630.got - 2010.06.28 00:19:55.
