data_PCOD8102568
_publ_section_title
;
Structure prediction by ZEFSAII (Michael W. Deem and Ramdas Pophale) SiO2 
 PCOD8102568
Probable space group: C 2/M
;
_chemical_formula_sum "Si O2"
_cell_formula_units_Z 56
_cell_length_a 29.011755
_cell_length_b 9.292821
_cell_length_c 12.562451
_cell_angle_alpha 90.000000
_cell_angle_beta 59.799427
_cell_angle_gamma 90.000000
_cell_volume 2927.152016
_symmetry_space_group_name_H-M "C 2/M"
_symmetry_group_IT_number 12
_symmetry_cell_setting 'monoclinic'
loop_
_space_group_symop_operation_xyz
x,y,z
-x,y,-z
-x,-y,-z
x,-y,z
1/2+x,1/2+y,z
1/2-x,1/2+y,-z
1/2-x,1/2-y,-z
1/2+x,1/2-y,z
loop_
_atom_site_type_symbol
_atom_site_label
_atom_site_fract_x
_atom_site_fract_y
_atom_site_fract_z
Si Si1 0.638200 0.831086 0.502458
Si Si2 0.905813 0.332169 0.860634
Si Si3 0.940517 0.671121 0.589713
Si Si4 0.443807 0.333037 0.012465
Si Si5 0.216445 0.668557 0.951609
Si Si6 0.255569 0.665203 0.290237
Si Si7 0.638234 0.665352 0.714490
O O1 0.599375 0.771440 0.455135
O O2 0.698714 0.791310 0.403695
O O3 0.622005 0.756068 0.630758
O O4 0.630773 0.000000 0.527205
O O5 0.918689 0.500000 0.853783
O O6 0.920334 0.271747 0.727090
O O7 0.942203 0.252632 0.904269
O O8 0.844697 0.297534 0.954256
O O9 0.939614 0.500000 0.589842
O O10 0.000000 0.730312 0.500000
O O11 0.436422 0.500000 0.994306
O O12 0.396898 0.279512 0.145340
O O13 0.500000 0.299148 0.000000
O O14 0.229025 0.500000 0.942317
O O15 0.231810 0.727252 0.819070
O O16 0.250000 0.750000 0.000000
O O17 0.255446 0.500000 0.248712
O O18 0.299472 0.686232 0.331116
O O19 0.624474 0.500000 0.706135
#
# Coordination Sequence:
#
# PCOD8102568 Si02
#       7
#     8   8   8   8   8   8   8
#     4  10  21  36  58  84 112 148 191 235 281 337
#     4  10  21  38  60  86 113 144 191 242 280 331
#     4   9  19  36  56  80 111 145 180 228 286 331
#     4  10  22  39  59  84 116 153 188 231 289 343
#     4  11  22  35  56  85 116 151 191 236 284 341
#     4  10  20  37  57  81 114 150 187 234 287 339
#     4  10  21  37  57  82 116 152 186 230 286 342
#
# _framework density 19.131224
#
# number of rings (size 3 to 8) (size 9 to 14) (size 15 to 20)
#    0.000    2.000    1.429    1.714    2.000    4.857 
#    0.000    0.714    0.000    0.857    0.000    0.000 
#    0.000    0.000    0.000    0.000    0.000    0.000 
#
# Total GULP energy -347313.146831 kJ/mol
# GULP energy per Si atom -12404.040958 kJ/mol
# Density = 1.908768 g / cm^3
# Si number density = 19.131224 Si / 1000 Ang^3
#
#
#
# Elastic Constant Matrix: (Units=GPa)
#
#
# Indices 1 2 3 4 5 6 
#
# 1 119.8659 33.1741 52.6238 0.0000 11.9317 0.0000
# 2 33.1741 44.2713 29.4711 0.0000 12.8843 0.0000
# 3 52.6238 29.4711 97.3728 0.0000 24.1235 0.0000
# 4 0.0000 0.0000 0.0000 31.8247 0.0000 10.0421
# 5 11.9317 12.8843 24.1235 0.0000 36.1382 0.0000
# 6 0.0000 0.0000 0.0000 10.0421 0.0000 15.2923
#
#
#
# Elastic Compliance Matrix: (Units=1/GPa)
#
#
# Indices 1 2 3 4 5 6 
#
# 1 0.012120 -0.006163 -0.005077 0.000000 0.001585 0.000000
# 2 -0.006163 0.032273 -0.004901 0.000000 -0.006200 0.000000
# 3 -0.005077 -0.004901 0.016353 0.000000 -0.007493 0.000000
# 4 0.000000 0.000000 0.000000 0.039635 0.000000 -0.026027
# 5 0.001585 -0.006200 -0.007493 0.000000 0.034360 0.000000
# 6 0.000000 0.000000 0.000000 -0.026027 0.000000 0.082484
#
#
# Mechanical properties :
#
#
# Convention : Reuss Voigt Hill
#
# Bulk Modulus (GPa) = 35.13307 54.67199 44.90253
# Shear Modulus (GPa) = 19.30535 26.40046 22.85291
#
# Velocity S-wave (km/s) = 3.18008 3.71882 3.45995
# Velocity P-wave (km/s) = 5.64695 6.86141 6.28359
#
# Compressibility (1/GPa) = 0.02846321
#
# Stress axis : x y z
#
# Youngs Moduli (GPa) = 82.51115 30.98551 61.14935
#
# Poissons Ratio (x) = 0.19097 0.31047
# Poissons Ratio (y) = 0.50852 0.29971
# Poissons Ratio (z) = 0.41893 0.15187
#
# Static dielectric constant tensor:
#      x y z
#    x 3.639940 0.000000 -0.074480 
#    y 0.000000 3.262000 0.000000 
#    z -0.074480 0.000000 3.574620 
# 
# 
# High freq. dielectric constant tensor:
#      x y z
#    x 1.757610 0.000000 0.000100 
#    y 0.000000 1.721450 0.000000 
#    z 0.000100 0.000000 1.752970 
# 
# From -- ./inp_files/180675.got.cif
#   From: 2010.06.25/outbox.cif.g09.slc.cpg/sg12_91_cif.got.tgz:180675.got - 2010.06.28 00:19:55.
