data_PCOD8102724
_publ_section_title
;
Structure prediction by ZEFSAII (Michael W. Deem and Ramdas Pophale) SiO2 
 PCOD8102724
Probable space group: C 2/M
;
_chemical_formula_sum "Si O2"
_cell_formula_units_Z 56
_cell_length_a 27.094304
_cell_length_b 8.891920
_cell_length_c 17.394057
_cell_angle_alpha 90.000000
_cell_angle_beta 39.734156
_cell_angle_gamma 90.000000
_cell_volume 2678.731085
_symmetry_space_group_name_H-M "C 2/M"
_symmetry_group_IT_number 12
_symmetry_cell_setting 'monoclinic'
loop_
_space_group_symop_operation_xyz
x,y,z
-x,y,-z
-x,-y,-z
x,-y,z
1/2+x,1/2+y,z
1/2-x,1/2+y,-z
1/2-x,1/2-y,-z
1/2+x,1/2-y,z
loop_
_atom_site_type_symbol
_atom_site_label
_atom_site_fract_x
_atom_site_fract_y
_atom_site_fract_z
Si Si1 0.327903 0.176168 0.931965
Si Si2 0.334500 0.679207 0.381763
Si Si3 0.348115 0.328952 0.652574
Si Si4 0.442845 0.175414 0.666039
Si Si5 0.106168 0.675496 0.542187
Si Si6 0.084830 0.176735 0.873652
Si Si7 0.823668 0.329513 0.105816
O O1 0.393146 0.233606 0.796796
O O2 0.315066 0.000000 0.942636
O O3 0.250000 0.250000 0.000000
O O4 0.356118 0.219958 0.983890
O O5 0.324825 0.500000 0.392521
O O6 0.250000 0.750000 0.500000
O O7 0.390876 0.732927 0.382215
O O8 0.377165 0.736709 0.252176
O O9 0.369435 0.500000 0.606851
O O10 0.418227 0.260626 0.618334
O O11 0.331119 0.237844 0.593542
O O12 0.268479 0.316769 0.794122
O O13 0.528796 0.212994 0.588464
O O14 0.431489 0.000000 0.662396
O O15 0.118245 0.500000 0.545490
O O16 0.144163 0.217122 0.869535
O O17 0.076666 0.000000 0.875987
O O18 0.000000 0.243740 0.000000
O O19 0.847641 0.500000 0.099156
#
# Coordination Sequence:
#
# PCOD8102724 Si02
#       7
#     8   8   8   8   8   8   8
#     4  10  20  37  58  86 120 157 199 244 294 352
#     4  11  24  44  68  93 123 161 209 259 310 370
#     4  11  22  38  60  89 123 159 202 247 295 358
#     4  10  22  38  58  85 122 161 200 244 299 361
#     4  11  24  40  61  89 121 158 200 248 303 360
#     4  10  24  44  64  91 124 159 202 255 313 368
#     4  10  22  38  60  89 120 155 199 246 296 357
#
# _framework density 20.905419999999999
#
# number of rings (size 3 to 8) (size 9 to 14) (size 15 to 20)
#    0.000    1.571    1.429    2.571    2.000    8.286 
#    0.000    0.000    0.000    0.000    0.000    0.000 
#    0.000    0.000    0.000    0.000    0.000    0.000 
#
# Total GULP energy -347116.115738 kJ/mol
# GULP energy per Si atom -12397.004133 kJ/mol
# Density = 2.085784 g / cm^3
# Si number density = 20.905420 Si / 1000 Ang^3
#
#
#
# Elastic Constant Matrix: (Units=GPa)
#
#
# Indices 1 2 3 4 5 6 
#
# 1 112.6497 33.9530 46.5944 -0.0052 21.0296 0.0037
# 2 33.9530 47.4934 28.9339 0.0030 2.8514 0.0050
# 3 46.5944 28.9339 122.2094 -0.0021 20.9125 0.0043
# 4 -0.0052 0.0030 -0.0021 26.2444 0.0037 1.7644
# 5 21.0296 2.8514 20.9125 0.0037 38.2451 -0.0043
# 6 0.0037 0.0050 0.0043 1.7644 -0.0043 40.3273
#
#
#
# Elastic Compliance Matrix: (Units=1/GPa)
#
#
# Indices 1 2 3 4 5 6 
#
# 1 0.013142 -0.007692 -0.002263 0.000004 -0.005416 -0.000001
# 2 -0.007692 0.029183 -0.004775 -0.000006 0.004665 -0.000002
# 3 -0.002263 -0.004775 0.010924 0.000002 -0.004373 -0.000001
# 4 0.000004 -0.000006 0.000002 0.038216 -0.000007 -0.001672
# 5 -0.005416 0.004665 -0.004373 -0.000007 0.031168 0.000004
# 6 -0.000001 -0.000002 -0.000001 -0.001672 0.000004 0.024870
#
#
# Mechanical properties :
#
#
# Convention : Reuss Voigt Hill
#
# Bulk Modulus (GPa) = 42.03312 55.70168 48.86740
# Shear Modulus (GPa) = 27.04254 32.48811 29.76533
#
# Velocity S-wave (km/s) = 3.60052 3.94642 3.77743
# Velocity P-wave (km/s) = 6.11841 6.88971 6.51549
#
# Compressibility (1/GPa) = 0.02379077
#
# Stress axis : x y z
#
# Youngs Moduli (GPa) = 76.08969 34.26621 91.53906
#
# Poissons Ratio (x) = 0.26356 0.20715
# Poissons Ratio (y) = 0.58526 0.43709
# Poissons Ratio (z) = 0.17219 0.16362
#
# Static dielectric constant tensor:
#      x y z
#    x 3.664950 -0.000020 0.200020 
#    y -0.000020 3.586310 0.000020 
#    z 0.200020 0.000020 4.218980 
# 
# 
# High freq. dielectric constant tensor:
#      x y z
#    x 1.822370 0.000000 0.012310 
#    y 0.000000 1.808290 0.000000 
#    z 0.012310 0.000000 1.837100 
# 
# From -- ./inp_files/292458.got.cif
#   From: 2010.06.25/outbox.cif.g09.slc.cpg/sg12_147_cif.got.tgz:292458.got - 2010.06.28 00:19:55.
