data_PCOD8102138
_publ_section_title
;
Structure prediction by ZEFSAII (Michael W. Deem and Ramdas Pophale) SiO2 
 PCOD8102138
Probable space group: C 2/M
;
_chemical_formula_sum "Si O2"
_cell_formula_units_Z 64
_cell_length_a 15.220575
_cell_length_b 8.994157
_cell_length_c 24.206144
_cell_angle_alpha 90.000000
_cell_angle_beta 80.128359
_cell_angle_gamma 90.000000
_cell_volume 3264.668043
_symmetry_space_group_name_H-M "C 2/M"
_symmetry_group_IT_number 12
_symmetry_cell_setting 'monoclinic'
loop_
_space_group_symop_operation_xyz
x,y,z
-x,y,-z
-x,-y,-z
x,-y,z
1/2+x,1/2+y,z
1/2-x,1/2+y,-z
1/2-x,1/2-y,-z
1/2+x,1/2-y,z
loop_
_atom_site_type_symbol
_atom_site_label
_atom_site_fract_x
_atom_site_fract_y
_atom_site_fract_z
Si Si1 0.285702 0.331891 0.943066
Si Si2 0.578445 0.327908 0.822384
Si Si3 0.545346 0.674783 0.364077
Si Si4 0.490409 0.331333 0.940955
Si Si5 0.632998 0.328665 0.551803
Si Si6 0.051929 0.323580 0.245274
Si Si7 0.330197 0.172595 0.563609
Si Si8 0.229615 0.670102 0.165669
O O1 0.251935 0.500000 0.949506
O O2 0.391320 0.320104 0.929337
O O3 0.247775 0.259414 0.891969
O O4 0.250000 0.250000 0.000000
O O5 0.547375 0.500000 0.820521
O O6 0.551585 0.262274 0.885883
O O7 0.533081 0.231492 0.779827
O O8 0.684927 0.313719 0.803378
O O9 0.557079 0.500000 0.354810
O O10 0.450425 0.714172 0.401419
O O11 0.548343 0.753843 0.305502
O O12 0.626892 0.734501 0.391678
O O13 0.523205 0.500000 0.946134
O O14 0.500000 0.249695 0.000000
O O15 0.628486 0.500000 0.532806
O O16 0.628250 0.225788 0.498613
O O17 0.723781 0.298826 0.576059
O O18 0.049554 0.500000 0.250699
O O19 0.142808 0.267696 0.206248
O O20 0.352996 0.000000 0.569176
O O21 0.214032 0.500000 0.150004
#
# Coordination Sequence:
#
# PCOD8102138 Si02
#       8
#     8   8   8   8   8   8   8   8
#     4  11  21  34  56  85 117 150 186 232 284 346
#     4  10  20  39  63  83 109 151 194 231 284 355
#     4  11  23  39  60  84 116 160 205 241 286 353
#     4   9  17  31  54  82 110 142 184 227 271 337
#     4   9  20  38  59  86 122 161 198 239 291 353
#     4  11  24  41  59  85 119 151 192 251 300 341
#     4  10  20  36  60  90 123 156 195 247 299 342
#     4  10  22  40  62  84 113 150 188 235 294 351
#
# _framework density 19.603829999999999
#
# number of rings (size 3 to 8) (size 9 to 14) (size 15 to 20)
#    0.000    1.875    1.250    2.625    0.000    7.000 
#    0.000    5.000    0.000    1.875    0.000    0.000 
#    0.000    0.000    0.000    0.000    0.000    0.000 
#
# Total GULP energy -396861.719470 kJ/mol
# GULP energy per Si atom -12401.928733 kJ/mol
# Density = 1.955921 g / cm^3
# Si number density = 19.603830 Si / 1000 Ang^3
#
#
#
# Elastic Constant Matrix: (Units=GPa)
#
#
# Indices 1 2 3 4 5 6 
#
# 1 89.9783 38.8288 50.9163 0.0000 11.8312 0.0000
# 2 38.8288 80.4333 49.2021 0.0000 5.0383 0.0000
# 3 50.9163 49.2021 125.7987 0.0000 14.5972 0.0000
# 4 0.0000 0.0000 0.0000 36.1087 0.0000 4.1419
# 5 11.8312 5.0383 14.5972 0.0000 25.7419 0.0000
# 6 0.0000 0.0000 0.0000 4.1419 0.0000 29.7792
#
#
#
# Elastic Compliance Matrix: (Units=1/GPa)
#
#
# Indices 1 2 3 4 5 6 
#
# 1 0.016139 -0.005034 -0.004086 0.000000 -0.004116 0.000000
# 2 -0.005034 0.017918 -0.005172 0.000000 0.001740 0.000000
# 3 -0.004086 -0.005172 0.012086 0.000000 -0.003963 0.000000
# 4 0.000000 0.000000 0.000000 0.028143 0.000000 -0.003914
# 5 -0.004116 0.001740 -0.003963 0.000000 0.042646 0.000000
# 6 0.000000 0.000000 0.000000 -0.003914 0.000000 0.034125
#
#
# Mechanical properties :
#
#
# Convention : Reuss Voigt Hill
#
# Bulk Modulus (GPa) = 56.95245 63.78941 60.37093
# Shear Modulus (GPa) = 26.95504 28.81016 27.88260
#
# Velocity S-wave (km/s) = 3.71211 3.83772 3.77544
# Velocity P-wave (km/s) = 6.89114 7.22823 7.06170
#
# Compressibility (1/GPa) = 0.01755851
#
# Stress axis : x y z
#
# Youngs Moduli (GPa) = 61.96025 55.81024 82.74159
#
# Poissons Ratio (x) = 0.28095 0.33807
# Poissons Ratio (y) = 0.31191 0.42797
# Poissons Ratio (z) = 0.25316 0.28867
#
# Static dielectric constant tensor:
#      x y z
#    x 3.884820 0.000000 -0.033210 
#    y 0.000000 3.485380 0.000000 
#    z -0.033210 0.000000 3.600960 
# 
# 
# High freq. dielectric constant tensor:
#      x y z
#    x 1.775240 0.000000 0.002010 
#    y 0.000000 1.753090 0.000000 
#    z 0.002010 0.000000 1.762700 
# 
# From -- ./inp_files/338723.got.cif
#   From: 2010.06.25/outbox.cif.g09.slc.cpg/sg12_170_cif.got.tgz:338723.got - 2010.06.28 00:19:55.
