data_PCOD8102495
_publ_section_title
;
Structure prediction by ZEFSAII (Michael W. Deem and Ramdas Pophale) SiO2 
 PCOD8102495
Probable space group: C 2/M
;
_chemical_formula_sum "Si O2"
_cell_formula_units_Z 52
_cell_length_a 10.545082
_cell_length_b 25.925945
_cell_length_c 16.665663
_cell_angle_alpha 90.000000
_cell_angle_beta 143.089407
_cell_angle_gamma 90.000000
_cell_volume 2736.335758
_symmetry_space_group_name_H-M "C 2/M"
_symmetry_group_IT_number 12
_symmetry_cell_setting 'monoclinic'
loop_
_space_group_symop_operation_xyz
x,y,z
-x,y,-z
-x,-y,-z
x,-y,z
1/2+x,1/2+y,z
1/2-x,1/2+y,-z
1/2-x,1/2-y,-z
1/2+x,1/2-y,z
loop_
_atom_site_type_symbol
_atom_site_label
_atom_site_fract_x
_atom_site_fract_y
_atom_site_fract_z
Si Si1 0.144190 0.201834 0.254012
Si Si2 0.858458 0.863815 0.999737
Si Si3 0.538028 0.443800 0.612503
Si Si4 0.868420 0.612008 0.593616
Si Si5 0.500000 0.140514 0.500000
Si Si6 0.581877 0.789642 0.759861
Si Si7 0.500035 0.940309 0.183824
O O1 0.293467 0.176342 0.396103
O O2 0.285510 0.226857 0.252992
O O3 0.993763 0.156962 0.142640
O O4 0.012957 0.242483 0.239027
O O5 0.740979 0.815162 0.902594
O O6 0.692232 0.906397 0.948246
O O7 0.000000 0.889020 0.000000
O O8 0.500000 0.451629 0.500000
O O9 0.498147 0.500000 0.633863
O O10 0.373152 0.399806 0.555738
O O11 0.780487 0.426111 0.751168
O O12 0.005766 0.605692 0.582567
O O13 0.894838 0.670218 0.641256
O O14 0.965128 0.570971 0.704232
O O15 0.443437 0.000000 0.143662
#
# Coordination Sequence:
#
# PCOD8102495 Si02
#       7
#     8   8   8   8   4   8   8
#     4  10  20  37  53  76 109 142 180 223 269 313
#     4   9  18  34  55  75 104 138 173 226 271 309
#     4   8  14  28  50  76 106 130 163 215 261 304
#     4   9  17  32  51  77 108 143 170 211 267 314
#     4  10  22  36  49  70 114 142 169 218 268 312
#     4   9  19  35  55  76 106 138 181 226 262 317
#     4   9  17  32  55  84 105 130 179 226 262 311
#
# _framework density 19.003516000000001
#
# number of rings (size 3 to 8) (size 9 to 14) (size 15 to 20)
#    0.000    2.923    0.000    2.769    0.000    2.769 
#   18.000    1.538    0.000    1.846    0.000    2.154 
#    0.000    0.000    0.000    0.000    0.000    0.000 
#
# Total GULP energy -322120.329442 kJ/mol
# GULP energy per Si atom -12389.243440 kJ/mol
# Density = 1.896026 g / cm^3
# Si number density = 19.003516 Si / 1000 Ang^3
#
#
#
# Elastic Constant Matrix: (Units=GPa)
#
#
# Indices 1 2 3 4 5 6 
#
# 1 68.4144 40.2354 29.8120 0.0000 14.1787 0.0000
# 2 40.2354 67.0242 41.8822 0.0000 17.2208 0.0000
# 3 29.8120 41.8822 99.2949 0.0001 21.0422 0.0000
# 4 0.0000 0.0000 0.0001 17.0840 0.0001 11.2874
# 5 14.1787 17.2208 21.0422 0.0001 32.2352 0.0000
# 6 0.0000 0.0000 0.0000 11.2874 0.0000 24.3952
#
#
#
# Elastic Compliance Matrix: (Units=1/GPa)
#
#
# Indices 1 2 3 4 5 6 
#
# 1 0.022947 -0.012391 -0.001076 0.000000 -0.002772 0.000000
# 2 -0.012391 0.028035 -0.007063 0.000000 -0.004916 0.000000
# 3 -0.001076 -0.007063 0.014476 0.000000 -0.005203 0.000000
# 4 0.000000 0.000000 0.000000 0.084307 0.000000 -0.039008
# 5 -0.002772 -0.004916 -0.005203 0.000000 0.038264 0.000000
# 6 0.000000 0.000000 0.000000 -0.039008 0.000000 0.059040
#
#
# Mechanical properties :
#
#
# Convention : Reuss Voigt Hill
#
# Bulk Modulus (GPa) = 40.98631 50.95472 45.97051
# Shear Modulus (GPa) = 16.87694 22.92982 19.90338
#
# Velocity S-wave (km/s) = 2.98333 3.47740 3.23979
# Velocity P-wave (km/s) = 5.78632 6.55702 6.18369
#
# Compressibility (1/GPa) = 0.02439839
#
# Stress axis : x y z
#
# Youngs Moduli (GPa) = 43.57789 35.66926 69.08119
#
# Poissons Ratio (x) = 0.44199 0.07431
# Poissons Ratio (y) = 0.53999 0.48792
# Poissons Ratio (z) = 0.04688 0.25193
#
# Static dielectric constant tensor:
#      x y z
#    x 3.511240 0.000000 0.367050 
#    y 0.000000 3.311900 0.000000 
#    z 0.367050 0.000000 3.734710 
# 
# 
# High freq. dielectric constant tensor:
#      x y z
#    x 1.722920 0.000000 0.019200 
#    y 0.000000 1.715450 0.000000 
#    z 0.019200 0.000000 1.739590 
# 
# From -- ./inp_files/265977.got.cif
#   From: 2010.06.25/outbox.cif.g09.slc.cpg/sg12_133_cif.got.tgz:265977.got - 2010.06.28 00:19:55.
