data_PCOD8102978
_publ_section_title
;
Structure prediction by ZEFSAII (Michael W. Deem and Ramdas Pophale) SiO2 
 PCOD8102978
Probable space group: C 2/M
;
_chemical_formula_sum "Si O2"
_cell_formula_units_Z 56
_cell_length_a 15.092737
_cell_length_b 8.872851
_cell_length_c 24.506819
_cell_angle_alpha 90.000000
_cell_angle_beta 117.219252
_cell_angle_gamma 90.000000
_cell_volume 2918.422928
_symmetry_space_group_name_H-M "C 2/M"
_symmetry_group_IT_number 12
_symmetry_cell_setting 'monoclinic'
loop_
_space_group_symop_operation_xyz
x,y,z
-x,y,-z
-x,-y,-z
x,-y,z
1/2+x,1/2+y,z
1/2-x,1/2+y,-z
1/2-x,1/2-y,-z
1/2+x,1/2-y,z
loop_
_atom_site_type_symbol
_atom_site_label
_atom_site_fract_x
_atom_site_fract_y
_atom_site_fract_z
Si Si1 0.322413 0.678114 0.564596
Si Si2 0.841384 0.173290 0.998403
Si Si3 0.340852 0.176274 0.791042
Si Si4 0.948962 0.178102 0.131376
Si Si5 0.741587 0.675945 0.648022
Si Si6 0.478575 0.678252 0.434203
Si Si7 0.757364 0.678166 0.134708
O O1 0.309610 0.500000 0.557578
O O2 0.250000 0.750000 0.500000
O O3 0.301398 0.734156 0.619216
O O4 0.435164 0.729684 0.582886
O O5 0.837681 0.213715 0.932820
O O6 0.818854 0.000000 0.998407
O O7 0.750000 0.250000 0.000000
O O8 0.938556 0.213061 0.062534
O O9 0.448153 0.252886 0.820225
O O10 0.290798 0.211399 0.719432
O O11 0.267945 0.246317 0.815343
O O12 0.353047 0.000000 0.805679
O O13 0.859363 0.252595 0.140145
O O14 0.949016 0.000000 0.142721
O O15 0.745888 0.500000 0.634538
O O16 0.627845 0.735575 0.617737
O O17 0.500000 0.748260 0.500000
O O18 0.477067 0.500000 0.438548
O O19 0.771812 0.500000 0.146784
#
# Coordination Sequence:
#
# PCOD8102978 Si02
#       7
#     8   8   8   8   8   8   8
#     4  11  21  35  60  89 115 145 182 225 279 339
#     4   8  16  31  54  83 111 145 188 241 296 345
#     4  11  24  39  56  82 117 158 199 240 292 350
#     4  10  20  37  60  84 115 153 196 242 294 353
#     4  10  22  41  59  80 113 149 190 237 280 333
#     4   9  17  34  60  83 108 144 179 215 272 335
#     4  10  20  37  60  85 116 150 193 246 298 349
#
# _framework density 19.188445999999999
#
# number of rings (size 3 to 8) (size 9 to 14) (size 15 to 20)
#    0.000    2.143    1.429    1.714    0.000    4.000 
#    0.000    6.429    0.000    0.000    0.000    0.000 
#    0.000    0.000    0.000    0.000    0.000    0.000 
#
# Total GULP energy -346999.807793 kJ/mol
# GULP energy per Si atom -12392.850278 kJ/mol
# Density = 1.914477 g / cm^3
# Si number density = 19.188446 Si / 1000 Ang^3
#
#
#
# Elastic Constant Matrix: (Units=GPa)
#
#
# Indices 1 2 3 4 5 6 
#
# 1 258.3490 130.7858 178.6649 0.0000 -5.7118 0.0000
# 2 130.7858 135.8729 132.5609 0.0000 -6.0098 0.0000
# 3 178.6649 132.5609 228.0092 0.0000 -0.9691 0.0000
# 4 0.0000 0.0000 0.0000 29.0341 0.0000 -1.9952
# 5 -5.7118 -6.0098 -0.9691 0.0000 41.0486 0.0000
# 6 0.0000 0.0000 0.0000 -1.9952 0.0000 31.9253
#
#
#
# Elastic Compliance Matrix: (Units=1/GPa)
#
#
# Indices 1 2 3 4 5 6 
#
# 1 0.009444 -0.004269 -0.004916 0.000000 0.000573 0.000000
# 2 -0.004269 0.019147 -0.007778 0.000000 0.002026 0.000000
# 3 -0.004916 -0.007778 0.012753 0.000000 -0.001522 0.000000
# 4 0.000000 0.000000 0.000000 0.034591 0.000000 0.002162
# 5 0.000573 0.002026 -0.001522 0.000000 0.024702 0.000000
# 6 0.000000 0.000000 0.000000 0.002162 0.000000 0.031458
#
#
# Mechanical properties :
#
#
# Convention : Reuss Voigt Hill
#
# Bulk Modulus (GPa) = 134.79622 167.36161 151.07892
# Shear Modulus (GPa) = 29.67452 32.41623 31.04537
#
# Velocity S-wave (km/s) = 3.93680 4.11464 4.02670
# Velocity P-wave (km/s) = 9.54283 10.48728 10.02618
#
# Compressibility (1/GPa) = 0.00741861
#
# Stress axis : x y z
#
# Youngs Moduli (GPa) = 105.88320 52.22703 78.41111
#
# Poissons Ratio (x) = 0.22297 0.38546
# Poissons Ratio (y) = 0.45205 0.60987
# Poissons Ratio (z) = 0.52051 0.40621
#
# Static dielectric constant tensor:
#      x y z
#    x 3.562190 0.000000 0.025560 
#    y 0.000000 3.486460 0.000000 
#    z 0.025560 0.000000 3.978870 
# 
# 
# High freq. dielectric constant tensor:
#      x y z
#    x 1.745370 0.000000 0.001220 
#    y 0.000000 1.740860 0.000000 
#    z 0.001220 0.000000 1.755640 
# 
# From -- ./inp_files/339065.got.cif
#   From: 2010.06.25/outbox.cif.g09.slc.cpg/sg12_170_cif.got.tgz:339065.got - 2010.06.28 00:19:55.
