data_PCOD8102908
_publ_section_title
;
Structure prediction by ZEFSAII (Michael W. Deem and Ramdas Pophale) SiO2 
 PCOD8102908
Probable space group: C 2/M
;
_chemical_formula_sum "Si O2"
_cell_formula_units_Z 40
_cell_length_a 24.525349
_cell_length_b 10.098261
_cell_length_c 18.604067
_cell_angle_alpha 90.000000
_cell_angle_beta 156.075528
_cell_angle_gamma 90.000000
_cell_volume 1868.507555
_symmetry_space_group_name_H-M "C 2/M"
_symmetry_group_IT_number 12
_symmetry_cell_setting 'monoclinic'
loop_
_space_group_symop_operation_xyz
x,y,z
-x,y,-z
-x,-y,-z
x,-y,z
1/2+x,1/2+y,z
1/2-x,1/2+y,-z
1/2-x,1/2-y,-z
1/2+x,1/2-y,z
loop_
_atom_site_type_symbol
_atom_site_label
_atom_site_fract_x
_atom_site_fract_y
_atom_site_fract_z
Si Si1 0.001429 0.645053 0.113038
Si Si2 0.690370 0.354474 0.275501
Si Si3 0.708998 0.705654 0.727122
Si Si4 0.543932 0.351002 0.661742
Si Si5 0.037215 0.348145 0.319393
O O1 0.069452 0.500000 0.186864
O O2 0.074335 0.747253 0.148145
O O3 0.013925 0.695510 0.209605
O O4 0.846353 0.626526 0.904574
O O5 0.625850 0.500000 0.203593
O O6 0.754401 0.340123 0.272427
O O7 0.805112 0.335834 0.473625
O O8 0.605232 0.627472 0.550601
O O9 0.638787 0.727095 0.719497
O O10 0.598762 0.500000 0.745029
O O11 0.546681 0.257373 0.734763
O O12 0.988202 0.500000 0.274249
#
# Coordination Sequence:
#
# PCOD8102908 Si02
#       5
#     8   8   8   8   8
#     4  11  22  36  57  83 111 144 183 226 270 320
#     4  10  22  39  57  80 112 147 182 222 272 326
#     4  10  21  36  57  83 111 141 181 227 272 320
#     4  10  20  37  60  82 107 143 185 225 267 322
#     4   9  21  39  56  79 112 147 180 220 274 327
#
# _framework density 21.407458999999999
#
# number of rings (size 3 to 8) (size 9 to 14) (size 15 to 20)
#    0.000    2.000    0.000    3.600    0.000    9.600 
#    0.000    4.000    0.000    0.000    0.000    0.000 
#    0.000    0.000    0.000    0.000    0.000    0.000 
#
# Total GULP energy -247858.899151 kJ/mol
# GULP energy per Si atom -12392.944958 kJ/mol
# Density = 2.135873 g / cm^3
# Si number density = 21.407459 Si / 1000 Ang^3
#
#
#
# Elastic Constant Matrix: (Units=GPa)
#
#
# Indices 1 2 3 4 5 6 
#
# 1 136.0565 80.7776 42.4419 0.0000 8.8512 0.0000
# 2 80.7776 127.7882 31.4071 0.0000 10.7708 0.0000
# 3 42.4419 31.4071 72.7696 0.0000 5.7473 0.0000
# 4 0.0000 0.0000 0.0000 12.9063 0.0000 8.6838
# 5 8.8512 10.7708 5.7473 0.0000 24.9112 0.0000
# 6 0.0000 0.0000 0.0000 8.6838 0.0000 18.6117
#
#
#
# Elastic Compliance Matrix: (Units=1/GPa)
#
#
# Indices 1 2 3 4 5 6 
#
# 1 0.012968 -0.007053 -0.004478 0.000000 -0.000525 0.000000
# 2 -0.007053 0.012810 -0.001198 0.000000 -0.002757 0.000000
# 3 -0.004478 -0.001198 0.017014 0.000000 -0.001816 0.000000
# 4 0.000000 0.000000 0.000000 0.112935 0.000000 -0.052693
# 5 -0.000525 -0.002757 -0.001816 0.000000 0.041940 0.000000
# 6 0.000000 0.000000 0.000000 -0.052693 0.000000 0.078315
#
#
# Mechanical properties :
#
#
# Convention : Reuss Voigt Hill
#
# Bulk Modulus (GPa) = 57.68489 71.76307 64.72398
# Shear Modulus (GPa) = 16.27508 23.41836 19.84672
#
# Velocity S-wave (km/s) = 2.76026 3.31106 3.04812
# Velocity P-wave (km/s) = 6.09618 6.94354 6.53361
#
# Compressibility (1/GPa) = 0.01733556
#
# Stress axis : x y z
#
# Youngs Moduli (GPa) = 77.11219 78.06248 58.77419
#
# Poissons Ratio (x) = 0.55054 0.26320
# Poissons Ratio (y) = 0.54384 0.07040
# Poissons Ratio (z) = 0.34532 0.09351
#
# Static dielectric constant tensor:
#      x y z
#    x 3.840740 0.000000 -0.061000 
#    y 0.000000 3.703220 0.000000 
#    z -0.061000 0.000000 3.844490 
# 
# 
# High freq. dielectric constant tensor:
#      x y z
#    x 1.837580 0.000000 -0.007160 
#    y 0.000000 1.827830 0.000000 
#    z -0.007160 0.000000 1.837590 
# 
# From -- ./inp_files/283419.got.cif
#   From: 2010.06.25/outbox.cif.g09.slc.cpg/sg12_142_cif.got.tgz:283419.got - 2010.06.28 00:19:55.
