data_PCOD8102060
_publ_section_title
;
Structure prediction by ZEFSAII (Michael W. Deem and Ramdas Pophale) SiO2 
 PCOD8102060
Probable space group: C 2/M
;
_chemical_formula_sum "Si O2"
_cell_formula_units_Z 48
_cell_length_a 16.420436
_cell_length_b 11.624964
_cell_length_c 11.896643
_cell_angle_alpha 90.000000
_cell_angle_beta 101.972658
_cell_angle_gamma 90.000000
_cell_volume 2221.514359
_symmetry_space_group_name_H-M "C 2/M"
_symmetry_group_IT_number 12
_symmetry_cell_setting 'monoclinic'
loop_
_space_group_symop_operation_xyz
x,y,z
-x,y,-z
-x,-y,-z
x,-y,z
1/2+x,1/2+y,z
1/2-x,1/2+y,-z
1/2-x,1/2-y,-z
1/2+x,1/2-y,z
loop_
_atom_site_type_symbol
_atom_site_label
_atom_site_fract_x
_atom_site_fract_y
_atom_site_fract_z
Si Si1 0.570162 0.185722 0.611944
Si Si2 0.993642 0.627535 0.818580
Si Si3 0.826215 0.237830 0.795928
Si Si4 0.742510 0.870301 0.570526
Si Si5 0.158745 0.124584 0.761728
Si Si6 0.419241 0.324824 0.032677
O O1 0.500000 0.200486 0.500000
O O2 0.536177 0.117232 0.709202
O O3 0.647722 0.117248 0.583142
O O4 0.598241 0.312466 0.657711
O O5 0.981796 0.500000 0.864038
O O6 0.904296 0.687296 0.777476
O O7 0.053124 0.696003 0.921761
O O8 0.804827 0.144603 0.693832
O O9 0.746642 0.314661 0.798772
O O10 0.846749 0.175990 0.919170
O O11 0.750000 0.750000 0.500000
O O12 0.762639 0.000000 0.522615
O O13 0.114452 0.108530 0.869529
O O14 0.174691 0.000000 0.714447
O O15 0.500000 0.386786 0.000000
#
# Coordination Sequence:
#
# PCOD8102060 Si02
#       6
#     8   8   8   8   8   8
#     4  10  22  40  59  84 115 151 198 248 296 352
#     4  10  20  36  60  88 118 154 201 254 300 347
#     4  10  21  38  59  86 118 151 195 245 300 356
#     4  11  25  43  64  91 122 157 200 248 300 359
#     4  10  21  36  56  84 117 154 195 242 299 358
#     4   9  20  37  55  83 118 154 199 245 292 352
#
# _framework density 21.606884000000001
#
# number of rings (size 3 to 8) (size 9 to 14) (size 15 to 20)
#    0.000    2.000    0.000    2.500    0.000   11.000 
#    0.000   11.667    0.000    0.000    0.000    0.000 
#    0.000    0.000    0.000    0.000    0.000    0.000 
#
# Total GULP energy -297389.668587 kJ/mol
# GULP energy per Si atom -12391.236191 kJ/mol
# Density = 2.155771 g / cm^3
# Si number density = 21.606884 Si / 1000 Ang^3
#
#
#
# Elastic Constant Matrix: (Units=GPa)
#
#
# Indices 1 2 3 4 5 6 
#
# 1 87.8857 17.4103 23.0526 0.0000 4.5620 0.0000
# 2 17.4103 135.1786 34.6856 0.0000 11.3202 0.0000
# 3 23.0526 34.6856 122.6555 0.0000 26.4889 0.0000
# 4 0.0000 0.0000 0.0000 3.7271 0.0000 5.2044
# 5 4.5620 11.3202 26.4889 0.0000 48.3966 0.0000
# 6 0.0000 0.0000 0.0000 5.2044 0.0000 -4.4689
#
#
#
# Elastic Compliance Matrix: (Units=1/GPa)
#
#
# Indices 1 2 3 4 5 6 
#
# 1 0.012107 -0.001058 -0.002022 0.000000 0.000213 0.000000
# 2 -0.001058 0.008091 -0.001930 0.000000 -0.000736 0.000000
# 3 -0.002022 -0.001930 0.010139 0.000000 -0.004907 0.000000
# 4 0.000000 0.000000 0.000000 0.102167 0.000000 0.118980
# 5 0.000213 -0.000736 -0.004907 0.000000 0.023501 0.000000
# 6 0.000000 0.000000 0.000000 0.118980 0.000000 -0.085208
#
#
# Mechanical properties :
#
#
# Convention : Reuss Voigt Hill
#
# Bulk Modulus (GPa) = 49.22362 55.11298 52.16830
# Shear Modulus (GPa) = 57.08455 27.56904 42.32680
#
# Velocity S-wave (km/s) = 5.14558 3.57590 4.43080
# Velocity P-wave (km/s) = 7.62453 6.52778 7.09738
#
# Compressibility (1/GPa) = 0.02031545
#
# Stress axis : x y z
#
# Youngs Moduli (GPa) = 82.59366 123.59679 98.63362
#
# Poissons Ratio (x) = 0.13081 0.19947
# Poissons Ratio (y) = 0.08741 0.19037
# Poissons Ratio (z) = 0.16703 0.23855
#
# Static dielectric constant tensor:
#      x y z
#    x 4.131590 0.000000 -0.162000 
#    y 0.000000 3.798330 0.000000 
#    z -0.162000 0.000000 4.018800 
# 
# 
# High freq. dielectric constant tensor:
#      x y z
#    x 1.857470 0.000000 -0.003130 
#    y 0.000000 1.842230 0.000000 
#    z -0.003130 0.000000 1.852270 
# 
# From -- ./inp_files/154281.got.cif
#   From: 2010.06.25/outbox.cif.g09.slc.cpg/sg12_78_cif.got.tgz:154281.got - 2010.06.28 00:19:55.
