data_PCOD8102011
_publ_section_title
;
Structure prediction by ZEFSAII (Michael W. Deem and Ramdas Pophale) SiO2 
 PCOD8102011
Probable space group: C 2/M
;
_chemical_formula_sum "Si O2"
_cell_formula_units_Z 64
_cell_length_a 17.956239
_cell_length_b 8.823484
_cell_length_c 30.030185
_cell_angle_alpha 90.000000
_cell_angle_beta 41.969853
_cell_angle_gamma 90.000000
_cell_volume 3181.782303
_symmetry_space_group_name_H-M "C 2/M"
_symmetry_group_IT_number 12
_symmetry_cell_setting 'monoclinic'
loop_
_space_group_symop_operation_xyz
x,y,z
-x,y,-z
-x,-y,-z
x,-y,z
1/2+x,1/2+y,z
1/2-x,1/2+y,-z
1/2-x,1/2-y,-z
1/2+x,1/2-y,z
loop_
_atom_site_type_symbol
_atom_site_label
_atom_site_fract_x
_atom_site_fract_y
_atom_site_fract_z
Si Si1 0.167709 0.174898 0.305925
Si Si2 0.764270 0.677224 0.423534
Si Si3 0.916379 0.176400 0.424897
Si Si4 0.680488 0.677801 0.690801
Si Si5 0.553593 0.174704 0.191316
Si Si6 0.542592 0.325869 0.931357
Si Si7 0.223098 0.176083 0.180935
Si Si8 0.370027 0.822862 0.942604
O O1 0.258449 0.273750 0.291166
O O2 0.172944 0.211800 0.251527
O O3 0.044298 0.217284 0.377777
O O4 0.196205 0.000000 0.302557
O O5 0.773379 0.500000 0.411791
O O6 0.873997 0.732019 0.400848
O O7 0.654066 0.722187 0.500270
O O8 0.753700 0.754835 0.380450
O O9 0.902077 0.000000 0.419701
O O10 0.682196 0.500000 0.686039
O O11 0.553490 0.730544 0.747005
O O12 0.658800 0.225546 0.173307
O O13 0.581344 0.202938 0.127827
O O14 0.528286 0.000000 0.212274
O O15 0.571524 0.500000 0.907188
O O16 0.648619 0.221010 0.876670
O O17 0.446674 0.267147 0.942224
O O18 0.500000 0.308799 0.000000
O O19 0.211111 0.000000 0.174160
O O20 0.364855 0.000000 0.957263
O O21 0.250000 0.750000 0.000000
#
# Coordination Sequence:
#
# PCOD8102011 Si02
#       8
#     8   8   8   8   8   8   8   8
#     4  10  22  40  59  83 117 152 190 238 292 349
#     4  10  20  36  60  87 117 154 194 240 293 347
#     4   9  19  37  61  87 116 153 196 240 289 350
#     4  12  25  39  58  85 117 154 197 243 292 348
#     4  11  24  42  63  88 119 154 195 242 292 348
#     4  11  24  41  61  87 121 160 201 245 291 342
#     4  11  23  39  63  92 120 153 193 241 296 352
#     4  11  24  41  63  91 122 157 197 243 295 351
#
# _framework density 20.114512999999999
#
# number of rings (size 3 to 8) (size 9 to 14) (size 15 to 20)
#    0.000    1.375    0.000    5.250    0.000   12.500 
#    0.000    2.500    0.000    0.000    0.000    0.000 
#    0.000    0.000    0.000    0.000    0.000    0.000 
#
# Total GULP energy -397027.127730 kJ/mol
# GULP energy per Si atom -12407.097742 kJ/mol
# Density = 2.006873 g / cm^3
# Si number density = 20.114513 Si / 1000 Ang^3
#
#
#
# Elastic Constant Matrix: (Units=GPa)
#
#
# Indices 1 2 3 4 5 6 
#
# 1 109.9245 35.3320 29.4909 0.0000 0.3724 0.0005
# 2 35.3320 85.5282 36.1641 0.0002 16.3146 0.0039
# 3 29.4909 36.1641 84.2857 0.0000 -3.0350 -0.0003
# 4 0.0000 0.0002 0.0000 34.2206 0.0000 3.2991
# 5 0.3724 16.3146 -3.0350 0.0000 34.5663 0.0000
# 6 0.0005 0.0039 -0.0003 3.2991 0.0000 67.2828
#
#
#
# Elastic Compliance Matrix: (Units=1/GPa)
#
#
# Indices 1 2 3 4 5 6 
#
# 1 0.010911 -0.003925 -0.002078 0.000000 0.001553 0.000000
# 2 -0.003925 0.017804 -0.006588 0.000000 -0.008939 -0.000001
# 3 -0.002078 -0.006588 0.015580 0.000000 0.004500 0.000000
# 4 0.000000 0.000000 0.000000 0.029361 0.000000 -0.001440
# 5 0.001553 -0.008939 0.004500 0.000000 0.033527 0.000001
# 6 0.000000 -0.000001 0.000000 -0.001440 0.000001 0.014933
#
#
# Mechanical properties :
#
#
# Convention : Reuss Voigt Hill
#
# Bulk Modulus (GPa) = 52.31691 53.52361 52.92026
# Shear Modulus (GPa) = 32.53755 39.13071 35.83413
#
# Velocity S-wave (km/s) = 4.02632 4.41545 4.22537
# Velocity P-wave (km/s) = 6.90515 7.25687 7.08319
#
# Compressibility (1/GPa) = 0.01911428
#
# Stress axis : x y z
#
# Youngs Moduli (GPa) = 91.65181 56.16674 64.18510
#
# Poissons Ratio (x) = 0.22045 0.13335
# Poissons Ratio (y) = 0.35973 0.42283
# Poissons Ratio (z) = 0.19042 0.37001
#
# Static dielectric constant tensor:
#      x y z
#    x 3.689650 -0.000010 0.043950 
#    y -0.000010 3.760440 0.000000 
#    z 0.043950 0.000000 3.838880 
# 
# 
# High freq. dielectric constant tensor:
#      x y z
#    x 1.792890 0.000000 0.000560 
#    y 0.000000 1.793980 0.000000 
#    z 0.000560 0.000000 1.800180 
# 
# From -- ./inp_files/378076.got.cif
#   From: 2010.06.25/outbox.cif.g09.slc.cpg/sg12_190_cif.got.tgz:378076.got - 2010.06.28 00:19:55.
