data_PCOD8102989
_publ_section_title
;
Structure prediction by ZEFSAII (Michael W. Deem and Ramdas Pophale) SiO2 
 PCOD8102989
Probable space group: C 2/M
;
_chemical_formula_sum "Si O2"
_cell_formula_units_Z 48
_cell_length_a 17.609725
_cell_length_b 14.273138
_cell_length_c 10.851937
_cell_angle_alpha 90.000000
_cell_angle_beta 117.485084
_cell_angle_gamma 90.000000
_cell_volume 2419.730863
_symmetry_space_group_name_H-M "C 2/M"
_symmetry_group_IT_number 12
_symmetry_cell_setting 'monoclinic'
loop_
_space_group_symop_operation_xyz
x,y,z
-x,y,-z
-x,-y,-z
x,-y,z
1/2+x,1/2+y,z
1/2-x,1/2+y,-z
1/2-x,1/2-y,-z
1/2+x,1/2-y,z
loop_
_atom_site_type_symbol
_atom_site_label
_atom_site_fract_x
_atom_site_fract_y
_atom_site_fract_z
Si Si1 0.198830 0.701666 0.070704
Si Si2 0.545036 0.186528 0.803958
Si Si3 0.680024 0.811505 0.684513
Si Si4 0.191969 0.500000 0.565178
Si Si5 0.934960 0.810956 0.561699
Si Si6 0.217856 0.500000 0.184895
Si Si7 0.658165 0.500000 0.509061
Si Si8 0.437409 0.000000 0.736808
O O1 0.233130 0.753953 0.218338
O O2 0.217304 0.590763 0.096380
O O3 0.250000 0.750000 0.000000
O O4 0.097456 0.715594 0.967051
O O5 0.613118 0.174305 0.744898
O O6 0.479129 0.268123 0.716704
O O7 0.495930 0.091022 0.796606
O O8 0.638750 0.759588 0.536945
O O9 0.708782 0.912869 0.664933
O O10 0.256563 0.500000 0.503119
O O11 0.098640 0.500000 0.430373
O O12 0.000000 0.827097 0.500000
O O13 0.897401 0.910681 0.569078
O O14 0.309266 0.500000 0.324906
O O15 0.135978 0.500000 0.214191
#
# Coordination Sequence:
#
# PCOD8102989 Si02
#       8
#     8   8   8   4   8   4   4   4
#     4  10  22  40  60  86 117 154 194 239 293 349
#     4  10  21  36  60  89 117 148 195 247 290 342
#     4  10  20  38  60  86 118 155 200 236 286 350
#     4  11  23  35  58  90 121 157 190 240 299 352
#     4  10  20  37  60  85 111 150 200 247 285 333
#     4  11  23  39  61  87 119 155 196 240 294 357
#     4  11  23  38  58  87 120 155 198 241 290 345
#     4  11  22  36  59  92 120 151 189 247 306 341
#
# _framework density 19.836917
#
# number of rings (size 3 to 8) (size 9 to 14) (size 15 to 20)
#    0.000    1.667    3.333    1.250    0.000    6.000 
#    0.000    0.833    0.000    1.000    0.000    0.000 
#    0.000    0.000    0.000    0.000    0.000    0.000 
#
# Total GULP energy -297544.742361 kJ/mol
# GULP energy per Si atom -12397.697598 kJ/mol
# Density = 1.979177 g / cm^3
# Si number density = 19.836917 Si / 1000 Ang^3
#
#
#
# Elastic Constant Matrix: (Units=GPa)
#
#
# Indices 1 2 3 4 5 6 
#
# 1 50.3056 51.3413 39.1482 0.0000 20.2946 0.0000
# 2 51.3413 169.1241 65.6359 0.0000 21.7598 0.0000
# 3 39.1482 65.6359 122.7258 0.0000 42.0305 0.0000
# 4 0.0000 0.0000 0.0000 -2.5225 0.0000 66.1821
# 5 20.2946 21.7598 42.0305 0.0000 34.2335 0.0000
# 6 0.0000 0.0000 0.0000 66.1821 0.0000 -55.5353
#
#
#
# Elastic Compliance Matrix: (Units=1/GPa)
#
#
# Indices 1 2 3 4 5 6 
#
# 1 0.035194 -0.008051 -0.002636 0.000000 -0.012509 0.000000
# 2 -0.008051 0.009305 -0.003481 0.000000 0.003132 0.000000
# 3 -0.002636 -0.003481 0.016493 0.000000 -0.016474 0.000000
# 4 0.000000 0.000000 0.000000 0.013098 0.000000 0.015609
# 5 -0.012509 0.003132 -0.016474 0.000000 0.054862 0.000000
# 6 0.000000 0.000000 0.000000 0.015609 0.000000 0.000595
#
#
# Mechanical properties :
#
#
# Convention : Reuss Voigt Hill
#
# Bulk Modulus (GPa) = 30.62371 72.71181 51.66776
# Shear Modulus (GPa) = 29.62658 7.63713 18.63186
#
# Velocity S-wave (km/s) = 3.86878 1.96426 3.06805
# Velocity P-wave (km/s) = 5.95214 6.47138 6.21718
#
# Compressibility (1/GPa) = 0.03265443
#
# Stress axis : x y z
#
# Youngs Moduli (GPa) = 28.41418 107.47112 60.63329
#
# Poissons Ratio (x) = 0.86527 0.15985
# Poissons Ratio (y) = 0.22877 0.21105
# Poissons Ratio (z) = 0.07491 0.37409
#
# Static dielectric constant tensor:
#      x y z
#    x 3.489360 0.000000 0.403290 
#    y 0.000000 3.661150 0.000000 
#    z 0.403290 0.000000 4.094970 
# 
# 
# High freq. dielectric constant tensor:
#      x y z
#    x 1.755000 0.000000 0.020870 
#    y 0.000000 1.780820 0.000000 
#    z 0.020870 0.000000 1.781310 
# 
# From -- ./inp_files/164745.got.cif
#   From: 2010.06.25/outbox.cif.g09.slc.cpg/sg12_83_cif.got.tgz:164745.got - 2010.06.28 00:19:55.
