data_PCOD8102075
_publ_section_title
;
Structure prediction by ZEFSAII (Michael W. Deem and Ramdas Pophale) SiO2 
 PCOD8102075
Probable space group: C 2/M
;
_chemical_formula_sum "Si O2"
_cell_formula_units_Z 48
_cell_length_a 30.684195
_cell_length_b 18.489380
_cell_length_c 8.792754
_cell_angle_alpha 90.000000
_cell_angle_beta 29.693384
_cell_angle_gamma 90.000000
_cell_volume 2471.049840
_symmetry_space_group_name_H-M "C 2/M"
_symmetry_group_IT_number 12
_symmetry_cell_setting 'monoclinic'
loop_
_space_group_symop_operation_xyz
x,y,z
-x,y,-z
-x,-y,-z
x,-y,z
1/2+x,1/2+y,z
1/2-x,1/2+y,-z
1/2-x,1/2-y,-z
1/2+x,1/2-y,z
loop_
_atom_site_type_symbol
_atom_site_label
_atom_site_fract_x
_atom_site_fract_y
_atom_site_fract_z
Si Si1 0.735688 0.583033 0.690156
Si Si2 0.253388 0.416654 0.688327
Si Si3 0.907599 0.330578 0.210043
Si Si4 0.410564 0.169815 0.853653
Si Si5 0.174083 0.210626 0.329191
Si Si6 0.097745 0.183011 0.260225
O O1 0.730528 0.500000 0.747039
O O2 0.709630 0.597709 0.593405
O O3 0.834199 0.607125 0.436224
O O4 0.664109 0.621164 0.010627
O O5 0.267191 0.500000 0.696688
O O6 0.296134 0.363499 0.680913
O O7 0.149683 0.399908 0.990978
O O8 0.868536 0.261694 0.415481
O O9 0.927848 0.309864 0.975538
O O10 0.000000 0.358091 0.000000
O O11 0.500000 0.150512 0.500000
O O12 0.365830 0.241035 0.916603
O O13 0.097382 0.187795 0.444271
O O14 0.250000 0.250000 0.000000
O O15 0.000000 0.165823 0.500000
#
# Coordination Sequence:
#
# PCOD8102075 Si02
#       6
#     8   8   8   8   8   8
#     4  10  22  41  60  86 126 169 205 250 310 366
#     4  10  22  39  60  84 119 163 203 248 312 365
#     4  11  22  37  63  92 123 160 204 260 302 362
#     4  10  20  36  60  88 121 157 206 252 305 361
#     4  12  22  39  62  92 122 157 207 253 299 359
#     4  11  22  38  62  89 121 159 208 258 299 362
#
# _framework density 19.424941
#
# number of rings (size 3 to 8) (size 9 to 14) (size 15 to 20)
#    0.000    1.333    3.333    3.000    0.000    4.333 
#    0.000    0.000    0.000    2.500    0.000    0.000 
#    0.000    0.000    0.000    0.000    0.000    0.000 
#
# Total GULP energy -297557.676144 kJ/mol
# GULP energy per Si atom -12398.236506 kJ/mol
# Density = 1.938073 g / cm^3
# Si number density = 19.424941 Si / 1000 Ang^3
#
#
#
# Elastic Constant Matrix: (Units=GPa)
#
#
# Indices 1 2 3 4 5 6 
#
# 1 113.8387 15.4066 8.8397 0.0000 -3.5064 0.0000
# 2 15.4066 63.9400 -4.1889 0.0000 -6.0622 0.0000
# 3 8.8397 -4.1889 61.1640 0.0000 1.1490 0.0000
# 4 0.0000 0.0000 0.0000 14.0568 0.0000 3.8196
# 5 -3.5064 -6.0622 1.1490 0.0000 31.9384 0.0000
# 6 0.0000 0.0000 0.0000 3.8196 0.0000 32.4182
#
#
#
# Elastic Compliance Matrix: (Units=1/GPa)
#
#
# Indices 1 2 3 4 5 6 
#
# 1 0.009226 -0.002261 -0.001500 0.000000 0.000638 0.000000
# 2 -0.002261 0.016546 0.001407 0.000000 0.002842 0.000000
# 3 -0.001500 0.001407 0.016672 0.000000 -0.000498 0.000000
# 4 0.000000 0.000000 0.000000 0.073493 0.000000 -0.008659
# 5 0.000638 0.002842 -0.000498 0.000000 0.031938 0.000000
# 6 0.000000 0.000000 0.000000 -0.008659 0.000000 0.031867
#
#
# Mechanical properties :
#
#
# Convention : Reuss Voigt Hill
#
# Bulk Modulus (GPa) = 26.50052 31.00638 28.75345
# Shear Modulus (GPa) = 25.37684 30.27502 27.82593
#
# Velocity S-wave (km/s) = 3.61834 3.95215 3.78892
# Velocity P-wave (km/s) = 5.57931 6.06818 5.82887
#
# Compressibility (1/GPa) = 0.03773510
#
# Stress axis : x y z
#
# Youngs Moduli (GPa) = 108.38352 60.43747 59.98087
#
# Poissons Ratio (x) = 0.13665 0.08999
# Poissons Ratio (y) = 0.24505 -0.08437
# Poissons Ratio (z) = 0.16261 -0.08501
#
# Static dielectric constant tensor:
#      x y z
#    x 3.840670 0.000000 0.080360 
#    y 0.000000 3.444890 0.000000 
#    z 0.080360 0.000000 3.511480 
# 
# 
# High freq. dielectric constant tensor:
#      x y z
#    x 1.774230 0.000000 0.005750 
#    y 0.000000 1.745280 0.000000 
#    z 0.005750 0.000000 1.755180 
# 
# From -- ./inp_files/75061.got.cif
#   From: 2010.06.25/outbox.cif.g09.slc.cpg/sg12_38_cif.got.tgz:75061.got - 2010.06.28 00:19:55.
