data_PCOD8102153
_publ_section_title
;
Structure prediction by ZEFSAII (Michael W. Deem and Ramdas Pophale) SiO2 
 PCOD8102153
Probable space group: C 2/M
;
_chemical_formula_sum "Si O2"
_cell_formula_units_Z 56
_cell_length_a 15.170260
_cell_length_b 8.528454
_cell_length_c 26.384609
_cell_angle_alpha 90.000000
_cell_angle_beta 126.880195
_cell_angle_gamma 90.000000
_cell_volume 2730.520458
_symmetry_space_group_name_H-M "C 2/M"
_symmetry_group_IT_number 12
_symmetry_cell_setting 'monoclinic'
loop_
_space_group_symop_operation_xyz
x,y,z
-x,y,-z
-x,-y,-z
x,-y,z
1/2+x,1/2+y,z
1/2-x,1/2+y,-z
1/2-x,1/2-y,-z
1/2+x,1/2-y,z
loop_
_atom_site_type_symbol
_atom_site_label
_atom_site_fract_x
_atom_site_fract_y
_atom_site_fract_z
Si Si1 0.029954 0.816740 0.871909
Si Si2 0.712006 0.817985 0.560951
Si Si3 0.603219 0.686048 0.005021
Si Si4 0.074588 0.819419 0.426732
Si Si5 0.696216 0.816449 0.858086
Si Si6 0.160050 0.318420 0.657247
Si Si7 0.292021 0.181083 0.792812
O O1 0.076312 0.723758 0.839304
O O2 0.901164 0.785222 0.834319
O O3 0.048052 0.000000 0.869354
O O4 0.095583 0.755922 0.944383
O O5 0.836090 0.779704 0.585911
O O6 0.624969 0.716917 0.499161
O O7 0.699439 0.770214 0.614850
O O8 0.683874 0.000000 0.542179
O O9 0.596652 0.500000 0.003994
O O10 0.714447 0.745541 0.070116
O O11 0.500000 0.757575 0.000000
O O12 0.969192 0.712439 0.379975
O O13 0.038624 0.000000 0.412480
O O14 0.710744 0.726144 0.810510
O O15 0.707725 0.000000 0.851473
O O16 0.184095 0.500000 0.676692
O O17 0.229937 0.212495 0.719128
O O18 0.324703 0.000000 0.807349
#
# Coordination Sequence:
#
# PCOD8102153 Si02
#       7
#     8   8   8   8   8   8   8
#     4  11  22  40  64  90 122 158 198 247 304 360
#     4   9  20  38  60  87 120 156 193 235 291 354
#     4   9  17  34  62  91 120 155 194 244 301 359
#     4  10  20  36  60  91 123 153 192 243 292 346
#     4  11  22  40  64  90 121 157 200 247 302 363
#     4  11  23  40  61  84 116 159 201 243 298 357
#     4  12  26  43  60  85 119 159 207 254 302 359
#
# _framework density 20.508911000000001
#
# number of rings (size 3 to 8) (size 9 to 14) (size 15 to 20)
#    0.000    1.571    1.429    3.857    0.000    4.571 
#    0.000    7.143    0.000    0.000    0.000    0.000 
#    0.000    0.000    0.000    0.000    0.000    0.000 
#
# Total GULP energy -347354.908862 kJ/mol
# GULP energy per Si atom -12405.532459 kJ/mol
# Density = 2.046223 g / cm^3
# Si number density = 20.508911 Si / 1000 Ang^3
#
#
#
# Elastic Constant Matrix: (Units=GPa)
#
#
# Indices 1 2 3 4 5 6 
#
# 1 82.6608 25.9032 28.5450 0.0000 -12.1184 0.0000
# 2 25.9032 53.2328 26.9511 0.0000 -3.6331 0.0000
# 3 28.5450 26.9511 93.1382 0.0000 -10.6399 0.0000
# 4 0.0000 0.0000 0.0000 28.8097 0.0000 1.3758
# 5 -12.1184 -3.6331 -10.6399 0.0000 18.4546 0.0000
# 6 0.0000 0.0000 0.0000 1.3758 0.0000 32.7076
#
#
#
# Elastic Compliance Matrix: (Units=1/GPa)
#
#
# Indices 1 2 3 4 5 6 
#
# 1 0.015942 -0.006093 -0.002209 0.000000 0.007995 0.000000
# 2 -0.006093 0.024347 -0.005446 0.000000 -0.002348 0.000000
# 3 -0.002209 -0.005446 0.013597 0.000000 0.005316 0.000000
# 4 0.000000 0.000000 0.000000 0.034780 0.000000 -0.001463
# 5 0.007995 -0.002348 0.005316 0.000000 0.062040 0.000000
# 6 0.000000 0.000000 0.000000 -0.001463 0.000000 0.030636
#
#
# Mechanical properties :
#
#
# Convention : Reuss Voigt Hill
#
# Bulk Modulus (GPa) = 37.89424 43.53671 40.71548
# Shear Modulus (GPa) = 22.97407 25.83653 24.40530
#
# Velocity S-wave (km/s) = 3.35057 3.55318 3.45336
# Velocity P-wave (km/s) = 5.78666 6.17314 5.98303
#
# Compressibility (1/GPa) = 0.02638924
#
# Stress axis : x y z
#
# Youngs Moduli (GPa) = 62.72680 41.07207 73.54488
#
# Poissons Ratio (x) = 0.25026 0.16249
# Poissons Ratio (y) = 0.38221 0.40053
# Poissons Ratio (z) = 0.13859 0.22368
#
# Static dielectric constant tensor:
#      x y z
#    x 3.783380 0.000000 -0.080290 
#    y 0.000000 3.512410 0.000000 
#    z -0.080290 0.000000 3.678840 
# 
# 
# High freq. dielectric constant tensor:
#      x y z
#    x 1.814030 0.000000 -0.005900 
#    y 0.000000 1.792800 0.000000 
#    z -0.005900 0.000000 1.795740 
# 
# From -- ./inp_files/360027.got.cif
#   From: 2010.06.25/outbox.cif.g09.slc.cpg/sg12_181_cif.got.tgz:360027.got - 2010.06.28 00:19:55.
