data_PCOD8102322
_publ_section_title
;
Structure prediction by ZEFSAII (Michael W. Deem and Ramdas Pophale) SiO2 
 PCOD8102322
Probable space group: C 2/M
;
_chemical_formula_sum "Si O2"
_cell_formula_units_Z 56
_cell_length_a 17.964304
_cell_length_b 13.140142
_cell_length_c 14.971958
_cell_angle_alpha 90.000000
_cell_angle_beta 48.600830
_cell_angle_gamma 90.000000
_cell_volume 2651.063775
_symmetry_space_group_name_H-M "C 2/M"
_symmetry_group_IT_number 12
_symmetry_cell_setting 'monoclinic'
loop_
_space_group_symop_operation_xyz
x,y,z
-x,y,-z
-x,-y,-z
x,-y,z
1/2+x,1/2+y,z
1/2-x,1/2+y,-z
1/2-x,1/2-y,-z
1/2+x,1/2-y,z
loop_
_atom_site_type_symbol
_atom_site_label
_atom_site_fract_x
_atom_site_fract_y
_atom_site_fract_z
Si Si1 0.113217 0.382640 0.768338
Si Si2 0.403136 0.205210 0.726205
Si Si3 0.258825 0.616435 0.806642
Si Si4 0.395952 0.196618 0.936533
Si Si5 0.113114 0.379910 0.566424
Si Si6 0.728739 0.114869 0.308445
Si Si7 0.390412 0.614322 0.052034
O O1 0.089787 0.500000 0.804417
O O2 0.202592 0.346746 0.761179
O O3 0.150202 0.363448 0.637810
O O4 0.009820 0.326544 0.872101
O O5 0.358556 0.316294 0.737765
O O6 0.373331 0.177202 0.850921
O O7 0.521075 0.196191 0.622085
O O8 0.360177 0.122226 0.692199
O O9 0.294241 0.500000 0.771969
O O10 0.181217 0.626429 0.949353
O O11 0.377272 0.315177 0.975601
O O12 0.085751 0.500000 0.571919
O O13 0.197577 0.340753 0.430100
O O14 0.825150 0.164751 0.184516
O O15 0.758193 0.000000 0.303585
O O16 0.354560 0.500000 0.054917
O O17 0.500000 0.611797 0.000000
#
# Coordination Sequence:
#
# PCOD8102322 Si02
#       7
#     8   8   8   8   8   8   8
#     4   9  19  36  60  87 113 147 195 247 289 332
#     4  11  22  35  54  87 117 151 190 236 287 340
#     4  11  22  35  54  83 118 156 194 235 286 342
#     4  11  21  36  56  82 116 153 195 237 284 340
#     4   9  19  38  64  89 112 141 191 250 294 333
#     4  10  20  36  62  88 112 145 186 240 294 336
#     4  10  21  36  58  87 119 149 182 231 294 353
#
# _framework density 21.123595999999999
#
# number of rings (size 3 to 8) (size 9 to 14) (size 15 to 20)
#    0.000    1.857    1.429    3.000    0.000    4.571 
#    0.000    0.714    3.143    1.714    0.000    0.000 
#    0.000    0.000    0.000    0.000    0.000    0.000 
#
# Total GULP energy -347036.430597 kJ/mol
# GULP energy per Si atom -12394.158236 kJ/mol
# Density = 2.107552 g / cm^3
# Si number density = 21.123596 Si / 1000 Ang^3
#
#
#
# Elastic Constant Matrix: (Units=GPa)
#
#
# Indices 1 2 3 4 5 6 
#
# 1 69.2886 18.3518 16.9685 0.0000 10.5020 0.0000
# 2 18.3518 71.1986 16.9701 0.0000 3.8859 0.0000
# 3 16.9685 16.9701 108.9006 0.0000 22.3334 0.0000
# 4 0.0000 0.0000 0.0000 25.5548 0.0000 -0.8098
# 5 10.5020 3.8859 22.3334 0.0000 20.1363 0.0000
# 6 0.0000 0.0000 0.0000 -0.8098 0.0000 37.8433
#
#
#
# Elastic Compliance Matrix: (Units=1/GPa)
#
#
# Indices 1 2 3 4 5 6 
#
# 1 0.016678 -0.003777 -0.000486 0.000000 -0.007430 0.000000
# 2 -0.003777 0.015445 -0.002085 0.000000 0.001302 0.000000
# 3 -0.000486 -0.002085 0.012231 0.000000 -0.012909 0.000000
# 4 0.000000 0.000000 0.000000 0.039158 0.000000 0.000838
# 5 -0.007430 0.001302 -0.012909 0.000000 0.067603 0.000000
# 6 0.000000 0.000000 0.000000 0.000838 0.000000 0.026443
#
#
# Mechanical properties :
#
#
# Convention : Reuss Voigt Hill
#
# Bulk Modulus (GPa) = 31.58984 39.32985 35.45984
# Shear Modulus (GPa) = 24.89940 29.84671 27.37305
#
# Velocity S-wave (km/s) = 3.43702 3.76301 3.60370
# Velocity P-wave (km/s) = 5.54419 6.12696 5.84284
#
# Compressibility (1/GPa) = 0.03165575
#
# Stress axis : x y z
#
# Youngs Moduli (GPa) = 59.95869 64.74662 81.76028
#
# Poissons Ratio (x) = 0.24458 0.03976
# Poissons Ratio (y) = 0.22649 0.17049
# Poissons Ratio (z) = 0.02916 0.13501
#
# Static dielectric constant tensor:
#      x y z
#    x 3.719400 0.000000 0.129880 
#    y 0.000000 3.895230 0.000000 
#    z 0.129880 0.000000 4.084720 
# 
# 
# High freq. dielectric constant tensor:
#      x y z
#    x 1.815460 0.000000 0.010020 
#    y 0.000000 1.824510 0.000000 
#    z 0.010020 0.000000 1.830840 
# 
# From -- ./inp_files/156728.got.cif
#   From: 2010.06.25/outbox.cif.g09.slc.cpg/sg12_79_cif.got.tgz:156728.got - 2010.06.28 00:19:55.
