data_PCOD8102461
_publ_section_title
;
Structure prediction by ZEFSAII (Michael W. Deem and Ramdas Pophale) SiO2 
 PCOD8102461
Probable space group: C 2/M
;
_chemical_formula_sum "Si O2"
_cell_formula_units_Z 44
_cell_length_a 22.603379
_cell_length_b 9.056977
_cell_length_c 27.908232
_cell_angle_alpha 90.000000
_cell_angle_beta 158.532360
_cell_angle_gamma 90.000000
_cell_volume 2090.938127
_symmetry_space_group_name_H-M "C 2/M"
_symmetry_group_IT_number 12
_symmetry_cell_setting 'monoclinic'
loop_
_space_group_symop_operation_xyz
x,y,z
-x,y,-z
-x,-y,-z
x,-y,z
1/2+x,1/2+y,z
1/2-x,1/2+y,-z
1/2-x,1/2-y,-z
1/2+x,1/2-y,z
loop_
_atom_site_type_symbol
_atom_site_label
_atom_site_fract_x
_atom_site_fract_y
_atom_site_fract_z
Si Si1 0.500000 0.244854 0.500000
Si Si2 0.504109 0.829162 0.914272
Si Si3 0.670347 0.825436 0.811874
Si Si4 0.324401 0.662315 0.700686
Si Si5 0.316888 0.662184 0.272465
Si Si6 0.128860 0.173895 0.372340
O O1 0.647733 0.147982 0.591557
O O2 0.564464 0.343458 0.592477
O O3 0.438900 0.779956 0.813199
O O4 0.365585 0.802582 0.849120
O O5 0.556035 0.000000 0.950420
O O6 0.651399 0.727356 0.040735
O O7 0.628438 0.782414 0.725339
O O8 0.547764 0.744761 0.755259
O O9 0.654460 0.000000 0.805615
O O10 0.404835 0.500000 0.764946
O O11 0.308063 0.710020 0.633270
O O12 0.322515 0.500000 0.252662
O O13 0.250000 0.250000 0.500000
O O14 0.122388 0.000000 0.377910
#
# Coordination Sequence:
#
# PCOD8102461 Si02
#       6
#     4   8   8   8   8   8
#     4  10  20  36  64  94 122 154 194 244 300 358
#     4  10  22  40  63  90 120 157 199 247 303 360
#     4  12  25  40  61  88 120 161 204 248 300 352
#     4  10  22  39  61  90 122 156 196 245 298 355
#     4  10  21  38  61  90 123 158 200 247 299 359
#     4  11  24  42  63  89 123 161 201 244 295 356
#
# _framework density 21.043185000000001
#
# number of rings (size 3 to 8) (size 9 to 14) (size 15 to 20)
#    0.000    1.455    0.000    4.909    0.000   10.909 
#    0.000    0.000    0.000    0.000    0.000    0.000 
#    0.000    0.000    0.000    0.000    0.000    0.000 
#
# Total GULP energy -272837.928325 kJ/mol
# GULP energy per Si atom -12401.724015 kJ/mol
# Density = 2.099529 g / cm^3
# Si number density = 21.043185 Si / 1000 Ang^3
#
#
#
# Elastic Constant Matrix: (Units=GPa)
#
#
# Indices 1 2 3 4 5 6 
#
# 1 121.4996 52.2851 35.3292 0.0014 -11.3488 -0.0001
# 2 52.2851 131.8346 31.6144 0.0002 -3.8614 -0.0042
# 3 35.3292 31.6144 98.9974 -0.0067 -6.9301 -0.0074
# 4 0.0014 0.0002 -0.0067 32.0495 0.0033 -2.1643
# 5 -11.3488 -3.8614 -6.9301 0.0033 27.4967 0.0004
# 6 -0.0001 -0.0042 -0.0074 -2.1643 0.0004 31.6213
#
#
#
# Elastic Compliance Matrix: (Units=1/GPa)
#
#
# Indices 1 2 3 4 5 6 
#
# 1 0.010809 -0.003595 -0.002476 -0.000001 0.003332 -0.000001
# 2 -0.003595 0.009417 -0.001767 0.000000 -0.000607 0.000001
# 3 -0.002476 -0.001767 0.011666 0.000003 0.001670 0.000003
# 4 -0.000001 0.000000 0.000003 0.031347 -0.000004 0.002146
# 5 0.003332 -0.000607 0.001670 -0.000004 0.038079 0.000000
# 6 -0.000001 0.000001 0.000003 0.002146 0.000000 0.031771
#
#
# Mechanical properties :
#
#
# Convention : Reuss Voigt Hill
#
# Bulk Modulus (GPa) = 61.66794 65.64322 63.65558
# Shear Modulus (GPa) = 32.43170 33.77369 33.10270
#
# Velocity S-wave (km/s) = 3.93007 4.01055 3.97051
# Velocity P-wave (km/s) = 7.06845 7.26005 7.16489
#
# Compressibility (1/GPa) = 0.01621588
#
# Stress axis : x y z
#
# Youngs Moduli (GPa) = 92.51627 106.18996 85.71951
#
# Poissons Ratio (x) = 0.38180 0.21223
# Poissons Ratio (y) = 0.33264 0.15144
# Poissons Ratio (z) = 0.22906 0.18760
#
# Static dielectric constant tensor:
#      x y z
#    x 3.969080 0.000010 0.079470 
#    y 0.000010 3.770690 0.000000 
#    z 0.079470 0.000000 3.833280 
# 
# 
# High freq. dielectric constant tensor:
#      x y z
#    x 1.827850 0.000000 -0.002240 
#    y 0.000000 1.827540 0.000000 
#    z -0.002240 0.000000 1.829330 
# 
# From -- ./inp_files/382612.got.cif
#   From: 2010.06.25/outbox.cif.g09.slc.cpg/sg12_192_cif.got.tgz:382612.got - 2010.06.28 00:19:55.
