data_PCOD8102627
_publ_section_title
;
Structure prediction by ZEFSAII (Michael W. Deem and Ramdas Pophale) SiO2 
 PCOD8102627
Probable space group: C 2/M
;
_chemical_formula_sum "Si O2"
_cell_formula_units_Z 56
_cell_length_a 9.499423
_cell_length_b 25.951299
_cell_length_c 14.112788
_cell_angle_alpha 90.000000
_cell_angle_beta 63.502694
_cell_angle_gamma 90.000000
_cell_volume 3113.655142
_symmetry_space_group_name_H-M "C 2/M"
_symmetry_group_IT_number 12
_symmetry_cell_setting 'monoclinic'
loop_
_space_group_symop_operation_xyz
x,y,z
-x,y,-z
-x,-y,-z
x,-y,z
1/2+x,1/2+y,z
1/2-x,1/2+y,-z
1/2-x,1/2-y,-z
1/2+x,1/2-y,z
loop_
_atom_site_type_symbol
_atom_site_label
_atom_site_fract_x
_atom_site_fract_y
_atom_site_fract_z
Si Si1 0.306333 0.441946 0.287709
Si Si2 0.501457 0.637019 0.104747
Si Si3 0.982919 0.609147 0.397859
Si Si4 0.157858 0.336588 0.990315
Si Si5 0.951743 0.691621 0.779342
Si Si6 0.659590 0.747542 0.848075
Si Si7 0.347725 0.558993 0.492349
O O1 0.339764 0.500000 0.240599
O O2 0.392116 0.399094 0.200132
O O3 0.373707 0.435276 0.372701
O O4 0.118090 0.433657 0.341774
O O5 0.681566 0.635500 0.090141
O O6 0.444051 0.695904 0.120240
O O7 0.500000 0.613780 0.000000
O O8 0.811935 0.586506 0.427645
O O9 0.000000 0.630551 0.500000
O O10 0.002412 0.654708 0.318498
O O11 0.149394 0.278007 0.951316
O O12 0.154064 0.335215 0.106037
O O13 0.000000 0.366309 0.000000
O O14 0.840601 0.735721 0.769246
O O15 0.107430 0.715062 0.778788
O O16 0.500000 0.583157 0.500000
O O17 0.328982 0.500000 0.528669
#
# Coordination Sequence:
#
# PCOD8102627 Si02
#       7
#     8   8   8   8   8   8   8
#     4  10  21  36  58  82 105 139 179 219 270 320
#     4  12  20  33  53  78 112 143 175 223 262 313
#     4  10  20  37  58  79 108 139 179 220 266 317
#     4  10  21  31  52  80 109 141 182 218 261 310
#     4  11  20  34  52  80 107 144 179 219 261 309
#     4  11  20  32  54  78 109 141 179 217 258 309
#     4   9  19  37  60  82 104 132 176 230 273 315
#
# _framework density 17.985292000000001
#
# number of rings (size 3 to 8) (size 9 to 14) (size 15 to 20)
#    0.000    1.571    4.286    2.143    0.000    4.286 
#    0.000    0.714    0.000    0.429    0.000    0.000 
#    0.000    0.000    0.000    0.000    0.000    0.000 
#
# Total GULP energy -347061.981229 kJ/mol
# GULP energy per Si atom -12395.070758 kJ/mol
# Density = 1.794436 g / cm^3
# Si number density = 17.985292 Si / 1000 Ang^3
#
#
#
# Elastic Constant Matrix: (Units=GPa)
#
#
# Indices 1 2 3 4 5 6 
#
# 1 140.3824 29.6815 49.4819 0.0000 -6.2907 0.0000
# 2 29.6815 54.1762 55.2935 0.0000 -0.9580 0.0000
# 3 49.4819 55.2935 99.4336 0.0000 -2.8721 0.0000
# 4 0.0000 0.0000 0.0000 25.5988 0.0000 -3.7563
# 5 -6.2907 -0.9580 -2.8721 0.0000 23.1055 0.0000
# 6 0.0000 0.0000 0.0000 -3.7563 0.0000 23.2118
#
#
#
# Elastic Compliance Matrix: (Units=1/GPa)
#
#
# Indices 1 2 3 4 5 6 
#
# 1 0.008733 -0.000858 -0.003815 0.000000 0.001868 0.000000
# 2 -0.000858 0.042800 -0.023413 0.000000 -0.001369 0.000000
# 3 -0.003815 -0.023413 0.025007 0.000000 0.001099 0.000000
# 4 0.000000 0.000000 0.000000 0.040015 0.000000 0.006475
# 5 0.001868 -0.001369 0.001099 0.000000 0.043868 0.000000
# 6 0.000000 0.000000 0.000000 0.006475 0.000000 0.044129
#
#
# Mechanical properties :
#
#
# Convention : Reuss Voigt Hill
#
# Bulk Modulus (GPa) = 49.09633 62.54511 55.82072
# Shear Modulus (GPa) = 18.69064 25.01892 21.85478
#
# Velocity S-wave (km/s) = 3.22719 3.73376 3.48968
# Velocity P-wave (km/s) = 6.42212 7.31021 6.88051
#
# Compressibility (1/GPa) = 0.02036812
#
# Stress axis : x y z
#
# Youngs Moduli (GPa) = 114.50580 23.36438 39.98917
#
# Poissons Ratio (x) = 0.02005 0.15255
# Poissons Ratio (y) = 0.09826 0.93627
# Poissons Ratio (z) = 0.43682 0.54703
#
# Static dielectric constant tensor:
#      x y z
#    x 3.860120 0.000000 0.012620 
#    y 0.000000 3.023030 0.000000 
#    z 0.012620 0.000000 3.158270 
# 
# 
# High freq. dielectric constant tensor:
#      x y z
#    x 1.725030 0.000000 -0.001220 
#    y 0.000000 1.661580 0.000000 
#    z -0.001220 0.000000 1.680660 
# 
# From -- ./inp_files/198366.got.cif
#   From: 2010.06.25/outbox.cif.g09.slc.cpg/sg12_100_cif.got.tgz:198366.got - 2010.06.28 00:19:55.
