data_PCOD8102323
_publ_section_title
;
Structure prediction by ZEFSAII (Michael W. Deem and Ramdas Pophale) SiO2 
 PCOD8102323
Probable space group: C 2/M
;
_chemical_formula_sum "Si O2"
_cell_formula_units_Z 56
_cell_length_a 17.646542
_cell_length_b 13.930526
_cell_length_c 17.687120
_cell_angle_alpha 90.000000
_cell_angle_beta 39.452631
_cell_angle_gamma 90.000000
_cell_volume 2762.859794
_symmetry_space_group_name_H-M "C 2/M"
_symmetry_group_IT_number 12
_symmetry_cell_setting 'monoclinic'
loop_
_space_group_symop_operation_xyz
x,y,z
-x,y,-z
-x,-y,-z
x,-y,z
1/2+x,1/2+y,z
1/2-x,1/2+y,-z
1/2-x,1/2-y,-z
1/2+x,1/2-y,z
loop_
_atom_site_type_symbol
_atom_site_label
_atom_site_fract_x
_atom_site_fract_y
_atom_site_fract_z
Si Si1 0.166108 0.249102 0.492594
Si Si2 0.737677 0.200203 0.866643
Si Si3 0.024560 0.769651 0.244973
Si Si4 0.136003 0.892709 0.893595
Si Si5 0.532587 0.110463 0.120851
Si Si6 0.759412 0.610993 0.294865
Si Si7 0.829907 0.106330 0.308189
O O1 0.250000 0.250000 0.500000
O O2 0.190903 0.159871 0.417861
O O3 0.200417 0.348264 0.425454
O O4 0.031765 0.246746 0.627829
O O5 0.846472 0.182682 0.841088
O O6 0.712951 0.314674 0.880036
O O7 0.778729 0.158205 0.754555
O O8 0.622586 0.145399 0.986683
O O9 0.046570 0.668176 0.187758
O O10 0.942499 0.835957 0.255047
O O11 0.170983 0.894467 0.780147
O O12 0.153156 0.000000 0.915949
O O13 0.000000 0.859621 0.000000
O O14 0.400241 0.126758 0.191944
O O15 0.557950 0.000000 0.119903
O O16 0.722791 0.500000 0.324428
O O17 0.836214 0.000000 0.338057
#
# Coordination Sequence:
#
# PCOD8102323 Si02
#       7
#     8   8   8   8   8   8   8
#     4  10  20  40  62  87 119 161 212 251 302 362
#     4  12  23  39  62  92 136 160 198 257 323 379
#     4  11  24  40  60  91 128 167 200 256 314 369
#     4  10  20  36  62  88 117 162 210 257 305 361
#     4  11  23  41  65  91 121 168 216 253 303 368
#     4  11  22  40  66  93 123 163 211 259 305 368
#     4  10  20  38  62  86 113 157 215 256 292 362
#
# _framework density 20.268854000000001
#
# number of rings (size 3 to 8) (size 9 to 14) (size 15 to 20)
#    0.000    1.286    4.286    3.000    0.000    6.286 
#    0.000    2.143    0.000    1.714    0.000    0.000 
#    0.000    0.000    0.000    0.000    0.000    0.000 
#
# Total GULP energy -347134.410509 kJ/mol
# GULP energy per Si atom -12397.657518 kJ/mol
# Density = 2.022272 g / cm^3
# Si number density = 20.268854 Si / 1000 Ang^3
#
#
#
# Elastic Constant Matrix: (Units=GPa)
#
#
# Indices 1 2 3 4 5 6 
#
# 1 42.8618 32.3825 3.3113 0.0000 -9.7670 0.0000
# 2 32.3825 129.7909 29.1818 0.0000 12.0302 0.0000
# 3 3.3113 29.1818 83.7694 0.0000 12.5720 0.0000
# 4 0.0000 0.0000 0.0000 46.1626 0.0000 -5.7869
# 5 -9.7670 12.0302 12.5720 0.0000 17.0626 0.0000
# 6 0.0000 0.0000 0.0000 -5.7869 0.0000 26.3564
#
#
#
# Elastic Compliance Matrix: (Units=1/GPa)
#
#
# Indices 1 2 3 4 5 6 
#
# 1 0.041081 -0.012918 -0.002271 0.000000 0.034297 0.000000
# 2 -0.012918 0.012700 -0.001641 0.000000 -0.015140 0.000000
# 3 -0.002271 -0.001641 0.014190 0.000000 -0.010598 0.000000
# 4 0.000000 0.000000 0.000000 0.022276 0.000000 0.004891
# 5 0.034297 -0.015140 -0.010598 0.000000 0.096723 0.000000
# 6 0.000000 0.000000 0.000000 0.004891 0.000000 0.039015
#
#
# Mechanical properties :
#
#
# Convention : Reuss Voigt Hill
#
# Bulk Modulus (GPa) = 29.14608 42.90817 36.02712
# Shear Modulus (GPa) = 18.44451 30.68606 24.56529
#
# Velocity S-wave (km/s) = 3.01988 3.89517 3.48512
# Velocity P-wave (km/s) = 5.15466 6.43780 5.83163
#
# Compressibility (1/GPa) = 0.03430993
#
# Stress axis : x y z
#
# Youngs Moduli (GPa) = 24.34189 78.73990 70.47408
#
# Poissons Ratio (x) = 1.01717 0.16005
# Poissons Ratio (y) = 0.31445 0.11568
# Poissons Ratio (z) = 0.05528 0.12925
#
# Static dielectric constant tensor:
#      x y z
#    x 3.399500 0.000000 0.116470 
#    y 0.000000 4.332670 0.000000 
#    z 0.116470 0.000000 4.021470 
# 
# 
# High freq. dielectric constant tensor:
#      x y z
#    x 1.771220 0.000000 0.013070 
#    y 0.000000 1.799460 0.000000 
#    z 0.013070 0.000000 1.803620 
# 
# From -- ./inp_files/277808.got.cif
#   From: 2010.06.25/outbox.cif.g09.slc.cpg/sg12_139_cif.got.tgz:277808.got - 2010.06.28 00:19:55.
