data_PCOD8102585
_publ_section_title
;
Structure prediction by ZEFSAII (Michael W. Deem and Ramdas Pophale) SiO2 
 PCOD8102585
Probable space group: C 2/M
;
_chemical_formula_sum "Si O2"
_cell_formula_units_Z 56
_cell_length_a 23.132527
_cell_length_b 11.011941
_cell_length_c 11.304151
_cell_angle_alpha 90.000000
_cell_angle_beta 97.408834
_cell_angle_gamma 90.000000
_cell_volume 2855.511319
_symmetry_space_group_name_H-M "C 2/M"
_symmetry_group_IT_number 12
_symmetry_cell_setting 'monoclinic'
loop_
_space_group_symop_operation_xyz
x,y,z
-x,y,-z
-x,-y,-z
x,-y,z
1/2+x,1/2+y,z
1/2-x,1/2+y,-z
1/2-x,1/2-y,-z
1/2+x,1/2-y,z
loop_
_atom_site_type_symbol
_atom_site_label
_atom_site_fract_x
_atom_site_fract_y
_atom_site_fract_z
Si Si1 0.150075 0.865706 0.203700
Si Si2 0.161496 0.708188 0.429928
Si Si3 0.434433 0.640847 0.026275
Si Si4 0.102917 0.640439 0.817516
Si Si5 0.231518 0.711815 0.864616
Si Si6 0.439953 0.864429 0.445625
Si Si7 0.778478 0.132821 0.359479
O O1 0.138858 0.792015 0.319007
O O2 0.217478 0.866973 0.181333
O O3 0.130816 0.000000 0.231904
O O4 0.108932 0.817284 0.089009
O O5 0.106002 0.632873 0.458834
O O6 0.182957 0.781062 0.549901
O O7 0.212866 0.624049 0.393988
O O8 0.419869 0.500000 0.065362
O O9 0.426769 0.750149 0.117251
O O10 0.500000 0.643584 0.000000
O O11 0.081215 0.500000 0.839458
O O12 0.172404 0.635022 0.855352
O O13 0.088677 0.686714 0.681411
O O14 0.221710 0.828223 0.777836
O O15 0.250000 0.750000 0.000000
O O16 0.500000 0.794747 0.500000
O O17 0.458351 0.000000 0.418763
O O18 0.806409 0.000000 0.371909
#
# Coordination Sequence:
#
# PCOD8102585 Si02
#       7
#     8   8   8   8   8   8   8
#     4  10  21  37  59  85 116 155 197 243 296 356
#     4  10  20  37  57  83 114 148 197 241 296 353
#     4  10  23  43  63  86 121 164 203 244 299 357
#     4  11  23  41  65  93 121 157 206 254 304 359
#     4  11  21  38  57  88 122 157 193 246 304 363
#     4  10  22  40  61  84 116 155 195 251 307 353
#     4  10  21  35  57  84 115 154 194 240 295 357
#
# _framework density 19.611198000000002
#
# number of rings (size 3 to 8) (size 9 to 14) (size 15 to 20)
#    0.000    1.714    2.857    1.286    2.000    2.000 
#    0.000    0.714    0.000    2.143    0.000    0.000 
#    0.000    0.000    0.000    0.000    0.000    0.000 
#
# Total GULP energy -346937.116865 kJ/mol
# GULP energy per Si atom -12390.611317 kJ/mol
# Density = 1.956656 g / cm^3
# Si number density = 19.611198 Si / 1000 Ang^3
#
#
#
# Elastic Constant Matrix: (Units=GPa)
#
#
# Indices 1 2 3 4 5 6 
#
# 1 89.3772 15.7168 21.2796 0.0000 2.5194 0.0000
# 2 15.7168 86.0478 44.9779 0.0000 -9.7221 0.0000
# 3 21.2796 44.9779 125.6270 0.0000 -2.0647 0.0000
# 4 0.0000 0.0000 0.0000 10.2963 0.0000 1.3114
# 5 2.5194 -9.7221 -2.0647 0.0000 25.7232 0.0000
# 6 0.0000 0.0000 0.0000 1.3114 0.0000 18.9767
#
#
#
# Elastic Compliance Matrix: (Units=1/GPa)
#
#
# Indices 1 2 3 4 5 6 
#
# 1 0.011875 -0.001618 -0.001463 0.000000 -0.001892 0.000000
# 2 -0.001618 0.015190 -0.005074 0.000000 0.005492 0.000000
# 3 -0.001463 -0.005074 0.010009 0.000000 -0.000971 0.000000
# 4 0.000000 0.000000 0.000000 0.097984 0.000000 -0.006771
# 5 -0.001892 0.005492 -0.000971 0.000000 0.041059 0.000000
# 6 0.000000 0.000000 0.000000 -0.006771 0.000000 0.053164
#
#
# Mechanical properties :
#
#
# Convention : Reuss Voigt Hill
#
# Bulk Modulus (GPa) = 48.16316 51.66676 49.91496
# Shear Modulus (GPa) = 19.80110 25.60444 22.70277
#
# Velocity S-wave (km/s) = 3.18100 3.61723 3.40611
# Velocity P-wave (km/s) = 6.17284 6.62182 6.40127
#
# Compressibility (1/GPa) = 0.02076276
#
# Stress axis : x y z
#
# Youngs Moduli (GPa) = 84.21230 65.83402 99.91390
#
# Poissons Ratio (x) = 0.10651 0.14620
# Poissons Ratio (y) = 0.13624 0.50697
# Poissons Ratio (z) = 0.12323 0.33404
#
# Static dielectric constant tensor:
#      x y z
#    x 3.625720 0.000000 0.193460 
#    y 0.000000 3.432220 0.000000 
#    z 0.193460 0.000000 3.747890 
# 
# 
# High freq. dielectric constant tensor:
#      x y z
#    x 1.762390 0.000000 0.010020 
#    y 0.000000 1.751800 0.000000 
#    z 0.010020 0.000000 1.773620 
# 
# From -- ./inp_files/165050.got.cif
#   From: 2010.06.25/outbox.cif.g09.slc.cpg/sg12_83_cif.got.tgz:165050.got - 2010.06.28 00:19:55.
