data_PCOD8102760
_publ_section_title
;
Structure prediction by ZEFSAII (Michael W. Deem and Ramdas Pophale) SiO2 
 PCOD8102760
Probable space group: C 2/M
;
_chemical_formula_sum "Si O2"
_cell_formula_units_Z 64
_cell_length_a 30.728956
_cell_length_b 9.127765
_cell_length_c 12.079893
_cell_angle_alpha 90.000000
_cell_angle_beta 89.890196
_cell_angle_gamma 90.000000
_cell_volume 3388.242970
_symmetry_space_group_name_H-M "C 2/M"
_symmetry_group_IT_number 12
_symmetry_cell_setting 'monoclinic'
loop_
_space_group_symop_operation_xyz
x,y,z
-x,y,-z
-x,-y,-z
x,-y,z
1/2+x,1/2+y,z
1/2-x,1/2+y,-z
1/2-x,1/2-y,-z
1/2+x,1/2-y,z
loop_
_atom_site_type_symbol
_atom_site_label
_atom_site_fract_x
_atom_site_fract_y
_atom_site_fract_z
Si Si1 0.831642 0.173270 0.270415
Si Si2 0.949322 0.661464 0.002687
Si Si3 0.505496 0.326404 0.373190
Si Si4 0.423548 0.168818 0.765043
Si Si5 0.676116 0.167812 0.284722
Si Si6 0.204452 0.827176 0.495872
Si Si7 0.072980 0.826410 0.781239
Si Si8 0.747230 0.326836 0.881791
O O1 0.820819 0.222505 0.394441
O O2 0.879543 0.238473 0.248068
O O3 0.795600 0.231952 0.183286
O O4 0.832010 0.000000 0.260744
O O5 0.927836 0.500000 0.022542
O O6 0.934957 0.729939 0.886071
O O7 0.936439 0.776103 0.095415
O O8 0.000000 0.640717 0.000000
O O9 0.500000 0.276143 0.500000
O O10 0.509572 0.500000 0.363991
O O11 0.550257 0.258802 0.327398
O O12 0.463805 0.267719 0.303717
O O13 0.372250 0.189321 0.757883
O O14 0.437649 0.000000 0.752962
O O15 0.678526 0.272838 0.389830
O O16 0.710254 0.216061 0.190070
O O17 0.685800 0.000000 0.319643
O O18 0.250000 0.750000 0.500000
O O19 0.210880 0.000000 0.490530
O O20 0.073453 0.000000 0.777125
O O21 0.745060 0.500000 0.901131
O O22 0.750000 0.250000 0.000000
#
# Coordination Sequence:
#
# PCOD8102760 Si02
#       8
#     8   8   8   8   8   8   8   8
#     4   9  20  38  58  81 113 151 184 230 288 334
#     4  10  20  37  59  81 110 148 190 234 286 341
#     4  10  22  38  57  83 116 149 188 236 283 339
#     4  10  22  39  59  83 115 153 190 234 287 341
#     4  10  22  40  59  84 118 153 191 238 290 337
#     4  11  21  38  64  87 115 152 193 238 287 341
#     4  10  21  37  58  83 111 147 190 234 283 335
#     4  10  21  39  58  80 115 151 186 232 285 338
#
# _framework density 18.888846999999998
#
# number of rings (size 3 to 8) (size 9 to 14) (size 15 to 20)
#    0.000    2.000    2.500    0.375    3.500    2.000 
#    0.000    1.250    0.000    0.000    0.000    0.000 
#    0.000    0.000    0.000    0.000    0.000    0.000 
#
# Total GULP energy -396788.599867 kJ/mol
# GULP energy per Si atom -12399.643746 kJ/mol
# Density = 1.884585 g / cm^3
# Si number density = 18.888847 Si / 1000 Ang^3
#
#
#
# Elastic Constant Matrix: (Units=GPa)
#
#
# Indices 1 2 3 4 5 6 
#
# 1 126.3729 26.0822 58.9189 0.0000 -8.7983 0.0000
# 2 26.0822 34.0087 37.3371 0.0000 -1.2565 0.0000
# 3 58.9189 37.3371 158.9721 0.0000 -1.9751 0.0000
# 4 0.0000 0.0000 0.0000 36.0483 0.0000 -2.6207
# 5 -8.7983 -1.2565 -1.9751 0.0000 30.5242 0.0000
# 6 0.0000 0.0000 0.0000 -2.6207 0.0000 27.7097
#
#
#
# Elastic Compliance Matrix: (Units=1/GPa)
#
#
# Indices 1 2 3 4 5 6 
#
# 1 0.010346 -0.004937 -0.002642 0.000000 0.002608 0.000000
# 2 -0.004937 0.042009 -0.008039 0.000000 -0.000214 0.000000
# 3 -0.002642 -0.008039 0.009152 0.000000 -0.000500 0.000000
# 4 0.000000 0.000000 0.000000 0.027933 0.000000 0.002642
# 5 0.002608 -0.000214 -0.000500 0.000000 0.033471 0.000000
# 6 0.000000 0.000000 0.000000 0.002642 0.000000 0.036338
#
#
# Mechanical properties :
#
#
# Convention : Reuss Voigt Hill
#
# Bulk Modulus (GPa) = 33.03742 62.66999 47.85371
# Shear Modulus (GPa) = 24.92831 31.99082 28.45957
#
# Velocity S-wave (km/s) = 3.63676 4.11984 3.88582
# Velocity P-wave (km/s) = 5.92985 7.47537 6.74701
#
# Compressibility (1/GPa) = 0.03026870
#
# Stress axis : x y z
#
# Youngs Moduli (GPa) = 96.65988 23.80453 109.26939
#
# Poissons Ratio (x) = 0.11752 0.28873
# Poissons Ratio (y) = 0.47720 0.87845
# Poissons Ratio (z) = 0.25541 0.19137
#
# Static dielectric constant tensor:
#      x y z
#    x 3.249290 0.000000 -0.521520 
#    y 0.000000 3.364790 0.000000 
#    z -0.521520 0.000000 2.765310 
# 
# 
# High freq. dielectric constant tensor:
#      x y z
#    x 1.746780 0.000000 0.003650 
#    y 0.000000 1.712540 0.000000 
#    z 0.003650 0.000000 1.745330 
# 
# From -- ./inp_files/187552.got.cif
#   From: 2010.06.25/outbox.cif.g09.slc.cpg/sg12_94_cif.got.tgz:187552.got - 2010.06.28 00:19:55.
