data_PCOD8102377
_publ_section_title
;
Structure prediction by ZEFSAII (Michael W. Deem and Ramdas Pophale) SiO2 
 PCOD8102377
Probable space group: C 2/M
;
_chemical_formula_sum "Si O2"
_cell_formula_units_Z 64
_cell_length_a 9.272984
_cell_length_b 18.304714
_cell_length_c 23.483390
_cell_angle_alpha 90.000000
_cell_angle_beta 52.182606
_cell_angle_gamma 90.000000
_cell_volume 3148.859240
_symmetry_space_group_name_H-M "C 2/M"
_symmetry_group_IT_number 12
_symmetry_cell_setting 'monoclinic'
loop_
_space_group_symop_operation_xyz
x,y,z
-x,y,-z
-x,-y,-z
x,-y,z
1/2+x,1/2+y,z
1/2-x,1/2+y,-z
1/2-x,1/2-y,-z
1/2+x,1/2-y,z
loop_
_atom_site_type_symbol
_atom_site_label
_atom_site_fract_x
_atom_site_fract_y
_atom_site_fract_z
Si Si1 0.671584 0.587034 0.993577
Si Si2 0.850263 0.917236 0.875876
Si Si3 0.557370 0.916346 0.858078
Si Si4 0.424580 0.586038 0.386055
Si Si5 0.760177 0.326614 0.283473
Si Si6 0.305112 0.323524 0.516336
Si Si7 0.664007 0.413296 0.719201
Si Si8 0.478622 0.817479 0.679856
O O1 0.677363 0.500000 0.996350
O O2 0.852049 0.612605 0.916336
O O3 0.500000 0.616455 0.000000
O O4 0.657054 0.621647 0.060549
O O5 0.649191 0.914574 0.897918
O O6 0.995329 0.881064 0.797087
O O7 0.915976 0.000000 0.869559
O O8 0.667348 0.859922 0.792695
O O9 0.565161 0.000000 0.831766
O O10 0.420853 0.500000 0.389101
O O11 0.631958 0.613272 0.344689
O O12 0.302650 0.614775 0.467831
O O13 0.351065 0.615759 0.342494
O O14 0.635425 0.254773 0.307412
O O15 0.939969 0.309318 0.276756
O O16 0.500000 0.317662 0.500000
O O17 0.250000 0.250000 0.500000
O O18 0.147075 0.338532 0.599197
O O19 0.661306 0.500000 0.718446
O O20 0.845941 0.386559 0.706258
#
# Coordination Sequence:
#
# PCOD8102377 Si02
#       8
#     8   8   8   8   8   8   8   8
#     4   9  18  31  53  92 131 163 205 254 306 365
#     4   9  17  33  58  88 125 165 203 249 306 369
#     4  10  20  36  62  93 127 166 207 255 312 370
#     4  11  23  42  66  95 129 163 207 263 318 373
#     4  12  24  42  64  92 123 168 211 262 315 374
#     4  12  25  44  66  90 121 168 211 261 315 376
#     4  10  23  41  65  97 128 162 206 264 319 368
#     4  12  26  43  65  92 123 165 214 261 312 384
#
# _framework density 20.324821
#
# number of rings (size 3 to 8) (size 9 to 14) (size 15 to 20)
#    0.000    1.375    3.750    1.500    3.500    3.250 
#    0.000    1.250    0.000    0.750    0.000    0.000 
#    0.000    0.000    0.000    0.000    0.000    0.000 
#
# Total GULP energy -396698.951622 kJ/mol
# GULP energy per Si atom -12396.842238 kJ/mol
# Density = 2.027856 g / cm^3
# Si number density = 20.324821 Si / 1000 Ang^3
#
#
#
# Elastic Constant Matrix: (Units=GPa)
#
#
# Indices 1 2 3 4 5 6 
#
# 1 133.8819 28.4227 47.3516 -0.0015 -5.7320 0.0007
# 2 28.4227 46.5805 32.1714 -0.0004 2.6008 0.0003
# 3 47.3516 32.1714 126.9939 -0.0009 -5.3012 0.0000
# 4 -0.0015 -0.0004 -0.0009 22.9290 -0.0004 -2.9524
# 5 -5.7320 2.6008 -5.3012 -0.0004 38.0824 0.0001
# 6 0.0007 0.0003 0.0000 -2.9524 0.0001 26.7392
#
#
#
# Elastic Compliance Matrix: (Units=1/GPa)
#
#
# Indices 1 2 3 4 5 6 
#
# 1 0.009224 -0.004080 -0.002350 0.000000 0.001340 0.000000
# 2 -0.004080 0.028107 -0.005738 0.000000 -0.003332 0.000000
# 3 -0.002350 -0.005738 0.010265 0.000000 0.001467 0.000000
# 4 0.000000 0.000000 0.000000 0.044242 0.000001 0.004885
# 5 0.001340 -0.003332 0.001467 0.000001 0.026892 0.000000
# 6 0.000000 0.000000 0.000000 0.004885 0.000000 0.037938
#
#
# Mechanical properties :
#
#
# Convention : Reuss Voigt Hill
#
# Bulk Modulus (GPa) = 42.99170 58.14974 50.57072
# Shear Modulus (GPa) = 26.48894 30.85081 28.66988
#
# Velocity S-wave (km/s) = 3.61401 3.90024 3.75985
# Velocity P-wave (km/s) = 6.21394 6.99677 6.61694
#
# Compressibility (1/GPa) = 0.02326030
#
# Stress axis : x y z
#
# Youngs Moduli (GPa) = 108.41403 35.57817 97.41464
#
# Poissons Ratio (x) = 0.14517 0.22889
# Poissons Ratio (y) = 0.44236 0.55898
# Poissons Ratio (z) = 0.25474 0.20415
#
# Static dielectric constant tensor:
#      x y z
#    x 3.921510 0.000000 0.168500 
#    y 0.000000 3.306630 0.000000 
#    z 0.168500 0.000000 3.546370 
# 
# 
# High freq. dielectric constant tensor:
#      x y z
#    x 1.804880 0.000000 0.000080 
#    y 0.000000 1.759020 0.000000 
#    z 0.000080 0.000000 1.805160 
# 
# From -- ./inp_files/301699.got.cif
#   From: 2010.06.25/outbox.cif.g09.slc.cpg/sg12_151_cif.got.tgz:301699.got - 2010.06.28 00:19:55.
