data_PCOD8102359
_publ_section_title
;
Structure prediction by ZEFSAII (Michael W. Deem and Ramdas Pophale) SiO2 
 PCOD8102359
Probable space group: C 2/M
;
_chemical_formula_sum "Si O2"
_cell_formula_units_Z 64
_cell_length_a 30.679575
_cell_length_b 14.834929
_cell_length_c 7.674551
_cell_angle_alpha 90.000000
_cell_angle_beta 121.949635
_cell_angle_gamma 90.000000
_cell_volume 2963.784266
_symmetry_space_group_name_H-M "C 2/M"
_symmetry_group_IT_number 12
_symmetry_cell_setting 'monoclinic'
loop_
_space_group_symop_operation_xyz
x,y,z
-x,y,-z
-x,-y,-z
x,-y,z
1/2+x,1/2+y,z
1/2-x,1/2+y,-z
1/2-x,1/2-y,-z
1/2+x,1/2-y,z
loop_
_atom_site_type_symbol
_atom_site_label
_atom_site_fract_x
_atom_site_fract_y
_atom_site_fract_z
Si Si1 0.579441 0.786801 0.853888
Si Si2 0.132984 0.096485 0.608938
Si Si3 0.986592 0.401180 0.774668
Si Si4 0.393935 0.216593 0.492196
Si Si5 0.175122 0.397728 0.158553
Si Si6 0.197742 0.599395 0.587838
Si Si7 0.754589 0.855158 0.027050
Si Si8 0.450077 0.598751 0.277868
O O1 0.532002 0.855057 0.763368
O O2 0.595457 0.781085 0.688799
O O3 0.561066 0.685104 0.874165
O O4 0.627730 0.826490 0.063461
O O5 0.110829 0.179858 0.447683
O O6 0.191314 0.114415 0.785353
O O7 0.100219 0.087755 0.713448
O O8 0.129972 0.000000 0.500608
O O9 0.974731 0.500000 0.665542
O O10 0.937654 0.336581 0.684107
O O11 0.000000 0.417017 0.000000
O O12 0.339995 0.170309 0.406458
O O13 0.152836 0.500000 0.112353
O O14 0.208167 0.378552 0.405446
O O15 0.210689 0.388739 0.065958
O O16 0.173134 0.500000 0.546934
O O17 0.248120 0.603393 0.817830
O O18 0.750000 0.750000 0.000000
O O19 0.500000 0.622433 0.500000
O O20 0.458914 0.500000 0.202133
#
# Coordination Sequence:
#
# PCOD8102359 Si02
#       8
#     8   8   8   8   8   8   8   8
#     4  11  20  36  61  93 126 161 208 257 313 376
#     4  10  20  36  62  91 121 159 206 260 311 366
#     4  11  24  39  58  87 124 162 203 255 313 376
#     4  11  21  38  60  91 121 161 210 255 309 375
#     4  11  24  40  63  95 131 171 210 257 318 383
#     4  11  23  40  63  90 127 172 212 256 315 379
#     4  12  22  42  64  93 127 166 215 266 317 371
#     4   9  18  35  60  91 121 155 207 260 308 371
#
# _framework density 21.594013
#
# number of rings (size 3 to 8) (size 9 to 14) (size 15 to 20)
#    0.000    1.250    2.500    5.250    0.000    4.500 
#    0.000    0.000    0.000    3.750    0.000    0.000 
#    0.000    0.000    0.000    0.000    0.000    0.000 
#
# Total GULP energy -396471.249503 kJ/mol
# GULP energy per Si atom -12389.726547 kJ/mol
# Density = 2.154486 g / cm^3
# Si number density = 21.594013 Si / 1000 Ang^3
#
#
#
# Elastic Constant Matrix: (Units=GPa)
#
#
# Indices 1 2 3 4 5 6 
#
# 1 50.1370 31.5567 22.4323 0.0000 14.4807 0.0000
# 2 31.5567 216.6046 55.3473 0.0000 9.7105 0.0000
# 3 22.4323 55.3473 85.5828 0.0000 2.9653 0.0000
# 4 0.0000 0.0000 0.0000 41.1614 0.0000 11.5811
# 5 14.4807 9.7105 2.9653 0.0000 34.0119 0.0000
# 6 0.0000 0.0000 0.0000 11.5811 0.0000 21.1231
#
#
#
# Elastic Compliance Matrix: (Units=1/GPa)
#
#
# Indices 1 2 3 4 5 6 
#
# 1 0.026567 -0.002063 -0.005274 0.000000 -0.010262 0.000000
# 2 -0.002063 0.005746 -0.003159 0.000000 -0.000487 0.000000
# 3 -0.005274 -0.003159 0.015046 0.000000 0.001835 0.000000
# 4 0.000000 0.000000 0.000000 0.028726 0.000000 -0.015750
# 5 -0.010262 -0.000487 0.001835 0.000000 0.033750 0.000000
# 6 0.000000 0.000000 0.000000 -0.015750 0.000000 0.055977
#
#
# Mechanical properties :
#
#
# Convention : Reuss Voigt Hill
#
# Bulk Modulus (GPa) = 37.92351 63.44411 50.68381
# Shear Modulus (GPa) = 25.56337 35.45846 30.51092
#
# Velocity S-wave (km/s) = 3.44440 4.05662 3.76298
# Velocity P-wave (km/s) = 5.78089 7.16838 6.51170
#
# Compressibility (1/GPa) = 0.02636886
#
# Stress axis : x y z
#
# Youngs Moduli (GPa) = 37.63998 174.02984 66.46271
#
# Poissons Ratio (x) = 0.35900 0.35053
# Poissons Ratio (y) = 0.07765 0.20992
# Poissons Ratio (z) = 0.19851 0.54968
#
# Static dielectric constant tensor:
#      x y z
#    x 3.236900 0.000000 0.289550 
#    y 0.000000 5.037790 0.000000 
#    z 0.289550 0.000000 3.900930 
# 
# 
# High freq. dielectric constant tensor:
#      x y z
#    x 1.831280 0.000000 0.019930 
#    y 0.000000 1.882410 0.000000 
#    z 0.019930 0.000000 1.822340 
# 
# From -- ./inp_files/112050.got.cif
#   From: 2010.06.25/outbox.cif.g09.slc.cpg/sg12_57_cif.got.tgz:112050.got - 2010.06.28 00:19:55.
