data_PCOD8102661
_publ_section_title
;
Structure prediction by ZEFSAII (Michael W. Deem and Ramdas Pophale) SiO2 
 PCOD8102661
Probable space group: C 2/M
;
_chemical_formula_sum "Si O2"
_cell_formula_units_Z 64
_cell_length_a 19.900186
_cell_length_b 9.204720
_cell_length_c 18.941048
_cell_angle_alpha 90.000000
_cell_angle_beta 88.132837
_cell_angle_gamma 90.000000
_cell_volume 3467.696452
_symmetry_space_group_name_H-M "C 2/M"
_symmetry_group_IT_number 12
_symmetry_cell_setting 'monoclinic'
loop_
_space_group_symop_operation_xyz
x,y,z
-x,y,-z
-x,-y,-z
x,-y,z
1/2+x,1/2+y,z
1/2-x,1/2+y,-z
1/2-x,1/2-y,-z
1/2+x,1/2-y,z
loop_
_atom_site_type_symbol
_atom_site_label
_atom_site_fract_x
_atom_site_fract_y
_atom_site_fract_z
Si Si1 0.223237 0.665235 0.712827
Si Si2 0.106858 0.830652 0.793018
Si Si3 0.952010 0.327202 0.439924
Si Si4 0.004189 0.672476 0.286232
Si Si5 0.130361 0.167068 0.231421
Si Si6 0.199457 0.332482 0.551737
Si Si7 0.178889 0.167458 0.928571
Si Si8 0.185936 0.831206 0.084900
O O1 0.200093 0.500000 0.730579
O O2 0.171673 0.777187 0.748472
O O3 0.296777 0.697045 0.739229
O O4 0.224824 0.691528 0.629718
O O5 0.041241 0.742000 0.773282
O O6 0.118140 0.802553 0.876367
O O7 0.095647 0.000000 0.777255
O O8 0.952639 0.500000 0.440509
O O9 0.978528 0.272567 0.363257
O O10 0.876264 0.269775 0.454452
O O11 0.000000 0.264616 0.500000
O O12 0.001285 0.500000 0.280017
O O13 0.079847 0.726795 0.273185
O O14 0.132121 0.207190 0.147724
O O15 0.108255 0.000000 0.243497
O O16 0.200409 0.500000 0.529793
O O17 0.250000 0.250000 0.500000
O O18 0.244062 0.253621 0.901191
O O19 0.199877 0.000000 0.926380
O O20 0.156702 0.213473 0.008886
O O21 0.203190 0.000000 0.088321
#
# Coordination Sequence:
#
# PCOD8102661 Si02
#       8
#     8   8   8   8   8   8   8   8
#     4  10  20  37  58  81 113 149 186 228 276 329
#     4  11  21  35  57  84 113 144 187 235 274 324
#     4   9  19  37  58  79 106 142 181 223 272 329
#     4  11  23  39  59  79 109 149 188 227 277 335
#     4  10  21  36  56  82 113 146 183 228 278 328
#     4  10  21  37  57  82 114 143 179 226 273 328
#     4   9  18  31  52  83 112 142 183 228 274 326
#     4   9  17  32  54  80 112 147 180 223 278 330
#
# _framework density 18.456054999999999
#
# number of rings (size 3 to 8) (size 9 to 14) (size 15 to 20)
#    0.000    2.125    2.500    0.750    1.750    2.000 
#    0.000    0.625    0.000    5.625    0.000    0.000 
#    0.000    0.000    0.000    0.000    0.000    0.000 
#
# Total GULP energy -396794.785621 kJ/mol
# GULP energy per Si atom -12399.837051 kJ/mol
# Density = 1.841405 g / cm^3
# Si number density = 18.456055 Si / 1000 Ang^3
#
#
#
# Elastic Constant Matrix: (Units=GPa)
#
#
# Indices 1 2 3 4 5 6 
#
# 1 81.8713 32.4475 42.6687 0.0000 -3.7523 0.0000
# 2 32.4475 55.4217 31.4528 0.0000 0.6728 0.0000
# 3 42.6687 31.4528 89.0357 0.0000 5.4072 0.0000
# 4 0.0000 0.0000 0.0000 23.3659 0.0000 -4.8763
# 5 -3.7523 0.6728 5.4072 0.0000 28.7034 0.0000
# 6 0.0000 0.0000 0.0000 -4.8763 0.0000 31.9934
#
#
#
# Elastic Compliance Matrix: (Units=1/GPa)
#
#
# Indices 1 2 3 4 5 6 
#
# 1 0.018727 -0.007235 -0.006654 0.000000 0.003871 0.000000
# 2 -0.007235 0.025390 -0.005471 0.000000 -0.000510 0.000000
# 3 -0.006654 -0.005471 0.016588 0.000000 -0.003866 0.000000
# 4 0.000000 0.000000 0.000000 0.044203 0.000000 0.006737
# 5 0.003871 -0.000510 -0.003866 0.000000 0.036086 0.000000
# 6 0.000000 0.000000 0.000000 0.006737 0.000000 0.032283
#
#
# Mechanical properties :
#
#
# Convention : Reuss Voigt Hill
#
# Bulk Modulus (GPa) = 45.48507 48.82964 47.15735
# Shear Modulus (GPa) = 22.79717 24.79651 23.79684
#
# Velocity S-wave (km/s) = 3.51837 3.66941 3.59469
# Velocity P-wave (km/s) = 6.41902 6.66839 6.54490
#
# Compressibility (1/GPa) = 0.02198524
#
# Stress axis : x y z
#
# Youngs Moduli (GPa) = 53.39949 39.38489 60.28533
#
# Poissons Ratio (x) = 0.28494 0.40113
# Poissons Ratio (y) = 0.38633 0.32984
# Poissons Ratio (z) = 0.35531 0.21549
#
# Static dielectric constant tensor:
#      x y z
#    x 3.367460 0.000000 0.171330 
#    y 0.000000 3.289960 0.000000 
#    z 0.171330 0.000000 3.767930 
# 
# 
# High freq. dielectric constant tensor:
#      x y z
#    x 1.704730 0.000000 0.008940 
#    y 0.000000 1.702340 0.000000 
#    z 0.008940 0.000000 1.731260 
# 
# From -- ./inp_files/281373.got.cif
#   From: 2010.06.25/outbox.cif.g09.slc.cpg/sg12_141_cif.got.tgz:281373.got - 2010.06.28 00:19:55.
