data_PCOD8102095
_publ_section_title
;
Structure prediction by ZEFSAII (Michael W. Deem and Ramdas Pophale) SiO2 
 PCOD8102095
Probable space group: C 2/M
;
_chemical_formula_sum "Si O2"
_cell_formula_units_Z 56
_cell_length_a 30.357434
_cell_length_b 15.351856
_cell_length_c 12.683009
_cell_angle_alpha 90.000000
_cell_angle_beta 28.970486
_cell_angle_gamma 90.000000
_cell_volume 2862.962400
_symmetry_space_group_name_H-M "C 2/M"
_symmetry_group_IT_number 12
_symmetry_cell_setting 'monoclinic'
loop_
_space_group_symop_operation_xyz
x,y,z
-x,y,-z
-x,-y,-z
x,-y,z
1/2+x,1/2+y,z
1/2-x,1/2+y,-z
1/2-x,1/2-y,-z
1/2+x,1/2-y,z
loop_
_atom_site_type_symbol
_atom_site_label
_atom_site_fract_x
_atom_site_fract_y
_atom_site_fract_z
Si Si1 0.718581 0.900920 0.636150
Si Si2 0.346997 0.215747 0.033836
Si Si3 0.423250 0.598991 0.239676
Si Si4 0.451622 0.254918 0.341707
Si Si5 0.102086 0.400346 0.265837
Si Si6 0.080631 0.400317 0.749637
Si Si7 0.703933 0.207915 0.196794
O O1 0.686966 0.832651 0.790374
O O2 0.825445 0.893091 0.389384
O O3 0.672814 0.878752 0.619949
O O4 0.692334 0.000000 0.726051
O O5 0.274497 0.290554 0.147801
O O6 0.442563 0.262448 0.852820
O O7 0.354645 0.145763 0.925608
O O8 0.444271 0.500000 0.230075
O O9 0.423622 0.658581 0.340276
O O10 0.500000 0.634264 0.000000
O O11 0.429642 0.164860 0.326454
O O12 0.388280 0.258996 0.577575
O O13 0.098694 0.500000 0.243347
O O14 0.166645 0.385849 0.233975
O O15 0.000000 0.364864 0.500000
O O16 0.079488 0.500000 0.709325
O O17 0.000000 0.384358 0.000000
O O18 0.750000 0.250000 0.000000
#
# Coordination Sequence:
#
# PCOD8102095 Si02
#       7
#     8   8   8   8   8   8   8
#     4  10  20  37  59  86 118 155 197 245 296 355
#     4  11  21  36  60  88 115 157 198 241 294 364
#     4  10  23  41  59  82 116 161 212 252 285 342
#     4  12  22  37  61  89 119 163 201 248 299 357
#     4  10  20  36  60  89 120 150 186 243 308 362
#     4  10  21  34  54  91 131 156 185 241 307 370
#     4  10  23  40  56  86 120 152 197 246 296 353
#
# _framework density 19.560158999999999
#
# number of rings (size 3 to 8) (size 9 to 14) (size 15 to 20)
#    0.000    1.571    4.286    0.857    0.000    2.857 
#    0.000    0.714    0.000    0.000    0.000    4.000 
#    0.000    0.000    0.000    0.000    0.000    0.000 
#
# Total GULP energy -347057.042299 kJ/mol
# GULP energy per Si atom -12394.894368 kJ/mol
# Density = 1.951564 g / cm^3
# Si number density = 19.560159 Si / 1000 Ang^3
#
#
#
# Elastic Constant Matrix: (Units=GPa)
#
#
# Indices 1 2 3 4 5 6 
#
# 1 92.4273 27.4741 20.3343 0.0000 -29.7249 0.0000
# 2 27.4741 54.5298 12.8441 0.0000 -4.1662 0.0000
# 3 20.3343 12.8441 100.4250 0.0000 -11.4781 0.0000
# 4 0.0000 0.0000 0.0000 14.0578 0.0000 -4.6838
# 5 -29.7249 -4.1662 -11.4781 0.0000 39.2473 0.0000
# 6 0.0000 0.0000 0.0000 -4.6838 0.0000 30.6522
#
#
#
# Elastic Compliance Matrix: (Units=1/GPa)
#
#
# Indices 1 2 3 4 5 6 
#
# 1 0.017081 -0.007431 -0.001158 0.000000 0.011809 0.000000
# 2 -0.007431 0.022210 -0.001769 0.000000 -0.003788 0.000000
# 3 -0.001158 -0.001769 0.010653 0.000000 0.002050 0.000000
# 4 0.000000 0.000000 0.000000 0.074951 0.000000 0.011453
# 5 0.011809 -0.003788 0.002050 0.000000 0.034621 0.000000
# 6 0.000000 0.000000 0.000000 0.011453 0.000000 0.034374
#
#
# Mechanical properties :
#
#
# Convention : Reuss Voigt Hill
#
# Bulk Modulus (GPa) = 34.21486 40.96524 37.59005
# Shear Modulus (GPa) = 22.28679 29.24008 25.76343
#
# Velocity S-wave (km/s) = 3.37916 3.87056 3.63318
# Velocity P-wave (km/s) = 5.72320 6.40029 6.07119
#
# Compressibility (1/GPa) = 0.02922707
#
# Stress axis : x y z
#
# Youngs Moduli (GPa) = 58.54521 45.02514 93.87178
#
# Poissons Ratio (x) = 0.33458 0.10875
# Poissons Ratio (y) = 0.43504 0.16605
# Poissons Ratio (z) = 0.06782 0.07964
#
# Static dielectric constant tensor:
#      x y z
#    x 4.058770 0.000000 -0.346460 
#    y 0.000000 3.492850 0.000000 
#    z -0.346460 0.000000 3.840010 
# 
# 
# High freq. dielectric constant tensor:
#      x y z
#    x 1.762790 0.000000 -0.012400 
#    y 0.000000 1.742880 0.000000 
#    z -0.012400 0.000000 1.777830 
# 
# From -- ./inp_files/189599.got.cif
#   From: 2010.06.25/outbox.cif.g09.slc.cpg/sg12_95_cif.got.tgz:189599.got - 2010.06.28 00:19:55.
