data_PCOD8102840
_publ_section_title
;
Structure prediction by ZEFSAII (Michael W. Deem and Ramdas Pophale) SiO2 
 PCOD8102840
Probable space group: C 2/M
;
_chemical_formula_sum "Si O2"
_cell_formula_units_Z 64
_cell_length_a 17.172729
_cell_length_b 13.653195
_cell_length_c 14.771930
_cell_angle_alpha 90.000000
_cell_angle_beta 62.774945
_cell_angle_gamma 90.000000
_cell_volume 3079.770224
_symmetry_space_group_name_H-M "C 2/M"
_symmetry_group_IT_number 12
_symmetry_cell_setting 'monoclinic'
loop_
_space_group_symop_operation_xyz
x,y,z
-x,y,-z
-x,-y,-z
x,-y,z
1/2+x,1/2+y,z
1/2-x,1/2+y,-z
1/2-x,1/2-y,-z
1/2+x,1/2-y,z
loop_
_atom_site_type_symbol
_atom_site_label
_atom_site_fract_x
_atom_site_fract_y
_atom_site_fract_z
Si Si1 0.795860 0.205646 0.267611
Si Si2 0.342339 0.112603 0.780422
Si Si3 0.030829 0.218212 0.321158
Si Si4 0.663778 0.314259 0.558222
Si Si5 0.216477 0.390876 0.990727
Si Si6 0.173259 0.888300 0.364955
Si Si7 0.581771 0.610308 0.119435
Si Si8 0.408046 0.752434 0.046828
O O1 0.727579 0.130658 0.260668
O O2 0.827764 0.151445 0.342345
O O3 0.753586 0.314558 0.301037
O O4 0.881735 0.215122 0.160008
O O5 0.428627 0.174814 0.714993
O O6 0.297461 0.145722 0.898848
O O7 0.370713 0.000000 0.766475
O O8 0.084772 0.153991 0.365954
O O9 0.028054 0.162147 0.227287
O O10 0.930657 0.239121 0.404681
O O11 0.750000 0.250000 0.500000
O O12 0.663216 0.396214 0.479811
O O13 0.178564 0.500000 0.001023
O O14 0.316354 0.386430 0.907347
O O15 0.168099 0.320401 0.948426
O O16 0.191237 0.000000 0.320493
O O17 0.547627 0.500000 0.128082
O O18 0.570926 0.660409 0.028355
O O19 0.500000 0.812087 0.000000
#
# Coordination Sequence:
#
# PCOD8102840 Si02
#       8
#     8   8   8   8   8   8   8   8
#     4  10  22  39  62  87 122 163 203 245 303 362
#     4  10  20  37  63  89 117 160 209 249 288 350
#     4  11  21  38  65  92 121 158 203 252 303 358
#     4  10  23  43  62  85 121 159 197 251 313 365
#     4  10  20  37  59  84 120 165 208 243 286 346
#     4  10  22  41  66  93 117 152 203 258 309 359
#     4  11  22  37  60  90 124 162 206 247 290 353
#     4  12  23  36  57  87 129 166 197 243 296 357
#
# _framework density 20.780771000000001
#
# number of rings (size 3 to 8) (size 9 to 14) (size 15 to 20)
#    0.000    1.500    2.500    3.375    0.000    4.000 
#    0.000    3.750    0.000    9.750    0.000    0.000 
#    0.000    0.000    0.000    0.000    0.000    0.000 
#
# Total GULP energy -396622.275193 kJ/mol
# GULP energy per Si atom -12394.446100 kJ/mol
# Density = 2.073347 g / cm^3
# Si number density = 20.780771 Si / 1000 Ang^3
#
#
#
# Elastic Constant Matrix: (Units=GPa)
#
#
# Indices 1 2 3 4 5 6 
#
# 1 69.6567 9.2020 39.8350 0.0000 -5.1488 0.0000
# 2 9.2020 74.1775 24.6877 0.0000 -4.0353 0.0000
# 3 39.8350 24.6877 115.7839 0.0000 10.3801 0.0000
# 4 0.0000 0.0000 0.0000 22.2244 0.0000 -0.0488
# 5 -5.1488 -4.0353 10.3801 0.0000 45.7930 0.0000
# 6 0.0000 0.0000 0.0000 -0.0488 0.0000 59.6781
#
#
#
# Elastic Compliance Matrix: (Units=1/GPa)
#
#
# Indices 1 2 3 4 5 6 
#
# 1 0.018432 0.000137 -0.006694 0.000000 0.003602 0.000000
# 2 0.000137 0.014698 -0.003367 0.000000 0.002074 0.000000
# 3 -0.006694 -0.003367 0.011995 0.000000 -0.003768 0.000000
# 4 0.000000 0.000000 0.000000 0.044996 0.000000 0.000037
# 5 0.003602 0.002074 -0.003768 0.000000 0.023279 0.000000
# 6 0.000000 0.000000 0.000000 0.000037 0.000000 0.016757
#
#
# Mechanical properties :
#
#
# Convention : Reuss Voigt Hill
#
# Bulk Modulus (GPa) = 39.55968 45.22972 42.39470
# Shear Modulus (GPa) = 31.55971 37.93198 34.74585
#
# Velocity S-wave (km/s) = 3.90127 4.27704 4.09347
# Velocity P-wave (km/s) = 6.27465 6.79729 6.54119
#
# Compressibility (1/GPa) = 0.02527827
#
# Stress axis : x y z
#
# Youngs Moduli (GPa) = 54.25296 68.03847 83.36496
#
# Poissons Ratio (x) = -0.00933 0.55802
# Poissons Ratio (y) = -0.00744 0.28069
# Poissons Ratio (z) = 0.36315 0.22908
#
# Static dielectric constant tensor:
#      x y z
#    x 3.905930 0.000000 0.122600 
#    y 0.000000 3.566070 0.000000 
#    z 0.122600 0.000000 4.113820 
# 
# 
# High freq. dielectric constant tensor:
#      x y z
#    x 1.819220 0.000000 0.006710 
#    y 0.000000 1.790490 0.000000 
#    z 0.006710 0.000000 1.827360 
# 
# From -- ./inp_files/225260.got.cif
#   From: 2010.06.25/outbox.cif.g09.slc.cpg/sg12_113_cif.got.tgz:225260.got - 2010.06.28 00:19:55.
