data_PCOD8102801
_publ_section_title
;
Structure prediction by ZEFSAII (Michael W. Deem and Ramdas Pophale) SiO2 
 PCOD8102801
Probable space group: C 2/M
;
_chemical_formula_sum "Si O2"
_cell_formula_units_Z 56
_cell_length_a 29.572535
_cell_length_b 8.797099
_cell_length_c 21.595758
_cell_angle_alpha 90.000000
_cell_angle_beta 31.124713
_cell_angle_gamma 90.000000
_cell_volume 2904.057493
_symmetry_space_group_name_H-M "C 2/M"
_symmetry_group_IT_number 12
_symmetry_cell_setting 'monoclinic'
loop_
_space_group_symop_operation_xyz
x,y,z
-x,y,-z
-x,-y,-z
x,-y,z
1/2+x,1/2+y,z
1/2-x,1/2+y,-z
1/2-x,1/2-y,-z
1/2+x,1/2-y,z
loop_
_atom_site_type_symbol
_atom_site_label
_atom_site_fract_x
_atom_site_fract_y
_atom_site_fract_z
Si Si1 0.984648 0.679544 0.617083
Si Si2 0.618412 0.672343 0.793363
Si Si3 0.332901 0.320936 0.127000
Si Si4 0.863123 0.320845 0.649363
Si Si5 0.024457 0.321773 0.121639
Si Si6 0.287146 0.825719 0.517436
Si Si7 0.029649 0.820707 0.686891
O O1 0.990082 0.500000 0.623391
O O2 0.072792 0.740081 0.479728
O O3 0.971425 0.767567 0.697020
O O4 0.901579 0.721073 0.671692
O O5 0.584359 0.500000 0.823030
O O6 0.618200 0.714871 0.865854
O O7 0.555483 0.784536 0.830423
O O8 0.717566 0.687575 0.653936
O O9 0.331960 0.500000 0.114678
O O10 0.234359 0.253724 0.243478
O O11 0.384362 0.236528 0.012553
O O12 0.860238 0.500000 0.644989
O O13 0.028603 0.500000 0.126722
O O14 0.011260 0.243748 0.202804
O O15 0.250000 0.750000 0.500000
O O16 0.373105 0.740136 0.438757
O O17 0.310490 0.000000 0.475344
O O18 0.031683 0.000000 0.689898
#
# Coordination Sequence:
#
# PCOD8102801 Si02
#       7
#     8   8   8   8   8   8   8
#     4   9  17  35  63  92 117 144 184 228 279 341
#     4  10  21  37  59  84 113 149 187 228 281 341
#     4  10  20  37  59  83 112 149 189 229 279 339
#     4   8  16  34  63  92 116 145 181 228 282 341
#     4  12  25  39  55  77 110 152 196 241 282 330
#     4  11  21  35  57  85 115 148 185 228 277 332
#     4  12  24  38  56  82 116 154 192 232 286 338
#
# _framework density 19.283365
#
# number of rings (size 3 to 8) (size 9 to 14) (size 15 to 20)
#    0.000    1.714    1.429    5.143    0.000    5.143 
#    0.000    5.000    0.000    0.000    0.000    0.000 
#    0.000    0.000    0.000    0.000    0.000    0.000 
#
# Total GULP energy -347270.231633 kJ/mol
# GULP energy per Si atom -12402.508273 kJ/mol
# Density = 1.923948 g / cm^3
# Si number density = 19.283365 Si / 1000 Ang^3
#
#
#
# Elastic Constant Matrix: (Units=GPa)
#
#
# Indices 1 2 3 4 5 6 
#
# 1 105.0008 45.7288 40.6064 -0.0079 6.7091 0.0077
# 2 45.7288 109.1185 38.4200 -0.0096 8.3522 0.0187
# 3 40.6064 38.4200 91.6567 -0.0042 4.6667 0.0166
# 4 -0.0079 -0.0096 -0.0042 26.9174 0.0242 3.1878
# 5 6.7091 8.3522 4.6667 0.0242 20.3524 -0.0149
# 6 0.0077 0.0187 0.0166 3.1878 -0.0149 29.1062
#
#
#
# Elastic Compliance Matrix: (Units=1/GPa)
#
#
# Indices 1 2 3 4 5 6 
#
# 1 0.012855 -0.003848 -0.003994 0.000003 -0.001743 0.000000
# 2 -0.003848 0.012143 -0.003234 0.000006 -0.002973 -0.000007
# 3 -0.003994 -0.003234 0.014065 0.000001 -0.000581 -0.000005
# 4 0.000003 0.000006 0.000001 0.037639 -0.000052 -0.004122
# 5 -0.001743 -0.002973 -0.000581 -0.000052 0.051062 0.000035
# 6 0.000000 -0.000007 -0.000005 -0.004122 0.000035 0.034808
#
#
# Mechanical properties :
#
#
# Convention : Reuss Voigt Hill
#
# Bulk Modulus (GPa) = 59.12835 61.69848 60.41341
# Shear Modulus (GPa) = 26.26589 27.34328 26.80458
#
# Velocity S-wave (km/s) = 3.69467 3.76968 3.73236
# Velocity P-wave (km/s) = 6.99501 7.14230 7.06904
#
# Compressibility (1/GPa) = 0.01691236
#
# Stress axis : x y z
#
# Youngs Moduli (GPa) = 77.78914 82.35118 71.09976
#
# Poissons Ratio (x) = 0.31687 0.28394
# Poissons Ratio (y) = 0.29932 0.22994
# Poissons Ratio (z) = 0.31066 0.26632
#
# Static dielectric constant tensor:
#      x y z
#    x 3.590740 -0.000010 -0.072850 
#    y -0.000010 3.362950 0.000030 
#    z -0.072850 0.000030 3.749740 
# 
# 
# High freq. dielectric constant tensor:
#      x y z
#    x 1.754380 0.000000 0.006730 
#    y 0.000000 1.731800 0.000000 
#    z 0.006730 0.000000 1.751730 
# 
# From -- ./inp_files/329552.got.cif
#   From: 2010.06.25/outbox.cif.g09.slc.cpg/sg12_165_cif.got.tgz:329552.got - 2010.06.28 00:19:55.
