data_PCOD8102493
_publ_section_title
;
Structure prediction by ZEFSAII (Michael W. Deem and Ramdas Pophale) SiO2 
 PCOD8102493
Probable space group: C 2/M
;
_chemical_formula_sum "Si O2"
_cell_formula_units_Z 64
_cell_length_a 33.377750
_cell_length_b 8.817830
_cell_length_c 16.791210
_cell_angle_alpha 90.000000
_cell_angle_beta 51.260576
_cell_angle_gamma 90.000000
_cell_volume 3854.742559
_symmetry_space_group_name_H-M "C 2/M"
_symmetry_group_IT_number 12
_symmetry_cell_setting 'monoclinic'
loop_
_space_group_symop_operation_xyz
x,y,z
-x,y,-z
-x,-y,-z
x,-y,z
1/2+x,1/2+y,z
1/2-x,1/2+y,-z
1/2-x,1/2-y,-z
1/2+x,1/2-y,z
loop_
_atom_site_type_symbol
_atom_site_label
_atom_site_fract_x
_atom_site_fract_y
_atom_site_fract_z
Si Si1 0.087842 0.321013 0.175804
Si Si2 0.077753 0.177311 0.947451
Si Si3 0.528396 0.677240 0.843918
Si Si4 0.868218 0.322023 0.715486
Si Si5 0.754346 0.321729 0.906573
Si Si6 0.159106 0.320196 0.947893
Si Si7 0.027905 0.321404 0.684867
Si Si8 0.451187 0.679168 0.508178
O O1 0.093465 0.500000 0.168763
O O2 0.105969 0.256287 0.237144
O O3 0.030495 0.267638 0.232935
O O4 0.124077 0.254958 0.062628
O O5 0.066646 0.212496 0.869030
O O6 0.130205 0.266334 0.903796
O O7 0.086459 0.000000 0.950307
O O8 0.029110 0.233693 0.060886
O O9 0.526824 0.500000 0.827146
O O10 0.552339 0.764096 0.737562
O O11 0.878300 0.500000 0.690938
O O12 0.808156 0.284823 0.796790
O O13 0.896334 0.232549 0.610153
O O14 0.746857 0.500000 0.927375
O O15 0.714251 0.255249 0.892770
O O16 0.750000 0.250000 0.000000
O O17 0.165644 0.500000 0.939056
O O18 0.035110 0.500000 0.666277
O O19 0.050023 0.242145 0.579619
O O20 0.500000 0.741235 0.500000
O O21 0.453642 0.500000 0.502052
#
# Coordination Sequence:
#
# PCOD8102493 Si02
#       8
#     8   8   8   8   8   8   8   8
#     4   9  17  29  46  70 100 133 169 207 245 289
#     4   9  18  32  49  72 103 138 169 206 258 305
#     4   9  18  32  49  72 104 135 168 211 256 302
#     4  10  20  37  53  68  98 136 174 212 250 297
#     4  11  22  35  52  75 102 135 174 213 256 303
#     4  11  20  33  50  74 104 137 176 212 250 301
#     4  11  20  32  51  73 100 137 174 208 253 302
#     4  11  23  35  49  74 102 131 171 213 254 300
#
# _framework density 16.602924000000002
#
# number of rings (size 3 to 8) (size 9 to 14) (size 15 to 20)
#    0.000    1.875    3.750    2.250    0.000    2.000 
#    0.000    1.250    0.000    0.000    0.000    0.875 
#    0.000    0.000    0.000    0.000    0.000    0.000 
#
# Total GULP energy -396702.687760 kJ/mol
# GULP energy per Si atom -12396.958992 kJ/mol
# Density = 1.656514 g / cm^3
# Si number density = 16.602924 Si / 1000 Ang^3
#
#
#
# Elastic Constant Matrix: (Units=GPa)
#
#
# Indices 1 2 3 4 5 6 
#
# 1 88.2635 46.8901 50.3939 0.0001 13.7807 0.0004
# 2 46.8901 67.3684 45.4221 0.0005 -2.4722 0.0020
# 3 50.3939 45.4221 107.1375 -0.0001 8.1555 0.0000
# 4 0.0001 0.0005 -0.0001 26.4185 0.0000 2.2387
# 5 13.7807 -2.4722 8.1555 0.0000 21.2359 0.0002
# 6 0.0004 0.0020 0.0000 2.2387 0.0002 26.4857
#
#
#
# Elastic Compliance Matrix: (Units=1/GPa)
#
#
# Indices 1 2 3 4 5 6 
#
# 1 0.023585 -0.014427 -0.003795 0.000000 -0.015527 0.000001
# 2 -0.014427 0.030374 -0.007286 0.000000 0.015696 -0.000002
# 3 -0.003795 -0.007286 0.014509 0.000000 -0.003958 0.000001
# 4 0.000000 0.000000 0.000000 0.038125 0.000000 -0.003223
# 5 -0.015527 0.015696 -0.003958 0.000000 0.060513 -0.000001
# 6 0.000001 -0.000002 0.000001 -0.003223 -0.000001 0.038029
#
#
# Mechanical properties :
#
#
# Convention : Reuss Voigt Hill
#
# Bulk Modulus (GPa) = 57.30130 60.90905 59.10518
# Shear Modulus (GPa) = 19.08621 22.83225 20.95923
#
# Velocity S-wave (km/s) = 3.39421 3.71238 3.55686
# Velocity P-wave (km/s) = 7.06743 7.42571 7.24878
#
# Compressibility (1/GPa) = 0.01745161
#
# Stress axis : x y z
#
# Youngs Moduli (GPa) = 42.39967 32.92322 68.92110
#
# Poissons Ratio (x) = 0.47497 0.26158
# Poissons Ratio (y) = 0.61169 0.50218
# Poissons Ratio (z) = 0.16092 0.23989
#
# Static dielectric constant tensor:
#      x y z
#    x 3.143540 0.000000 0.044790 
#    y 0.000000 2.998790 0.000000 
#    z 0.044790 0.000000 3.092620 
# 
# 
# High freq. dielectric constant tensor:
#      x y z
#    x 1.629800 0.000000 0.010830 
#    y 0.000000 1.637850 0.000000 
#    z 0.010830 0.000000 1.620930 
# 
# From -- ./inp_files/249019.got.cif
#   From: 2010.06.25/outbox.cif.g09.slc.cpg/sg12_125_cif.got.tgz:249019.got - 2010.06.28 00:19:55.
