data_PCOD8102645
_publ_section_title
;
Structure prediction by ZEFSAII (Michael W. Deem and Ramdas Pophale) SiO2 
 PCOD8102645
Probable space group: C 2/M
;
_chemical_formula_sum "Si O2"
_cell_formula_units_Z 52
_cell_length_a 31.126764
_cell_length_b 19.137461
_cell_length_c 5.030796
_cell_angle_alpha 90.000000
_cell_angle_beta 116.091863
_cell_angle_gamma 90.000000
_cell_volume 2691.379136
_symmetry_space_group_name_H-M "C 2/M"
_symmetry_group_IT_number 12
_symmetry_cell_setting 'monoclinic'
loop_
_space_group_symop_operation_xyz
x,y,z
-x,y,-z
-x,-y,-z
x,-y,z
1/2+x,1/2+y,z
1/2-x,1/2+y,-z
1/2-x,1/2-y,-z
1/2+x,1/2-y,z
loop_
_atom_site_type_symbol
_atom_site_label
_atom_site_fract_x
_atom_site_fract_y
_atom_site_fract_z
Si Si1 0.252160 0.080252 0.247589
Si Si2 0.553542 0.278394 0.725776
Si Si3 0.388306 0.692710 0.603873
Si Si4 0.905893 0.370281 0.163697
Si Si5 0.466305 0.000000 0.164284
Si Si6 0.349173 0.156874 0.507074
Si Si7 0.810457 0.079802 0.424931
O O1 0.295422 0.132619 0.307225
O O2 0.230789 0.097733 0.476670
O O3 0.270421 0.000000 0.280968
O O4 0.210597 0.094342 0.922591
O O5 0.500000 0.299841 0.500000
O O6 0.587836 0.319847 0.617021
O O7 0.558451 0.194945 0.711157
O O8 0.568796 0.298589 0.066038
O O9 0.354064 0.760151 0.478794
O O10 0.356778 0.626789 0.599876
O O11 0.933649 0.432416 0.097625
O O12 0.884083 0.385217 0.397038
O O13 0.861639 0.356936 0.846999
O O14 0.500000 0.000000 0.500000
O O15 0.500000 0.000000 0.000000
O O16 0.827325 0.000000 0.504553
#
# Coordination Sequence:
#
# PCOD8102645 Si02
#       7
#     8   8   8   8   4   8   8
#     4  10  21  34  55  80 111 148 184 221 266 331
#     4  10  20  37  58  81 107 141 182 225 274 331
#     4  10  21  36  58  82 109 142 182 225 276 329
#     4  10  22  35  53  77 109 145 181 234 272 317
#     4  12  24  36  52  76 106 150 196 230 282 324
#     4  10  21  36  53  82 108 143 188 224 276 310
#     4  10  21  38  56  82 110 144 180 220 278 333
#
# _framework density 19.320948000000001
#
# number of rings (size 3 to 8) (size 9 to 14) (size 15 to 20)
#    0.000    1.846    0.000    3.692    2.154    3.692 
#    0.000    0.000    0.000    2.769    0.000    0.000 
#    0.000    0.000    0.000    0.000    0.000    0.000 
#
# Total GULP energy -322412.826846 kJ/mol
# GULP energy per Si atom -12400.493340 kJ/mol
# Density = 1.927697 g / cm^3
# Si number density = 19.320948 Si / 1000 Ang^3
#
#
#
# Elastic Constant Matrix: (Units=GPa)
#
#
# Indices 1 2 3 4 5 6 
#
# 1 90.2370 55.8831 29.2611 0.0000 -0.7794 0.0000
# 2 55.8831 77.5196 23.6290 0.0000 14.2333 0.0000
# 3 29.2611 23.6290 69.6090 0.0000 -1.3238 0.0000
# 4 0.0000 0.0000 0.0000 20.5030 0.0000 0.2502
# 5 -0.7794 14.2333 -1.3238 0.0000 39.4251 0.0000
# 6 0.0000 0.0000 0.0000 0.2502 0.0000 21.5411
#
#
#
# Elastic Compliance Matrix: (Units=1/GPa)
#
#
# Indices 1 2 3 4 5 6 
#
# 1 0.022302 -0.016034 -0.003816 0.000000 0.006102 0.000000
# 2 -0.016034 0.027147 -0.002669 0.000000 -0.010207 0.000000
# 3 -0.003816 -0.002669 0.016904 0.000000 0.001456 0.000000
# 4 0.000000 0.000000 0.000000 0.048780 0.000000 -0.000567
# 5 0.006102 -0.010207 0.001456 0.000000 0.029219 0.000000
# 6 0.000000 0.000000 0.000000 -0.000567 0.000000 0.046430
#
#
# Mechanical properties :
#
#
# Convention : Reuss Voigt Hill
#
# Bulk Modulus (GPa) = 46.91786 50.54576 48.73181
# Shear Modulus (GPa) = 20.58253 24.86665 22.72459
#
# Velocity S-wave (km/s) = 3.26743 3.59141 3.43324
# Velocity P-wave (km/s) = 6.21055 6.58905 6.40260
#
# Compressibility (1/GPa) = 0.02131385
#
# Stress axis : x y z
#
# Youngs Moduli (GPa) = 44.83892 36.83696 59.15873
#
# Poissons Ratio (x) = 0.59066 0.22575
# Poissons Ratio (y) = 0.71897 0.15788
# Poissons Ratio (z) = 0.17110 0.09831
#
# Static dielectric constant tensor:
#      x y z
#    x 3.470900 0.000000 -0.247090 
#    y 0.000000 3.369780 0.000000 
#    z -0.247090 0.000000 3.528580 
# 
# 
# High freq. dielectric constant tensor:
#      x y z
#    x 1.755500 0.000000 -0.016330 
#    y 0.000000 1.730670 0.000000 
#    z -0.016330 0.000000 1.762590 
# 
# From -- ./inp_files/29336.got.cif
#   From: 2010.06.25/outbox.cif.g09.slc.cpg/sg12_15_cif.got.tgz:29336.got - 2010.06.28 00:19:55.
