data_PCOD8102443
_publ_section_title
;
Structure prediction by ZEFSAII (Michael W. Deem and Ramdas Pophale) SiO2 
 PCOD8102443
Probable space group: C 2/M
;
_chemical_formula_sum "Si O2"
_cell_formula_units_Z 56
_cell_length_a 13.500095
_cell_length_b 20.498523
_cell_length_c 16.820211
_cell_angle_alpha 90.000000
_cell_angle_beta 35.867655
_cell_angle_gamma 90.000000
_cell_volume 2727.253013
_symmetry_space_group_name_H-M "C 2/M"
_symmetry_group_IT_number 12
_symmetry_cell_setting 'monoclinic'
loop_
_space_group_symop_operation_xyz
x,y,z
-x,y,-z
-x,-y,-z
x,-y,z
1/2+x,1/2+y,z
1/2-x,1/2+y,-z
1/2-x,1/2-y,-z
1/2+x,1/2-y,z
loop_
_atom_site_type_symbol
_atom_site_label
_atom_site_fract_x
_atom_site_fract_y
_atom_site_fract_z
Si Si1 0.310333 0.739047 0.594603
Si Si2 0.882375 0.335877 0.150606
Si Si3 0.855222 0.573463 0.937624
Si Si4 0.819506 0.924472 0.102140
Si Si5 0.880650 0.926652 0.761474
Si Si6 0.987552 0.424919 0.596268
Si Si7 0.214071 0.849522 0.537635
O O1 0.500000 0.757424 0.500000
O O2 0.192132 0.723601 0.748416
O O3 0.218970 0.796170 0.604734
O O4 0.320505 0.678048 0.527773
O O5 0.722319 0.377897 0.227452
O O6 0.990593 0.382653 0.135687
O O7 0.000000 0.310857 0.000000
O O8 0.924336 0.500000 0.877171
O O9 0.778778 0.606818 0.908258
O O10 0.704734 0.571468 0.097714
O O11 0.707133 0.915314 0.253428
O O12 0.849936 0.000000 0.060617
O O13 0.000000 0.889905 0.000000
O O14 0.069361 0.901265 0.651691
O O15 0.883529 0.000000 0.723177
O O16 0.043126 0.500000 0.562006
O O17 0.000000 0.395511 0.500000
O O18 0.106796 0.386536 0.579795
#
# Coordination Sequence:
#
# PCOD8102443 Si02
#       7
#     8   8   8   8   8   8   8
#     4  11  23  43  64  84 122 166 213 254 304 359
#     4  10  20  39  65  93 124 155 200 256 308 370
#     4   9  18  33  58  88 125 161 192 245 316 376
#     4   9  18  32  51  78 116 158 198 240 293 361
#     4  10  20  36  63  98 127 156 197 252 316 373
#     4  10  21  36  58  88 122 157 202 258 312 368
#     4  11  23  39  64  87 121 168 208 252 304 369
#
# _framework density 20.533481999999999
#
# number of rings (size 3 to 8) (size 9 to 14) (size 15 to 20)
#    0.000    2.000    1.429    2.143    2.000    1.714 
#    0.000    5.714    6.286    0.000    0.000    0.000 
#    0.000    0.000    0.000    0.000    0.000    0.000 
#
# Total GULP energy -347154.614082 kJ/mol
# GULP energy per Si atom -12398.379074 kJ/mol
# Density = 2.048675 g / cm^3
# Si number density = 20.533482 Si / 1000 Ang^3
#
#
#
# Elastic Constant Matrix: (Units=GPa)
#
#
# Indices 1 2 3 4 5 6 
#
# 1 109.4576 11.8429 47.5442 0.0269 2.0774 -0.0288
# 2 11.8429 48.8928 33.1024 0.0190 1.3861 -0.0348
# 3 47.5442 33.1024 102.1323 -0.0019 -8.2471 -0.0287
# 4 0.0269 0.0190 -0.0019 5.6035 -0.0446 -3.8745
# 5 2.0774 1.3861 -8.2471 -0.0446 34.5163 0.0524
# 6 -0.0288 -0.0348 -0.0287 -3.8745 0.0524 28.2754
#
#
#
# Elastic Compliance Matrix: (Units=1/GPa)
#
#
# Indices 1 2 3 4 5 6 
#
# 1 0.011654 0.001323 -0.006031 -0.000080 -0.002196 0.000001
# 2 0.001323 0.026692 -0.009544 -0.000117 -0.003432 0.000015
# 3 -0.006031 -0.009544 0.016062 0.000107 0.004584 0.000005
# 4 -0.000080 -0.000117 0.000107 0.197139 0.000249 0.027013
# 5 -0.002196 -0.003432 0.004584 0.000249 0.030338 -0.000024
# 6 0.000001 0.000015 0.000005 0.027013 -0.000024 0.039068
#
#
# Mechanical properties :
#
#
# Convention : Reuss Voigt Hill
#
# Bulk Modulus (GPa) = 38.60521 49.49574 44.05048
# Shear Modulus (GPa) = 13.96289 24.87859 19.42074
#
# Velocity S-wave (km/s) = 2.61052 3.48460 3.07874
# Velocity P-wave (km/s) = 5.28473 6.35194 5.84275
#
# Compressibility (1/GPa) = 0.02590324
#
# Stress axis : x y z
#
# Youngs Moduli (GPa) = 85.80526 37.46507 62.25726
#
# Poissons Ratio (x) = -0.04956 0.37549
# Poissons Ratio (y) = -0.11350 0.59418
# Poissons Ratio (z) = 0.51752 0.35757
#
# Static dielectric constant tensor:
#      x y z
#    x 3.888110 -0.000020 -0.008770 
#    y -0.000020 3.561430 0.000060 
#    z -0.008770 0.000060 3.682580 
# 
# 
# High freq. dielectric constant tensor:
#      x y z
#    x 1.815830 0.000000 -0.003400 
#    y 0.000000 1.780140 0.000000 
#    z -0.003400 0.000000 1.804080 
# 
# From -- ./inp_files/272352.got.cif
#   From: 2010.06.25/outbox.cif.g09.slc.cpg/sg12_137_cif.got.tgz:272352.got - 2010.06.28 00:19:55.
