data_PCOD8102567
_publ_section_title
;
Structure prediction by ZEFSAII (Michael W. Deem and Ramdas Pophale) SiO2 
 PCOD8102567
Probable space group: C 2/M
;
_chemical_formula_sum "Si O2"
_cell_formula_units_Z 48
_cell_length_a 9.354831
_cell_length_b 29.807837
_cell_length_c 9.519561
_cell_angle_alpha 90.000000
_cell_angle_beta 78.912404
_cell_angle_gamma 90.000000
_cell_volume 2604.955553
_symmetry_space_group_name_H-M "C 2/M"
_symmetry_group_IT_number 12
_symmetry_cell_setting 'monoclinic'
loop_
_space_group_symop_operation_xyz
x,y,z
-x,y,-z
-x,-y,-z
x,-y,z
1/2+x,1/2+y,z
1/2-x,1/2+y,-z
1/2-x,1/2-y,-z
1/2+x,1/2-y,z
loop_
_atom_site_type_symbol
_atom_site_label
_atom_site_fract_x
_atom_site_fract_y
_atom_site_fract_z
Si Si1 0.334743 0.121522 0.361871
Si Si2 0.891452 0.950355 0.633364
Si Si3 0.658868 0.792782 0.151265
Si Si4 0.826664 0.380541 0.693166
Si Si5 0.322801 0.794118 0.176252
Si Si6 0.594784 0.449752 0.855366
O O1 0.252107 0.078730 0.316429
O O2 0.504040 0.111155 0.303804
O O3 0.299127 0.125439 0.533147
O O4 0.275418 0.164793 0.286382
O O5 0.000000 0.927635 0.500000
O O6 0.975589 0.953958 0.760025
O O7 0.843698 0.000000 0.589119
O O8 0.718337 0.834006 0.229346
O O9 0.487909 0.783618 0.186015
O O10 0.729736 0.750557 0.217753
O O11 0.704142 0.804433 0.983118
O O12 0.731961 0.419994 0.780860
O O13 0.653122 0.500000 0.882427
O O14 0.500000 0.428354 0.000000
#
# Coordination Sequence:
#
# PCOD8102567 Si02
#       6
#     8   8   8   8   8   8
#     4  10  21  36  57  83 114 146 186 228 276 332
#     4  10  20  37  57  81 114 148 185 227 274 330
#     4   9  19  36  54  78 109 143 184 227 276 327
#     4  10  21  37  56  83 113 148 184 229 279 330
#     4   9  19  36  55  77 108 144 183 228 274 330
#     4  10  22  39  57  82 115 148 186 233 280 329
#
# _framework density 18.426418000000002
#
# number of rings (size 3 to 8) (size 9 to 14) (size 15 to 20)
#    0.000    2.333    1.667    0.000    2.333    2.667 
#    3.000    1.667    0.000    3.000    0.000    0.000 
#    0.000    0.000    0.000    0.000    0.000    0.000 
#
# Total GULP energy -297430.166948 kJ/mol
# GULP energy per Si atom -12392.923623 kJ/mol
# Density = 1.838448 g / cm^3
# Si number density = 18.426418 Si / 1000 Ang^3
#
#
#
# Elastic Constant Matrix: (Units=GPa)
#
#
# Indices 1 2 3 4 5 6 
#
# 1 69.0751 74.2680 38.2396 0.0000 -3.8047 0.0000
# 2 74.2680 141.9125 52.6403 0.0000 -8.4891 0.0000
# 3 38.2396 52.6403 88.7137 0.0000 -14.2243 0.0000
# 4 0.0000 0.0000 0.0000 35.1693 0.0000 2.7904
# 5 -3.8047 -8.4891 -14.2243 0.0000 23.5301 0.0000
# 6 0.0000 0.0000 0.0000 2.7904 0.0000 43.9968
#
#
#
# Elastic Compliance Matrix: (Units=1/GPa)
#
#
# Indices 1 2 3 4 5 6 
#
# 1 0.035340 -0.016471 -0.006086 0.000000 -0.003907 0.000000
# 2 -0.016471 0.016712 -0.002521 0.000000 0.001842 0.000000
# 3 -0.006086 -0.002521 0.016708 0.000000 0.008206 0.000000
# 4 0.000000 0.000000 0.000000 0.028578 0.000000 -0.001812
# 5 -0.003907 0.001842 0.008206 0.000000 0.047492 0.000000
# 6 0.000000 0.000000 0.000000 -0.001812 0.000000 0.022844
#
#
# Mechanical properties :
#
#
# Convention : Reuss Voigt Hill
#
# Bulk Modulus (GPa) = 53.75614 69.99968 61.87791
# Shear Modulus (GPa) = 22.31823 29.50945 25.91384
#
# Velocity S-wave (km/s) = 3.48402 4.00619 3.75419
# Velocity P-wave (km/s) = 6.73953 7.71172 7.24196
#
# Compressibility (1/GPa) = 0.01860253
#
# Stress axis : x y z
#
# Youngs Moduli (GPa) = 28.29618 59.83754 59.85310
#
# Poissons Ratio (x) = 0.98559 0.36429
# Poissons Ratio (y) = 0.46607 0.15091
# Poissons Ratio (z) = 0.17222 0.15087
#
# Static dielectric constant tensor:
#      x y z
#    x 3.292410 0.000000 0.012300 
#    y 0.000000 3.520880 0.000000 
#    z 0.012300 0.000000 3.461060 
# 
# 
# High freq. dielectric constant tensor:
#      x y z
#    x 1.707880 0.000000 0.004340 
#    y 0.000000 1.714630 0.000000 
#    z 0.004340 0.000000 1.722290 
# 
# From -- ./inp_files/42160.got.cif
#   From: 2010.06.25/outbox.cif.g09.slc.cpg/sg12_22_cif.got.tgz:42160.got - 2010.06.28 00:19:55.
