data_PCOD8102496
_publ_section_title
;
Structure prediction by ZEFSAII (Michael W. Deem and Ramdas Pophale) SiO2 
 PCOD8102496
Probable space group: C 2/M
;
_chemical_formula_sum "Si O2"
_cell_formula_units_Z 48
_cell_length_a 10.685530
_cell_length_b 22.771361
_cell_length_c 9.682413
_cell_angle_alpha 90.000000
_cell_angle_beta 96.266047
_cell_angle_gamma 90.000000
_cell_volume 2341.889072
_symmetry_space_group_name_H-M "C 2/M"
_symmetry_group_IT_number 12
_symmetry_cell_setting 'monoclinic'
loop_
_space_group_symop_operation_xyz
x,y,z
-x,y,-z
-x,-y,-z
x,-y,z
1/2+x,1/2+y,z
1/2-x,1/2+y,-z
1/2-x,1/2-y,-z
1/2+x,1/2-y,z
loop_
_atom_site_type_symbol
_atom_site_label
_atom_site_fract_x
_atom_site_fract_y
_atom_site_fract_z
Si Si1 0.753330 0.654250 0.749692
Si Si2 0.871759 0.662501 0.481048
Si Si3 0.685529 0.810980 0.960593
Si Si4 0.049296 0.068414 0.658976
Si Si5 0.349269 0.348880 0.738996
Si Si6 0.041023 0.751183 0.731492
O O1 0.842800 0.678230 0.637737
O O2 0.692212 0.591673 0.698147
O O3 0.638992 0.696923 0.766456
O O4 0.835762 0.651443 0.901215
O O5 0.751175 0.634477 0.393699
O O6 0.920077 0.721209 0.407694
O O7 0.000000 0.621734 0.500000
O O8 0.778468 0.849619 0.875905
O O9 0.556119 0.795647 0.860858
O O10 0.750000 0.750000 0.000000
O O11 0.000000 0.083282 0.500000
O O12 0.954639 0.100723 0.753518
O O13 0.047913 0.000000 0.691331
O O14 0.404643 0.283156 0.716328
#
# Coordination Sequence:
#
# PCOD8102496 Si02
#       6
#     8   8   8   8   8   8
#     4  10  20  37  53  82 114 147 194 240 291 341
#     4  11  23  32  52  81 115 156 197 234 286 350
#     4   9  20  36  51  78 117 162 180 224 290 351
#     4  10  20  37  66  89 111 148 192 258 314 336
#     4  10  21  40  53  83 121 150 202 243 288 345
#     4   9  21  32  55  73 114 157 190 230 284 344
#
# _framework density 20.496274
#
# number of rings (size 3 to 8) (size 9 to 14) (size 15 to 20)
#    0.000    2.167    1.667    0.500    9.333    6.000 
#    3.000    1.667    0.000    2.000    0.000    0.000 
#    0.000    4.333    0.000    0.000    0.000    0.000 
#
# Total GULP energy -297333.675611 kJ/mol
# GULP energy per Si atom -12388.903150 kJ/mol
# Density = 2.044962 g / cm^3
# Si number density = 20.496274 Si / 1000 Ang^3
#
#
#
# Elastic Constant Matrix: (Units=GPa)
#
#
# Indices 1 2 3 4 5 6 
#
# 1 94.7568 29.7569 41.7123 0.0000 5.8016 0.0000
# 2 29.7569 77.2699 41.0814 0.0000 3.2318 0.0000
# 3 41.7123 41.0814 165.5809 0.0000 1.7129 0.0000
# 4 0.0000 0.0000 0.0000 18.0668 0.0000 1.8739
# 5 5.8016 3.2318 1.7129 0.0000 23.3055 0.0000
# 6 0.0000 0.0000 0.0000 1.8739 0.0000 17.1522
#
#
#
# Elastic Compliance Matrix: (Units=1/GPa)
#
#
# Indices 1 2 3 4 5 6 
#
# 1 0.012864 -0.003616 -0.002317 0.000000 -0.002531 0.000000
# 2 -0.003616 0.016000 -0.003047 0.000000 -0.001095 0.000000
# 3 -0.002317 -0.003047 0.007374 0.000000 0.000457 0.000000
# 4 0.000000 0.000000 0.000000 0.055985 0.000000 -0.006116
# 5 -0.002531 -0.001095 0.000457 0.000000 0.043656 0.000000
# 6 0.000000 0.000000 0.000000 -0.006116 0.000000 0.058970
#
#
# Mechanical properties :
#
#
# Convention : Reuss Voigt Hill
#
# Bulk Modulus (GPa) = 54.71371 62.52319 58.61845
# Shear Modulus (GPa) = 22.84112 26.70869 24.77491
#
# Velocity S-wave (km/s) = 3.34189 3.61376 3.48048
# Velocity P-wave (km/s) = 6.45317 6.92700 6.69428
#
# Compressibility (1/GPa) = 0.01827696
#
# Stress axis : x y z
#
# Youngs Moduli (GPa) = 77.73682 62.49917 135.60326
#
# Poissons Ratio (x) = 0.22600 0.31423
# Poissons Ratio (y) = 0.28110 0.41325
# Poissons Ratio (z) = 0.18014 0.19046
#
# Static dielectric constant tensor:
#      x y z
#    x 4.376010 0.000000 0.351170 
#    y 0.000000 3.254350 0.000000 
#    z 0.351170 0.000000 4.545130 
# 
# 
# High freq. dielectric constant tensor:
#      x y z
#    x 1.819050 0.000000 0.005720 
#    y 0.000000 1.725240 0.000000 
#    z 0.005720 0.000000 1.819280 
# 
# From -- ./inp_files/50721.got.cif
#   From: 2010.06.25/outbox.cif.g09.slc.cpg/sg12_26_cif.got.tgz:50721.got - 2010.06.28 00:19:55.
