data_PCOD8102708
_publ_section_title
;
Structure prediction by ZEFSAII (Michael W. Deem and Ramdas Pophale) SiO2 
 PCOD8102708
Probable space group: C 2/M
;
_chemical_formula_sum "Si O2"
_cell_formula_units_Z 36
_cell_length_a 13.964504
_cell_length_b 9.471023
_cell_length_c 28.862119
_cell_angle_alpha 90.000000
_cell_angle_beta 29.246974
_cell_angle_gamma 90.000000
_cell_volume 1865.013599
_symmetry_space_group_name_H-M "C 2/M"
_symmetry_group_IT_number 12
_symmetry_cell_setting 'monoclinic'
loop_
_space_group_symop_operation_xyz
x,y,z
-x,y,-z
-x,-y,-z
x,-y,z
1/2+x,1/2+y,z
1/2-x,1/2+y,-z
1/2-x,1/2-y,-z
1/2+x,1/2-y,z
loop_
_atom_site_type_symbol
_atom_site_label
_atom_site_fract_x
_atom_site_fract_y
_atom_site_fract_z
Si Si1 0.490943 0.500000 0.057534
Si Si2 0.422300 0.660394 0.482501
Si Si3 0.731742 0.000000 0.895399
Si Si4 0.311083 0.214707 0.161164
Si Si5 0.021818 0.336282 0.353856
Si Si6 0.151569 0.500000 0.028955
O O1 0.362417 0.370267 0.126273
O O2 0.500000 0.500000 0.000000
O O3 0.709426 0.500000 0.985604
O O4 0.500000 0.702186 0.500000
O O5 0.484600 0.500000 0.442904
O O6 0.188217 0.672586 0.581862
O O7 0.515446 0.773250 0.408149
O O8 0.792153 0.137027 0.839477
O O9 0.500000 0.000000 0.000000
O O10 0.799302 0.000000 0.920821
O O11 0.511195 0.135936 0.091049
O O12 0.162684 0.229365 0.266461
O O13 0.094505 0.500000 0.325267
#
# Coordination Sequence:
#
# PCOD8102708 Si02
#       6
#     4   8   4   8   8   4
#     4  12  22  38  58  82 118 151 183 243 287 324
#     4   9  20  39  62  83 117 153 186 226 287 344
#     4   8  18  38  58  75 111 150 190 230 277 337
#     4  10  20  37  58  85 112 147 193 237 276 337
#     4  10  20  38  58  88 119 146 184 240 281 333
#     4  10  22  40  58  81 113 155 197 225 288 341
#
# _framework density 19.302809
#
# number of rings (size 3 to 8) (size 9 to 14) (size 15 to 20)
#    0.000    2.444    1.111    2.667    3.111    0.444 
#    8.000    0.000    0.000    0.000    0.000    0.000 
#    0.000    0.000    0.000    0.000    0.000    0.000 
#
# Total GULP energy -223082.633648 kJ/mol
# GULP energy per Si atom -12393.479647 kJ/mol
# Density = 1.925887 g / cm^3
# Si number density = 19.302809 Si / 1000 Ang^3
#
#
#
# Elastic Constant Matrix: (Units=GPa)
#
#
# Indices 1 2 3 4 5 6 
#
# 1 133.2407 44.1268 46.9017 0.0002 24.8533 -0.0029
# 2 44.1268 137.6105 57.3208 -0.0013 15.5319 -0.0008
# 3 46.9017 57.3208 107.5928 -0.0072 25.5632 -0.0010
# 4 0.0002 -0.0013 -0.0072 24.0076 -0.0018 34.4844
# 5 24.8533 15.5319 25.5632 -0.0018 17.8326 0.0025
# 6 -0.0029 -0.0008 -0.0010 34.4844 0.0025 -25.8071
#
#
#
# Elastic Compliance Matrix: (Units=1/GPa)
#
#
# Indices 1 2 3 4 5 6 
#
# 1 0.010623 -0.001683 -0.000857 0.000001 -0.012112 -0.000001
# 2 -0.001683 0.009633 -0.004492 0.000000 0.000395 0.000000
# 3 -0.000857 -0.004492 0.016451 0.000002 -0.018475 0.000001
# 4 0.000001 0.000000 0.000002 0.014268 -0.000005 0.019065
# 5 -0.012112 0.000395 -0.018475 -0.000005 0.099098 0.000005
# 6 -0.000001 0.000000 0.000001 0.019065 0.000005 -0.013273
#
#
# Mechanical properties :
#
#
# Convention : Reuss Voigt Hill
#
# Bulk Modulus (GPa) = 44.16241 75.01584 59.58912
# Shear Modulus (GPa) = 31.56328 18.54627 25.05477
#
# Velocity S-wave (km/s) = 4.04810 3.10305 3.60667
# Velocity P-wave (km/s) = 6.69163 7.19622 6.94851
#
# Compressibility (1/GPa) = 0.02264369
#
# Stress axis : x y z
#
# Youngs Moduli (GPa) = 94.13299 103.80786 60.78737
#
# Poissons Ratio (x) = 0.17466 0.05208
# Poissons Ratio (y) = 0.15838 0.27308
# Poissons Ratio (z) = 0.08065 0.46635
#
# Static dielectric constant tensor:
#      x y z
#    x 3.764500 0.000000 0.385330 
#    y 0.000000 3.789880 -0.000010 
#    z 0.385330 -0.000010 3.800320 
# 
# 
# High freq. dielectric constant tensor:
#      x y z
#    x 1.738120 0.000000 0.017350 
#    y 0.000000 1.766480 0.000000 
#    z 0.017350 0.000000 1.744900 
# 
# From -- ./inp_files/210790.got.cif
#   From: 2010.06.25/outbox.cif.g09.slc.cpg/sg12_106_cif.got.tgz:210790.got - 2010.06.28 00:19:55.
