data_PCOD8102298
_publ_section_title
;
Structure prediction by ZEFSAII (Michael W. Deem and Ramdas Pophale) SiO2 
 PCOD8102298
Probable space group: C 2/M
;
_chemical_formula_sum "Si O2"
_cell_formula_units_Z 40
_cell_length_a 15.322879
_cell_length_b 8.473725
_cell_length_c 14.358998
_cell_angle_alpha 90.000000
_cell_angle_beta 90.960010
_cell_angle_gamma 90.000000
_cell_volume 1864.137348
_symmetry_space_group_name_H-M "C 2/M"
_symmetry_group_IT_number 12
_symmetry_cell_setting 'monoclinic'
loop_
_space_group_symop_operation_xyz
x,y,z
-x,y,-z
-x,-y,-z
x,-y,z
1/2+x,1/2+y,z
1/2-x,1/2+y,-z
1/2-x,1/2-y,-z
1/2+x,1/2-y,z
loop_
_atom_site_type_symbol
_atom_site_label
_atom_site_fract_x
_atom_site_fract_y
_atom_site_fract_z
Si Si1 0.647609 0.682565 0.096510
Si Si2 0.258953 0.815938 0.397536
Si Si3 0.599806 0.817977 0.286197
Si Si4 0.580736 0.317197 0.712329
Si Si5 0.146807 0.682211 0.900145
O O1 0.621637 0.500000 0.102071
O O2 0.599701 0.778287 0.176721
O O3 0.750437 0.707898 0.109207
O O4 0.614162 0.753642 0.998690
O O5 0.250000 0.750000 0.500000
O O6 0.170026 0.788954 0.339979
O O7 0.337799 0.727871 0.349246
O O8 0.280147 0.000000 0.399812
O O9 0.503811 0.779500 0.324020
O O10 0.622696 0.000000 0.303753
O O11 0.559985 0.500000 0.699855
O O12 0.599323 0.282091 0.820422
O O13 0.121142 0.500000 0.888639
#
# Coordination Sequence:
#
# PCOD8102298 Si02
#       5
#     8   8   8   8   8
#     4  10  20  36  61  93 132 175 220 268 320 382
#     4  12  26  48  73 100 131 168 214 268 330 392
#     4  12  25  43  68  99 134 174 219 269 325 387
#     4  12  25  43  68  99 134 174 219 269 325 387
#     4  10  20  36  61  93 132 175 220 268 320 382
#
# _framework density 21.457646
#
# number of rings (size 3 to 8) (size 9 to 14) (size 15 to 20)
#    0.000    0.800    2.000    6.600    0.000    3.200 
#    0.000    8.000    0.000    0.000    0.000    0.000 
#    0.000    0.000    0.000    0.000    0.000    0.000 
#
# Total GULP energy -248165.393886 kJ/mol
# GULP energy per Si atom -12408.269694 kJ/mol
# Density = 2.140881 g / cm^3
# Si number density = 21.457646 Si / 1000 Ang^3
#
#
#
# Elastic Constant Matrix: (Units=GPa)
#
#
# Indices 1 2 3 4 5 6 
#
# 1 90.0362 7.9032 36.8628 0.0000 -8.6399 0.0000
# 2 7.9032 108.9726 17.0442 0.0000 -0.1171 0.0000
# 3 36.8628 17.0442 119.1620 0.0000 -6.2192 0.0000
# 4 0.0000 0.0000 0.0000 40.5502 0.0000 -0.0226
# 5 -8.6399 -0.1171 -6.2192 0.0000 -5.3505 0.0000
# 6 0.0000 0.0000 0.0000 -0.0226 0.0000 33.9196
#
#
#
# Elastic Compliance Matrix: (Units=1/GPa)
#
#
# Indices 1 2 3 4 5 6 
#
# 1 0.011554 -0.000186 -0.004262 0.000000 -0.013698 0.000000
# 2 -0.000186 0.009380 -0.001206 0.000000 0.001497 0.000000
# 3 -0.004262 -0.001206 0.009658 0.000000 -0.004316 0.000000
# 4 0.000000 0.000000 0.000000 0.024661 0.000000 0.000016
# 5 -0.013698 0.001497 -0.004316 0.000000 -0.159793 0.000000
# 6 0.000000 0.000000 0.000000 0.000016 0.000000 0.029481
#
#
# Mechanical properties :
#
#
# Convention : Reuss Voigt Hill
#
# Bulk Modulus (GPa) = 51.85960 49.08790 50.47375
# Shear Modulus (GPa) = -87.22523 30.91458 -28.15533
#
# Velocity S-wave (km/s) = -6.38265 3.79981 -3.62627
# Velocity P-wave (km/s) = 5.48605 6.49443 2.45773
#
# Compressibility (1/GPa) = 0.01928283
#
# Stress axis : x y z
#
# Youngs Moduli (GPa) = 86.55276 106.60583 103.54388
#
# Poissons Ratio (x) = 0.01982 0.44135
# Poissons Ratio (y) = 0.01610 0.12488
# Poissons Ratio (z) = 0.36893 0.12857
#
# Static dielectric constant tensor:
#      x y z
#    x 3.887630 0.000000 -0.043110 
#    y 0.000000 3.931700 0.000000 
#    z -0.043110 0.000000 3.957670 
# 
# 
# High freq. dielectric constant tensor:
#      x y z
#    x 1.847370 0.000000 -0.002740 
#    y 0.000000 1.856170 0.000000 
#    z -0.002740 0.000000 1.842560 
# 
# From -- ./inp_files/211375.got.cif
#   From: 2010.06.25/outbox.cif.g09.slc.cpg/sg12_106_cif.got.tgz:211375.got - 2010.06.28 00:19:55.
