data_PCOD8102587
_publ_section_title
;
Structure prediction by ZEFSAII (Michael W. Deem and Ramdas Pophale) SiO2 
 PCOD8102587
Probable space group: C 2/M
;
_chemical_formula_sum "Si O2"
_cell_formula_units_Z 56
_cell_length_a 23.973046
_cell_length_b 26.360194
_cell_length_c 14.375452
_cell_angle_alpha 90.000000
_cell_angle_beta 161.955332
_cell_angle_gamma 90.000000
_cell_volume 2813.949820
_symmetry_space_group_name_H-M "C 2/M"
_symmetry_group_IT_number 12
_symmetry_cell_setting 'monoclinic'
loop_
_space_group_symop_operation_xyz
x,y,z
-x,y,-z
-x,-y,-z
x,-y,z
1/2+x,1/2+y,z
1/2-x,1/2+y,-z
1/2-x,1/2-y,-z
1/2+x,1/2-y,z
loop_
_atom_site_type_symbol
_atom_site_label
_atom_site_fract_x
_atom_site_fract_y
_atom_site_fract_z
Si Si1 0.347873 0.060183 0.690740
Si Si2 0.685268 0.723241 0.992171
Si Si3 0.867334 0.804918 0.376902
Si Si4 0.434737 0.058388 0.620215
Si Si5 0.178169 0.918010 0.721967
Si Si6 0.679458 0.115991 0.735884
Si Si7 0.526163 0.555667 0.297215
O O1 0.380674 0.077194 0.637201
O O2 0.148499 0.078458 0.407470
O O3 0.353944 0.000000 0.709109
O O4 0.500000 0.083957 0.000000
O O5 0.704957 0.764462 0.106185
O O6 0.806994 0.675674 0.219431
O O7 0.750000 0.750000 0.000000
O O8 0.478480 0.706025 0.648478
O O9 0.781923 0.860206 0.243998
O O10 0.000000 0.799637 0.500000
O O11 0.334663 0.098443 0.393963
O O12 0.374101 0.000000 0.504788
O O13 0.650730 0.061455 0.949777
O O14 0.000000 0.924070 0.500000
O O15 0.155632 0.949998 0.592229
O O16 0.500000 0.094183 0.500000
O O17 0.860437 0.091243 0.063469
O O18 0.452852 0.500000 0.153764
#
# Coordination Sequence:
#
# PCOD8102587 Si02
#       7
#     8   8   8   8   8   8   8
#     4   9  18  38  62  84 111 155 222 269 289 336
#     4  10  20  37  57  83 115 157 198 247 293 360
#     4   9  19  32  54  80 112 149 197 242 293 351
#     4  11  24  38  58  87 123 168 211 252 299 353
#     4  11  21  34  55  87 123 160 208 243 299 376
#     4  12  25  38  56  88 131 160 197 242 310 381
#     4  11  22  38  60  83 120 168 205 252 301 349
#
# _framework density 19.900852
#
# number of rings (size 3 to 8) (size 9 to 14) (size 15 to 20)
#    0.000    1.571    2.857    3.000    6.000    4.000 
#    0.000    2.143    0.000    0.000    0.000    6.000 
#    0.000    0.000    0.000    0.000    0.000    0.000 
#
# Total GULP energy -347027.593764 kJ/mol
# GULP energy per Si atom -12393.842634 kJ/mol
# Density = 1.985556 g / cm^3
# Si number density = 19.900852 Si / 1000 Ang^3
#
#
#
# Elastic Constant Matrix: (Units=GPa)
#
#
# Indices 1 2 3 4 5 6 
#
# 1 84.0481 37.8356 26.0787 0.0000 -7.5684 0.0000
# 2 37.8356 96.8131 33.1373 0.0000 -3.5754 0.0000
# 3 26.0787 33.1373 73.9584 -0.0001 -11.4844 -0.0001
# 4 0.0000 0.0000 -0.0001 29.3866 0.0000 -18.5624
# 5 -7.5684 -3.5754 -11.4844 0.0000 36.4187 0.0000
# 6 0.0000 0.0000 -0.0001 -18.5624 0.0000 16.2961
#
#
#
# Elastic Compliance Matrix: (Units=1/GPa)
#
#
# Indices 1 2 3 4 5 6 
#
# 1 0.015142 -0.004865 -0.002886 0.000000 0.001759 0.000000
# 2 -0.004865 0.013774 -0.004630 0.000000 -0.001119 0.000000
# 3 -0.002886 -0.004630 0.017297 0.000000 0.004400 0.000001
# 4 0.000000 0.000000 0.000000 0.121318 0.000000 0.138189
# 5 0.001759 -0.001119 0.004400 0.000000 0.029102 0.000000
# 6 0.000000 0.000000 0.000001 0.138189 0.000000 0.218771
#
#
# Mechanical properties :
#
#
# Convention : Reuss Voigt Hill
#
# Bulk Modulus (GPa) = 46.61919 49.88029 48.24974
# Shear Modulus (GPa) = 11.17782 26.93815 19.05799
#
# Velocity S-wave (km/s) = 2.37254 3.68315 3.09794
# Velocity P-wave (km/s) = 5.56613 6.57314 6.09049
#
# Compressibility (1/GPa) = 0.02145039
#
# Stress axis : x y z
#
# Youngs Moduli (GPa) = 66.04208 72.60225 57.81514
#
# Poissons Ratio (x) = 0.35318 0.16688
# Poissons Ratio (y) = 0.32127 0.26767
# Poissons Ratio (z) = 0.19063 0.33613
#
# Static dielectric constant tensor:
#      x y z
#    x 3.496820 0.000000 -0.213790 
#    y 0.000000 3.639810 0.000000 
#    z -0.213790 0.000000 3.835410 
# 
# 
# High freq. dielectric constant tensor:
#      x y z
#    x 1.743110 0.000000 -0.021740 
#    y 0.000000 1.763080 0.000000 
#    z -0.021740 0.000000 1.782180 
# 
# From -- ./inp_files/242315.got.cif
#   From: 2010.06.25/outbox.cif.g09.slc.cpg/sg12_122_cif.got.tgz:242315.got - 2010.06.28 00:19:55.
