data_PCOD8102435
_publ_section_title
;
Structure prediction by ZEFSAII (Michael W. Deem and Ramdas Pophale) SiO2 
 PCOD8102435
Probable space group: C 2/M
;
_chemical_formula_sum "Si O2"
_cell_formula_units_Z 56
_cell_length_a 9.013292
_cell_length_b 26.128114
_cell_length_c 19.420810
_cell_angle_alpha 90.000000
_cell_angle_beta 142.277402
_cell_angle_gamma 90.000000
_cell_volume 2798.311394
_symmetry_space_group_name_H-M "C 2/M"
_symmetry_group_IT_number 12
_symmetry_cell_setting 'monoclinic'
loop_
_space_group_symop_operation_xyz
x,y,z
-x,y,-z
-x,-y,-z
x,-y,z
1/2+x,1/2+y,z
1/2-x,1/2+y,-z
1/2-x,1/2-y,-z
1/2+x,1/2-y,z
loop_
_atom_site_type_symbol
_atom_site_label
_atom_site_fract_x
_atom_site_fract_y
_atom_site_fract_z
Si Si1 0.274661 0.557957 0.090241
Si Si2 0.404259 0.816893 0.775876
Si Si3 0.531815 0.151230 0.585496
Si Si4 0.356068 0.642145 0.013298
Si Si5 0.531474 0.387043 0.434903
Si Si6 0.652067 0.442420 0.344585
Si Si7 0.736037 0.713704 0.211661
O O1 0.294754 0.500000 0.069282
O O2 0.393241 0.595922 0.079404
O O3 0.407581 0.563982 0.211540
O O4 0.000000 0.574671 0.000000
O O5 0.201226 0.854009 0.671356
O O6 0.277966 0.773096 0.774776
O O7 0.556974 0.792844 0.769496
O O8 0.576961 0.847791 0.891698
O O9 0.500000 0.179860 0.500000
O O10 0.641684 0.094881 0.609669
O O11 0.709633 0.182544 0.699037
O O12 0.270274 0.148427 0.525537
O O13 0.478190 0.693864 0.088200
O O14 0.500000 0.622965 0.000000
O O15 0.500000 0.410649 0.500000
O O16 0.577042 0.431251 0.395841
O O17 0.754922 0.500000 0.377110
#
# Coordination Sequence:
#
# PCOD8102435 Si02
#       7
#     8   8   8   8   8   8   8
#     4  10  20  36  63  95 125 159 202 251 311 374
#     4  11  25  39  62  90 123 164 212 255 314 370
#     4  10  22  39  64  87 122 161 207 254 306 366
#     4  10  22  41  62  88 127 159 204 260 310 368
#     4  11  23  41  60  90 128 160 204 261 309 361
#     4  10  22  41  66  94 123 164 211 252 308 378
#     4  11  23  41  61  90 121 164 211 258 310 371
#
# _framework density 20.012069
#
# number of rings (size 3 to 8) (size 9 to 14) (size 15 to 20)
#    0.000    1.571    2.857    1.286    4.000    5.429 
#    0.000    0.000    0.000    0.857    0.000    0.000 
#    0.000    0.000    0.000    0.000    0.000    0.000 
#
# Total GULP energy -347213.788494 kJ/mol
# GULP energy per Si atom -12400.492446 kJ/mol
# Density = 1.996652 g / cm^3
# Si number density = 20.012069 Si / 1000 Ang^3
#
#
#
# Elastic Constant Matrix: (Units=GPa)
#
#
# Indices 1 2 3 4 5 6 
#
# 1 75.7045 17.4989 39.6967 0.0010 -6.8499 -0.0005
# 2 17.4989 61.4326 25.8673 0.0002 -3.2830 -0.0003
# 3 39.6967 25.8673 120.7281 0.0033 3.6303 -0.0011
# 4 0.0010 0.0002 0.0033 17.3491 0.0010 -3.9479
# 5 -6.8499 -3.2830 3.6303 0.0010 40.3963 -0.0005
# 6 -0.0005 -0.0003 -0.0011 -3.9479 -0.0005 25.3235
#
#
#
# Elastic Compliance Matrix: (Units=1/GPa)
#
#
# Indices 1 2 3 4 5 6 
#
# 1 0.016711 -0.002465 -0.005060 0.000000 0.003088 0.000000
# 2 -0.002465 0.018388 -0.003170 0.000001 0.001361 0.000000
# 3 -0.005060 -0.003170 0.010688 -0.000002 -0.002076 0.000000
# 4 0.000000 0.000001 -0.000002 0.059760 -0.000001 0.009316
# 5 0.003088 0.001361 -0.002076 -0.000001 0.025576 0.000000
# 6 0.000000 0.000000 0.000000 0.009316 0.000000 0.040941
#
#
# Mechanical properties :
#
#
# Convention : Reuss Voigt Hill
#
# Bulk Modulus (GPa) = 40.98645 47.11010 44.04828
# Shear Modulus (GPa) = 24.80323 28.26728 26.53525
#
# Velocity S-wave (km/s) = 3.52435 3.76242 3.64533
# Velocity P-wave (km/s) = 6.08989 6.51662 6.30686
#
# Compressibility (1/GPa) = 0.02439831
#
# Stress axis : x y z
#
# Youngs Moduli (GPa) = 59.83905 54.38411 93.55895
#
# Poissons Ratio (x) = 0.13404 0.47338
# Poissons Ratio (y) = 0.14749 0.29661
# Poissons Ratio (z) = 0.30277 0.17241
#
# Static dielectric constant tensor:
#      x y z
#    x 3.616100 0.000000 -0.080420 
#    y 0.000000 3.391800 0.000000 
#    z -0.080420 0.000000 4.015830 
# 
# 
# High freq. dielectric constant tensor:
#      x y z
#    x 1.780940 0.000000 -0.001710 
#    y 0.000000 1.761400 0.000000 
#    z -0.001710 0.000000 1.809600 
# 
# From -- ./inp_files/125350.got.cif
#   From: 2010.06.25/outbox.cif.g09.slc.cpg/sg12_63_cif.got.tgz:125350.got - 2010.06.28 00:19:55.
