data_PCOD8102137
_publ_section_title
;
Structure prediction by ZEFSAII (Michael W. Deem and Ramdas Pophale) SiO2 
 PCOD8102137
Probable space group: C 2/M
;
_chemical_formula_sum "Si O2"
_cell_formula_units_Z 40
_cell_length_a 19.201861
_cell_length_b 8.498077
_cell_length_c 24.904904
_cell_angle_alpha 90.000000
_cell_angle_beta 151.646758
_cell_angle_gamma 90.000000
_cell_volume 1929.997215
_symmetry_space_group_name_H-M "C 2/M"
_symmetry_group_IT_number 12
_symmetry_cell_setting 'monoclinic'
loop_
_space_group_symop_operation_xyz
x,y,z
-x,y,-z
-x,-y,-z
x,-y,z
1/2+x,1/2+y,z
1/2-x,1/2+y,-z
1/2-x,1/2-y,-z
1/2+x,1/2-y,z
loop_
_atom_site_type_symbol
_atom_site_label
_atom_site_fract_x
_atom_site_fract_y
_atom_site_fract_z
Si Si1 0.618911 0.814401 0.041089
Si Si2 0.092781 0.316362 0.904344
Si Si3 0.936382 0.814240 0.290704
Si Si4 0.454215 0.815013 0.528467
Si Si5 0.863005 0.686378 0.662318
O O1 0.782456 0.747941 0.162599
O O2 0.628428 0.000000 0.056750
O O3 0.500000 0.737161 0.000000
O O4 0.555049 0.770963 0.939610
O O5 0.099488 0.500000 0.899682
O O6 0.972239 0.246671 0.782287
O O7 0.250000 0.250000 0.000000
O O8 0.943080 0.771397 0.358203
O O9 0.070305 0.730600 0.350372
O O10 0.951861 0.000000 0.293353
O O11 0.500000 0.755243 0.500000
O O12 0.287657 0.774073 0.429075
O O13 0.479532 0.000000 0.550448
O O14 0.836962 0.500000 0.647756
#
# Coordination Sequence:
#
# PCOD8102137 Si02
#       5
#     8   8   8   8   8
#     4   9  19  35  58  89 123 157 194 242 297 350
#     4  10  20  36  60  90 123 156 195 243 293 355
#     4  11  22  39  66  91 121 161 204 250 298 360
#     4  11  26  45  63  86 121 158 199 254 310 362
#     4  11  23  39  64  92 123 160 204 251 295 358
#
# _framework density 20.725418000000001
#
# number of rings (size 3 to 8) (size 9 to 14) (size 15 to 20)
#    0.000    1.600    2.000    2.400    2.800    2.400 
#    0.000    0.000    0.000    3.000    0.000    0.000 
#    0.000    0.000    0.000    0.000    0.000    0.000 
#
# Total GULP energy -248015.807723 kJ/mol
# GULP energy per Si atom -12400.790386 kJ/mol
# Density = 2.067825 g / cm^3
# Si number density = 20.725418 Si / 1000 Ang^3
#
#
#
# Elastic Constant Matrix: (Units=GPa)
#
#
# Indices 1 2 3 4 5 6 
#
# 1 121.0153 12.7553 24.8767 -0.0009 -0.5415 -0.0003
# 2 12.7553 29.4531 10.8307 -0.0001 -4.5071 0.0001
# 3 24.8767 10.8307 89.8816 0.0041 -11.2613 0.0003
# 4 -0.0009 -0.0001 0.0041 21.8592 0.0005 -3.0957
# 5 -0.5415 -4.5071 -11.2613 0.0005 42.1362 0.0000
# 6 -0.0003 0.0001 0.0003 -3.0957 0.0000 26.7753
#
#
#
# Elastic Compliance Matrix: (Units=1/GPa)
#
#
# Indices 1 2 3 4 5 6 
#
# 1 0.009057 -0.003232 -0.002220 0.000001 -0.000823 0.000000
# 2 -0.003232 0.036990 -0.003179 0.000001 0.003066 0.000000
# 3 -0.002220 -0.003179 0.012496 -0.000003 0.002971 0.000000
# 4 0.000001 0.000001 -0.000003 0.046509 -0.000001 0.005377
# 5 -0.000823 0.003066 0.002971 -0.000001 0.024844 0.000000
# 6 0.000000 0.000000 0.000000 0.005377 0.000000 0.037970
#
#
# Mechanical properties :
#
#
# Convention : Reuss Voigt Hill
#
# Bulk Modulus (GPa) = 24.22437 37.47503 30.84970
# Shear Modulus (GPa) = 25.13999 30.94662 28.04330
#
# Velocity S-wave (km/s) = 3.48660 3.86835 3.68242
# Velocity P-wave (km/s) = 5.28414 6.17034 5.74435
#
# Compressibility (1/GPa) = 0.04128075
#
# Stress axis : x y z
#
# Youngs Moduli (GPa) = 110.41449 27.03441 80.02849
#
# Poissons Ratio (x) = 0.08737 0.17769
# Poissons Ratio (y) = 0.35682 0.25439
# Poissons Ratio (z) = 0.24516 0.08594
#
# Static dielectric constant tensor:
#      x y z
#    x 51.138640 0.000860 -22.114250 
#    y 0.000860 3.523470 -0.000400 
#    z -22.114250 -0.000400 14.249370 
# 
# 
# High freq. dielectric constant tensor:
#      x y z
#    x 1.823020 0.000000 -0.008320 
#    y 0.000000 1.789400 0.000000 
#    z -0.008320 0.000000 1.824740 
# 
# From -- ./inp_files/151660.got.cif
#   From: 2010.06.25/outbox.cif.g09.slc.cpg/sg12_76_cif.got.tgz:151660.got - 2010.06.28 00:19:55.
