data_PCOD8102441
_publ_section_title
;
Structure prediction by ZEFSAII (Michael W. Deem and Ramdas Pophale) SiO2 
 PCOD8102441
Probable space group: C 2/M
;
_chemical_formula_sum "Si O2"
_cell_formula_units_Z 64
_cell_length_a 19.553430
_cell_length_b 14.279802
_cell_length_c 17.889122
_cell_angle_alpha 90.000000
_cell_angle_beta 140.141392
_cell_angle_gamma 90.000000
_cell_volume 3201.261938
_symmetry_space_group_name_H-M "C 2/M"
_symmetry_group_IT_number 12
_symmetry_cell_setting 'monoclinic'
loop_
_space_group_symop_operation_xyz
x,y,z
-x,y,-z
-x,-y,-z
x,-y,z
1/2+x,1/2+y,z
1/2-x,1/2+y,-z
1/2-x,1/2-y,-z
1/2+x,1/2-y,z
loop_
_atom_site_type_symbol
_atom_site_label
_atom_site_fract_x
_atom_site_fract_y
_atom_site_fract_z
Si Si1 0.377922 0.107841 0.410945
Si Si2 0.085372 0.105021 0.632445
Si Si3 0.770169 0.395835 0.681349
Si Si4 0.825663 0.256309 0.494277
Si Si5 0.994244 0.391231 0.083190
Si Si6 0.146361 0.766521 0.963838
Si Si7 0.554237 0.259757 0.740585
Si Si8 0.286147 0.109429 0.172331
O O1 0.500000 0.145397 0.500000
O O2 0.314700 0.161015 0.423928
O O3 0.305477 0.123428 0.276911
O O4 0.384573 0.000000 0.440015
O O5 0.207814 0.105574 0.707754
O O6 0.093211 0.165194 0.713454
O O7 0.000000 0.146609 0.500000
O O8 0.047490 0.000000 0.620633
O O9 0.777679 0.500000 0.655471
O O10 0.691587 0.341516 0.560649
O O11 0.890307 0.356011 0.788993
O O12 0.750000 0.250000 0.500000
O O13 0.936929 0.271084 0.626033
O O14 0.972727 0.500000 0.086087
O O15 0.899135 0.328081 0.036462
O O16 0.000000 0.378739 0.000000
O O17 0.060713 0.802864 0.830232
O O18 0.250000 0.750000 0.000000
O O19 0.173597 0.843334 0.051144
O O20 0.620287 0.162807 0.792887
O O21 0.287012 0.000000 0.151528
#
# Coordination Sequence:
#
# PCOD8102441 Si02
#       8
#     8   8   8   8   8   8   8   8
#     4  10  21  40  67  94 120 165 223 271 317 378
#     4  10  20  36  63  97 129 164 213 266 317 383
#     4  10  22  39  61  92 129 170 207 255 324 387
#     4  12  24  36  61  96 133 166 203 264 335 389
#     4  10  23  43  67  95 128 167 215 267 324 390
#     4  10  24  41  62  95 130 170 215 270 331 381
#     4  11  22  38  61  94 130 170 213 262 330 390
#     4  10  22  41  66  94 123 166 224 275 316 370
#
# _framework density 19.992114999999998
#
# number of rings (size 3 to 8) (size 9 to 14) (size 15 to 20)
#    0.000    1.625    2.500    1.500    5.250    3.000 
#    0.000    0.000    0.000    2.625    0.000    0.000 
#    0.000    0.000    0.000    0.000    0.000    0.000 
#
# Total GULP energy -396483.852591 kJ/mol
# GULP energy per Si atom -12390.120393 kJ/mol
# Density = 1.994661 g / cm^3
# Si number density = 19.992115 Si / 1000 Ang^3
#
#
#
# Elastic Constant Matrix: (Units=GPa)
#
#
# Indices 1 2 3 4 5 6 
#
# 1 106.8866 61.1335 34.3769 0.0000 -6.7856 0.0000
# 2 61.1335 118.2595 67.5158 0.0000 -7.1937 0.0000
# 3 34.3769 67.5158 125.5366 0.0000 -19.4580 0.0000
# 4 0.0000 0.0000 0.0000 29.2757 0.0000 10.4657
# 5 -6.7856 -7.1937 -19.4580 0.0000 32.3665 0.0000
# 6 0.0000 0.0000 0.0000 10.4657 0.0000 19.0734
#
#
#
# Elastic Compliance Matrix: (Units=1/GPa)
#
#
# Indices 1 2 3 4 5 6 
#
# 1 0.013344 -0.007002 0.000335 0.000000 0.001443 0.000000
# 2 -0.007002 0.015931 -0.006980 0.000000 -0.002123 0.000000
# 3 0.000335 -0.006980 0.012570 0.000000 0.006075 0.000000
# 4 0.000000 0.000000 0.000000 0.042493 0.000000 -0.023316
# 5 0.001443 -0.002123 0.006075 0.000000 0.034379 0.000000
# 6 0.000000 0.000000 0.000000 -0.023316 0.000000 0.065223
#
#
# Mechanical properties :
#
#
# Convention : Reuss Voigt Hill
#
# Bulk Modulus (GPa) = 68.71855 75.19280 71.95567
# Shear Modulus (GPa) = 23.13920 28.65357 25.89639
#
# Velocity S-wave (km/s) = 3.40577 3.78993 3.60297
# Velocity P-wave (km/s) = 7.06493 7.53951 7.30607
#
# Compressibility (1/GPa) = 0.01455211
#
# Stress axis : x y z
#
# Youngs Moduli (GPa) = 74.93931 62.77006 79.55720
#
# Poissons Ratio (x) = 0.43950 -0.02666
# Poissons Ratio (y) = 0.52470 0.55529
# Poissons Ratio (z) = -0.02511 0.43812
#
# Static dielectric constant tensor:
#      x y z
#    x 3.402690 0.000000 -0.253040 
#    y 0.000000 3.692360 0.000000 
#    z -0.253040 0.000000 4.323660 
# 
# 
# High freq. dielectric constant tensor:
#      x y z
#    x 1.764530 0.000000 -0.008680 
#    y 0.000000 1.773460 0.000000 
#    z -0.008680 0.000000 1.795990 
# 
# From -- ./inp_files/278203.got.cif
#   From: 2010.06.25/outbox.cif.g09.slc.cpg/sg12_140_cif.got.tgz:278203.got - 2010.06.28 00:19:55.
