data_PCOD8102125
_publ_section_title
;
Structure prediction by ZEFSAII (Michael W. Deem and Ramdas Pophale) SiO2 
 PCOD8102125
Probable space group: C 2/M
;
_chemical_formula_sum "Si O2"
_cell_formula_units_Z 48
_cell_length_a 14.916246
_cell_length_b 8.458340
_cell_length_c 26.605161
_cell_angle_alpha 90.000000
_cell_angle_beta 135.023139
_cell_angle_gamma 90.000000
_cell_volume 2372.575863
_symmetry_space_group_name_H-M "C 2/M"
_symmetry_group_IT_number 12
_symmetry_cell_setting 'monoclinic'
loop_
_space_group_symop_operation_xyz
x,y,z
-x,y,-z
-x,-y,-z
x,-y,z
1/2+x,1/2+y,z
1/2-x,1/2+y,-z
1/2-x,1/2-y,-z
1/2+x,1/2-y,z
loop_
_atom_site_type_symbol
_atom_site_label
_atom_site_fract_x
_atom_site_fract_y
_atom_site_fract_z
Si Si1 0.922582 0.681326 0.332326
Si Si2 0.277403 0.182665 0.820561
Si Si3 0.691730 0.316033 0.426013
Si Si4 0.231836 0.684049 0.068099
Si Si5 0.954096 0.182171 0.082180
Si Si6 0.624296 0.315497 0.579960
O O1 0.966007 0.500000 0.347458
O O2 0.812225 0.709759 0.248696
O O3 0.868762 0.719168 0.365928
O O4 0.041390 0.791623 0.366140
O O5 0.254845 0.234618 0.869015
O O6 0.422539 0.210456 0.862754
O O7 0.243185 0.000000 0.798429
O O8 0.723702 0.500000 0.434212
O O9 0.750000 0.250000 0.500000
O O10 0.751111 0.224352 0.402516
O O11 0.198264 0.500000 0.048990
O O12 0.363152 0.725842 0.092642
O O13 0.116746 0.781632 0.998210
O O14 0.994813 0.000000 0.099179
O O15 0.500000 0.262735 0.500000
O O16 0.620091 0.500000 0.591081
#
# Coordination Sequence:
#
# PCOD8102125 Si02
#       6
#     8   8   8   8   8   8
#     4  12  26  43  63  91 126 164 208 257 314 373
#     4  11  23  40  60  84 122 164 204 250 306 370
#     4  12  24  41  66  94 124 159 202 252 307 366
#     4   9  20  38  60  86 119 161 203 245 301 364
#     4  10  20  36  60  90 121 155 203 255 303 359
#     4  11  23  41  67  94 122 157 202 253 306 368
#
# _framework density 20.231173999999999
#
# number of rings (size 3 to 8) (size 9 to 14) (size 15 to 20)
#    0.000    1.167    1.667    5.000    0.000    6.000 
#    0.000    5.000    0.000    0.000    0.000    0.000 
#    0.000    0.000    0.000    0.000    0.000    0.000 
#
# Total GULP energy -297802.349575 kJ/mol
# GULP energy per Si atom -12408.431232 kJ/mol
# Density = 2.018513 g / cm^3
# Si number density = 20.231174 Si / 1000 Ang^3
#
#
#
# Elastic Constant Matrix: (Units=GPa)
#
#
# Indices 1 2 3 4 5 6 
#
# 1 110.4310 12.0330 54.0114 0.0000 5.6121 0.0000
# 2 12.0330 67.3031 24.4460 0.0000 -2.4531 0.0000
# 3 54.0114 24.4460 114.1325 0.0000 -3.5736 0.0000
# 4 0.0000 0.0000 0.0000 33.0963 0.0000 1.8142
# 5 5.6121 -2.4531 -3.5736 0.0000 18.0650 0.0000
# 6 0.0000 0.0000 0.0000 1.8142 0.0000 34.8089
#
#
#
# Elastic Compliance Matrix: (Units=1/GPa)
#
#
# Indices 1 2 3 4 5 6 
#
# 1 0.012213 -0.000227 -0.005887 0.000000 -0.004990 0.000000
# 2 -0.000227 0.016157 -0.003303 0.000000 0.001611 0.000000
# 3 -0.005887 -0.003303 0.012375 0.000000 0.003829 0.000000
# 4 0.000000 0.000000 0.000000 0.030301 0.000000 -0.001579
# 5 -0.004990 0.001611 0.003829 0.000000 0.057882 0.000000
# 6 0.000000 0.000000 0.000000 -0.001579 0.000000 0.028811
#
#
# Mechanical properties :
#
#
# Convention : Reuss Voigt Hill
#
# Bulk Modulus (GPa) = 45.63882 52.53858 49.08870
# Shear Modulus (GPa) = 27.19206 30.61913 28.90560
#
# Velocity S-wave (km/s) = 3.67013 3.89455 3.78400
# Velocity P-wave (km/s) = 6.36926 6.80065 6.58848
#
# Compressibility (1/GPa) = 0.02191117
#
# Stress axis : x y z
#
# Youngs Moduli (GPa) = 81.87869 61.89222 80.80737
#
# Poissons Ratio (x) = 0.01405 0.47574
# Poissons Ratio (y) = 0.01859 0.26689
# Poissons Ratio (z) = 0.48204 0.20442
#
# Static dielectric constant tensor:
#      x y z
#    x 3.862180 0.000000 0.061380 
#    y 0.000000 3.789420 0.000000 
#    z 0.061380 0.000000 3.679170 
# 
# 
# High freq. dielectric constant tensor:
#      x y z
#    x 1.803000 0.000000 -0.000220 
#    y 0.000000 1.797910 0.000000 
#    z -0.000220 0.000000 1.784660 
# 
# From -- ./inp_files/360256.got.cif
#   From: 2010.06.25/outbox.cif.g09.slc.cpg/sg12_181_cif.got.tgz:360256.got - 2010.06.28 00:19:55.
