data_PCOD8102307
_publ_section_title
;
Structure prediction by ZEFSAII (Michael W. Deem and Ramdas Pophale) SiO2 
 PCOD8102307
Probable space group: C 2/M
;
_chemical_formula_sum "Si O2"
_cell_formula_units_Z 64
_cell_length_a 27.015443
_cell_length_b 18.181674
_cell_length_c 11.689682
_cell_angle_alpha 90.000000
_cell_angle_beta 31.536711
_cell_angle_gamma 90.000000
_cell_volume 3003.222569
_symmetry_space_group_name_H-M "C 2/M"
_symmetry_group_IT_number 12
_symmetry_cell_setting 'monoclinic'
loop_
_space_group_symop_operation_xyz
x,y,z
-x,y,-z
-x,-y,-z
x,-y,z
1/2+x,1/2+y,z
1/2-x,1/2+y,-z
1/2-x,1/2-y,-z
1/2+x,1/2-y,z
loop_
_atom_site_type_symbol
_atom_site_label
_atom_site_fract_x
_atom_site_fract_y
_atom_site_fract_z
Si Si1 0.247017 0.681398 0.855329
Si Si2 0.391873 0.711541 0.973915
Si Si3 0.205278 0.086018 0.705918
Si Si4 0.449246 0.140285 0.981201
Si Si5 0.441145 0.731843 0.506905
Si Si6 0.750854 0.582148 0.361950
Si Si7 0.617213 0.876696 0.499447
Si Si8 0.608200 0.080842 0.276342
O O1 0.346310 0.686385 0.730172
O O2 0.277379 0.640102 0.679271
O O3 0.198484 0.760772 0.924120
O O4 0.169407 0.636290 0.080168
O O5 0.415021 0.778910 0.011810
O O6 0.482405 0.688197 0.719382
O O7 0.372470 0.636835 0.080672
O O8 0.197974 0.100889 0.584784
O O9 0.306644 0.112944 0.551397
O O10 0.188078 0.000000 0.768095
O O11 0.516098 0.102517 0.753985
O O12 0.500000 0.150974 0.000000
O O13 0.362662 0.084917 0.165672
O O14 0.500000 0.761058 0.500000
O O15 0.392717 0.793814 0.525096
O O16 0.723827 0.500000 0.375025
O O17 0.645204 0.925504 0.334191
O O18 0.500000 0.109400 0.500000
O O19 0.614084 0.000000 0.208261
#
# Coordination Sequence:
#
# PCOD8102307 Si02
#       8
#     8   8   8   8   8   8   8   8
#     4  11  23  42  67  93 128 170 219 276 324 386
#     4  10  23  40  63  95 126 169 218 271 321 383
#     4  11  23  39  61  92 132 175 213 260 322 391
#     4  10  20  36  61  96 131 164 213 269 323 386
#     4  11  24  41  66  96 126 168 219 275 331 384
#     4  10  22  39  62  92 130 174 215 261 327 395
#     4  11  21  38  59  92 126 162 207 262 331 383
#     4  11  23  39  62  93 130 168 212 266 327 393
#
# _framework density 21.310442999999999
#
# number of rings (size 3 to 8) (size 9 to 14) (size 15 to 20)
#    0.000    1.375    2.500    4.125    1.750    7.250 
#    0.000    1.250    0.000    3.750    0.000    0.000 
#    0.000    0.000    0.000    0.000    0.000    0.000 
#
# Total GULP energy -396583.785099 kJ/mol
# GULP energy per Si atom -12393.243284 kJ/mol
# Density = 2.126194 g / cm^3
# Si number density = 21.310443 Si / 1000 Ang^3
#
#
#
# Elastic Constant Matrix: (Units=GPa)
#
#
# Indices 1 2 3 4 5 6 
#
# 1 78.2659 15.1714 21.7978 0.0000 -2.4327 0.0000
# 2 15.1714 91.6355 52.6118 0.0000 8.7436 0.0000
# 3 21.7978 52.6118 128.1422 0.0000 4.2132 0.0000
# 4 0.0000 0.0000 0.0000 26.2697 0.0000 6.1008
# 5 -2.4327 8.7436 4.2132 0.0000 33.4350 0.0000
# 6 0.0000 0.0000 0.0000 6.1008 0.0000 21.0866
#
#
#
# Elastic Compliance Matrix: (Units=1/GPa)
#
#
# Indices 1 2 3 4 5 6 
#
# 1 0.013593 -0.001365 -0.001803 0.000000 0.001573 0.000000
# 2 -0.001365 0.014723 -0.005707 0.000000 -0.003231 0.000000
# 3 -0.001803 -0.005707 0.010452 0.000000 0.000044 0.000000
# 4 0.000000 0.000000 0.000000 0.040809 0.000000 -0.011807
# 5 0.001573 -0.003231 0.000044 0.000000 0.030863 0.000000
# 6 0.000000 0.000000 0.000000 -0.011807 0.000000 0.050839
#
#
# Mechanical properties :
#
#
# Convention : Reuss Voigt Hill
#
# Bulk Modulus (GPa) = 47.57836 53.02285 50.30061
# Shear Modulus (GPa) = 26.87661 30.05576 28.46619
#
# Velocity S-wave (km/s) = 3.55518 3.75957 3.65881
# Velocity P-wave (km/s) = 6.26316 6.61672 6.44237
#
# Compressibility (1/GPa) = 0.02101796
#
# Stress axis : x y z
#
# Youngs Moduli (GPa) = 73.56856 67.91872 95.67395
#
# Poissons Ratio (x) = 0.09272 0.17254
# Poissons Ratio (y) = 0.10043 0.54598
# Poissons Ratio (z) = 0.13268 0.38759
#
# Static dielectric constant tensor:
#      x y z
#    x 3.833050 0.000000 0.074750 
#    y 0.000000 3.618060 0.000000 
#    z 0.074750 0.000000 4.075890 
# 
# 
# High freq. dielectric constant tensor:
#      x y z
#    x 1.832820 0.000000 0.011930 
#    y 0.000000 1.818040 0.000000 
#    z 0.011930 0.000000 1.842480 
# 
# From -- ./inp_files/190051.got.cif
#   From: 2010.06.25/outbox.cif.g09.slc.cpg/sg12_96_cif.got.tgz:190051.got - 2010.06.28 00:19:55.
