data_PCOD8102239
_publ_section_title
;
Structure prediction by ZEFSAII (Michael W. Deem and Ramdas Pophale) SiO2 
 PCOD8102239
Probable space group: C 2/M
;
_chemical_formula_sum "Si O2"
_cell_formula_units_Z 64
_cell_length_a 17.542960
_cell_length_b 16.688698
_cell_length_c 15.308641
_cell_angle_alpha 90.000000
_cell_angle_beta 135.908905
_cell_angle_gamma 90.000000
_cell_volume 3118.509891
_symmetry_space_group_name_H-M "C 2/M"
_symmetry_group_IT_number 12
_symmetry_cell_setting 'monoclinic'
loop_
_space_group_symop_operation_xyz
x,y,z
-x,y,-z
-x,-y,-z
x,-y,z
1/2+x,1/2+y,z
1/2-x,1/2+y,-z
1/2-x,1/2-y,-z
1/2+x,1/2-y,z
loop_
_atom_site_type_symbol
_atom_site_label
_atom_site_fract_x
_atom_site_fract_y
_atom_site_fract_z
Si Si1 0.372349 0.408750 0.155838
Si Si2 0.084041 0.407623 0.193379
Si Si3 0.149536 0.360221 0.059256
Si Si4 0.378755 0.907862 0.487016
Si Si5 0.377820 0.095419 0.292103
Si Si6 0.293530 0.698153 0.955992
Si Si7 0.958580 0.095083 0.560447
Si Si8 0.238612 0.338811 0.456039
O O1 0.400513 0.500000 0.158319
O O2 0.250539 0.400484 0.093280
O O3 0.455909 0.374576 0.296605
O O4 0.384328 0.361008 0.073799
O O5 0.099079 0.500000 0.234752
O O6 0.146654 0.394555 0.154048
O O7 0.134431 0.349296 0.307501
O O8 0.956947 0.386715 0.081817
O O9 0.155199 0.262582 0.069233
O O10 0.496077 0.876576 0.620213
O O11 0.347339 0.875058 0.365239
O O12 0.280130 0.891852 0.472712
O O13 0.398138 0.000000 0.487081
O O14 0.301853 0.145134 0.164424
O O15 0.359536 0.000000 0.261351
O O16 0.250000 0.750000 0.000000
O O17 0.843342 0.134844 0.487321
O O18 0.000000 0.125149 0.500000
O O19 0.944698 0.000000 0.548900
O O20 0.250000 0.250000 0.500000
#
# Coordination Sequence:
#
# PCOD8102239 Si02
#       8
#     8   8   8   8   8   8   8   8
#     4  10  20  36  61  89 122 165 213 255 310 390
#     4  11  23  42  66  91 122 162 211 261 318 382
#     4  10  22  38  63  91 125 160 208 268 319 372
#     4   9  20  40  66  93 125 166 219 269 314 381
#     4   9  19  39  66  94 127 172 218 263 326 394
#     4  10  22  34  56  87 129 162 205 261 325 371
#     4  10  22  43  67  90 126 174 221 264 312 387
#     4  12  27  39  63  98 133 167 208 264 331 380
#
# _framework density 20.522622999999999
#
# number of rings (size 3 to 8) (size 9 to 14) (size 15 to 20)
#    0.000    1.875    0.000    4.500    7.000    2.000 
#    2.250    0.000    0.000    0.000    0.000    7.000 
#    0.000    0.000    0.000    0.000    0.000    0.000 
#
# Total GULP energy -396699.237541 kJ/mol
# GULP energy per Si atom -12396.851173 kJ/mol
# Density = 2.047591 g / cm^3
# Si number density = 20.522623 Si / 1000 Ang^3
#
#
#
# Elastic Constant Matrix: (Units=GPa)
#
#
# Indices 1 2 3 4 5 6 
#
# 1 92.8223 16.9545 25.4445 0.0000 2.6055 0.0000
# 2 16.9545 86.2284 56.1932 0.0000 -4.6032 0.0000
# 3 25.4445 56.1932 133.5355 0.0000 -16.3117 0.0000
# 4 0.0000 0.0000 0.0000 32.4089 0.0000 -5.6332
# 5 2.6055 -4.6032 -16.3117 0.0000 16.6604 0.0000
# 6 0.0000 0.0000 0.0000 -5.6332 0.0000 27.7235
#
#
#
# Elastic Compliance Matrix: (Units=1/GPa)
#
#
# Indices 1 2 3 4 5 6 
#
# 1 0.011725 -0.001011 -0.002348 0.000000 -0.004412 0.000000
# 2 -0.001011 0.016156 -0.006862 0.000000 -0.002096 0.000000
# 3 -0.002348 -0.006862 0.012082 0.000000 0.010300 0.000000
# 4 0.000000 0.000000 0.000000 0.031985 0.000000 0.006499
# 5 -0.004412 -0.002096 0.010300 0.000000 0.070218 0.000000
# 6 0.000000 0.000000 0.000000 0.006499 0.000000 0.037391
#
#
# Mechanical properties :
#
#
# Convention : Reuss Voigt Hill
#
# Bulk Modulus (GPa) = 51.22549 56.64118 53.93334
# Shear Modulus (GPa) = 24.21242 29.62481 26.91862
#
# Velocity S-wave (km/s) = 3.43854 3.80349 3.62561
# Velocity P-wave (km/s) = 6.38587 6.85186 6.62297
#
# Compressibility (1/GPa) = 0.01952153
#
# Stress axis : x y z
#
# Youngs Moduli (GPa) = 85.28559 61.89731 82.76960
#
# Poissons Ratio (x) = 0.06258 0.19431
# Poissons Ratio (y) = 0.08623 0.56796
# Poissons Ratio (z) = 0.20022 0.42474
#
# Static dielectric constant tensor:
#      x y z
#    x 2.977830 0.000000 -0.082110 
#    y 0.000000 4.295090 0.000000 
#    z -0.082110 0.000000 3.929150 
# 
# 
# High freq. dielectric constant tensor:
#      x y z
#    x 1.790370 0.000000 -0.010790 
#    y 0.000000 1.801860 0.000000 
#    z -0.010790 0.000000 1.813140 
# 
# From -- ./inp_files/226892.got.cif
#   From: 2010.06.25/outbox.cif.g09.slc.cpg/sg12_114_cif.got.tgz:226892.got - 2010.06.28 00:19:55.
