data_PCOD8102932
_publ_section_title
;
Structure prediction by ZEFSAII (Michael W. Deem and Ramdas Pophale) SiO2 
 PCOD8102932
Probable space group: C 2/M
;
_chemical_formula_sum "Si O2"
_cell_formula_units_Z 56
_cell_length_a 17.858152
_cell_length_b 8.738987
_cell_length_c 28.799577
_cell_angle_alpha 90.000000
_cell_angle_beta 141.195459
_cell_angle_gamma 90.000000
_cell_volume 2816.563560
_symmetry_space_group_name_H-M "C 2/M"
_symmetry_group_IT_number 12
_symmetry_cell_setting 'monoclinic'
loop_
_space_group_symop_operation_xyz
x,y,z
-x,y,-z
-x,-y,-z
x,-y,z
1/2+x,1/2+y,z
1/2-x,1/2+y,-z
1/2-x,1/2-y,-z
1/2+x,1/2-y,z
loop_
_atom_site_type_symbol
_atom_site_label
_atom_site_fract_x
_atom_site_fract_y
_atom_site_fract_z
Si Si1 0.774064 0.178215 0.787598
Si Si2 0.639275 0.176070 0.076343
Si Si3 0.544905 0.321160 0.207644
Si Si4 0.081832 0.680032 0.496093
Si Si5 0.652371 0.318530 0.356591
Si Si6 0.019296 0.180831 0.645657
Si Si7 0.791564 0.680461 0.068238
O O1 0.831032 0.239986 0.861895
O O2 0.865083 0.213033 0.790359
O O3 0.651806 0.261233 0.717311
O O4 0.747741 0.000000 0.780066
O O5 0.709545 0.254302 0.068916
O O6 0.678954 0.000000 0.099056
O O7 0.500000 0.193220 0.000000
O O8 0.510580 0.500000 0.193799
O O9 0.606046 0.261780 0.284393
O O10 0.427977 0.221611 0.143477
O O11 0.081041 0.500000 0.485746
O O12 0.214364 0.743806 0.570200
O O13 0.000000 0.722421 0.500000
O O14 0.030402 0.764865 0.427080
O O15 0.655881 0.500000 0.358700
O O16 0.565207 0.253741 0.354294
O O17 0.020061 0.000000 0.647494
O O18 0.775757 0.500000 0.058455
O O19 0.750000 0.750000 0.000000
#
# Coordination Sequence:
#
# PCOD8102932 Si02
#       7
#     8   8   8   8   8   8   8
#     4  11  23  39  62  90 119 157 203 247 294 353
#     4  11  24  42  64  90 122 159 199 247 300 351
#     4  10  21  40  64  88 118 156 199 247 299 356
#     4  10  20  37  60  83 111 150 196 244 296 358
#     4   9  19  36  58  84 114 152 194 238 295 357
#     4  11  22  36  57  85 119 156 194 243 300 357
#     4  12  25  41  63  91 123 159 200 245 296 356
#
# _framework density 19.882383999999998
#
# number of rings (size 3 to 8) (size 9 to 14) (size 15 to 20)
#    0.000    1.429    0.000    5.571    0.000    8.286 
#    0.000    2.143    0.000    0.000    0.000    0.000 
#    0.000    0.000    0.000    0.000    0.000    0.000 
#
# Total GULP energy -347344.154669 kJ/mol
# GULP energy per Si atom -12405.148381 kJ/mol
# Density = 1.983713 g / cm^3
# Si number density = 19.882384 Si / 1000 Ang^3
#
#
#
# Elastic Constant Matrix: (Units=GPa)
#
#
# Indices 1 2 3 4 5 6 
#
# 1 161.3289 75.9013 79.4829 0.0000 -10.7132 0.0000
# 2 75.9013 133.0507 70.1053 -0.0002 15.5148 -0.0001
# 3 79.4829 70.1053 148.9991 0.0000 3.5836 0.0000
# 4 0.0000 -0.0002 0.0000 74.6517 0.0000 -16.5136
# 5 -10.7132 15.5148 3.5836 0.0000 45.0098 0.0000
# 6 0.0000 -0.0001 0.0000 -16.5136 0.0000 34.2121
#
#
#
# Elastic Compliance Matrix: (Units=1/GPa)
#
#
# Indices 1 2 3 4 5 6 
#
# 1 0.010349 -0.004579 -0.003470 0.000000 0.004318 0.000000
# 2 -0.004579 0.012463 -0.003298 0.000000 -0.005123 0.000000
# 3 -0.003470 -0.003298 0.010126 0.000000 -0.000495 0.000000
# 4 0.000000 0.000000 0.000000 0.014997 0.000000 0.007239
# 5 0.004318 -0.005123 -0.000495 0.000000 0.025051 0.000000
# 6 0.000000 0.000000 0.000000 0.007239 0.000000 0.032723
#
#
# Mechanical properties :
#
#
# Convention : Reuss Voigt Hill
#
# Bulk Modulus (GPa) = 97.61636 99.37309 98.49473
# Shear Modulus (GPa) = 37.93069 45.30066 41.61568
#
# Velocity S-wave (km/s) = 4.37252 4.77847 4.58000
# Velocity P-wave (km/s) = 8.64265 8.97407 8.80992
#
# Compressibility (1/GPa) = 0.01024418
#
# Stress axis : x y z
#
# Youngs Moduli (GPa) = 96.62569 80.23479 98.75205
#
# Poissons Ratio (x) = 0.36739 0.34268
# Poissons Ratio (y) = 0.44245 0.32571
# Poissons Ratio (z) = 0.33531 0.26464
#
# Static dielectric constant tensor:
#      x y z
#    x 3.927600 0.000000 0.044860 
#    y 0.000000 3.582160 0.000000 
#    z 0.044860 0.000000 3.839620 
# 
# 
# High freq. dielectric constant tensor:
#      x y z
#    x 1.798170 0.000000 -0.000760 
#    y 0.000000 1.766560 0.000000 
#    z -0.000760 0.000000 1.797640 
# 
# From -- ./inp_files/363089.got.cif
#   From: 2010.06.25/outbox.cif.g09.slc.cpg/sg12_182_cif.got.tgz:363089.got - 2010.06.28 00:19:55.
