data_PCOD8102418
_publ_section_title
;
Structure prediction by ZEFSAII (Michael W. Deem and Ramdas Pophale) SiO2 
 PCOD8102418
Probable space group: C 2/M
;
_chemical_formula_sum "Si O2"
_cell_formula_units_Z 56
_cell_length_a 21.575593
_cell_length_b 14.264780
_cell_length_c 9.221268
_cell_angle_alpha 90.000000
_cell_angle_beta 98.584076
_cell_angle_gamma 90.000000
_cell_volume 2806.247684
_symmetry_space_group_name_H-M "C 2/M"
_symmetry_group_IT_number 12
_symmetry_cell_setting 'monoclinic'
loop_
_space_group_symop_operation_xyz
x,y,z
-x,y,-z
-x,-y,-z
x,-y,z
1/2+x,1/2+y,z
1/2-x,1/2+y,-z
1/2-x,1/2-y,-z
1/2+x,1/2-y,z
loop_
_atom_site_type_symbol
_atom_site_label
_atom_site_fract_x
_atom_site_fract_y
_atom_site_fract_z
Si Si1 0.017123 0.392905 0.840675
Si Si2 0.092494 0.390725 0.415763
Si Si3 0.574008 0.392275 0.534195
Si Si4 0.610499 0.216307 0.704081
Si Si5 0.251933 0.765663 0.171066
Si Si6 0.824776 0.107899 0.658384
Si Si7 0.771635 0.392153 0.630152
O O1 0.038257 0.500000 0.816103
O O2 0.957559 0.364926 0.723345
O O3 0.072925 0.319678 0.831093
O O4 0.000000 0.379927 0.000000
O O5 0.093223 0.500000 0.452837
O O6 0.077723 0.337065 0.558566
O O7 0.159647 0.355324 0.385121
O O8 0.500000 0.375975 0.500000
O O9 0.590302 0.500000 0.579981
O O10 0.602077 0.327655 0.672427
O O11 0.607417 0.367476 0.390597
O O12 0.682517 0.187527 0.756193
O O13 0.193495 0.829080 0.208203
O O14 0.250364 0.662208 0.236265
O O15 0.250000 0.750000 0.000000
O O16 0.773133 0.130353 0.519325
O O17 0.823164 0.000000 0.707887
O O18 0.771430 0.500000 0.673469
#
# Coordination Sequence:
#
# PCOD8102418 Si02
#       7
#     8   8   8   8   8   8   8
#     4  10  23  40  58  88 127 161 194 238 297 365
#     4  10  20  36  63  92 116 150 198 242 293 356
#     4  10  21  38  64  92 112 145 202 259 302 346
#     4  12  22  38  60  87 117 160 200 247 293 357
#     4  12  26  38  56  91 126 159 199 248 304 367
#     4  10  20  40  65  87 117 155 202 255 304 359
#     4  10  20  38  63  84 111 155 200 248 297 351
#
# _framework density 19.955472
#
# number of rings (size 3 to 8) (size 9 to 14) (size 15 to 20)
#    0.000    1.429    2.857    3.000    2.000    2.286 
#    0.000    0.000    0.000    0.429    0.000    0.000 
#    0.000    0.000    0.000    0.000    0.000    0.000 
#
# Total GULP energy -347220.855441 kJ/mol
# GULP energy per Si atom -12400.744837 kJ/mol
# Density = 1.991005 g / cm^3
# Si number density = 19.955472 Si / 1000 Ang^3
#
#
#
# Elastic Constant Matrix: (Units=GPa)
#
#
# Indices 1 2 3 4 5 6 
#
# 1 125.7229 37.7605 37.9081 0.0000 -20.2147 0.0000
# 2 37.7605 73.2924 47.2740 0.0000 -17.6857 0.0000
# 3 37.9081 47.2740 108.9725 0.0000 -16.7893 0.0000
# 4 0.0000 0.0000 0.0000 26.4709 0.0000 -10.4883
# 5 -20.2147 -17.6857 -16.7893 0.0000 28.7508 0.0000
# 6 0.0000 0.0000 0.0000 -10.4883 0.0000 29.2877
#
#
#
# Elastic Compliance Matrix: (Units=1/GPa)
#
#
# Indices 1 2 3 4 5 6 
#
# 1 0.010037 -0.003218 -0.001443 0.000000 0.004234 0.000000
# 2 -0.003218 0.021588 -0.007196 0.000000 0.006815 0.000000
# 3 -0.001443 -0.007196 0.013144 0.000000 0.002235 0.000000
# 4 0.000000 0.000000 0.000000 0.044024 0.000000 0.015765
# 5 0.004234 0.006815 0.002235 0.000000 0.043256 0.000000
# 6 0.000000 0.000000 0.000000 0.015765 0.000000 0.039790
#
#
# Mechanical properties :
#
#
# Convention : Reuss Voigt Hill
#
# Bulk Modulus (GPa) = 47.49462 61.54144 54.51803
# Shear Modulus (GPa) = 24.68278 29.23822 26.96050
#
# Velocity S-wave (km/s) = 3.52076 3.83191 3.67963
# Velocity P-wave (km/s) = 6.35450 7.10524 6.74033
#
# Compressibility (1/GPa) = 0.02105501
#
# Stress axis : x y z
#
# Youngs Moduli (GPa) = 99.63606 46.32266 76.07780
#
# Poissons Ratio (x) = 0.14909 0.10976
# Poissons Ratio (y) = 0.32068 0.54742
# Poissons Ratio (z) = 0.14375 0.33332
#
# Static dielectric constant tensor:
#      x y z
#    x 3.861040 0.000000 -0.171760 
#    y 0.000000 3.736980 0.000000 
#    z -0.171760 0.000000 3.374740 
# 
# 
# High freq. dielectric constant tensor:
#      x y z
#    x 1.792760 0.000000 -0.015420 
#    y 0.000000 1.786180 0.000000 
#    z -0.015420 0.000000 1.748740 
# 
# From -- ./inp_files/86378.got.cif
#   From: 2010.06.25/outbox.cif.g09.slc.cpg/sg12_44_cif.got.tgz:86378.got - 2010.06.28 00:19:55.
