data_PCOD8102962
_publ_section_title
;
Structure prediction by ZEFSAII (Michael W. Deem and Ramdas Pophale) SiO2 
 PCOD8102962
Probable space group: C 2/M
;
_chemical_formula_sum "Si O2"
_cell_formula_units_Z 56
_cell_length_a 27.345079
_cell_length_b 8.596142
_cell_length_c 13.632847
_cell_angle_alpha 90.000000
_cell_angle_beta 119.687269
_cell_angle_gamma 90.000000
_cell_volume 2783.940403
_symmetry_space_group_name_H-M "C 2/M"
_symmetry_group_IT_number 12
_symmetry_cell_setting 'monoclinic'
loop_
_space_group_symop_operation_xyz
x,y,z
-x,y,-z
-x,-y,-z
x,-y,z
1/2+x,1/2+y,z
1/2-x,1/2+y,-z
1/2-x,1/2-y,-z
1/2+x,1/2-y,z
loop_
_atom_site_type_symbol
_atom_site_label
_atom_site_fract_x
_atom_site_fract_y
_atom_site_fract_z
Si Si1 0.404578 0.820785 0.543426
Si Si2 0.618145 0.316924 0.687866
Si Si3 0.830109 0.183401 0.832620
Si Si4 0.951416 0.815538 0.021740
Si Si5 0.736894 0.683675 0.881168
Si Si6 0.306487 0.181449 0.599941
Si Si7 0.519951 0.684780 0.731329
O O1 0.391781 0.723673 0.434200
O O2 0.355423 0.788791 0.571146
O O3 0.462073 0.766920 0.648868
O O4 0.408462 0.000000 0.517585
O O5 0.619969 0.500000 0.701072
O O6 0.677218 0.247025 0.784730
O O7 0.567185 0.252367 0.703410
O O8 0.783936 0.269234 0.850883
O O9 0.821707 0.223015 0.711365
O O10 0.824361 0.000000 0.843711
O O11 0.891047 0.246713 0.926253
O O12 0.961920 0.760323 0.142759
O O13 0.952199 0.000000 0.015540
O O14 0.000000 0.745047 0.000000
O O15 0.733969 0.500000 0.886113
O O16 0.750000 0.750000 0.000000
O O17 0.250000 0.250000 0.500000
O O18 0.298955 0.000000 0.617488
O O19 0.511917 0.500000 0.716708
#
# Coordination Sequence:
#
# PCOD8102962 Si02
#       7
#     8   8   8   8   8   8   8
#     4  11  24  39  57  85 118 149 187 240 296 346
#     4  10  22  39  59  83 113 153 197 238 282 343
#     4  11  22  38  62  90 119 152 194 242 291 345
#     4   9  18  34  58  86 114 149 193 236 281 342
#     4  11  23  40  62  88 120 156 196 241 290 344
#     4  11  24  41  60  85 117 153 195 241 292 349
#     4  10  20  37  60  84 112 149 194 237 280 340
#
# _framework density 20.115373000000002
#
# number of rings (size 3 to 8) (size 9 to 14) (size 15 to 20)
#    0.000    1.571    0.000    4.714    0.000   11.429 
#    0.000    2.857    0.000    3.857    0.000    0.000 
#    0.000    0.000    0.000    0.000    0.000    0.000 
#
# Total GULP energy -347327.656845 kJ/mol
# GULP energy per Si atom -12404.559173 kJ/mol
# Density = 2.006959 g / cm^3
# Si number density = 20.115373 Si / 1000 Ang^3
#
#
#
# Elastic Constant Matrix: (Units=GPa)
#
#
# Indices 1 2 3 4 5 6 
#
# 1 155.8902 32.7720 63.4799 0.0000 19.8888 0.0000
# 2 32.7720 24.8142 5.5852 0.0000 0.0866 0.0000
# 3 63.4799 5.5852 140.5589 0.0000 13.3625 0.0000
# 4 0.0000 0.0000 0.0000 29.7840 0.0000 -2.4118
# 5 19.8888 0.0866 13.3625 0.0000 44.4692 0.0000
# 6 0.0000 0.0000 0.0000 -2.4118 0.0000 31.9250
#
#
#
# Elastic Compliance Matrix: (Units=1/GPa)
#
#
# Indices 1 2 3 4 5 6 
#
# 1 0.011735 -0.014506 -0.004352 0.000000 -0.003913 0.000000
# 2 -0.014506 0.058601 0.003723 0.000000 0.005255 0.000000
# 3 -0.004352 0.003723 0.009005 0.000000 -0.000767 0.000000
# 4 0.000000 0.000000 0.000000 0.033782 0.000000 0.002552
# 5 -0.003913 0.005255 -0.000767 0.000000 0.024458 0.000000
# 6 0.000000 0.000000 0.000000 0.002552 0.000000 0.031516
#
#
# Mechanical properties :
#
#
# Convention : Reuss Voigt Hill
#
# Bulk Modulus (GPa) = 20.37812 58.32639 39.35225
# Shear Modulus (GPa) = 23.17790 35.86408 29.52099
#
# Velocity S-wave (km/s) = 3.39816 4.22704 3.83506
# Velocity P-wave (km/s) = 5.05463 7.27205 6.26227
#
# Compressibility (1/GPa) = 0.04907225
#
# Stress axis : x y z
#
# Youngs Moduli (GPa) = 85.21165 17.06460 111.05273
#
# Poissons Ratio (x) = 0.24754 0.48326
# Poissons Ratio (y) = 1.23607 -0.41346
# Poissons Ratio (z) = 0.37081 -0.06353
#
# Static dielectric constant tensor:
#      x y z
#    x 4.193380 0.000000 0.025970 
#    y 0.000000 3.509420 0.000000 
#    z 0.025970 0.000000 3.860330 
# 
# 
# High freq. dielectric constant tensor:
#      x y z
#    x 1.808720 0.000000 0.001700 
#    y 0.000000 1.769340 0.000000 
#    z 0.001700 0.000000 1.805200 
# 
# From -- ./inp_files/181017.got.cif
#   From: 2010.06.25/outbox.cif.g09.slc.cpg/sg12_91_cif.got.tgz:181017.got - 2010.06.28 00:19:55.
