data_PCOD8102478
_publ_section_title
;
Structure prediction by ZEFSAII (Michael W. Deem and Ramdas Pophale) SiO2 
 PCOD8102478
Probable space group: C 2/M
;
_chemical_formula_sum "Si O2"
_cell_formula_units_Z 56
_cell_length_a 22.843870
_cell_length_b 15.838726
_cell_length_c 8.407935
_cell_angle_alpha 90.000000
_cell_angle_beta 118.590154
_cell_angle_gamma 90.000000
_cell_volume 2671.197799
_symmetry_space_group_name_H-M "C 2/M"
_symmetry_group_IT_number 12
_symmetry_cell_setting 'monoclinic'
loop_
_space_group_symop_operation_xyz
x,y,z
-x,y,-z
-x,-y,-z
x,-y,z
1/2+x,1/2+y,z
1/2-x,1/2+y,-z
1/2-x,1/2-y,-z
1/2+x,1/2-y,z
loop_
_atom_site_type_symbol
_atom_site_label
_atom_site_fract_x
_atom_site_fract_y
_atom_site_fract_z
Si Si1 0.193959 0.260107 0.677604
Si Si2 0.254797 0.094139 0.670882
Si Si3 0.875853 0.317507 0.711098
Si Si4 0.060602 0.734587 0.700576
Si Si5 0.499121 0.905952 0.808599
Si Si6 0.791797 0.093531 0.747142
Si Si7 0.931460 0.832385 0.984193
O O1 0.223683 0.166257 0.744919
O O2 0.172964 0.264243 0.465242
O O3 0.131999 0.271633 0.711802
O O4 0.249320 0.333188 0.781819
O O5 0.333333 0.114949 0.756744
O O6 0.219071 0.097415 0.454750
O O7 0.246995 0.000000 0.735654
O O8 0.916289 0.256007 0.878126
O O9 0.926984 0.368691 0.664658
O O10 0.055344 0.648744 0.795804
O O11 0.000000 0.746002 0.500000
O O12 0.057730 0.814817 0.814610
O O13 0.507235 0.000000 0.754071
O O14 0.500000 0.901737 0.000000
O O15 0.870436 0.103791 0.882583
O O16 0.770632 0.000000 0.781915
O O17 0.000000 0.870604 0.000000
#
# Coordination Sequence:
#
# PCOD8102478 Si02
#       7
#     8   8   8   8   8   8   8
#     4  11  21  38  65  91 128 163 201 252 314 370
#     4  10  20  36  65  97 122 158 206 257 308 369
#     4  11  17  39  62  91 119 163 201 254 300 370
#     4  12  24  39  60  91 123 168 203 248 321 375
#     4  11  22  37  59  91 124 158 207 254 298 371
#     4  10  22  40  64  93 122 161 214 258 304 367
#     4  12  21  39  67  86 119 162 214 253 301 364
#
# _framework density 20.964376999999999
#
# number of rings (size 3 to 8) (size 9 to 14) (size 15 to 20)
#    0.000    1.000    7.143    1.286    0.000    2.286 
#    0.000    0.714    0.000    0.857    0.000    0.000 
#    0.000    0.000    0.000    0.000    0.000    0.000 
#
# Total GULP energy -347122.789084 kJ/mol
# GULP energy per Si atom -12397.242467 kJ/mol
# Density = 2.091666 g / cm^3
# Si number density = 20.964377 Si / 1000 Ang^3
#
#
#
# Elastic Constant Matrix: (Units=GPa)
#
#
# Indices 1 2 3 4 5 6 
#
# 1 161.1966 67.7399 19.0674 0.0000 12.7223 0.0000
# 2 67.7399 147.7094 5.5753 0.0000 2.7517 0.0000
# 3 19.0674 5.5753 47.7470 0.0000 4.3861 0.0000
# 4 0.0000 0.0000 0.0000 16.5610 0.0000 8.3146
# 5 12.7223 2.7517 4.3861 0.0000 24.3345 0.0000
# 6 0.0000 0.0000 0.0000 8.3146 0.0000 22.2513
#
#
#
# Elastic Compliance Matrix: (Units=1/GPa)
#
#
# Indices 1 2 3 4 5 6 
#
# 1 0.008317 -0.003652 -0.002576 0.000000 -0.003471 0.000000
# 2 -0.003652 0.008414 0.000395 0.000000 0.000887 0.000000
# 3 -0.002576 0.000395 0.022174 0.000000 -0.002695 0.000000
# 4 0.000000 0.000000 0.000000 0.074327 0.000000 -0.027774
# 5 -0.003471 0.000887 -0.002695 0.000000 0.043294 0.000000
# 6 0.000000 0.000000 0.000000 -0.027774 0.000000 0.055319
#
#
# Mechanical properties :
#
#
# Convention : Reuss Voigt Hill
#
# Bulk Modulus (GPa) = 36.71471 60.15757 48.43614
# Shear Modulus (GPa) = 21.49692 30.24737 25.87214
#
# Velocity S-wave (km/s) = 3.20566 3.80254 3.51679
# Velocity P-wave (km/s) = 5.59041 6.93084 6.29639
#
# Compressibility (1/GPa) = 0.02723704
#
# Stress axis : x y z
#
# Youngs Moduli (GPa) = 120.23444 118.85514 45.09811
#
# Poissons Ratio (x) = 0.43410 0.11617
# Poissons Ratio (y) = 0.43914 -0.01780
# Poissons Ratio (z) = 0.30973 -0.04690
#
# Static dielectric constant tensor:
#      x y z
#    x 3.778980 0.000000 0.219690 
#    y 0.000000 3.883150 0.000000 
#    z 0.219690 0.000000 3.704330 
# 
# 
# High freq. dielectric constant tensor:
#      x y z
#    x 1.821590 0.000000 0.020570 
#    y 0.000000 1.812090 0.000000 
#    z 0.020570 0.000000 1.806570 
# 
# From -- ./inp_files/97844.got.cif
#   From: 2010.06.25/outbox.cif.g09.slc.cpg/sg12_49_cif.got.tgz:97844.got - 2010.06.28 00:19:55.
