data_PCOD8102049
_publ_section_title
;
Structure prediction by ZEFSAII (Michael W. Deem and Ramdas Pophale) SiO2 
 PCOD8102049
Probable space group: C 2/M
;
_chemical_formula_sum "Si O2"
_cell_formula_units_Z 56
_cell_length_a 15.092673
_cell_length_b 9.070445
_cell_length_c 22.320911
_cell_angle_alpha 90.000000
_cell_angle_beta 109.545928
_cell_angle_gamma 90.000000
_cell_volume 2879.584244
_symmetry_space_group_name_H-M "C 2/M"
_symmetry_group_IT_number 12
_symmetry_cell_setting 'monoclinic'
loop_
_space_group_symop_operation_xyz
x,y,z
-x,y,-z
-x,-y,-z
x,-y,z
1/2+x,1/2+y,z
1/2-x,1/2+y,-z
1/2-x,1/2-y,-z
1/2+x,1/2-y,z
loop_
_atom_site_type_symbol
_atom_site_label
_atom_site_fract_x
_atom_site_fract_y
_atom_site_fract_z
Si Si1 0.337946 0.329608 0.991379
Si Si2 0.689583 0.327634 0.572040
Si Si3 0.913086 0.673176 0.346833
Si Si4 0.147512 0.671419 0.129562
Si Si5 0.384551 0.171000 0.557646
Si Si6 0.145796 0.169896 0.783673
Si Si7 0.024501 0.167965 0.870719
O O1 0.312070 0.500000 0.977736
O O2 0.427274 0.308511 0.054244
O O3 0.250000 0.250000 0.000000
O O4 0.362964 0.262536 0.933361
O O5 0.670472 0.500000 0.573291
O O6 0.663207 0.251583 0.628331
O O7 0.623972 0.264596 0.504709
O O8 0.798917 0.292878 0.583313
O O9 0.896668 0.500000 0.347385
O O10 0.898726 0.725963 0.276172
O O11 0.018887 0.716849 0.388979
O O12 0.138372 0.500000 0.111874
O O13 0.244303 0.704952 0.185277
O O14 0.064644 0.723967 0.155025
O O15 0.383507 0.000000 0.538812
O O16 0.097992 0.209733 0.835780
O O17 0.129066 0.000000 0.762171
O O18 0.990055 0.000000 0.855637
#
# Coordination Sequence:
#
# PCOD8102049 Si02
#       7
#     8   8   8   8   8   8   8
#     4  11  21  37  62  89 120 152 189 239 295 348
#     4  10  20  36  60  88 117 150 188 231 285 340
#     4  11  23  38  58  84 115 152 195 236 283 338
#     4  11  23  40  61  88 117 151 194 240 293 350
#     4   9  20  38  58  84 119 151 185 234 284 335
#     4  10  23  43  59  78 116 156 193 239 288 340
#     4  10  22  41  61  85 117 153 191 239 295 346
#
# _framework density 19.447251999999999
#
# number of rings (size 3 to 8) (size 9 to 14) (size 15 to 20)
#    0.000    1.714    1.429    2.571    0.000    9.143 
#    0.000    4.286    0.000    0.000    0.000    0.000 
#    0.000    0.000    0.000    0.000    0.000    0.000 
#
# Total GULP energy -347360.736916 kJ/mol
# GULP energy per Si atom -12405.740604 kJ/mol
# Density = 1.940299 g / cm^3
# Si number density = 19.447252 Si / 1000 Ang^3
#
#
#
# Elastic Constant Matrix: (Units=GPa)
#
#
# Indices 1 2 3 4 5 6 
#
# 1 93.0702 45.9301 23.6524 0.0000 12.6882 0.0000
# 2 45.9301 91.1094 45.3386 0.0000 5.1848 0.0000
# 3 23.6524 45.3386 85.5361 0.0000 2.7940 0.0000
# 4 0.0000 0.0000 0.0000 37.2368 0.0000 -3.2884
# 5 12.6882 5.1848 2.7940 0.0000 18.5312 0.0000
# 6 0.0000 0.0000 0.0000 -3.2884 0.0000 37.6185
#
#
#
# Elastic Compliance Matrix: (Units=1/GPa)
#
#
# Indices 1 2 3 4 5 6 
#
# 1 0.015542 -0.007263 -0.000167 0.000000 -0.008584 0.000000
# 2 -0.007263 0.018470 -0.007814 0.000000 0.000984 0.000000
# 3 -0.000167 -0.007814 0.015882 0.000000 -0.000094 0.000000
# 4 0.000000 0.000000 0.000000 0.027064 0.000000 0.002366
# 5 -0.008584 0.000984 -0.000094 0.000000 0.059579 0.000000
# 6 0.000000 0.000000 0.000000 0.002366 0.000000 0.026789
#
#
# Mechanical properties :
#
#
# Convention : Reuss Voigt Hill
#
# Bulk Modulus (GPa) = 51.53284 55.50643 53.51964
# Shear Modulus (GPa) = 24.96474 28.99696 26.98085
#
# Velocity S-wave (km/s) = 3.58678 3.86561 3.72880
# Velocity P-wave (km/s) = 6.61133 6.96620 6.79108
#
# Compressibility (1/GPa) = 0.01940510
#
# Stress axis : x y z
#
# Youngs Moduli (GPa) = 64.34303 54.14306 62.96470
#
# Poissons Ratio (x) = 0.39325 0.01054
# Poissons Ratio (y) = 0.46733 0.49198
# Poissons Ratio (z) = 0.01077 0.42305
#
# Static dielectric constant tensor:
#      x y z
#    x 3.862740 0.000000 -0.099480 
#    y 0.000000 3.620030 0.000000 
#    z -0.099480 0.000000 3.503560 
# 
# 
# High freq. dielectric constant tensor:
#      x y z
#    x 1.771390 0.000000 -0.001230 
#    y 0.000000 1.763260 0.000000 
#    z -0.001230 0.000000 1.749270 
# 
# From -- ./inp_files/314455.got.cif
#   From: 2010.06.25/outbox.cif.g09.slc.cpg/sg12_158_cif.got.tgz:314455.got - 2010.06.28 00:19:55.
