data_PCOD8102586
_publ_section_title
;
Structure prediction by ZEFSAII (Michael W. Deem and Ramdas Pophale) SiO2 
 PCOD8102586
Probable space group: C 2/M
;
_chemical_formula_sum "Si O2"
_cell_formula_units_Z 56
_cell_length_a 17.326206
_cell_length_b 14.255405
_cell_length_c 14.149935
_cell_angle_alpha 90.000000
_cell_angle_beta 125.039925
_cell_angle_gamma 90.000000
_cell_volume 2861.474894
_symmetry_space_group_name_H-M "C 2/M"
_symmetry_group_IT_number 12
_symmetry_cell_setting 'monoclinic'
loop_
_space_group_symop_operation_xyz
x,y,z
-x,y,-z
-x,-y,-z
x,-y,z
1/2+x,1/2+y,z
1/2-x,1/2+y,-z
1/2-x,1/2-y,-z
1/2+x,1/2-y,z
loop_
_atom_site_type_symbol
_atom_site_label
_atom_site_fract_x
_atom_site_fract_y
_atom_site_fract_z
Si Si1 0.232350 0.222251 0.204596
Si Si2 0.958746 0.107516 0.642524
Si Si3 0.565575 0.101602 0.458296
Si Si4 0.930225 0.895699 0.835393
Si Si5 0.192769 0.768224 0.554329
Si Si6 0.073486 0.716011 0.758122
Si Si7 0.066573 0.271682 0.969215
O O1 0.168197 0.133115 0.185969
O O2 0.246300 0.288871 0.307993
O O3 0.329141 0.189134 0.223959
O O4 0.172592 0.277486 0.083614
O O5 0.909014 0.109644 0.708881
O O6 0.884999 0.149925 0.514147
O O7 0.051034 0.174885 0.715107
O O8 0.986453 0.000000 0.633208
O O9 0.500000 0.084935 0.500000
O O10 0.649436 0.167629 0.551061
O O11 0.511409 0.151125 0.335178
O O12 0.603999 0.000000 0.450681
O O13 0.019402 0.831978 0.927313
O O14 0.957598 0.000000 0.885837
O O15 0.250000 0.750000 0.500000
O O16 0.074771 0.688788 0.869579
O O17 0.000000 0.326574 0.000000
#
# Coordination Sequence:
#
# PCOD8102586 Si02
#       7
#     8   8   8   8   8   8   8
#     4  11  20  32  53  83 111 147 184 227 280 330
#     4   9  19  36  59  82 113 152 185 226 279 330
#     4  10  21  37  58  85 114 144 179 230 287 332
#     4   9  18  34  55  85 114 140 184 239 288 331
#     4  11  21  35  56  85 118 145 183 226 278 339
#     4  10  20  37  57  83 115 146 186 232 277 335
#     4   9  20  35  56  79 107 151 188 224 279 334
#
# _framework density 19.570326999999999
#
# number of rings (size 3 to 8) (size 9 to 14) (size 15 to 20)
#    0.000    2.143    2.857    0.429    2.000    4.286 
#    0.000    1.429    0.000    3.857    0.000    0.000 
#    0.000    0.000    0.000    0.000    0.000    0.000 
#
# Total GULP energy -346874.139994 kJ/mol
# GULP energy per Si atom -12388.362143 kJ/mol
# Density = 1.952578 g / cm^3
# Si number density = 19.570327 Si / 1000 Ang^3
#
#
#
# Elastic Constant Matrix: (Units=GPa)
#
#
# Indices 1 2 3 4 5 6 
#
# 1 79.5681 13.8864 17.9789 0.0000 -5.3711 0.0000
# 2 13.8864 92.4916 23.8842 0.0000 1.9504 0.0000
# 3 17.9789 23.8842 133.5772 0.0000 -14.2425 0.0000
# 4 0.0000 0.0000 0.0000 -235.6098 0.0000 -175.3969
# 5 -5.3711 1.9504 -14.2425 0.0000 35.3481 0.0000
# 6 0.0000 0.0000 0.0000 -175.3969 0.0000 -99.5149
#
#
#
# Elastic Compliance Matrix: (Units=1/GPa)
#
#
# Indices 1 2 3 4 5 6 
#
# 1 0.013266 -0.001685 -0.001316 0.000000 0.001579 0.000000
# 2 -0.001685 0.011627 -0.002035 0.000000 -0.001718 0.000000
# 3 -0.001316 -0.002035 0.008378 0.000000 0.003288 0.000000
# 4 0.000000 0.000000 0.000000 0.013600 0.000000 -0.023970
# 5 0.001579 -0.001718 0.003288 0.000000 0.029950 0.000000
# 6 0.000000 0.000000 0.000000 -0.023970 0.000000 0.032199
#
#
# Mechanical properties :
#
#
# Convention : Reuss Voigt Hill
#
# Bulk Modulus (GPa) = 43.10761 46.34844 44.72802
# Shear Modulus (GPa) = 39.42487 -43.29617 -1.93565
#
# Velocity S-wave (km/s) = 4.49321 -4.70865 -0.99560
# Velocity P-wave (km/s) = 6.99953 2.41401 4.64575
#
# Compressibility (1/GPa) = 0.02319776
#
# Stress axis : x y z
#
# Youngs Moduli (GPa) = 75.38159 86.00984 119.36160
#
# Poissons Ratio (x) = 0.14494 0.15707
# Poissons Ratio (y) = 0.12703 0.24293
# Poissons Ratio (z) = 0.09919 0.17505
#
# Static dielectric constant tensor:
#      x y z
#    x 3.551710 0.000000 -0.157880 
#    y 0.000000 6.465680 0.000000 
#    z -0.157880 0.000000 3.837620 
# 
# 
# High freq. dielectric constant tensor:
#      x y z
#    x 1.759050 0.000000 -0.010730 
#    y 0.000000 1.720490 0.000000 
#    z -0.010730 0.000000 1.783580 
# 
# From -- ./inp_files/225173.got.cif
#   From: 2010.06.25/outbox.cif.g09.slc.cpg/sg12_113_cif.got.tgz:225173.got - 2010.06.28 00:19:55.
