data_PCOD8102906
_publ_section_title
;
Structure prediction by ZEFSAII (Michael W. Deem and Ramdas Pophale) SiO2 
 PCOD8102906
Probable space group: C 2/M
;
_chemical_formula_sum "Si O2"
_cell_formula_units_Z 64
_cell_length_a 17.958969
_cell_length_b 8.930761
_cell_length_c 20.784604
_cell_angle_alpha 90.000000
_cell_angle_beta 88.731163
_cell_angle_gamma 90.000000
_cell_volume 3332.768293
_symmetry_space_group_name_H-M "C 2/M"
_symmetry_group_IT_number 12
_symmetry_cell_setting 'monoclinic'
loop_
_space_group_symop_operation_xyz
x,y,z
-x,y,-z
-x,-y,-z
x,-y,z
1/2+x,1/2+y,z
1/2-x,1/2+y,-z
1/2-x,1/2-y,-z
1/2+x,1/2-y,z
loop_
_atom_site_type_symbol
_atom_site_label
_atom_site_fract_x
_atom_site_fract_y
_atom_site_fract_z
Si Si1 0.917189 0.322681 0.494818
Si Si2 0.825080 0.174904 0.860212
Si Si3 0.570253 0.172617 0.750099
Si Si4 0.842642 0.676548 0.125160
Si Si5 0.327385 0.826397 0.372904
Si Si6 0.915222 0.822450 0.737778
Si Si7 0.829760 0.175034 0.000570
Si Si8 0.669724 0.177088 0.378146
O O1 0.923150 0.500000 0.495259
O O2 0.881523 0.268852 0.428488
O O3 0.866045 0.266769 0.554355
O O4 0.000000 0.253017 0.500000
O O5 0.740758 0.239999 0.859564
O O6 0.875643 0.244291 0.802758
O O7 0.818085 0.000000 0.847515
O O8 0.864858 0.205583 0.928891
O O9 0.603955 0.222787 0.817680
O O10 0.633014 0.198532 0.695679
O O11 0.500826 0.276135 0.735699
O O12 0.544654 0.000000 0.751320
O O13 0.840476 0.500000 0.114884
O O14 0.875387 0.750948 0.058780
O O15 0.254903 0.724954 0.375258
O O16 0.305270 0.000000 0.383164
O O17 0.874833 0.754305 0.677683
O O18 0.909506 0.000000 0.734544
O O19 0.821851 0.000000 0.013805
O O20 0.750000 0.250000 0.000000
O O21 0.663262 0.000000 0.370354
#
# Coordination Sequence:
#
# PCOD8102906 Si02
#       8
#     8   8   8   8   8   8   8   8
#     4   9  18  34  57  82 109 144 181 215 258 314
#     4   8  16  32  53  75  99 133 175 215 257 310
#     4  10  21  37  56  78 107 142 178 220 269 318
#     4   9  17  32  53  76 103 134 171 215 264 317
#     4  10  20  37  60  81 106 144 184 218 260 315
#     4  11  22  37  56  77 105 142 182 221 266 320
#     4   9  16  29  50  75 102 132 171 216 261 311
#     4  11  22  36  56  83 112 139 176 225 268 310
#
# _framework density 19.203257000000001
#
# number of rings (size 3 to 8) (size 9 to 14) (size 15 to 20)
#    0.000    2.375    0.000    3.750    0.000    5.000 
#    0.000   10.000    0.000    6.375    0.000    0.000 
#    0.000    0.000    0.000    0.000    0.000    0.000 
#
# Total GULP energy -396722.729186 kJ/mol
# GULP energy per Si atom -12397.585287 kJ/mol
# Density = 1.915955 g / cm^3
# Si number density = 19.203257 Si / 1000 Ang^3
#
#
#
# Elastic Constant Matrix: (Units=GPa)
#
#
# Indices 1 2 3 4 5 6 
#
# 1 86.7274 29.4414 33.8033 0.0000 23.1341 0.0000
# 2 29.4414 52.5139 40.8273 0.0000 6.4914 0.0000
# 3 33.8033 40.8273 132.9184 0.0000 31.8100 0.0000
# 4 0.0000 0.0000 0.0000 26.1986 0.0000 4.9463
# 5 23.1341 6.4914 31.8100 0.0000 23.2090 0.0000
# 6 0.0000 0.0000 0.0000 4.9463 0.0000 27.5711
#
#
#
# Elastic Compliance Matrix: (Units=1/GPa)
#
#
# Indices 1 2 3 4 5 6 
#
# 1 0.019589 -0.011081 0.003502 0.000000 -0.021226 0.000000
# 2 -0.011081 0.031724 -0.011081 0.000000 0.017359 0.000000
# 3 0.003502 -0.011081 0.015075 0.000000 -0.021052 0.000000
# 4 0.000000 0.000000 0.000000 0.039508 0.000000 -0.007088
# 5 -0.021226 0.017359 -0.021052 0.000000 0.088242 0.000000
# 6 0.000000 0.000000 0.000000 -0.007088 0.000000 0.037541
#
#
# Mechanical properties :
#
#
# Convention : Reuss Voigt Hill
#
# Bulk Modulus (GPa) = 34.40264 53.36707 43.88486
# Shear Modulus (GPa) = 17.94113 26.60159 22.27136
#
# Velocity S-wave (km/s) = 3.05991 3.72595 3.40923
# Velocity P-wave (km/s) = 5.51706 6.80891 6.19674
#
# Compressibility (1/GPa) = 0.02906754
#
# Stress axis : x y z
#
# Youngs Moduli (GPa) = 51.04875 31.52192 66.33640
#
# Poissons Ratio (x) = 0.34929 -0.23228
# Poissons Ratio (y) = 0.56567 0.73505
# Poissons Ratio (z) = -0.17875 0.34928
#
# Static dielectric constant tensor:
#      x y z
#    x 3.562930 0.000000 0.066200 
#    y 0.000000 3.336100 0.000000 
#    z 0.066200 0.000000 4.105030 
# 
# 
# High freq. dielectric constant tensor:
#      x y z
#    x 1.732670 0.000000 0.004110 
#    y 0.000000 1.721990 0.000000 
#    z 0.004110 0.000000 1.772560 
# 
# From -- ./inp_files/313985.got.cif
#   From: 2010.06.25/outbox.cif.g09.slc.cpg/sg12_157_cif.got.tgz:313985.got - 2010.06.28 00:19:55.
