data_PCOD8102700
_publ_section_title
;
Structure prediction by ZEFSAII (Michael W. Deem and Ramdas Pophale) SiO2 
 PCOD8102700
Probable space group: C 2/M
;
_chemical_formula_sum "Si O2"
_cell_formula_units_Z 56
_cell_length_a 14.912711
_cell_length_b 8.822650
_cell_length_c 24.438147
_cell_angle_alpha 90.000000
_cell_angle_beta 117.694692
_cell_angle_gamma 90.000000
_cell_volume 2846.960471
_symmetry_space_group_name_H-M "C 2/M"
_symmetry_group_IT_number 12
_symmetry_cell_setting 'monoclinic'
loop_
_space_group_symop_operation_xyz
x,y,z
-x,y,-z
-x,-y,-z
x,-y,z
1/2+x,1/2+y,z
1/2-x,1/2+y,-z
1/2-x,1/2-y,-z
1/2+x,1/2-y,z
loop_
_atom_site_type_symbol
_atom_site_label
_atom_site_fract_x
_atom_site_fract_y
_atom_site_fract_z
Si Si1 0.663989 0.677623 0.512112
Si Si2 0.677332 0.175635 0.935834
Si Si3 0.731746 0.320201 0.365311
Si Si4 0.738588 0.678130 0.155327
Si Si5 0.682681 0.679808 0.713379
Si Si6 0.961826 0.176993 0.622515
Si Si7 0.531251 0.824126 0.070208
O O1 0.682591 0.500000 0.525374
O O2 0.750000 0.750000 0.500000
O O3 0.670064 0.757925 0.573006
O O4 0.560047 0.707233 0.448613
O O5 0.702072 0.232646 0.881987
O O6 0.561034 0.212836 0.915485
O O7 0.700212 0.000000 0.947216
O O8 0.750000 0.250000 0.000000
O O9 0.735812 0.500000 0.365392
O O10 0.737687 0.254811 0.305905
O O11 0.628151 0.258175 0.364153
O O12 0.750850 0.500000 0.170158
O O13 0.787165 0.773698 0.217518
O O14 0.620994 0.717320 0.115587
O O15 0.687340 0.500000 0.708020
O O16 0.570311 0.746852 0.669217
O O17 0.965577 0.000000 0.635072
O O18 0.564100 0.000000 0.082568
O O19 0.500000 0.780150 0.000000
#
# Coordination Sequence:
#
# PCOD8102700 Si02
#       7
#     8   8   8   8   8   8   8
#     4   9  16  31  55  84 114 149 192 241 293 344
#     4  10  21  37  60  88 117 147 183 228 280 333
#     4  10  20  37  58  84 117 150 190 241 293 345
#     4  11  24  40  57  84 119 150 187 236 285 337
#     4  11  23  40  59  80 109 153 199 236 281 342
#     4   8  18  36  58  81 112 151 192 235 285 344
#     4  10  20  37  62  89 117 149 185 226 275 335
#
# _framework density 19.670102
#
# number of rings (size 3 to 8) (size 9 to 14) (size 15 to 20)
#    0.000    2.143    1.429    2.571    0.000    3.143 
#    0.000   14.286    0.000    0.000    0.000    0.000 
#    0.000    0.000    0.000    0.000    0.000    0.000 
#
# Total GULP energy -347147.499084 kJ/mol
# GULP energy per Si atom -12398.124967 kJ/mol
# Density = 1.962533 g / cm^3
# Si number density = 19.670102 Si / 1000 Ang^3
#
#
#
# Elastic Constant Matrix: (Units=GPa)
#
#
# Indices 1 2 3 4 5 6 
#
# 1 83.0571 25.0931 43.2447 0.0000 -8.1934 0.0000
# 2 25.0931 63.1135 32.1458 0.0000 -3.3162 0.0000
# 3 43.2447 32.1458 112.6752 0.0000 -7.8974 0.0000
# 4 0.0000 0.0000 0.0000 35.8455 0.0000 -3.0544
# 5 -8.1934 -3.3162 -7.8974 0.0000 34.2174 0.0000
# 6 0.0000 0.0000 0.0000 -3.0544 0.0000 24.2142
#
#
#
# Elastic Compliance Matrix: (Units=1/GPa)
#
#
# Indices 1 2 3 4 5 6 
#
# 1 0.015942 -0.003724 -0.004893 0.000000 0.002327 0.000000
# 2 -0.003724 0.019420 -0.004108 0.000000 0.000042 0.000000
# 3 -0.004893 -0.004108 0.012009 0.000000 0.001202 0.000000
# 4 0.000000 0.000000 0.000000 0.028201 0.000000 0.003557
# 5 0.002327 0.000042 0.001202 0.000000 0.030064 0.000000
# 6 0.000000 0.000000 0.000000 0.003557 0.000000 0.041747
#
#
# Mechanical properties :
#
#
# Convention : Reuss Voigt Hill
#
# Bulk Modulus (GPa) = 45.61864 51.09035 48.35450
# Shear Modulus (GPa) = 27.75625 29.41288 28.58457
#
# Velocity S-wave (km/s) = 3.76052 3.87112 3.81622
# Velocity P-wave (km/s) = 6.48826 6.78312 6.63733
#
# Compressibility (1/GPa) = 0.02192086
#
# Stress axis : x y z
#
# Youngs Moduli (GPa) = 62.72662 51.49414 83.26863
#
# Poissons Ratio (x) = 0.19176 0.40744
# Poissons Ratio (y) = 0.23359 0.34208
# Poissons Ratio (z) = 0.30693 0.21155
#
# Static dielectric constant tensor:
#      x y z
#    x 3.823130 0.000000 -0.009520 
#    y 0.000000 3.496110 0.000000 
#    z -0.009520 0.000000 3.769320 
# 
# 
# High freq. dielectric constant tensor:
#      x y z
#    x 1.766880 0.000000 -0.005090 
#    y 0.000000 1.756510 0.000000 
#    z -0.005090 0.000000 1.770340 
# 
# From -- ./inp_files/339042.got.cif
#   From: 2010.06.25/outbox.cif.g09.slc.cpg/sg12_170_cif.got.tgz:339042.got - 2010.06.28 00:19:55.
