data_PCOD8102755
_publ_section_title
;
Structure prediction by ZEFSAII (Michael W. Deem and Ramdas Pophale) SiO2 
 PCOD8102755
Probable space group: C 2/M
;
_chemical_formula_sum "Si O2"
_cell_formula_units_Z 48
_cell_length_a 18.849781
_cell_length_b 8.532132
_cell_length_c 15.422570
_cell_angle_alpha 90.000000
_cell_angle_beta 89.837814
_cell_angle_gamma 90.000000
_cell_volume 2480.383792
_symmetry_space_group_name_H-M "C 2/M"
_symmetry_group_IT_number 12
_symmetry_cell_setting 'monoclinic'
loop_
_space_group_symop_operation_xyz
x,y,z
-x,y,-z
-x,-y,-z
x,-y,z
1/2+x,1/2+y,z
1/2-x,1/2+y,-z
1/2-x,1/2-y,-z
1/2+x,1/2-y,z
loop_
_atom_site_type_symbol
_atom_site_label
_atom_site_fract_x
_atom_site_fract_y
_atom_site_fract_z
Si Si1 0.794555 0.684518 0.579171
Si Si2 0.556028 0.817402 0.927798
Si Si3 0.293344 0.317350 0.079078
Si Si4 0.048724 0.317170 0.734814
Si Si5 0.708423 0.185148 0.736478
Si Si6 0.454505 0.813156 0.581540
O O1 0.796481 0.500000 0.569949
O O2 0.750000 0.750000 0.500000
O O3 0.760739 0.730705 0.670401
O O4 0.874610 0.753126 0.575470
O O5 0.624417 0.711373 0.941619
O O6 0.522780 0.783480 0.832971
O O7 0.577722 0.000000 0.935677
O O8 0.500000 0.766955 0.000000
O O9 0.278075 0.500000 0.090530
O O10 0.268552 0.228860 0.166242
O O11 0.250000 0.250000 0.000000
O O12 0.052901 0.500000 0.716035
O O13 0.128374 0.251098 0.720264
O O14 0.992623 0.243019 0.667658
O O15 0.713476 0.000000 0.723429
O O16 0.500000 0.752995 0.500000
O O17 0.452203 0.000000 0.584504
#
# Coordination Sequence:
#
# PCOD8102755 Si02
#       6
#     8   8   8   8   8   8
#     4  11  22  35  55  82 111 144 182 226 274 327
#     4   9  18  33  54  80 110 145 183 224 276 337
#     4  11  22  37  57  82 114 150 190 234 280 332
#     4   8  15  30  52  75  99 132 176 221 262 312
#     4  10  20  37  59  81 108 142 181 228 281 335
#     4   9  17  30  50  76 102 134 178 220 259 313
#
# _framework density 19.351845000000001
#
# number of rings (size 3 to 8) (size 9 to 14) (size 15 to 20)
#    0.000    2.333    0.000    4.500    0.000    4.333 
#    0.000    3.333    0.000   17.000    0.000    0.000 
#    0.000    0.000    0.000    0.000    0.000    0.000 
#
# Total GULP energy -297582.788776 kJ/mol
# GULP energy per Si atom -12399.282866 kJ/mol
# Density = 1.930780 g / cm^3
# Si number density = 19.351845 Si / 1000 Ang^3
#
#
#
# Elastic Constant Matrix: (Units=GPa)
#
#
# Indices 1 2 3 4 5 6 
#
# 1 137.5080 20.5100 98.5172 0.0000 1.6971 0.0000
# 2 20.5100 39.8155 12.7960 0.0000 3.8347 0.0000
# 3 98.5172 12.7960 162.6196 0.0000 4.8450 0.0000
# 4 0.0000 0.0000 0.0000 26.9952 0.0000 -1.0829
# 5 1.6971 3.8347 4.8450 0.0000 45.6215 0.0000
# 6 0.0000 0.0000 0.0000 -1.0829 0.0000 25.6344
#
#
#
# Elastic Compliance Matrix: (Units=1/GPa)
#
#
# Indices 1 2 3 4 5 6 
#
# 1 0.013604 -0.004536 -0.007906 0.000000 0.000715 0.000000
# 2 -0.004536 0.027455 0.000653 0.000000 -0.002208 0.000000
# 3 -0.007906 0.000653 0.010915 0.000000 -0.000920 0.000000
# 4 0.000000 0.000000 0.000000 0.037107 0.000000 0.001568
# 5 0.000715 -0.002208 -0.000920 0.000000 0.022176 0.000000
# 6 0.000000 0.000000 0.000000 0.001568 0.000000 0.039076
#
#
# Mechanical properties :
#
#
# Convention : Reuss Voigt Hill
#
# Bulk Modulus (GPa) = 35.21484 67.06551 51.14018
# Shear Modulus (GPa) = 27.26632 33.52486 30.39559
#
# Velocity S-wave (km/s) = 3.75771 4.16671 3.96748
# Velocity P-wave (km/s) = 6.08801 7.60787 6.88998
#
# Compressibility (1/GPa) = 0.02839712
#
# Stress axis : x y z
#
# Youngs Moduli (GPa) = 73.50613 36.42311 91.61770
#
# Poissons Ratio (x) = 0.16521 0.72434
# Poissons Ratio (y) = 0.33342 -0.05986
# Poissons Ratio (z) = 0.58114 -0.02380
#
# Static dielectric constant tensor:
#      x y z
#    x 4.100310 0.000000 -0.080220 
#    y 0.000000 3.250940 0.000000 
#    z -0.080220 0.000000 3.904030 
# 
# 
# High freq. dielectric constant tensor:
#      x y z
#    x 1.752430 0.000000 0.001980 
#    y 0.000000 1.722820 0.000000 
#    z 0.001980 0.000000 1.770450 
# 
# From -- ./inp_files/221639.got.cif
#   From: 2010.06.25/outbox.cif.g09.slc.cpg/sg12_111_cif.got.tgz:221639.got - 2010.06.28 00:19:55.
