data_PCOD8102887
_publ_section_title
;
Structure prediction by ZEFSAII (Michael W. Deem and Ramdas Pophale) SiO2 
 PCOD8102887
Probable space group: C 2/M
;
_chemical_formula_sum "Si O2"
_cell_formula_units_Z 48
_cell_length_a 17.791213
_cell_length_b 17.505261
_cell_length_c 15.382044
_cell_angle_alpha 90.000000
_cell_angle_beta 149.971977
_cell_angle_gamma 90.000000
_cell_volume 2397.319410
_symmetry_space_group_name_H-M "C 2/M"
_symmetry_group_IT_number 12
_symmetry_cell_setting 'monoclinic'
loop_
_space_group_symop_operation_xyz
x,y,z
-x,y,-z
-x,-y,-z
x,-y,z
1/2+x,1/2+y,z
1/2-x,1/2+y,-z
1/2-x,1/2-y,-z
1/2+x,1/2-y,z
loop_
_atom_site_type_symbol
_atom_site_label
_atom_site_fract_x
_atom_site_fract_y
_atom_site_fract_z
Si Si1 0.905188 0.913564 0.665450
Si Si2 0.439672 0.084128 0.683829
Si Si3 0.427547 0.362479 0.334143
Si Si4 0.447498 0.690692 0.041991
Si Si5 0.152708 0.711840 0.823456
Si Si6 0.425603 0.868741 0.013398
O O1 0.732350 0.889789 0.481969
O O2 0.990255 0.911301 0.658003
O O3 0.969322 0.854498 0.799031
O O4 0.921484 0.000000 0.717110
O O5 0.538334 0.145945 0.732973
O O6 0.453732 0.000000 0.654061
O O7 0.503699 0.076837 0.844326
O O8 0.500000 0.379061 0.500000
O O9 0.446973 0.274404 0.325847
O O10 0.252289 0.382190 0.165069
O O11 0.500000 0.662147 0.000000
O O12 0.269993 0.674381 0.873364
O O13 0.474150 0.781136 0.081197
O O14 0.250000 0.750000 0.000000
O O15 0.500000 0.897318 0.000000
#
# Coordination Sequence:
#
# PCOD8102887 Si02
#       6
#     8   8   8   8   8   8
#     4  11  24  40  58  89 128 167 206 252 311 367
#     4  11  23  38  60  86 121 164 202 247 311 367
#     4  11  22  38  64  94 121 159 205 261 305 366
#     4  10  21  39  64  90 119 159 209 258 301 363
#     4  11  20  42  62  91 119 157 207 250 301 364
#     4  10  20  37  59  89 122 156 207 252 305 365
#
# _framework density 20.022362999999999
#
# number of rings (size 3 to 8) (size 9 to 14) (size 15 to 20)
#    0.000    1.333    5.000    1.000    0.000   10.333 
#    0.000    0.000    0.000    2.500    0.000    0.000 
#    0.000    0.000    0.000    0.000    0.000    0.000 
#
# Total GULP energy -297513.782089 kJ/mol
# GULP energy per Si atom -12396.407587 kJ/mol
# Density = 1.997679 g / cm^3
# Si number density = 20.022363 Si / 1000 Ang^3
#
#
#
# Elastic Constant Matrix: (Units=GPa)
#
#
# Indices 1 2 3 4 5 6 
#
# 1 131.6092 32.4075 20.9747 0.0014 16.0026 0.0006
# 2 32.4075 62.8756 38.0147 0.0018 16.9601 0.0004
# 3 20.9747 38.0147 72.2932 0.0030 4.4769 0.0015
# 4 0.0014 0.0018 0.0030 28.6412 0.0020 7.0458
# 5 16.0026 16.9601 4.4769 0.0020 40.9046 0.0006
# 6 0.0006 0.0004 0.0015 7.0458 0.0006 25.9587
#
#
#
# Elastic Compliance Matrix: (Units=1/GPa)
#
#
# Indices 1 2 3 4 5 6 
#
# 1 0.008824 -0.003773 -0.000462 0.000000 -0.001837 0.000000
# 2 -0.003773 0.028184 -0.013183 0.000000 -0.008767 0.000000
# 3 -0.000462 -0.013183 0.020689 -0.000001 0.003382 -0.000001
# 4 0.000000 0.000000 -0.000001 0.037413 -0.000002 -0.010155
# 5 -0.001837 -0.008767 0.003382 -0.000002 0.028431 0.000000
# 6 0.000000 0.000000 -0.000001 -0.010155 0.000000 0.041279
#
#
# Mechanical properties :
#
#
# Convention : Reuss Voigt Hill
#
# Bulk Modulus (GPa) = 43.74206 49.95243 46.84725
# Shear Modulus (GPa) = 24.12221 30.79298 27.45759
#
# Velocity S-wave (km/s) = 3.47474 3.92590 3.70719
# Velocity P-wave (km/s) = 6.16380 6.74928 6.46317
#
# Compressibility (1/GPa) = 0.02286129
#
# Stress axis : x y z
#
# Youngs Moduli (GPa) = 113.32151 35.48063 48.33413
#
# Poissons Ratio (x) = 0.13387 0.02235
# Poissons Ratio (y) = 0.42758 0.63718
# Poissons Ratio (z) = 0.05240 0.46774
#
# Static dielectric constant tensor:
#      x y z
#    x 4.062200 0.000000 0.146560 
#    y 0.000000 3.518870 0.000000 
#    z 0.146560 0.000000 3.571930 
# 
# 
# High freq. dielectric constant tensor:
#      x y z
#    x 1.795480 0.000000 0.014990 
#    y 0.000000 1.776710 0.000000 
#    z 0.014990 0.000000 1.774610 
# 
# From -- ./inp_files/226948.got.cif
#   From: 2010.06.25/outbox.cif.g09.slc.cpg/sg12_114_cif.got.tgz:226948.got - 2010.06.28 00:19:55.
