data_PCOD8102718
_publ_section_title
;
Structure prediction by ZEFSAII (Michael W. Deem and Ramdas Pophale) SiO2 
 PCOD8102718
Probable space group: C 2/M
;
_chemical_formula_sum "Si O2"
_cell_formula_units_Z 64
_cell_length_a 20.632307
_cell_length_b 8.697395
_cell_length_c 24.393766
_cell_angle_alpha 90.000000
_cell_angle_beta 128.562866
_cell_angle_gamma 90.000000
_cell_volume 3422.793860
_symmetry_space_group_name_H-M "C 2/M"
_symmetry_group_IT_number 12
_symmetry_cell_setting 'monoclinic'
loop_
_space_group_symop_operation_xyz
x,y,z
-x,y,-z
-x,-y,-z
x,-y,z
1/2+x,1/2+y,z
1/2-x,1/2+y,-z
1/2-x,1/2-y,-z
1/2+x,1/2-y,z
loop_
_atom_site_type_symbol
_atom_site_label
_atom_site_fract_x
_atom_site_fract_y
_atom_site_fract_z
Si Si1 0.117251 0.824105 0.674003
Si Si2 0.791993 0.819635 0.469474
Si Si3 0.243694 0.820760 0.831653
Si Si4 0.468247 0.179122 0.542366
Si Si5 0.270305 0.820118 0.679594
Si Si6 0.787924 0.181767 0.965260
Si Si7 0.120714 0.180762 0.175619
Si Si8 0.033516 0.320314 0.957442
O O1 0.156211 0.796861 0.754673
O O2 0.184448 0.777496 0.663862
O O3 0.037498 0.716430 0.624587
O O4 0.089509 0.000000 0.651623
O O5 0.750000 0.750000 0.500000
O O6 0.885804 0.766849 0.514571
O O7 0.738447 0.770063 0.388134
O O8 0.791916 0.000000 0.475057
O O9 0.234481 0.751050 0.887036
O O10 0.316879 0.735012 0.838569
O O11 0.268052 0.000000 0.846985
O O12 0.500000 0.237057 0.500000
O O13 0.448688 0.000000 0.531637
O O14 0.344701 0.724357 0.746067
O O15 0.289478 0.000000 0.697515
O O16 0.778535 0.000000 0.960774
O O17 0.750000 0.250000 0.000000
O O18 0.883304 0.226687 0.009237
O O19 0.033257 0.265712 0.122371
O O20 0.107395 0.000000 0.164030
O O21 0.052004 0.500000 0.960128
O O22 0.000000 0.280825 0.000000
#
# Coordination Sequence:
#
# PCOD8102718 Si02
#       8
#     8   8   8   8   8   8   8   8
#     4   9  18  34  58  85 114 150 193 239 288 342
#     4  11  23  40  61  84 117 157 196 239 292 352
#     4  10  20  37  58  85 119 155 196 240 291 347
#     4  11  22  35  56  88 120 150 193 245 289 339
#     4   9  19  36  57  82 115 155 193 234 291 352
#     4  12  25  41  62  88 121 158 197 240 294 353
#     4  11  21  33  57  90 120 150 191 245 295 344
#     4  11  22  38  62  88 119 156 197 244 291 341
#
# _framework density 18.698174999999999
#
# number of rings (size 3 to 8) (size 9 to 14) (size 15 to 20)
#    0.000    1.500    2.500    4.500    0.000    4.500 
#    0.000    1.250    0.000    6.000    0.000    0.000 
#    0.000    0.000    0.000    0.000    0.000    0.000 
#
# Total GULP energy -396929.757267 kJ/mol
# GULP energy per Si atom -12404.054915 kJ/mol
# Density = 1.865562 g / cm^3
# Si number density = 18.698175 Si / 1000 Ang^3
#
#
#
# Elastic Constant Matrix: (Units=GPa)
#
#
# Indices 1 2 3 4 5 6 
#
# 1 82.3993 17.5157 60.1520 0.0000 -15.4175 0.0000
# 2 17.5157 44.6180 47.9799 0.0000 -7.9701 0.0000
# 3 60.1520 47.9799 145.3283 0.0000 -8.5240 0.0000
# 4 0.0000 0.0000 0.0000 31.9196 0.0000 0.3484
# 5 -15.4175 -7.9701 -8.5240 0.0000 28.9898 0.0000
# 6 0.0000 0.0000 0.0000 0.3484 0.0000 30.8376
#
#
#
# Elastic Compliance Matrix: (Units=1/GPa)
#
#
# Indices 1 2 3 4 5 6 
#
# 1 0.019299 0.003116 -0.008511 0.000000 0.008618 0.000000
# 2 0.003116 0.036417 -0.012850 0.000000 0.007891 0.000000
# 3 -0.008511 -0.012850 0.014422 0.000000 -0.003819 0.000000
# 4 0.000000 0.000000 0.000000 0.031333 0.000000 -0.000354
# 5 0.008618 0.007891 -0.003819 0.000000 0.040125 0.000000
# 6 0.000000 0.000000 0.000000 -0.000354 0.000000 0.032432
#
#
# Mechanical properties :
#
#
# Convention : Reuss Voigt Hill
#
# Bulk Modulus (GPa) = 29.71969 58.18230 43.95100
# Shear Modulus (GPa) = 22.54951 28.12926 25.33939
#
# Velocity S-wave (km/s) = 3.47648 3.88285 3.68527
# Velocity P-wave (km/s) = 5.66070 7.16143 6.45483
#
# Compressibility (1/GPa) = 0.03364772
#
# Stress axis : x y z
#
# Youngs Moduli (GPa) = 51.81485 27.45989 69.33785
#
# Poissons Ratio (x) = -0.08555 0.59015
# Poissons Ratio (y) = -0.16144 0.89097
# Poissons Ratio (z) = 0.44101 0.35285
#
# Static dielectric constant tensor:
#      x y z
#    x 3.267820 0.000000 -0.079880 
#    y 0.000000 3.475760 0.000000 
#    z -0.079880 0.000000 3.727620 
# 
# 
# High freq. dielectric constant tensor:
#      x y z
#    x 1.696670 0.000000 0.003710 
#    y 0.000000 1.736020 0.000000 
#    z 0.003710 0.000000 1.743870 
# 
# From -- ./inp_files/346223.got.cif
#   From: 2010.06.25/outbox.cif.g09.slc.cpg/sg12_174_cif.got.tgz:346223.got - 2010.06.28 00:19:55.
