data_PCOD8102029
_publ_section_title
;
Structure prediction by ZEFSAII (Michael W. Deem and Ramdas Pophale) SiO2 
 PCOD8102029
Probable space group: C 2/M
;
_chemical_formula_sum "Si O2"
_cell_formula_units_Z 48
_cell_length_a 16.518591
_cell_length_b 17.094702
_cell_length_c 14.960947
_cell_angle_alpha 90.000000
_cell_angle_beta 33.235549
_cell_angle_gamma 90.000000
_cell_volume 2315.471208
_symmetry_space_group_name_H-M "C 2/M"
_symmetry_group_IT_number 12
_symmetry_cell_setting 'monoclinic'
loop_
_space_group_symop_operation_xyz
x,y,z
-x,y,-z
-x,-y,-z
x,-y,z
1/2+x,1/2+y,z
1/2-x,1/2+y,-z
1/2-x,1/2-y,-z
1/2+x,1/2-y,z
loop_
_atom_site_type_symbol
_atom_site_label
_atom_site_fract_x
_atom_site_fract_y
_atom_site_fract_z
Si Si1 0.307153 0.000000 0.278242
Si Si2 0.683182 0.356373 0.128760
Si Si3 0.325786 0.910754 0.648108
Si Si4 0.691628 0.809465 0.166999
Si Si5 0.360305 0.000000 0.020781
Si Si6 0.083544 0.129259 0.511563
Si Si7 0.645268 0.788778 0.520783
O O1 0.470652 0.000000 0.163655
O O2 0.228873 0.077198 0.388694
O O3 0.314805 0.000000 0.165031
O O4 0.720583 0.282740 0.159806
O O5 0.519173 0.386064 0.306380
O O6 0.692261 0.332398 0.017142
O O7 0.801765 0.422834 0.029866
O O8 0.500000 0.912789 0.500000
O O9 0.263409 0.863677 0.791053
O O10 0.282541 0.863453 0.597087
O O11 0.263232 0.000000 0.701471
O O12 0.518644 0.815159 0.294059
O O13 0.125710 0.220543 0.464795
O O14 0.000000 0.100751 0.500000
O O15 0.750000 0.750000 0.500000
#
# Coordination Sequence:
#
# PCOD8102029 Si02
#       7
#     4   8   8   8   4   8   8
#     4  11  24  37  56  91 127 156 205 256 329 369
#     4  10  20  36  60  87 124 159 211 254 306 374
#     4   9  18  36  60  87 119 160 205 253 309 370
#     4   9  20  37  60  90 118 162 216 255 302 380
#     4  11  23  36  57  92 127 156 200 274 320 366
#     4  11  20  39  62  83 120 169 203 245 304 385
#     4  10  21  36  59  90 124 158 203 255 315 367
#
# _framework density 20.730122000000001
#
# number of rings (size 3 to 8) (size 9 to 14) (size 15 to 20)
#    0.000    2.000    1.667    3.250    3.500    0.000 
#    1.500    0.000    0.000    8.000    0.000   10.500 
#    0.000    0.000    0.000    0.000    0.000    0.000 
#
# Total GULP energy -297406.444541 kJ/mol
# GULP energy per Si atom -12391.935189 kJ/mol
# Density = 2.068294 g / cm^3
# Si number density = 20.730122 Si / 1000 Ang^3
#
#
#
# Elastic Constant Matrix: (Units=GPa)
#
#
# Indices 1 2 3 4 5 6 
#
# 1 69.3979 41.5554 25.5498 0.0029 4.6238 -0.0024
# 2 41.5554 154.6441 54.5853 0.0039 4.8651 -0.0035
# 3 25.5498 54.5853 124.3351 0.0051 10.0321 -0.0050
# 4 0.0029 0.0039 0.0051 31.7912 -0.0045 4.2725
# 5 4.6238 4.8651 10.0321 -0.0045 22.9839 0.0038
# 6 -0.0024 -0.0035 -0.0050 4.2725 0.0038 24.3382
#
#
#
# Elastic Compliance Matrix: (Units=1/GPa)
#
#
# Indices 1 2 3 4 5 6 
#
# 1 0.017596 -0.004078 -0.001668 -0.000001 -0.001948 0.000001
# 2 -0.004078 0.008598 -0.002960 0.000000 0.000293 0.000000
# 3 -0.001668 -0.002960 0.009958 -0.000002 -0.003384 0.000002
# 4 -0.000001 0.000000 -0.000002 0.032215 0.000008 -0.005655
# 5 -0.001948 0.000293 -0.003384 0.000008 0.045316 -0.000009
# 6 0.000001 0.000000 0.000002 -0.005655 -0.000009 0.042080
#
#
# Mechanical properties :
#
#
# Convention : Reuss Voigt Hill
#
# Bulk Modulus (GPa) = 53.36525 65.75089 59.55807
# Shear Modulus (GPa) = 27.86711 30.93509 29.40110
#
# Velocity S-wave (km/s) = 3.67042 3.86719 3.77009
# Velocity P-wave (km/s) = 6.61524 7.19212 6.90970
#
# Compressibility (1/GPa) = 0.01873878
#
# Stress axis : x y z
#
# Youngs Moduli (GPa) = 56.83234 116.30604 100.41915
#
# Poissons Ratio (x) = 0.47431 0.16752
# Poissons Ratio (y) = 0.23177 0.29727
# Poissons Ratio (z) = 0.09481 0.34430
#
# Static dielectric constant tensor:
#      x y z
#    x 3.332470 0.000000 0.108150 
#    y 0.000000 4.212180 0.000010 
#    z 0.108150 0.000010 3.857690 
# 
# 
# High freq. dielectric constant tensor:
#      x y z
#    x 1.763650 0.000000 0.015470 
#    y 0.000000 1.828400 0.000000 
#    z 0.015470 0.000000 1.813830 
# 
# From -- ./inp_files/226762.got.cif
#   From: 2010.06.25/outbox.cif.g09.slc.cpg/sg12_114_cif.got.tgz:226762.got - 2010.06.28 00:19:55.
