data_PCOD8102280
_publ_section_title
;
Structure prediction by ZEFSAII (Michael W. Deem and Ramdas Pophale) SiO2 
 PCOD8102280
Probable space group: C 2/M
;
_chemical_formula_sum "Si O2"
_cell_formula_units_Z 56
_cell_length_a 22.671398
_cell_length_b 8.892086
_cell_length_c 14.891821
_cell_angle_alpha 90.000000
_cell_angle_beta 115.079581
_cell_angle_gamma 90.000000
_cell_volume 2719.090615
_symmetry_space_group_name_H-M "C 2/M"
_symmetry_group_IT_number 12
_symmetry_cell_setting 'monoclinic'
loop_
_space_group_symop_operation_xyz
x,y,z
-x,y,-z
-x,-y,-z
x,-y,z
1/2+x,1/2+y,z
1/2-x,1/2+y,-z
1/2-x,1/2-y,-z
1/2+x,1/2-y,z
loop_
_atom_site_type_symbol
_atom_site_label
_atom_site_fract_x
_atom_site_fract_y
_atom_site_fract_z
Si Si1 0.757893 0.176085 0.143003
Si Si2 0.977716 0.670888 0.388016
Si Si3 0.666579 0.828644 0.657477
Si Si4 0.058335 0.174095 0.290277
Si Si5 0.650580 0.676405 0.963305
Si Si6 0.514530 0.823099 0.907708
Si Si7 0.682832 0.675563 0.483171
O O1 0.777049 0.246123 0.250731
O O2 0.813423 0.215348 0.106387
O O3 0.747808 0.000000 0.148143
O O4 0.689230 0.247156 0.070062
O O5 0.002478 0.500000 0.387647
O O6 0.900007 0.679663 0.329591
O O7 0.000000 0.727189 0.500000
O O8 0.006952 0.780961 0.333368
O O9 0.655109 0.748779 0.555382
O O10 0.688170 0.000000 0.654393
O O11 0.131496 0.206483 0.370533
O O12 0.046099 0.270036 0.192331
O O13 0.047590 0.000000 0.261098
O O14 0.647796 0.500000 0.979255
O O15 0.578538 0.742063 0.911802
O O16 0.524444 0.000000 0.904807
O O17 0.500000 0.774760 0.000000
O O18 0.693052 0.500000 0.506302
O O19 0.750000 0.750000 0.500000
#
# Coordination Sequence:
#
# PCOD8102280 Si02
#       7
#     8   8   8   8   8   8   8
#     4  10  21  37  60  90 125 161 199 246 306 366
#     4  10  20  36  61  92 125 162 200 245 301 362
#     4  11  22  37  60  90 123 160 204 248 299 361
#     4  11  24  41  64  93 123 159 202 255 311 363
#     4  10  21  39  63  91 122 158 201 253 308 361
#     4  11  25  43  64  89 120 162 208 254 307 367
#     4  11  25  43  62  86 120 161 204 250 302 362
#
# _framework density 20.595122
#
# number of rings (size 3 to 8) (size 9 to 14) (size 15 to 20)
#    0.000    1.429    1.429    3.429    0.000    9.429 
#    0.000    2.857    0.000    0.000    0.000    0.000 
#    0.000    0.000    0.000    0.000    0.000    0.000 
#
# Total GULP energy -347389.203780 kJ/mol
# GULP energy per Si atom -12406.757278 kJ/mol
# Density = 2.054825 g / cm^3
# Si number density = 20.595122 Si / 1000 Ang^3
#
#
#
# Elastic Constant Matrix: (Units=GPa)
#
#
# Indices 1 2 3 4 5 6 
#
# 1 76.6793 39.0900 24.8412 0.0000 7.4452 0.0000
# 2 39.0900 105.5088 53.8094 0.0000 5.6294 0.0000
# 3 24.8412 53.8094 132.1565 0.0000 5.5604 0.0000
# 4 0.0000 0.0000 0.0000 40.8128 0.0000 0.4731
# 5 7.4452 5.6294 5.5604 0.0000 27.9121 0.0000
# 6 0.0000 0.0000 0.0000 0.4731 0.0000 31.4273
#
#
#
# Elastic Compliance Matrix: (Units=1/GPa)
#
#
# Indices 1 2 3 4 5 6 
#
# 1 0.016401 -0.005559 -0.000688 0.000000 -0.003116 0.000000
# 2 -0.005559 0.013905 -0.004600 0.000000 -0.000405 0.000000
# 3 -0.000688 -0.004600 0.009603 0.000000 -0.000802 0.000000
# 4 0.000000 0.000000 0.000000 0.024506 0.000000 -0.000369
# 5 -0.003116 -0.000405 -0.000802 0.000000 0.036899 0.000000
# 6 0.000000 0.000000 0.000000 -0.000369 0.000000 0.031825
#
#
# Mechanical properties :
#
#
# Convention : Reuss Voigt Hill
#
# Bulk Modulus (GPa) = 54.90115 61.09174 57.99645
# Shear Modulus (GPa) = 31.07432 33.13737 32.10584
#
# Velocity S-wave (km/s) = 3.88857 4.01557 3.95258
# Velocity P-wave (km/s) = 6.84664 7.15733 7.00371
#
# Compressibility (1/GPa) = 0.01821456
#
# Stress axis : x y z
#
# Youngs Moduli (GPa) = 60.97259 71.91723 104.13756
#
# Poissons Ratio (x) = 0.39979 0.07167
# Poissons Ratio (y) = 0.33895 0.47899
# Poissons Ratio (z) = 0.04196 0.33079
#
# Static dielectric constant tensor:
#      x y z
#    x 3.546140 0.000000 0.087870 
#    y 0.000000 3.797910 0.000000 
#    z 0.087870 0.000000 3.858610 
# 
# 
# High freq. dielectric constant tensor:
#      x y z
#    x 1.793820 0.000000 0.009810 
#    y 0.000000 1.816220 0.000000 
#    z 0.009810 0.000000 1.818300 
# 
# From -- ./inp_files/238988.got.cif
#   From: 2010.06.25/outbox.cif.g09.slc.cpg/sg12_120_cif.got.tgz:238988.got - 2010.06.28 00:19:55.
