data_PCOD8102230
_publ_section_title
;
Structure prediction by ZEFSAII (Michael W. Deem and Ramdas Pophale) SiO2 
 PCOD8102230
Probable space group: C 2/M
;
_chemical_formula_sum "Si O2"
_cell_formula_units_Z 64
_cell_length_a 24.391587
_cell_length_b 8.986537
_cell_length_c 29.220287
_cell_angle_alpha 90.000000
_cell_angle_beta 149.166746
_cell_angle_gamma 90.000000
_cell_volume 3282.810230
_symmetry_space_group_name_H-M "C 2/M"
_symmetry_group_IT_number 12
_symmetry_cell_setting 'monoclinic'
loop_
_space_group_symop_operation_xyz
x,y,z
-x,y,-z
-x,-y,-z
x,-y,z
1/2+x,1/2+y,z
1/2-x,1/2+y,-z
1/2-x,1/2-y,-z
1/2+x,1/2-y,z
loop_
_atom_site_type_symbol
_atom_site_label
_atom_site_fract_x
_atom_site_fract_y
_atom_site_fract_z
Si Si1 0.992560 0.827406 0.139340
Si Si2 0.388975 0.671735 0.629102
Si Si3 0.618162 0.825346 0.566918
Si Si4 0.896287 0.170844 0.168205
Si Si5 0.380148 0.824457 0.905714
Si Si6 0.308164 0.325747 0.472126
Si Si7 0.695427 0.325880 0.062211
Si Si8 0.692684 0.175657 0.246786
O O1 0.098747 0.728487 0.213112
O O2 0.936781 0.791577 0.146934
O O3 0.024955 0.000000 0.159061
O O4 0.912213 0.779758 0.041471
O O5 0.360362 0.500000 0.618230
O O6 0.510995 0.707083 0.728910
O O7 0.375199 0.711472 0.565903
O O8 0.312569 0.768784 0.606937
O O9 0.500000 0.789093 0.500000
O O10 0.634539 0.756185 0.528578
O O11 0.697577 0.753442 0.660646
O O12 0.640111 0.000000 0.579605
O O13 0.796909 0.276734 0.105766
O O14 0.859369 0.000000 0.145705
O O15 0.301602 0.753916 0.886729
O O16 0.337473 0.773451 0.825942
O O17 0.376659 0.000000 0.908799
O O18 0.500000 0.763546 0.000000
O O19 0.304624 0.500000 0.458648
O O20 0.701301 0.500000 0.074095
O O21 0.706473 0.000000 0.260970
#
# Coordination Sequence:
#
# PCOD8102230 Si02
#       8
#     8   8   8   8   8   8   8   8
#     4  10  21  37  58  85 119 157 195 238 291 348
#     4   9  19  36  59  87 117 153 194 241 298 353
#     4  11  25  43  61  84 119 160 196 239 300 358
#     4  10  21  37  56  80 116 158 195 236 292 351
#     4  10  21  40  62  85 116 154 195 239 291 351
#     4  10  20  36  61  89 116 149 195 246 294 349
#     4  11  23  36  55  85 118 155 197 244 290 337
#     4  11  23  39  65  93 115 150 198 246 294 347
#
# _framework density 19.495491999999999
#
# number of rings (size 3 to 8) (size 9 to 14) (size 15 to 20)
#    0.000    1.750    1.250    2.625    0.000    6.250 
#    0.000    3.750    0.000    0.000    0.000    0.000 
#    0.000    0.000    0.000    0.000    0.000    0.000 
#
# Total GULP energy -396976.539253 kJ/mol
# GULP energy per Si atom -12405.516852 kJ/mol
# Density = 1.945112 g / cm^3
# Si number density = 19.495492 Si / 1000 Ang^3
#
#
#
# Elastic Constant Matrix: (Units=GPa)
#
#
# Indices 1 2 3 4 5 6 
#
# 1 118.0442 54.2692 66.6637 -0.0004 -3.9503 -0.0004
# 2 54.2692 70.3628 52.1311 -0.0001 1.2798 -0.0023
# 3 66.6637 52.1311 99.7314 -0.0001 3.5064 -0.0003
# 4 -0.0004 -0.0001 -0.0001 30.8980 0.0000 3.8648
# 5 -3.9503 1.2798 3.5064 0.0000 28.9973 -0.0001
# 6 -0.0004 -0.0023 -0.0003 3.8648 -0.0001 35.4507
#
#
#
# Elastic Compliance Matrix: (Units=1/GPa)
#
#
# Indices 1 2 3 4 5 6 
#
# 1 0.015756 -0.007056 -0.006960 0.000000 0.003299 0.000000
# 2 -0.007056 0.026360 -0.009026 0.000000 -0.001033 0.000002
# 3 -0.006960 -0.009026 0.019499 0.000000 -0.002908 -0.000001
# 4 0.000000 0.000000 0.000000 0.032812 0.000000 -0.003577
# 5 0.003299 -0.001033 -0.002908 0.000000 0.035333 0.000000
# 6 0.000000 0.000002 -0.000001 -0.003577 0.000000 0.028598
#
#
# Mechanical properties :
#
#
# Convention : Reuss Voigt Hill
#
# Bulk Modulus (GPa) = 64.38241 70.47405 67.42823
# Shear Modulus (GPa) = 23.85276 26.74084 25.29680
#
# Velocity S-wave (km/s) = 3.50165 3.70759 3.60609
# Velocity P-wave (km/s) = 7.03169 7.38618 7.21111
#
# Compressibility (1/GPa) = 0.01553219
#
# Stress axis : x y z
#
# Youngs Moduli (GPa) = 63.46784 37.93568 51.28392
#
# Poissons Ratio (x) = 0.26767 0.35691
# Poissons Ratio (y) = 0.44783 0.46290
# Poissons Ratio (z) = 0.44171 0.34242
#
# Static dielectric constant tensor:
#      x y z
#    x 3.540450 0.000000 -0.151700 
#    y 0.000000 3.519200 0.000000 
#    z -0.151700 0.000000 3.676610 
# 
# 
# High freq. dielectric constant tensor:
#      x y z
#    x 1.765840 0.000000 -0.008320 
#    y 0.000000 1.760490 0.000000 
#    z -0.008320 0.000000 1.764780 
# 
# From -- ./inp_files/382546.got.cif
#   From: 2010.06.25/outbox.cif.g09.slc.cpg/sg12_192_cif.got.tgz:382546.got - 2010.06.28 00:19:55.
