data_PCOD8102606
_publ_section_title
;
Structure prediction by ZEFSAII (Michael W. Deem and Ramdas Pophale) SiO2 
 PCOD8102606
Probable space group: C 2/M
;
_chemical_formula_sum "Si O2"
_cell_formula_units_Z 64
_cell_length_a 8.945807
_cell_length_b 13.415547
_cell_length_c 31.643182
_cell_angle_alpha 90.000000
_cell_angle_beta 57.284819
_cell_angle_gamma 90.000000
_cell_volume 3195.169105
_symmetry_space_group_name_H-M "C 2/M"
_symmetry_group_IT_number 12
_symmetry_cell_setting 'monoclinic'
loop_
_space_group_symop_operation_xyz
x,y,z
-x,y,-z
-x,-y,-z
x,-y,z
1/2+x,1/2+y,z
1/2-x,1/2+y,-z
1/2-x,1/2-y,-z
1/2+x,1/2-y,z
loop_
_atom_site_type_symbol
_atom_site_label
_atom_site_fract_x
_atom_site_fract_y
_atom_site_fract_z
Si Si1 0.125281 0.235565 0.583228
Si Si2 0.037259 0.252567 0.109761
Si Si3 0.678957 0.614273 0.497758
Si Si4 0.945041 0.383735 0.746594
Si Si5 0.879346 0.116214 0.059312
Si Si6 0.348208 0.705604 0.819442
Si Si7 0.860512 0.889763 0.270843
Si Si8 0.264069 0.227049 0.344856
O O1 0.149928 0.326060 0.546135
O O2 0.162701 0.135207 0.550691
O O3 0.255821 0.264132 0.601538
O O4 0.941101 0.224216 0.636933
O O5 0.189983 0.333813 0.075456
O O6 0.107470 0.188302 0.138187
O O7 0.982062 0.177508 0.080357
O O8 0.861862 0.309116 0.153097
O O9 0.500000 0.645885 0.500000
O O10 0.721989 0.500000 0.484039
O O11 0.937578 0.500000 0.761199
O O12 0.922879 0.313870 0.791450
O O13 0.781922 0.352332 0.741625
O O14 0.127570 0.365490 0.692152
O O15 0.851568 0.000000 0.077115
O O16 0.000000 0.122328 0.000000
O O17 0.442733 0.618271 0.778846
O O18 0.855232 0.826456 0.313891
O O19 0.816981 0.000000 0.291895
#
# Coordination Sequence:
#
# PCOD8102606 Si02
#       8
#     8   8   8   8   8   8   8   8
#     4  11  22  39  59  83 113 142 178 235 283 335
#     4  10  21  37  63  91 124 164 210 258 311 370
#     4  10  22  39  61  85 108 142 183 228 284 343
#     4  10  21  37  60  84 114 158 197 237 290 346
#     4  10  22  41  64  92 127 167 213 264 318 374
#     4  10  20  37  57  88 122 155 197 251 299 353
#     4  10  21  36  56  83 117 153 189 237 291 342
#     4  11  22  38  58  84 114 147 187 229 282 345
#
# _framework density 20.030239000000002
#
# number of rings (size 3 to 8) (size 9 to 14) (size 15 to 20)
#    0.000    1.750    3.750    0.375    0.000    5.000 
#    0.000    3.750    0.000    6.750    0.000    0.000 
#    0.000    0.000    0.000    0.000    0.000    0.000 
#
# Total GULP energy -396546.833466 kJ/mol
# GULP energy per Si atom -12392.088546 kJ/mol
# Density = 1.998465 g / cm^3
# Si number density = 20.030239 Si / 1000 Ang^3
#
#
#
# Elastic Constant Matrix: (Units=GPa)
#
#
# Indices 1 2 3 4 5 6 
#
# 1 68.2314 33.0068 25.2015 0.0000 -13.7408 0.0000
# 2 33.0068 93.2439 32.9201 0.0000 -1.4971 0.0000
# 3 25.2015 32.9201 95.5730 0.0000 -11.8934 0.0000
# 4 0.0000 0.0000 0.0000 15.7448 0.0000 -0.7779
# 5 -13.7408 -1.4971 -11.8934 0.0000 42.0544 0.0000
# 6 0.0000 0.0000 0.0000 -0.7779 0.0000 26.7748
#
#
#
# Elastic Compliance Matrix: (Units=1/GPa)
#
#
# Indices 1 2 3 4 5 6 
#
# 1 0.019545 -0.005979 -0.002411 0.000000 0.005491 0.000000
# 2 -0.005979 0.014063 -0.003574 0.000000 -0.002464 0.000000
# 3 -0.002411 -0.003574 0.012662 0.000000 0.002666 0.000000
# 4 0.000000 0.000000 0.000000 0.063604 0.000000 0.001848
# 5 0.005491 -0.002464 0.002666 0.000000 0.026239 0.000000
# 6 0.000000 0.000000 0.000000 0.001848 0.000000 0.037402
#
#
# Mechanical properties :
#
#
# Convention : Reuss Voigt Hill
#
# Bulk Modulus (GPa) = 44.75940 48.81168 46.78554
# Shear Modulus (GPa) = 24.40322 27.97614 26.18968
#
# Velocity S-wave (km/s) = 3.49423 3.74129 3.61987
# Velocity P-wave (km/s) = 6.21884 6.56391 6.39370
#
# Compressibility (1/GPa) = 0.02234168
#
# Stress axis : x y z
#
# Youngs Moduli (GPa) = 51.16466 71.10666 78.97793
#
# Poissons Ratio (x) = 0.42516 0.19040
# Poissons Ratio (y) = 0.30592 0.28227
# Poissons Ratio (z) = 0.12335 0.25414
#
# Static dielectric constant tensor:
#      x y z
#    x 3.721480 0.000000 -0.089670 
#    y 0.000000 3.419110 0.000000 
#    z -0.089670 0.000000 3.703050 
# 
# 
# High freq. dielectric constant tensor:
#      x y z
#    x 1.784240 0.000000 -0.004640 
#    y 0.000000 1.760890 0.000000 
#    z -0.004640 0.000000 1.794360 
# 
# From -- ./inp_files/372376.got.cif
#   From: 2010.06.25/outbox.cif.g09.slc.cpg/sg12_187_cif.got.tgz:372376.got - 2010.06.28 00:19:55.
