data_PCOD8102276
_publ_section_title
;
Structure prediction by ZEFSAII (Michael W. Deem and Ramdas Pophale) SiO2 
 PCOD8102276
Probable space group: C 2/M
;
_chemical_formula_sum "Si O2"
_cell_formula_units_Z 48
_cell_length_a 30.207699
_cell_length_b 17.690682
_cell_length_c 13.226456
_cell_angle_alpha 90.000000
_cell_angle_beta 161.778455
_cell_angle_gamma 90.000000
_cell_volume 2210.154548
_symmetry_space_group_name_H-M "C 2/M"
_symmetry_group_IT_number 12
_symmetry_cell_setting 'monoclinic'
loop_
_space_group_symop_operation_xyz
x,y,z
-x,y,-z
-x,-y,-z
x,-y,z
1/2+x,1/2+y,z
1/2-x,1/2+y,-z
1/2-x,1/2-y,-z
1/2+x,1/2-y,z
loop_
_atom_site_type_symbol
_atom_site_label
_atom_site_fract_x
_atom_site_fract_y
_atom_site_fract_z
Si Si1 0.229799 0.673296 0.747945
Si Si2 0.519355 0.586956 0.651139
Si Si3 0.355296 0.586226 0.652769
Si Si4 0.361160 0.086137 0.638558
Si Si5 0.041472 0.701040 0.704418
Si Si6 0.269830 0.410332 0.251352
O O1 0.160572 0.652464 0.490341
O O2 0.105625 0.695248 0.554585
O O3 0.316816 0.597143 0.963345
O O4 0.353409 0.736979 0.017459
O O5 0.500000 0.626703 0.500000
O O6 0.482032 0.500000 0.562335
O O7 0.405874 0.621321 0.484377
O O8 0.389691 0.500000 0.696570
O O9 0.261387 0.591456 0.546767
O O10 0.286602 0.621905 0.402534
O O11 0.500000 0.627939 0.000000
O O12 0.370889 0.000000 0.614647
O O13 0.500000 0.107798 0.000000
O O14 0.000000 0.721405 0.500000
O O15 0.124850 0.621759 0.889776
O O16 0.254917 0.500000 0.214959
#
# Coordination Sequence:
#
# PCOD8102276 Si02
#       6
#     8   8   8   8   8   8
#     4  12  24  41  62  87 121 164 207 250 306 367
#     4  10  20  36  61  92 124 159 203 254 305 363
#     4   9  17  32  57  88 120 154 192 239 296 357
#     4  10  21  39  64  93 122 154 198 252 307 363
#     4  12  26  43  63  87 121 164 208 257 309 366
#     4  10  21  39  63  93 126 161 206 257 310 368
#
# _framework density 21.717938
#
# number of rings (size 3 to 8) (size 9 to 14) (size 15 to 20)
#    0.000    1.500    0.000    5.500    0.000    5.667 
#    0.000    4.167    0.000    0.000    0.000    0.000 
#    0.000    0.000    0.000    0.000    0.000    0.000 
#
# Total GULP energy -297419.860936 kJ/mol
# GULP energy per Si atom -12392.494206 kJ/mol
# Density = 2.166851 g / cm^3
# Si number density = 21.717938 Si / 1000 Ang^3
#
#
#
# Elastic Constant Matrix: (Units=GPa)
#
#
# Indices 1 2 3 4 5 6 
#
# 1 105.0016 36.1657 38.4039 0.0001 -8.4035 0.0000
# 2 36.1657 60.5061 41.2426 0.0002 -7.9940 0.0000
# 3 38.4039 41.2426 141.2229 0.0008 4.4891 -0.0003
# 4 0.0001 0.0002 0.0008 40.6718 -0.0002 -1.0297
# 5 -8.4035 -7.9940 4.4891 -0.0002 43.4995 0.0001
# 6 0.0000 0.0000 -0.0003 -1.0297 0.0001 2.1363
#
#
#
# Elastic Compliance Matrix: (Units=1/GPa)
#
#
# Indices 1 2 3 4 5 6 
#
# 1 0.012323 -0.006069 -0.001624 0.000000 0.001433 -0.000001
# 2 -0.006069 0.024511 -0.005632 0.000000 0.003913 0.000000
# 3 -0.001624 -0.005632 0.009241 0.000000 -0.002302 0.000001
# 4 0.000000 0.000000 0.000000 0.024891 0.000000 0.011998
# 5 0.001433 0.003913 -0.002302 0.000000 0.024222 -0.000001
# 6 -0.000001 0.000000 0.000001 0.011998 -0.000001 0.473878
#
#
# Mechanical properties :
#
#
# Convention : Reuss Voigt Hill
#
# Bulk Modulus (GPa) = 51.48403 59.81720 55.65061
# Shear Modulus (GPa) = 8.30301 29.98941 19.14621
#
# Velocity S-wave (km/s) = 1.95740 3.72002 2.97237
# Velocity P-wave (km/s) = 5.37269 6.78631 6.12045
#
# Compressibility (1/GPa) = 0.01942350
#
# Stress axis : x y z
#
# Youngs Moduli (GPa) = 81.15055 40.79809 108.21756
#
# Poissons Ratio (x) = 0.24761 0.17576
# Poissons Ratio (y) = 0.49252 0.60949
# Poissons Ratio (z) = 0.13180 0.22978
#
# Static dielectric constant tensor:
#      x y z
#    x 4.120780 0.000000 -0.095110 
#    y 0.000000 3.826550 0.000000 
#    z -0.095110 0.000000 4.210040 
# 
# 
# High freq. dielectric constant tensor:
#      x y z
#    x 1.860420 0.000000 0.000870 
#    y 0.000000 1.832990 0.000000 
#    z 0.000870 0.000000 1.870580 
# 
# From -- ./inp_files/184822.got.cif
#   From: 2010.06.25/outbox.cif.g09.slc.cpg/sg12_93_cif.got.tgz:184822.got - 2010.06.28 00:19:55.
