data_PCOD8102031
_publ_section_title
;
Structure prediction by ZEFSAII (Michael W. Deem and Ramdas Pophale) SiO2 
 PCOD8102031
Probable space group: C 2/M
;
_chemical_formula_sum "Si O2"
_cell_formula_units_Z 28
_cell_length_a 9.048632
_cell_length_b 10.807393
_cell_length_c 16.195957
_cell_angle_alpha 90.000000
_cell_angle_beta 40.195682
_cell_angle_gamma 90.000000
_cell_volume 1022.208599
_symmetry_space_group_name_H-M "C 2/M"
_symmetry_group_IT_number 12
_symmetry_cell_setting 'monoclinic'
loop_
_space_group_symop_operation_xyz
x,y,z
-x,y,-z
-x,-y,-z
x,-y,z
1/2+x,1/2+y,z
1/2-x,1/2+y,-z
1/2-x,1/2-y,-z
1/2+x,1/2-y,z
loop_
_atom_site_type_symbol
_atom_site_label
_atom_site_fract_x
_atom_site_fract_y
_atom_site_fract_z
Si Si1 0.500000 0.720190 0.500000
Si Si2 0.007579 0.500000 0.091496
Si Si3 0.492360 0.145026 0.333168
Si Si4 0.533207 0.500000 0.890223
Si Si5 0.022724 0.251779 0.151041
O O1 0.435596 0.805552 0.606509
O O2 0.716553 0.638480 0.437803
O O3 0.892994 0.380366 0.183868
O O4 0.277942 0.500000 0.971489
O O5 0.000000 0.500000 0.000000
O O6 0.582648 0.239785 0.222834
O O7 0.586894 0.000000 0.278208
O O8 0.634617 0.631125 0.807899
O O9 0.500000 0.500000 0.000000
O O10 0.250000 0.250000 0.000000
#
# Coordination Sequence:
#
# PCOD8102031 Si02
#       5
#     4   4   8   4   8
#     4  10  26  46  74 104 136 186 248 294 356 414
#     4  10  20  36  60  87 130 175 214 262 333 414
#     4  11  23  48  74 104 142 186 238 300 354 423
#     4  10  22  38  58  91 136 173 220 268 331 418
#     4  10  22  42  66 101 138 180 223 285 357 425
#
# _framework density 27.391670000000001
#
# number of rings (size 3 to 8) (size 9 to 14) (size 15 to 20)
#    0.000    1.714    1.429    1.714    0.000    9.143 
#   15.429    0.000    0.000    0.000    0.000    0.000 
#    0.000    0.000    0.000    0.000    0.000    0.000 
#
# Total GULP energy -173452.715366 kJ/mol
# GULP energy per Si atom -12389.479669 kJ/mol
# Density = 2.732933 g / cm^3
# Si number density = 27.391670 Si / 1000 Ang^3
#
#
#
# Elastic Constant Matrix: (Units=GPa)
#
#
# Indices 1 2 3 4 5 6 
#
# 1 152.2333 85.1282 47.7462 -0.0003 41.9608 0.0002
# 2 85.1282 275.5492 73.3368 -0.0002 26.6535 0.0001
# 3 47.7462 73.3368 179.9221 -0.0008 44.1249 0.0005
# 4 -0.0003 -0.0002 -0.0008 50.7149 0.0005 -3.8809
# 5 41.9608 26.6535 44.1249 0.0005 65.7149 -0.0003
# 6 0.0002 0.0001 0.0005 -3.8809 -0.0003 59.0144
#
#
#
# Elastic Compliance Matrix: (Units=1/GPa)
#
#
# Indices 1 2 3 4 5 6 
#
# 1 0.009284 -0.002314 -0.000355 0.000000 -0.004751 0.000000
# 2 -0.002314 0.004670 -0.001421 0.000000 0.000538 0.000000
# 3 -0.000355 -0.001421 0.007224 0.000000 -0.004047 0.000000
# 4 0.000000 0.000000 0.000000 0.019818 0.000000 0.001303
# 5 -0.004751 0.000538 -0.004047 0.000000 0.020750 0.000000
# 6 0.000000 0.000000 0.000000 0.001303 0.000000 0.017031
#
#
# Mechanical properties :
#
#
# Convention : Reuss Voigt Hill
#
# Bulk Modulus (GPa) = 76.94244 113.34744 95.14494
# Shear Modulus (GPa) = 54.76991 61.85506 58.31248
#
# Velocity S-wave (km/s) = 4.47644 4.75718 4.61894
# Velocity P-wave (km/s) = 7.40734 8.46430 7.95340
#
# Compressibility (1/GPa) = 0.01299673
#
# Stress axis : x y z
#
# Youngs Moduli (GPa) = 107.71458 214.11872 138.42303
#
# Poissons Ratio (x) = 0.49548 0.04919
# Poissons Ratio (y) = 0.24925 0.19676
# Poissons Ratio (z) = 0.03828 0.30436
#
# Static dielectric constant tensor:
#      x y z
#    x 5.443350 0.000000 -0.186030 
#    y 0.000000 9.434210 0.000020 
#    z -0.186030 0.000020 6.082860 
# 
# 
# High freq. dielectric constant tensor:
#      x y z
#    x 2.151270 0.000000 -0.018190 
#    y 0.000000 2.115580 0.000000 
#    z -0.018190 0.000000 2.128060 
# 
# From -- ./inp_files/193289.got.cif
#   From: 2010.06.25/outbox.cif.g09.slc.cpg/sg12_97_cif.got.tgz:193289.got - 2010.06.28 00:19:55.
