data_PCOD8102825
_publ_section_title
;
Structure prediction by ZEFSAII (Michael W. Deem and Ramdas Pophale) SiO2 
 PCOD8102825
Probable space group: C 2/M
;
_chemical_formula_sum "Si O2"
_cell_formula_units_Z 64
_cell_length_a 17.980181
_cell_length_b 13.771357
_cell_length_c 17.054854
_cell_angle_alpha 90.000000
_cell_angle_beta 130.354413
_cell_angle_gamma 90.000000
_cell_volume 3218.136048
_symmetry_space_group_name_H-M "C 2/M"
_symmetry_group_IT_number 12
_symmetry_cell_setting 'monoclinic'
loop_
_space_group_symop_operation_xyz
x,y,z
-x,y,-z
-x,-y,-z
x,-y,z
1/2+x,1/2+y,z
1/2-x,1/2+y,-z
1/2-x,1/2-y,-z
1/2+x,1/2-y,z
loop_
_atom_site_type_symbol
_atom_site_label
_atom_site_fract_x
_atom_site_fract_y
_atom_site_fract_z
Si Si1 0.229349 0.794615 0.648725
Si Si2 0.838968 0.888663 0.693347
Si Si3 0.909273 0.202594 0.587168
Si Si4 0.900480 0.610952 0.679065
Si Si5 0.878799 0.390185 0.169044
Si Si6 0.633312 0.709899 0.744941
Si Si7 0.303633 0.614217 0.052999
Si Si8 0.482437 0.385356 0.074454
O O1 0.249260 0.679431 0.656587
O O2 0.143160 0.820654 0.530018
O O3 0.325660 0.858295 0.696206
O O4 0.196481 0.820282 0.713497
O O5 0.866095 0.871115 0.621595
O O6 0.929902 0.856227 0.808617
O O7 0.808789 0.000000 0.686021
O O8 0.887927 0.314678 0.597762
O O9 0.022473 0.178158 0.654052
O O10 0.880359 0.500000 0.637447
O O11 0.010735 0.620379 0.788101
O O12 0.855030 0.500000 0.178664
O O13 0.863941 0.325521 0.236667
O O14 0.804417 0.355738 0.050179
O O15 0.678936 0.656504 0.849963
O O16 0.315387 0.500000 0.068349
O O17 0.382720 0.655567 0.044611
O O18 0.474320 0.500000 0.060478
O O19 0.500000 0.339280 0.000000
#
# Coordination Sequence:
#
# PCOD8102825 Si02
#       8
#     8   8   8   8   8   8   8   8
#     4  11  24  36  55  86 114 149 190 240 282 326
#     4  10  20  37  59  84 114 146 185 237 291 336
#     4  10  21  39  59  80 111 150 196 237 281 329
#     4   9  19  39  60  80 109 148 194 234 275 329
#     4   9  20  38  61  82 107 149 191 229 276 336
#     4  11  22  38  57  84 117 151 187 229 282 343
#     4  10  20  37  60  85 116 151 185 226 284 342
#     4   9  18  32  55  86 116 143 176 228 285 337
#
# _framework density 19.887288000000002
#
# number of rings (size 3 to 8) (size 9 to 14) (size 15 to 20)
#    0.000    2.125    1.250    2.250    1.750    3.000 
#    0.000    0.625    0.000    8.250    0.000    0.000 
#    0.000    0.000    0.000    0.000    0.000    0.000 
#
# Total GULP energy -396784.145844 kJ/mol
# GULP energy per Si atom -12399.504558 kJ/mol
# Density = 1.984202 g / cm^3
# Si number density = 19.887288 Si / 1000 Ang^3
#
#
#
# Elastic Constant Matrix: (Units=GPa)
#
#
# Indices 1 2 3 4 5 6 
#
# 1 106.3701 5.2761 50.4066 0.0000 -21.4790 0.0000
# 2 5.2761 34.7827 18.0633 0.0000 -1.6561 0.0000
# 3 50.4066 18.0633 119.8038 0.0000 -10.0038 0.0000
# 4 0.0000 0.0000 0.0000 23.6117 0.0000 6.1890
# 5 -21.4790 -1.6561 -10.0038 0.0000 30.8007 0.0000
# 6 0.0000 0.0000 0.0000 6.1890 0.0000 16.8673
#
#
#
# Elastic Compliance Matrix: (Units=1/GPa)
#
#
# Indices 1 2 3 4 5 6 
#
# 1 0.013328 0.001002 -0.005117 0.000000 0.007687 0.000000
# 2 0.001002 0.031268 -0.005075 0.000000 0.000731 0.000000
# 3 -0.005117 -0.005075 0.011249 0.000000 -0.000188 0.000000
# 4 0.000000 0.000000 0.000000 0.046859 0.000000 -0.017193
# 5 0.007687 0.000731 -0.000188 0.000000 0.037805 0.000000
# 6 0.000000 0.000000 0.000000 -0.017193 0.000000 0.065595
#
#
# Mechanical properties :
#
#
# Convention : Reuss Voigt Hill
#
# Bulk Modulus (GPa) = 26.69110 45.38320 36.03715
# Shear Modulus (GPa) = 21.09936 26.73664 23.91800
#
# Velocity S-wave (km/s) = 3.26075 3.67060 3.47173
# Velocity P-wave (km/s) = 5.25614 6.39016 5.85069
#
# Compressibility (1/GPa) = 0.03746567
#
# Stress axis : x y z
#
# Youngs Moduli (GPa) = 75.02753 31.98131 88.89340
#
# Poissons Ratio (x) = -0.03203 0.45487
# Poissons Ratio (y) = -0.07515 0.45112
# Poissons Ratio (z) = 0.38392 0.16230
#
# Static dielectric constant tensor:
#      x y z
#    x 3.633430 0.000000 0.174240 
#    y 0.000000 3.640760 0.000000 
#    z 0.174240 0.000000 3.621790 
# 
# 
# High freq. dielectric constant tensor:
#      x y z
#    x 1.767030 0.000000 0.017440 
#    y 0.000000 1.768800 0.000000 
#    z 0.017440 0.000000 1.776410 
# 
# From -- ./inp_files/225692.got.cif
#   From: 2010.06.25/outbox.cif.g09.slc.cpg/sg12_113_cif.got.tgz:225692.got - 2010.06.28 00:19:55.
