data_PCOD8102515
_publ_section_title
;
Structure prediction by ZEFSAII (Michael W. Deem and Ramdas Pophale) SiO2 
 PCOD8102515
Probable space group: C 2/M
;
_chemical_formula_sum "Si O2"
_cell_formula_units_Z 64
_cell_length_a 28.826370
_cell_length_b 12.349301
_cell_length_c 9.535044
_cell_angle_alpha 90.000000
_cell_angle_beta 91.395049
_cell_angle_gamma 90.000000
_cell_volume 3393.331504
_symmetry_space_group_name_H-M "C 2/M"
_symmetry_group_IT_number 12
_symmetry_cell_setting 'monoclinic'
loop_
_space_group_symop_operation_xyz
x,y,z
-x,y,-z
-x,-y,-z
x,-y,z
1/2+x,1/2+y,z
1/2-x,1/2+y,-z
1/2-x,1/2-y,-z
1/2+x,1/2-y,z
loop_
_atom_site_type_symbol
_atom_site_label
_atom_site_fract_x
_atom_site_fract_y
_atom_site_fract_z
Si Si1 0.801707 0.769053 0.367408
Si Si2 0.549353 0.376262 0.234887
Si Si3 0.949261 0.259206 0.500214
Si Si4 0.649165 0.374694 0.893881
Si Si5 0.860589 0.625973 0.583341
Si Si6 0.779412 0.880338 0.636920
Si Si7 0.355691 0.715213 0.818161
Si Si8 0.053011 0.877829 0.764932
O O1 0.829808 0.823312 0.244354
O O2 0.830926 0.683798 0.460986
O O3 0.784832 0.863791 0.470016
O O4 0.757064 0.706052 0.301568
O O5 0.563429 0.500000 0.218165
O O6 0.548512 0.344714 0.398206
O O7 0.589455 0.307749 0.162852
O O8 0.497550 0.352671 0.169318
O O9 0.914227 0.350616 0.552018
O O10 0.933900 0.211215 0.350144
O O11 0.000000 0.314875 0.500000
O O12 0.665706 0.500000 0.913151
O O13 0.593104 0.371334 0.884229
O O14 0.665113 0.299384 0.026562
O O15 0.849769 0.500000 0.579154
O O16 0.848598 0.668481 0.740743
O O17 0.829403 0.869849 0.715428
O O18 0.759884 0.000000 0.661065
O O19 0.051371 0.000000 0.700856
#
# Coordination Sequence:
#
# PCOD8102515 Si02
#       8
#     8   8   8   8   8   8   8   8
#     4  10  21  36  58  83 107 139 181 228 275 323
#     4   9  16  28  48  77 111 147 181 214 262 326
#     4   9  16  28  48  77 105 137 176 227 273 316
#     4  11  21  35  55  84 119 148 174 214 270 330
#     4  10  20  37  56  75 102 140 188 234 271 312
#     4  10  20  37  58  80 107 142 182 225 273 325
#     4  10  22  36  53  79 111 147 184 221 269 323
#     4   9  17  28  48  79 115 147 175 213 267 325
#
# _framework density 18.860520000000001
#
# number of rings (size 3 to 8) (size 9 to 14) (size 15 to 20)
#    0.000    2.250    1.250    2.250    0.000    2.750 
#    0.000    3.750    0.000    0.000    0.000    2.625 
#    0.000    0.000    0.000    0.000    0.000    0.000 
#
# Total GULP energy -396542.110979 kJ/mol
# GULP energy per Si atom -12391.940968 kJ/mol
# Density = 1.881759 g / cm^3
# Si number density = 18.860520 Si / 1000 Ang^3
#
#
#
# Elastic Constant Matrix: (Units=GPa)
#
#
# Indices 1 2 3 4 5 6 
#
# 1 79.0753 22.7989 21.3632 0.0000 -4.2316 0.0000
# 2 22.7989 91.7348 35.4943 0.0000 -0.8202 0.0000
# 3 21.3632 35.4943 84.6740 0.0000 -3.1854 0.0000
# 4 0.0000 0.0000 0.0000 17.8563 0.0000 -0.0594
# 5 -4.2316 -0.8202 -3.1854 0.0000 13.9902 0.0000
# 6 0.0000 0.0000 0.0000 -0.0594 0.0000 17.4416
#
#
#
# Elastic Compliance Matrix: (Units=1/GPa)
#
#
# Indices 1 2 3 4 5 6 
#
# 1 0.014225 -0.002587 -0.002369 0.000000 0.003612 0.000000
# 2 -0.002587 0.013485 -0.005043 0.000000 -0.001140 0.000000
# 3 -0.002369 -0.005043 0.014609 0.000000 0.002314 0.000000
# 4 0.000000 0.000000 0.000000 0.056003 0.000000 0.000191
# 5 0.003612 -0.001140 0.002314 0.000000 0.073031 0.000000
# 6 0.000000 0.000000 0.000000 0.000191 0.000000 0.057335
#
#
# Mechanical properties :
#
#
# Convention : Reuss Voigt Hill
#
# Bulk Modulus (GPa) = 44.79905 46.08855 45.44380
# Shear Modulus (GPa) = 19.52170 21.57947 20.55058
#
# Velocity S-wave (km/s) = 3.22072 3.38621 3.30450
# Velocity P-wave (km/s) = 6.13474 6.30699 6.22147
#
# Compressibility (1/GPa) = 0.02232190
#
# Stress axis : x y z
#
# Youngs Moduli (GPa) = 70.29789 74.15719 68.45243
#
# Poissons Ratio (x) = 0.19181 0.16216
# Poissons Ratio (y) = 0.18183 0.34521
# Poissons Ratio (z) = 0.16653 0.37397
#
# Static dielectric constant tensor:
#      x y z
#    x 3.710200 0.000000 0.034020 
#    y 0.000000 3.150310 0.000000 
#    z 0.034020 0.000000 3.264780 
# 
# 
# High freq. dielectric constant tensor:
#      x y z
#    x 1.747210 0.000000 0.004540 
#    y 0.000000 1.700810 0.000000 
#    z 0.004540 0.000000 1.716360 
# 
# From -- ./inp_files/110485.got.cif
#   From: 2010.06.25/outbox.cif.g09.slc.cpg/sg12_56_cif.got.tgz:110485.got - 2010.06.28 00:19:55.
