data_PCOD8102939
_publ_section_title
;
Structure prediction by ZEFSAII (Michael W. Deem and Ramdas Pophale) SiO2 
 PCOD8102939
Probable space group: C 2/M
;
_chemical_formula_sum "Si O2"
_cell_formula_units_Z 56
_cell_length_a 15.011207
_cell_length_b 9.005625
_cell_length_c 24.126871
_cell_angle_alpha 90.000000
_cell_angle_beta 62.569850
_cell_angle_gamma 90.000000
_cell_volume 2894.906923
_symmetry_space_group_name_H-M "C 2/M"
_symmetry_group_IT_number 12
_symmetry_cell_setting 'monoclinic'
loop_
_space_group_symop_operation_xyz
x,y,z
-x,y,-z
-x,-y,-z
x,-y,z
1/2+x,1/2+y,z
1/2-x,1/2+y,-z
1/2-x,1/2-y,-z
1/2+x,1/2-y,z
loop_
_atom_site_type_symbol
_atom_site_label
_atom_site_fract_x
_atom_site_fract_y
_atom_site_fract_z
Si Si1 0.831716 0.673154 0.226632
Si Si2 0.729873 0.325376 0.564055
Si Si3 0.069707 0.824641 0.905855
Si Si4 0.398021 0.331587 0.694660
Si Si5 0.923658 0.673501 0.316148
Si Si6 0.092594 0.831502 0.434713
Si Si7 0.151922 0.175626 0.999995
O O1 0.847332 0.500000 0.211619
O O2 0.879612 0.759431 0.162528
O O3 0.716376 0.716690 0.266248
O O4 0.884314 0.724444 0.267943
O O5 0.720428 0.500000 0.558390
O O6 0.750000 0.250000 0.500000
O O7 0.628064 0.264638 0.619702
O O8 0.819504 0.284747 0.579687
O O9 0.135430 0.774310 0.940620
O O10 0.072114 0.000000 0.902635
O O11 0.952502 0.774415 0.940621
O O12 0.413510 0.500000 0.711084
O O13 0.459608 0.217720 0.715166
O O14 0.437085 0.316422 0.620576
O O15 0.906047 0.500000 0.331078
O O16 0.000000 0.788236 0.500000
O O17 0.129435 0.000000 0.436888
O O18 0.167864 0.000000 0.999984
O O19 0.250000 0.250000 0.000000
#
# Coordination Sequence:
#
# PCOD8102939 Si02
#       7
#     8   8   8   8   8   8   8
#     4  10  22  40  60  84 122 162 197 243 299 354
#     4  12  24  38  59  85 114 149 193 243 300 361
#     4   9  20  38  59  85 120 159 200 244 291 346
#     4  10  21  39  59  84 118 154 193 242 300 356
#     4  11  23  41  61  85 117 153 196 246 298 355
#     4  10  20  37  60  83 113 150 189 240 302 357
#     4   9  19  37  60  88 122 158 197 246 294 341
#
# _framework density 19.344317
#
# number of rings (size 3 to 8) (size 9 to 14) (size 15 to 20)
#    0.000    1.857    1.429    3.429    0.000    6.000 
#    0.000    7.143    0.000    0.000    0.000    0.000 
#    0.000    0.000    0.000    0.000    0.000    0.000 
#
# Total GULP energy -347186.190411 kJ/mol
# GULP energy per Si atom -12399.506800 kJ/mol
# Density = 1.930029 g / cm^3
# Si number density = 19.344317 Si / 1000 Ang^3
#
#
#
# Elastic Constant Matrix: (Units=GPa)
#
#
# Indices 1 2 3 4 5 6 
#
# 1 153.8566 51.0976 59.9382 0.0000 0.4601 0.0000
# 2 51.0976 73.2575 44.0622 0.0000 5.0100 0.0000
# 3 59.9382 44.0622 132.6331 0.0000 -0.4632 0.0000
# 4 0.0000 0.0000 0.0000 35.2190 0.0000 -0.9214
# 5 0.4601 5.0100 -0.4632 0.0000 20.9166 0.0000
# 6 0.0000 0.0000 0.0000 -0.9214 0.0000 37.1580
#
#
#
# Elastic Compliance Matrix: (Units=1/GPa)
#
#
# Indices 1 2 3 4 5 6 
#
# 1 0.009094 -0.004919 -0.002472 0.000000 0.000923 0.000000
# 2 -0.004919 0.020099 -0.004471 0.000000 -0.004805 0.000000
# 3 -0.002472 -0.004471 0.010147 0.000000 0.001350 0.000000
# 4 0.000000 0.000000 0.000000 0.028412 0.000000 0.000705
# 5 0.000923 -0.004805 0.001350 0.000000 0.048969 0.000000
# 6 0.000000 0.000000 0.000000 0.000705 0.000000 0.026930
#
#
# Mechanical properties :
#
#
# Convention : Reuss Voigt Hill
#
# Bulk Modulus (GPa) = 64.03960 74.43813 69.23887
# Shear Modulus (GPa) = 28.97201 32.30199 30.63700
#
# Velocity S-wave (km/s) = 3.87421 4.09081 3.98398
# Velocity P-wave (km/s) = 7.29313 7.80238 7.55205
#
# Compressibility (1/GPa) = 0.01561534
#
# Stress axis : x y z
#
# Youngs Moduli (GPa) = 109.96832 49.75284 98.55337
#
# Poissons Ratio (x) = 0.24474 0.24363
# Poissons Ratio (y) = 0.54094 0.44063
# Poissons Ratio (z) = 0.27185 0.22245
#
# Static dielectric constant tensor:
#      x y z
#    x 3.674890 0.000000 -0.009660 
#    y 0.000000 3.519170 0.000000 
#    z -0.009660 0.000000 3.775460 
# 
# 
# High freq. dielectric constant tensor:
#      x y z
#    x 1.764910 0.000000 -0.001940 
#    y 0.000000 1.744150 0.000000 
#    z -0.001940 0.000000 1.752820 
# 
# From -- ./inp_files/338434.got.cif
#   From: 2010.06.25/outbox.cif.g09.slc.cpg/sg12_170_cif.got.tgz:338434.got - 2010.06.28 00:19:55.
