data_PCOD8102050
_publ_section_title
;
Structure prediction by ZEFSAII (Michael W. Deem and Ramdas Pophale) SiO2 
 PCOD8102050
Probable space group: C 2/M
;
_chemical_formula_sum "Si O2"
_cell_formula_units_Z 56
_cell_length_a 20.783250
_cell_length_b 9.184612
_cell_length_c 17.228538
_cell_angle_alpha 90.000000
_cell_angle_beta 118.493838
_cell_angle_gamma 90.000000
_cell_volume 2890.324226
_symmetry_space_group_name_H-M "C 2/M"
_symmetry_group_IT_number 12
_symmetry_cell_setting 'monoclinic'
loop_
_space_group_symop_operation_xyz
x,y,z
-x,y,-z
-x,-y,-z
x,-y,z
1/2+x,1/2+y,z
1/2-x,1/2+y,-z
1/2-x,1/2-y,-z
1/2+x,1/2-y,z
loop_
_atom_site_type_symbol
_atom_site_label
_atom_site_fract_x
_atom_site_fract_y
_atom_site_fract_z
Si Si1 0.558400 0.335568 0.284221
Si Si2 0.908258 0.171067 0.270923
Si Si3 0.323343 0.669510 0.514547
Si Si4 0.318593 0.333489 0.072471
Si Si5 0.091331 0.339448 0.986591
Si Si6 0.915275 0.673150 0.434845
Si Si7 0.577001 0.159141 0.145842
O O1 0.541871 0.500000 0.251765
O O2 0.482322 0.268216 0.272299
O O3 0.619806 0.318988 0.383539
O O4 0.590702 0.263217 0.225710
O O5 0.838875 0.196340 0.174128
O O6 0.893428 0.266305 0.338177
O O7 0.917445 0.000000 0.297655
O O8 0.307093 0.500000 0.484677
O O9 0.250000 0.750000 0.500000
O O10 0.359923 0.750228 0.462596
O O11 0.302946 0.500000 0.049177
O O12 0.386790 0.284320 0.060690
O O13 0.250000 0.250000 0.000000
O O14 0.126467 0.500000 0.990018
O O15 0.006007 0.353082 0.926986
O O16 0.116271 0.290237 0.088239
O O17 0.903351 0.500000 0.431525
O O18 0.000000 0.714478 0.500000
O O19 0.606393 0.000000 0.187598
#
# Coordination Sequence:
#
# PCOD8102050 Si02
#       7
#     8   8   8   8   8   8   8
#     4  10  20  36  60  88 117 151 195 246 299 359
#     4  10  21  39  62  89 119 156 205 253 305 364
#     4  11  24  43  65  89 125 165 201 251 312 372
#     4  11  23  39  59  83 115 156 199 249 304 359
#     4   9  18  34  54  80 113 148 188 234 286 343
#     4  11  23  39  65  99 128 159 206 258 309 372
#     4   9  18  32  55  84 113 146 186 236 288 340
#
# _framework density 19.37499
#
# number of rings (size 3 to 8) (size 9 to 14) (size 15 to 20)
#    0.000    1.857    2.857    2.143    0.000    4.000 
#    2.571    1.429    0.000    0.000    0.000    0.000 
#    0.000    0.000    0.000    0.000    0.000    0.000 
#
# Total GULP energy -347012.550265 kJ/mol
# GULP energy per Si atom -12393.305367 kJ/mol
# Density = 1.933089 g / cm^3
# Si number density = 19.374990 Si / 1000 Ang^3
#
#
#
# Elastic Constant Matrix: (Units=GPa)
#
#
# Indices 1 2 3 4 5 6 
#
# 1 80.2231 52.5928 38.4856 0.0000 -10.8607 0.0000
# 2 52.5928 112.2998 69.6621 0.0000 -13.9406 0.0000
# 3 38.4856 69.6621 103.0539 0.0000 -21.6099 0.0000
# 4 0.0000 0.0000 0.0000 36.0207 0.0000 -2.4023
# 5 -10.8607 -13.9406 -21.6099 0.0000 36.3832 0.0000
# 6 0.0000 0.0000 0.0000 -2.4023 0.0000 19.6994
#
#
#
# Elastic Compliance Matrix: (Units=1/GPa)
#
#
# Indices 1 2 3 4 5 6 
#
# 1 0.018273 -0.007466 -0.001409 0.000000 0.001757 0.000000
# 2 -0.007466 0.018388 -0.009860 0.000000 -0.001039 0.000000
# 3 -0.001409 -0.009860 0.018293 0.000000 0.006667 0.000000
# 4 0.000000 0.000000 0.000000 0.027989 0.000000 0.003413
# 5 0.001757 -0.001039 0.006667 0.000000 0.031571 0.000000
# 6 0.000000 0.000000 0.000000 0.003413 0.000000 0.051179
#
#
# Mechanical properties :
#
#
# Convention : Reuss Voigt Hill
#
# Bulk Modulus (GPa) = 57.19095 68.56196 62.87645
# Shear Modulus (GPa) = 23.92424 27.40975 25.66699
#
# Velocity S-wave (km/s) = 3.51778 3.76533 3.64366
# Velocity P-wave (km/s) = 6.78835 7.37341 7.08692
#
# Compressibility (1/GPa) = 0.01748528
#
# Stress axis : x y z
#
# Youngs Moduli (GPa) = 54.72410 54.38183 54.66562
#
# Poissons Ratio (x) = 0.40600 0.07703
# Poissons Ratio (y) = 0.40855 0.53901
# Poissons Ratio (z) = 0.07711 0.53621
#
# Static dielectric constant tensor:
#      x y z
#    x 0.837340 0.000000 1.068170 
#    y 0.000000 1.053750 0.000000 
#    z 1.068170 0.000000 3.038760 
# 
# 
# High freq. dielectric constant tensor:
#      x y z
#    x 1.744250 0.000000 -0.011900 
#    y 0.000000 1.754420 0.000000 
#    z -0.011900 0.000000 1.760970 
# 
# From -- ./inp_files/281647.got.cif
#   From: 2010.06.25/outbox.cif.g09.slc.cpg/sg12_141_cif.got.tgz:281647.got - 2010.06.28 00:19:55.
