data_PCOD8102024
_publ_section_title
;
Structure prediction by ZEFSAII (Michael W. Deem and Ramdas Pophale) SiO2 
 PCOD8102024
Probable space group: C 2/M
;
_chemical_formula_sum "Si O2"
_cell_formula_units_Z 56
_cell_length_a 29.085740
_cell_length_b 8.896954
_cell_length_c 12.499104
_cell_angle_alpha 90.000000
_cell_angle_beta 60.606488
_cell_angle_gamma 90.000000
_cell_volume 2818.076658
_symmetry_space_group_name_H-M "C 2/M"
_symmetry_group_IT_number 12
_symmetry_cell_setting 'monoclinic'
loop_
_space_group_symop_operation_xyz
x,y,z
-x,y,-z
-x,-y,-z
x,-y,z
1/2+x,1/2+y,z
1/2-x,1/2+y,-z
1/2-x,1/2-y,-z
1/2+x,1/2-y,z
loop_
_atom_site_type_symbol
_atom_site_label
_atom_site_fract_x
_atom_site_fract_y
_atom_site_fract_z
Si Si1 0.354499 0.822882 0.537146
Si Si2 0.058358 0.326127 0.390458
Si Si3 0.737336 0.324916 0.727073
Si Si4 0.057476 0.821694 0.960093
Si Si5 0.641379 0.674699 0.692417
Si Si6 0.598699 0.677188 0.141486
Si Si7 0.705984 0.177406 0.978649
O O1 0.398218 0.770919 0.572845
O O2 0.296515 0.765320 0.638792
O O3 0.369653 0.756310 0.405753
O O4 0.353716 0.000000 0.525386
O O5 0.068252 0.500000 0.349829
O O6 0.061645 0.222830 0.282090
O O7 0.000000 0.300385 0.500000
O O8 0.737091 0.500000 0.759895
O O9 0.701398 0.297248 0.663346
O O10 0.710640 0.232192 0.852108
O O11 0.100508 0.759472 0.826843
O O12 0.056860 0.000000 0.954007
O O13 0.071479 0.769420 0.063216
O O14 0.000000 0.754014 0.000000
O O15 0.630785 0.500000 0.685944
O O16 0.610131 0.500000 0.128740
O O17 0.652109 0.769456 0.093806
O O18 0.710399 0.000000 0.978614
O O19 0.750000 0.250000 0.000000
#
# Coordination Sequence:
#
# PCOD8102024 Si02
#       7
#     8   8   8   8   8   8   8
#     4  10  22  38  58  83 117 158 198 246 301 359
#     4  10  23  42  60  83 121 163 203 253 310 361
#     4  10  20  38  59  85 120 157 198 246 300 357
#     4   9  19  36  59  88 121 156 194 247 310 358
#     4  10  20  36  60  87 120 155 195 248 301 360
#     4  11  22  40  65  91 121 155 204 255 303 366
#     4  12  24  38  61  90 123 160 200 247 301 362
#
# _framework density 19.871708000000002
#
# number of rings (size 3 to 8) (size 9 to 14) (size 15 to 20)
#    0.000    1.714    1.429    3.000    2.000    3.143 
#    0.000    0.000    0.000    2.143    0.000    0.000 
#    0.000    0.000    0.000    0.000    0.000    0.000 
#
# Total GULP energy -347300.995498 kJ/mol
# GULP energy per Si atom -12403.606982 kJ/mol
# Density = 1.982648 g / cm^3
# Si number density = 19.871708 Si / 1000 Ang^3
#
#
#
# Elastic Constant Matrix: (Units=GPa)
#
#
# Indices 1 2 3 4 5 6 
#
# 1 124.9413 25.8915 51.1298 0.0000 -13.6205 0.0000
# 2 25.8915 62.9668 36.4484 0.0000 3.4229 0.0000
# 3 51.1298 36.4484 130.5550 0.0000 3.1359 0.0000
# 4 0.0000 0.0000 0.0000 36.2647 0.0000 3.2808
# 5 -13.6205 3.4229 3.1359 0.0000 33.8484 0.0000
# 6 0.0000 0.0000 0.0000 3.2808 0.0000 18.2350
#
#
#
# Elastic Compliance Matrix: (Units=1/GPa)
#
#
# Indices 1 2 3 4 5 6 
#
# 1 0.010493 -0.002541 -0.003515 0.000000 0.004805 0.000000
# 2 -0.002541 0.019627 -0.004422 0.000000 -0.002598 0.000000
# 3 -0.003515 -0.004422 0.010317 0.000000 -0.001923 0.000000
# 4 0.000000 0.000000 0.000000 0.028031 0.000000 -0.005043
# 5 0.004805 -0.002598 -0.001923 0.000000 0.031918 0.000000
# 6 0.000000 0.000000 0.000000 -0.005043 0.000000 0.055747
#
#
# Mechanical properties :
#
#
# Convention : Reuss Voigt Hill
#
# Bulk Modulus (GPa) = 51.33370 60.60029 55.96700
# Shear Modulus (GPa) = 27.23565 31.33582 29.28573
#
# Velocity S-wave (km/s) = 3.70614 3.97534 3.84310
# Velocity P-wave (km/s) = 6.64851 7.18561 6.92227
#
# Compressibility (1/GPa) = 0.01948038
#
# Stress axis : x y z
#
# Youngs Moduli (GPa) = 95.30443 50.95008 96.92664
#
# Poissons Ratio (x) = 0.12946 0.34073
# Poissons Ratio (y) = 0.24215 0.42861
# Poissons Ratio (z) = 0.33503 0.22530
#
# Static dielectric constant tensor:
#      x y z
#    x 3.857360 0.000000 -0.101090 
#    y 0.000000 3.471710 0.000000 
#    z -0.101090 0.000000 2.974470 
# 
# 
# High freq. dielectric constant tensor:
#      x y z
#    x 1.789510 0.000000 -0.000530 
#    y 0.000000 1.752430 0.000000 
#    z -0.000530 0.000000 1.784900 
# 
# From -- ./inp_files/180750.got.cif
#   From: 2010.06.25/outbox.cif.g09.slc.cpg/sg12_91_cif.got.tgz:180750.got - 2010.06.28 00:19:55.
