data_PCOD8102892
_publ_section_title
;
Structure prediction by ZEFSAII (Michael W. Deem and Ramdas Pophale) SiO2 
 PCOD8102892
Probable space group: C 2/M
;
_chemical_formula_sum "Si O2"
_cell_formula_units_Z 56
_cell_length_a 13.774475
_cell_length_b 25.036000
_cell_length_c 8.656842
_cell_angle_alpha 90.000000
_cell_angle_beta 67.394728
_cell_angle_gamma 90.000000
_cell_volume 2756.026918
_symmetry_space_group_name_H-M "C 2/M"
_symmetry_group_IT_number 12
_symmetry_cell_setting 'monoclinic'
loop_
_space_group_symop_operation_xyz
x,y,z
-x,y,-z
-x,-y,-z
x,-y,z
1/2+x,1/2+y,z
1/2-x,1/2+y,-z
1/2-x,1/2-y,-z
1/2+x,1/2-y,z
loop_
_atom_site_type_symbol
_atom_site_label
_atom_site_fract_x
_atom_site_fract_y
_atom_site_fract_z
Si Si1 0.512413 0.677748 0.162535
Si Si2 0.595117 0.600556 0.532951
Si Si3 0.724214 0.940953 0.403364
Si Si4 0.963938 0.390418 0.348582
Si Si5 0.224035 0.849418 0.181259
Si Si6 0.167294 0.436406 0.101735
Si Si7 0.924687 0.295080 0.176032
O O1 0.453538 0.645255 0.328384
O O2 0.636898 0.679997 0.127174
O O3 0.453128 0.734395 0.195305
O O4 0.500000 0.651490 0.000000
O O5 0.500000 0.570785 0.500000
O O6 0.656838 0.559590 0.605229
O O7 0.672268 0.628622 0.367126
O O8 0.653512 0.914080 0.580128
O O9 0.718405 0.916749 0.233742
O O10 0.680801 0.000000 0.410766
O O11 0.950981 0.328730 0.312446
O O12 0.000000 0.395544 0.500000
O O13 0.042254 0.423231 0.187816
O O14 0.306493 0.803816 0.184068
O O15 0.278559 0.900028 0.062319
O O16 0.184474 0.500000 0.056514
O O17 0.000000 0.318872 0.000000
#
# Coordination Sequence:
#
# PCOD8102892 Si02
#       7
#     8   8   8   8   8   8   8
#     4  10  24  42  62  85 119 160 204 250 305 353
#     4  10  22  40  60  86 120 157 202 255 297 353
#     4  10  20  37  61  89 121 162 203 245 298 355
#     4  10  20  37  59  91 126 156 199 246 295 365
#     4  11  22  41  62  89 128 154 202 254 295 363
#     4  10  21  38  63  91 125 163 197 241 304 363
#     4  11  22  40  61  91 121 159 200 245 307 356
#
# _framework density 20.319105
#
# number of rings (size 3 to 8) (size 9 to 14) (size 15 to 20)
#    0.000    1.714    2.857    1.286    0.000    7.143 
#    5.143    2.857    0.000    7.714    0.000    0.000 
#    0.000    0.000    0.000    0.000    0.000    0.000 
#
# Total GULP energy -346953.496935 kJ/mol
# GULP energy per Si atom -12391.196319 kJ/mol
# Density = 2.027286 g / cm^3
# Si number density = 20.319105 Si / 1000 Ang^3
#
#
#
# Elastic Constant Matrix: (Units=GPa)
#
#
# Indices 1 2 3 4 5 6 
#
# 1 111.6169 30.6428 19.3605 0.0000 -11.6566 0.0000
# 2 30.6428 73.6667 34.6280 0.0000 -1.8977 0.0000
# 3 19.3605 34.6280 99.7873 0.0000 -17.2731 0.0000
# 4 0.0000 0.0000 0.0000 20.9066 0.0000 4.4689
# 5 -11.6566 -1.8977 -17.2731 0.0000 21.6526 0.0000
# 6 0.0000 0.0000 0.0000 4.4689 0.0000 26.5646
#
#
#
# Elastic Compliance Matrix: (Units=1/GPa)
#
#
# Indices 1 2 3 4 5 6 
#
# 1 0.010724 -0.004545 0.000495 0.000000 0.005770 0.000000
# 2 -0.004545 0.018387 -0.006547 0.000000 -0.006058 0.000000
# 3 0.000495 -0.006547 0.014090 0.000000 0.010933 0.000000
# 4 0.000000 0.000000 0.000000 0.049616 0.000000 -0.008347
# 5 0.005770 -0.006058 0.010933 0.000000 0.057480 0.000000
# 6 0.000000 0.000000 0.000000 -0.008347 0.000000 0.039048
#
#
# Mechanical properties :
#
#
# Convention : Reuss Voigt Hill
#
# Bulk Modulus (GPa) = 45.44182 50.48150 47.96166
# Shear Modulus (GPa) = 22.94902 27.18741 25.06822
#
# Velocity S-wave (km/s) = 3.36435 3.66187 3.51625
# Velocity P-wave (km/s) = 6.12408 6.54044 6.33568
#
# Compressibility (1/GPa) = 0.02200616
#
# Stress axis : x y z
#
# Youngs Moduli (GPa) = 93.25245 54.38684 70.97353
#
# Poissons Ratio (x) = 0.24718 -0.03516
# Poissons Ratio (y) = 0.42382 0.46470
# Poissons Ratio (z) = -0.04619 0.35610
#
# Static dielectric constant tensor:
#      x y z
#    x 4.224660 0.000000 -0.022250 
#    y 0.000000 3.343090 0.000000 
#    z -0.022250 0.000000 3.932570 
# 
# 
# High freq. dielectric constant tensor:
#      x y z
#    x 1.811410 0.000000 0.002280 
#    y 0.000000 1.770030 0.000000 
#    z 0.002280 0.000000 1.805080 
# 
# From -- ./inp_files/65751.got.cif
#   From: 2010.06.25/outbox.cif.g09.slc.cpg/sg12_33_cif.got.tgz:65751.got - 2010.06.28 00:19:55.
