data_PCOD8102200
_publ_section_title
;
Structure prediction by ZEFSAII (Michael W. Deem and Ramdas Pophale) SiO2 
 PCOD8102200
Probable space group: C 2/M
;
_chemical_formula_sum "Si O2"
_cell_formula_units_Z 48
_cell_length_a 19.986146
_cell_length_b 12.704772
_cell_length_c 26.465577
_cell_angle_alpha 90.000000
_cell_angle_beta 20.805445
_cell_angle_gamma 90.000000
_cell_volume 2386.959884
_symmetry_space_group_name_H-M "C 2/M"
_symmetry_group_IT_number 12
_symmetry_cell_setting 'monoclinic'
loop_
_space_group_symop_operation_xyz
x,y,z
-x,y,-z
-x,-y,-z
x,-y,z
1/2+x,1/2+y,z
1/2-x,1/2+y,-z
1/2-x,1/2-y,-z
1/2+x,1/2-y,z
loop_
_atom_site_type_symbol
_atom_site_label
_atom_site_fract_x
_atom_site_fract_y
_atom_site_fract_z
Si Si1 0.832772 0.770953 0.887795
Si Si2 0.419695 0.795741 0.444422
Si Si3 0.890597 0.622887 0.356090
Si Si4 0.019964 0.380571 0.044737
Si Si5 0.816863 0.785138 0.664554
Si Si6 0.341038 0.615794 0.296272
O O1 0.932095 0.661813 0.801564
O O2 0.986488 0.862174 0.787349
O O3 0.750000 0.750000 0.000000
O O4 0.681188 0.805618 0.953552
O O5 0.293694 0.689975 0.528120
O O6 0.448728 0.857081 0.372462
O O7 0.617451 0.760791 0.328156
O O8 0.340531 0.880001 0.539980
O O9 0.850736 0.500000 0.373639
O O10 0.091058 0.500000 0.997692
O O11 0.828148 0.375330 0.214477
O O12 0.000000 0.347622 0.000000
O O13 0.684212 0.700636 0.730183
O O14 0.000000 0.820310 0.500000
O O15 0.361435 0.500000 0.257784
#
# Coordination Sequence:
#
# PCOD8102200 Si02
#       6
#     8   8   8   8   8   8
#     4  11  22  41  59  86 121 158 205 261 299 358
#     4   9  20  37  58  89 125 152 195 252 300 369
#     4  10  21  37  61  88 118 160 201 247 308 366
#     4  11  24  42  64  89 123 166 205 252 316 374
#     4  10  21  39  59  89 122 154 200 255 306 363
#     4  10  20  36  61  87 116 157 199 243 305 366
#
# _framework density 20.109262000000001
#
# number of rings (size 3 to 8) (size 9 to 14) (size 15 to 20)
#    0.000    1.833    1.667    2.000    0.000    6.000 
#    0.000    4.167    0.000    2.000    0.000    0.000 
#    0.000    0.000    0.000    0.000    0.000    0.000 
#
# Total GULP energy -297387.496410 kJ/mol
# GULP energy per Si atom -12391.145684 kJ/mol
# Density = 2.006349 g / cm^3
# Si number density = 20.109262 Si / 1000 Ang^3
#
#
#
# Elastic Constant Matrix: (Units=GPa)
#
#
# Indices 1 2 3 4 5 6 
#
# 1 123.0010 30.5984 25.4585 0.0120 -2.6530 0.0091
# 2 30.5984 105.4420 34.1918 0.0350 6.9046 0.0062
# 3 25.4585 34.1918 71.7307 0.0371 2.8186 0.0060
# 4 0.0120 0.0350 0.0371 21.4047 -0.0102 4.7183
# 5 -2.6530 6.9046 2.8186 -0.0102 37.1537 -0.0100
# 6 0.0091 0.0062 0.0060 4.7183 -0.0100 20.5943
#
#
#
# Elastic Compliance Matrix: (Units=1/GPa)
#
#
# Indices 1 2 3 4 5 6 
#
# 1 0.009131 -0.001966 -0.002351 0.000003 0.001196 -0.000003
# 2 -0.001966 0.011747 -0.004825 -0.000011 -0.001957 0.000000
# 3 -0.002351 -0.004825 0.017098 -0.000021 -0.000568 0.000002
# 4 0.000003 -0.000011 -0.000021 0.049204 0.000014 -0.011273
# 5 0.001196 -0.001957 -0.000568 0.000014 0.027407 0.000010
# 6 -0.000003 0.000000 0.000002 -0.011273 0.000010 0.051140
#
#
# Mechanical properties :
#
#
# Convention : Reuss Voigt Hill
#
# Bulk Modulus (GPa) = 50.77934 53.40790 52.09362
# Shear Modulus (GPa) = 26.23647 29.82556 28.03101
#
# Velocity S-wave (km/s) = 3.61598 3.85538 3.73759
# Velocity P-wave (km/s) = 6.53760 6.81433 6.67740
#
# Compressibility (1/GPa) = 0.01969305
#
# Stress axis : x y z
#
# Youngs Moduli (GPa) = 109.51215 85.12739 58.48780
#
# Poissons Ratio (x) = 0.16735 0.13749
# Poissons Ratio (y) = 0.21528 0.28219
# Poissons Ratio (z) = 0.25744 0.41073
#
# Static dielectric constant tensor:
#      x y z
#    x 3.726170 -0.000110 0.165150 
#    y -0.000110 3.425370 0.000250 
#    z 0.165150 0.000250 3.520010 
# 
# 
# High freq. dielectric constant tensor:
#      x y z
#    x 1.803390 0.000000 -0.000860 
#    y 0.000000 1.763560 0.000010 
#    z -0.000860 0.000010 1.782920 
# 
# From -- ./inp_files/366137.got.cif
#   From: 2010.06.25/outbox.cif.g09.slc.cpg/sg12_184_cif.got.tgz:366137.got - 2010.06.28 00:19:55.
