data_PCOD8102395
_publ_section_title
;
Structure prediction by ZEFSAII (Michael W. Deem and Ramdas Pophale) SiO2 
 PCOD8102395
Probable space group: C 2/M
;
_chemical_formula_sum "Si O2"
_cell_formula_units_Z 48
_cell_length_a 17.254690
_cell_length_b 29.934693
_cell_length_c 9.536545
_cell_angle_alpha 90.000000
_cell_angle_beta 148.907636
_cell_angle_gamma 90.000000
_cell_volume 2543.755809
_symmetry_space_group_name_H-M "C 2/M"
_symmetry_group_IT_number 12
_symmetry_cell_setting 'monoclinic'
loop_
_space_group_symop_operation_xyz
x,y,z
-x,y,-z
-x,-y,-z
x,-y,z
1/2+x,1/2+y,z
1/2-x,1/2+y,-z
1/2-x,1/2-y,-z
1/2+x,1/2-y,z
loop_
_atom_site_type_symbol
_atom_site_label
_atom_site_fract_x
_atom_site_fract_y
_atom_site_fract_z
Si Si1 0.930123 0.947432 0.038732
Si Si2 0.590552 0.303716 0.282740
Si Si3 0.079052 0.881473 0.474756
Si Si4 0.426774 0.794241 0.739761
Si Si5 0.914224 0.551980 0.508828
Si Si6 0.431805 0.119015 0.049006
O O1 0.017970 0.925542 0.303689
O O2 0.948290 0.000000 0.087178
O O3 0.757022 0.932565 0.773421
O O4 0.000000 0.931330 0.000000
O O5 0.536990 0.339015 0.314868
O O6 0.574673 0.254855 0.334434
O O7 0.761259 0.313486 0.505360
O O8 0.500000 0.310383 0.000000
O O9 0.000000 0.875145 0.500000
O O10 0.255008 0.887445 0.773341
O O11 0.523648 0.832852 0.810356
O O12 0.500000 0.782613 0.000000
O O13 0.924341 0.500000 0.563140
O O14 0.000000 0.563593 0.500000
O O15 0.993123 0.577999 0.756027
O O16 0.500000 0.120686 0.000000
#
# Coordination Sequence:
#
# PCOD8102395 Si02
#       6
#     8   8   8   8   8   8
#     4  10  22  40  61  86 114 149 198 240 275 340
#     4  10  20  36  63  85 110 154 196 231 279 343
#     4  12  24  37  56  89 124 149 184 239 296 340
#     4   9  18  37  61  85 111 145 197 235 278 328
#     4  10  22  40  59  82 115 152 188 231 287 342
#     4  11  21  38  60  84 113 148 194 237 274 338
#
# _framework density 18.869736
#
# number of rings (size 3 to 8) (size 9 to 14) (size 15 to 20)
#    0.000    1.667    3.333    2.500    2.333    1.333 
#    0.000    1.667    0.000    0.000    0.000    0.000 
#    0.000    0.000    0.000    0.000    0.000    0.000 
#
# Total GULP energy -297556.220237 kJ/mol
# GULP energy per Si atom -12398.175843 kJ/mol
# Density = 1.882679 g / cm^3
# Si number density = 18.869736 Si / 1000 Ang^3
#
#
#
# Elastic Constant Matrix: (Units=GPa)
#
#
# Indices 1 2 3 4 5 6 
#
# 1 116.7021 46.1116 63.2123 0.0000 13.8320 0.0000
# 2 46.1116 94.2880 56.1833 0.0000 -1.8929 0.0000
# 3 63.2123 56.1833 134.8097 0.0000 22.1223 0.0000
# 4 0.0000 0.0000 0.0000 70.2808 0.0000 2.6284
# 5 13.8320 -1.8929 22.1223 0.0000 33.0996 0.0000
# 6 0.0000 0.0000 0.0000 2.6284 0.0000 8.9747
#
#
#
# Elastic Compliance Matrix: (Units=1/GPa)
#
#
# Indices 1 2 3 4 5 6 
#
# 1 0.012500 -0.003950 -0.003730 0.000000 -0.002957 0.000000
# 2 -0.003950 0.016245 -0.005999 0.000000 0.006589 0.000000
# 3 -0.003730 -0.005999 0.012880 0.000000 -0.007393 0.000000
# 4 0.000000 0.000000 0.000000 0.014386 0.000000 -0.004213
# 5 -0.002957 0.006589 -0.007393 0.000000 0.036765 0.000000
# 6 0.000000 0.000000 0.000000 -0.004213 0.000000 0.112658
#
#
# Mechanical properties :
#
#
# Convention : Reuss Voigt Hill
#
# Bulk Modulus (GPa) = 70.09336 75.20159 72.64748
# Shear Modulus (GPa) = 21.04825 34.49052 27.76939
#
# Velocity S-wave (km/s) = 3.34346 4.27994 3.84035
# Velocity P-wave (km/s) = 7.22022 8.02268 7.63200
#
# Compressibility (1/GPa) = 0.01426669
#
# Stress axis : x y z
#
# Youngs Moduli (GPa) = 79.99737 61.55882 77.63803
#
# Poissons Ratio (x) = 0.24316 0.28959
# Poissons Ratio (y) = 0.31600 0.46577
# Poissons Ratio (z) = 0.29839 0.36930
#
# Static dielectric constant tensor:
#      x y z
#    x 7.896200 0.000000 1.456930 
#    y 0.000000 3.789500 0.000000 
#    z 1.456930 0.000000 3.813020 
# 
# 
# High freq. dielectric constant tensor:
#      x y z
#    x 1.706660 0.000000 0.017180 
#    y 0.000000 1.751090 0.000000 
#    z 0.017180 0.000000 1.748550 
# 
# From -- ./inp_files/80803.got.cif
#   From: 2010.06.25/outbox.cif.g09.slc.cpg/sg12_41_cif.got.tgz:80803.got - 2010.06.28 00:19:55.
