data_PCOD8102178
_publ_section_title
;
Structure prediction by ZEFSAII (Michael W. Deem and Ramdas Pophale) SiO2 
 PCOD8102178
Probable space group: C 2/M
;
_chemical_formula_sum "Si O2"
_cell_formula_units_Z 44
_cell_length_a 11.875479
_cell_length_b 24.074214
_cell_length_c 8.167728
_cell_angle_alpha 90.000000
_cell_angle_beta 98.055589
_cell_angle_gamma 90.000000
_cell_volume 2312.053442
_symmetry_space_group_name_H-M "C 2/M"
_symmetry_group_IT_number 12
_symmetry_cell_setting 'monoclinic'
loop_
_space_group_symop_operation_xyz
x,y,z
-x,y,-z
-x,-y,-z
x,-y,z
1/2+x,1/2+y,z
1/2-x,1/2+y,-z
1/2-x,1/2-y,-z
1/2+x,1/2-y,z
loop_
_atom_site_type_symbol
_atom_site_label
_atom_site_fract_x
_atom_site_fract_y
_atom_site_fract_z
Si Si1 0.628648 0.204737 0.308635
Si Si2 0.817514 0.000000 0.895018
Si Si3 0.000000 0.377962 0.500000
Si Si4 0.332656 0.895387 0.221267
Si Si5 0.180699 0.175431 0.412771
Si Si6 0.500000 0.841784 0.000000
Si Si7 0.500000 0.408249 0.500000
Si Si8 0.950911 0.000000 0.249428
O O1 0.537105 0.164426 0.368092
O O2 0.752606 0.185576 0.401233
O O3 0.612651 0.269194 0.349521
O O4 0.595953 0.196412 0.110997
O O5 0.745793 0.055292 0.855071
O O6 0.921129 0.000000 0.791236
O O7 0.857979 0.000000 0.089695
O O8 0.096408 0.416320 0.603188
O O9 0.261151 0.842278 0.275944
O O10 0.420431 0.880484 0.096058
O O11 0.089551 0.127799 0.419204
O O12 0.431603 0.445693 0.356068
#
# Coordination Sequence:
#
# PCOD8102178 Si02
#       8
#     8   4   4   8   8   4   4   4
#     4   9  19  36  57  87 117 149 188 232 282 343
#     4  11  22  42  58  85 120 148 188 251 290 332
#     4   8  17  37  59  82 117 149 189 236 280 340
#     4  10  21  38  59  83 115 156 187 241 287 334
#     4  10  20  36  61  84 115 155 189 226 283 348
#     4  10  22  39  58  86 120 147 192 242 286 336
#     4  11  21  40  61  88 105 158 197 227 282 354
#     4  10  24  40  60  85 116 151 194 242 282 341
#
# _framework density 19.030702999999999
#
# number of rings (size 3 to 8) (size 9 to 14) (size 15 to 20)
#    0.000    2.182    1.818    0.545    2.545    2.909 
#    3.273    0.000    0.000    0.000    0.000    0.000 
#    0.000    0.000    0.000    0.000    0.000    0.000 
#
# Total GULP energy -272561.378207 kJ/mol
# GULP energy per Si atom -12389.153555 kJ/mol
# Density = 1.898739 g / cm^3
# Si number density = 19.030703 Si / 1000 Ang^3
#
#
#
# Elastic Constant Matrix: (Units=GPa)
#
#
# Indices 1 2 3 4 5 6 
#
# 1 79.2730 39.8480 44.0854 0.0000 5.9972 0.0000
# 2 39.8480 105.0724 58.7329 0.0000 20.3372 0.0000
# 3 44.0854 58.7329 118.1188 0.0000 18.7325 0.0000
# 4 0.0000 0.0000 0.0000 10.5981 0.0000 2.0297
# 5 5.9972 20.3372 18.7325 0.0000 34.8252 0.0000
# 6 0.0000 0.0000 0.0000 2.0297 0.0000 36.5612
#
#
#
# Elastic Compliance Matrix: (Units=1/GPa)
#
#
# Indices 1 2 3 4 5 6 
#
# 1 0.017195 -0.004360 -0.004574 0.000000 0.002046 0.000000
# 2 -0.004360 0.014984 -0.004979 0.000000 -0.005321 0.000000
# 3 -0.004574 -0.004979 0.013188 0.000000 -0.003398 0.000000
# 4 0.000000 0.000000 0.000000 0.095370 0.000000 -0.005294
# 5 0.002046 -0.005321 -0.003398 0.000000 0.033298 0.000000
# 6 0.000000 0.000000 0.000000 -0.005294 0.000000 0.027645
#
#
# Mechanical properties :
#
#
# Convention : Reuss Voigt Hill
#
# Bulk Modulus (GPa) = 57.01248 65.31075 61.16161
# Shear Modulus (GPa) = 21.24445 27.05010 24.14728
#
# Velocity S-wave (km/s) = 3.34477 3.77423 3.56597
# Velocity P-wave (km/s) = 6.70372 7.30658 7.01163
#
# Compressibility (1/GPa) = 0.01754002
#
# Stress axis : x y z
#
# Youngs Moduli (GPa) = 58.15479 66.73714 75.82581
#
# Poissons Ratio (x) = 0.29100 0.34684
# Poissons Ratio (y) = 0.25358 0.37756
# Poissons Ratio (z) = 0.26601 0.33231
#
# Static dielectric constant tensor:
#      x y z
#    x 3.654350 0.000000 0.526840 
#    y 0.000000 3.366010 0.000000 
#    z 0.526840 0.000000 4.494370 
# 
# 
# High freq. dielectric constant tensor:
#      x y z
#    x 1.739150 0.000000 0.011000 
#    y 0.000000 1.730850 0.000000 
#    z 0.011000 0.000000 1.748660 
# 
# From -- ./inp_files/49447.got.cif
#   From: 2010.06.25/outbox.cif.g09.slc.cpg/sg12_25_cif.got.tgz:49447.got - 2010.06.28 00:19:55.
