data_PCOD8102071
_publ_section_title
;
Structure prediction by ZEFSAII (Michael W. Deem and Ramdas Pophale) SiO2 
 PCOD8102071
Probable space group: C 2/M
;
_chemical_formula_sum "Si O2"
_cell_formula_units_Z 56
_cell_length_a 10.806594
_cell_length_b 28.515378
_cell_length_c 9.814005
_cell_angle_alpha 90.000000
_cell_angle_beta 69.838830
_cell_angle_gamma 90.000000
_cell_volume 2838.922059
_symmetry_space_group_name_H-M "C 2/M"
_symmetry_group_IT_number 12
_symmetry_cell_setting 'monoclinic'
loop_
_space_group_symop_operation_xyz
x,y,z
-x,y,-z
-x,-y,-z
x,-y,z
1/2+x,1/2+y,z
1/2-x,1/2+y,-z
1/2-x,1/2-y,-z
1/2+x,1/2-y,z
loop_
_atom_site_type_symbol
_atom_site_label
_atom_site_fract_x
_atom_site_fract_y
_atom_site_fract_z
Si Si1 0.397379 0.449343 0.858492
Si Si2 0.740124 0.092951 0.675011
Si Si3 0.127850 0.909296 0.650048
Si Si4 0.366724 0.287712 0.962401
Si Si5 0.779136 0.114321 0.105060
Si Si6 0.526188 0.946873 0.146902
Si Si7 0.925804 0.828436 0.655213
O O1 0.356968 0.500000 0.932371
O O2 0.296271 0.437638 0.776427
O O3 0.546568 0.452675 0.743802
O O4 0.397756 0.412071 0.981628
O O5 0.788933 0.073842 0.510223
O O6 0.584433 0.083983 0.734130
O O7 0.782155 0.148376 0.673006
O O8 0.218253 0.886446 0.732442
O O9 0.015904 0.872769 0.651510
O O10 0.414918 0.294499 0.788362
O O11 0.500000 0.274834 0.000000
O O12 0.250000 0.250000 0.000000
O O13 0.290349 0.332271 0.052218
O O14 0.651672 0.086353 0.107222
O O15 0.542476 0.000000 0.204076
O O16 0.500000 0.953597 0.000000
O O17 0.000000 0.801870 0.500000
#
# Coordination Sequence:
#
# PCOD8102071 Si02
#       7
#     8   8   8   8   8   8   8
#     4  11  20  34  58  87 120 163 209 251 301 362
#     4  10  20  36  60  88 120 166 209 251 303 368
#     4  10  21  36  60  87 120 163 200 259 314 354
#     4  12  24  43  70  99 127 163 210 271 333 391
#     4  12  22  40  62  85 124 163 209 256 313 378
#     4  11  22  37  58  84 124 171 212 256 307 368
#     4   9  18  39  68  91 121 160 201 253 319 376
#
# _framework density 19.725798000000001
#
# number of rings (size 3 to 8) (size 9 to 14) (size 15 to 20)
#    0.000    1.286    5.714    2.571    0.000    5.714 
#    0.000    1.429    3.143    0.000    0.000    0.000 
#    0.000    0.000    0.000    0.000    0.000    0.000 
#
# Total GULP energy -346865.434850 kJ/mol
# GULP energy per Si atom -12388.051245 kJ/mol
# Density = 1.968090 g / cm^3
# Si number density = 19.725798 Si / 1000 Ang^3
#
#
#
# Elastic Constant Matrix: (Units=GPa)
#
#
# Indices 1 2 3 4 5 6 
#
# 1 95.9731 42.9706 40.3861 0.0000 -6.7744 0.0000
# 2 42.9706 92.8955 31.5591 0.0000 -3.2263 0.0000
# 3 40.3861 31.5591 112.8939 0.0000 -5.4503 0.0000
# 4 0.0000 0.0000 0.0000 15.4876 0.0000 -6.2805
# 5 -6.7744 -3.2263 -5.4503 0.0000 31.8528 0.0000
# 6 0.0000 0.0000 0.0000 -6.2805 0.0000 26.4038
#
#
#
# Elastic Compliance Matrix: (Units=1/GPa)
#
#
# Indices 1 2 3 4 5 6 
#
# 1 0.014486 -0.005420 -0.003574 0.000000 0.001920 0.000000
# 2 -0.005420 0.013935 -0.001960 0.000000 -0.000077 0.000000
# 3 -0.003574 -0.001960 0.010727 0.000000 0.000877 0.000000
# 4 0.000000 0.000000 0.000000 0.071461 0.000000 0.016998
# 5 0.001920 -0.000077 0.000877 0.000000 0.031945 0.000000
# 6 0.000000 0.000000 0.000000 0.016998 0.000000 0.041917
#
#
# Mechanical properties :
#
#
# Convention : Reuss Voigt Hill
#
# Bulk Modulus (GPa) = 58.00809 59.06600 58.53704
# Shear Modulus (GPa) = 23.57098 27.20528 25.38813
#
# Velocity S-wave (km/s) = 3.46053 3.71775 3.59144
# Velocity P-wave (km/s) = 6.74078 6.95970 6.85111
#
# Compressibility (1/GPa) = 0.01723898
#
# Stress axis : x y z
#
# Youngs Moduli (GPa) = 69.03293 71.76113 93.22370
#
# Poissons Ratio (x) = 0.38893 0.33321
# Poissons Ratio (y) = 0.37414 0.18275
# Poissons Ratio (z) = 0.24675 0.14068
#
# Static dielectric constant tensor:
#      x y z
#    x 5.984810 0.000000 4.871760 
#    y 0.000000 3.315220 0.000000 
#    z 4.871760 0.000000 15.334310 
# 
# 
# High freq. dielectric constant tensor:
#      x y z
#    x 1.764070 0.000000 -0.002120 
#    y 0.000000 1.733900 0.000000 
#    z -0.002120 0.000000 1.783510 
# 
# From -- ./inp_files/53201.got.cif
#   From: 2010.06.25/outbox.cif.g09.slc.cpg/sg12_27_cif.got.tgz:53201.got - 2010.06.28 00:19:55.
