data_PCOD8102596
_publ_section_title
;
Structure prediction by ZEFSAII (Michael W. Deem and Ramdas Pophale) SiO2 
 PCOD8102596
Probable space group: C 2/M
;
_chemical_formula_sum "Si O2"
_cell_formula_units_Z 44
_cell_length_a 12.934587
_cell_length_b 18.314778
_cell_length_c 15.970670
_cell_angle_alpha 90.000000
_cell_angle_beta 36.036320
_cell_angle_gamma 90.000000
_cell_volume 2225.741446
_symmetry_space_group_name_H-M "C 2/M"
_symmetry_group_IT_number 12
_symmetry_cell_setting 'monoclinic'
loop_
_space_group_symop_operation_xyz
x,y,z
-x,y,-z
-x,-y,-z
x,-y,z
1/2+x,1/2+y,z
1/2-x,1/2+y,-z
1/2-x,1/2-y,-z
1/2+x,1/2-y,z
loop_
_atom_site_type_symbol
_atom_site_label
_atom_site_fract_x
_atom_site_fract_y
_atom_site_fract_z
Si Si1 0.976976 0.000000 0.803952
Si Si2 0.238952 0.132101 0.622368
Si Si3 0.596506 0.868016 0.308412
Si Si4 0.377877 0.000000 0.002169
Si Si5 0.955887 0.241232 0.784469
Si Si6 0.403585 0.838307 0.973723
Si Si7 0.305686 0.500000 0.091471
O O1 0.827955 0.000000 0.829059
O O2 0.099485 0.068792 0.724943
O O3 0.831373 0.000000 0.975318
O O4 0.306357 0.152849 0.669931
O O5 0.397689 0.105697 0.458876
O O6 0.140606 0.200987 0.645575
O O7 0.592082 0.794964 0.258434
O O8 0.699658 0.929618 0.190757
O O9 0.420599 0.077839 0.928474
O O10 0.500000 0.000000 0.000000
O O11 0.803305 0.180625 0.886976
O O12 0.986523 0.283866 0.851540
O O13 0.500000 0.826805 0.000000
O O14 0.500000 0.500000 0.000000
#
# Coordination Sequence:
#
# PCOD8102596 Si02
#       7
#     4   8   8   4   8   8   4
#     4  12  21  40  65  91 120 155 210 242 318 352
#     4  11  23  40  61  87 125 169 197 252 300 377
#     4  11  24  40  59  91 127 158 208 245 313 360
#     4  10  20  37  57  85 115 150 192 253 291 350
#     4  11  22  37  59  88 123 163 198 249 306 364
#     4  10  21  36  59  90 119 152 205 254 302 349
#     4  12  23  37  65  94 119 158 200 268 301 363
#
# _framework density 19.768692000000001
#
# number of rings (size 3 to 8) (size 9 to 14) (size 15 to 20)
#    0.000    1.091    3.636    3.273    2.545    2.182 
#    0.000    0.000    0.000    0.000    0.000    3.818 
#    0.000    0.000    0.000    0.000    0.000    0.000 
#
# Total GULP energy -272644.146681 kJ/mol
# GULP energy per Si atom -12392.915758 kJ/mol
# Density = 1.972370 g / cm^3
# Si number density = 19.768692 Si / 1000 Ang^3
#
#
#
# Elastic Constant Matrix: (Units=GPa)
#
#
# Indices 1 2 3 4 5 6 
#
# 1 97.9906 53.3876 40.1124 0.0001 -18.6621 0.0024
# 2 53.3876 136.9660 57.6031 -0.0102 -10.6851 -0.0004
# 3 40.1124 57.6031 123.5371 -0.0162 -17.0604 -0.0014
# 4 0.0001 -0.0102 -0.0162 29.8365 0.0054 -12.6347
# 5 -18.6621 -10.6851 -17.0604 0.0054 30.4501 -0.0005
# 6 0.0024 -0.0004 -0.0014 -12.6347 -0.0005 29.3312
#
#
#
# Elastic Compliance Matrix: (Units=1/GPa)
#
#
# Indices 1 2 3 4 5 6 
#
# 1 0.014561 -0.004429 -0.001783 -0.000005 0.006371 -0.000003
# 2 -0.004429 0.010451 -0.003581 0.000002 -0.001053 0.000001
# 3 -0.001783 -0.003581 0.010859 0.000005 0.003735 0.000003
# 4 -0.000005 0.000002 0.000005 0.040994 -0.000006 0.017658
# 5 0.006371 -0.001053 0.003735 -0.000006 0.038468 -0.000003
# 6 -0.000003 0.000001 0.000003 0.017658 -0.000003 0.041700
#
#
# Mechanical properties :
#
#
# Convention : Reuss Voigt Hill
#
# Bulk Modulus (GPa) = 61.40089 73.41110 67.40599
# Shear Modulus (GPa) = 27.46542 31.74959 29.60750
#
# Velocity S-wave (km/s) = 3.73143 4.01191 3.87421
# Velocity P-wave (km/s) = 7.04924 7.66004 7.36098
#
# Compressibility (1/GPa) = 0.01628641
#
# Stress axis : x y z
#
# Youngs Moduli (GPa) = 68.67524 95.68377 92.08948
#
# Poissons Ratio (x) = 0.42377 0.16420
# Poissons Ratio (y) = 0.30415 0.32973
# Poissons Ratio (z) = 0.12245 0.34260
#
# Static dielectric constant tensor:
#      x y z
#    x 3.931180 -0.000060 -0.092730 
#    y -0.000060 4.144190 0.000100 
#    z -0.092730 0.000100 3.493100 
# 
# 
# High freq. dielectric constant tensor:
#      x y z
#    x 1.784920 0.000000 -0.022710 
#    y 0.000000 1.786700 0.000000 
#    z -0.022710 0.000000 1.756520 
# 
# From -- ./inp_files/61178.got.cif
#   From: 2010.06.25/outbox.cif.g09.slc.cpg/sg12_31_cif.got.tgz:61178.got - 2010.06.28 00:19:55.
