data_PCOD8102287
_publ_section_title
;
Structure prediction by ZEFSAII (Michael W. Deem and Ramdas Pophale) SiO2 
 PCOD8102287
Probable space group: C 2/M
;
_chemical_formula_sum "Si O2"
_cell_formula_units_Z 60
_cell_length_a 8.439598
_cell_length_b 31.461008
_cell_length_c 11.462184
_cell_angle_alpha 90.000000
_cell_angle_beta 74.445683
_cell_angle_gamma 90.000000
_cell_volume 2931.959026
_symmetry_space_group_name_H-M "C 2/M"
_symmetry_group_IT_number 12
_symmetry_cell_setting 'monoclinic'
loop_
_space_group_symop_operation_xyz
x,y,z
-x,y,-z
-x,-y,-z
x,-y,z
1/2+x,1/2+y,z
1/2-x,1/2+y,-z
1/2-x,1/2-y,-z
1/2+x,1/2-y,z
loop_
_atom_site_type_symbol
_atom_site_label
_atom_site_fract_x
_atom_site_fract_y
_atom_site_fract_z
Si Si1 0.540540 0.450242 0.732296
Si Si2 0.121866 0.120027 0.871916
Si Si3 0.500000 0.672854 0.500000
Si Si4 0.181054 0.546002 0.511429
Si Si5 0.525079 0.152555 0.128962
Si Si6 0.269067 0.609109 0.680567
Si Si7 0.433361 0.302720 0.268804
Si Si8 0.320490 0.761068 0.858744
O O1 0.504175 0.500000 0.758597
O O2 0.601300 0.429479 0.842136
O O3 0.683723 0.441719 0.611111
O O4 0.375694 0.425492 0.729224
O O5 0.310245 0.128221 0.865558
O O6 0.067135 0.147974 0.769931
O O7 0.000000 0.133164 0.000000
O O8 0.371970 0.644742 0.595198
O O9 0.593259 0.700235 0.584200
O O10 0.233717 0.500000 0.554262
O O11 0.167750 0.582611 0.607329
O O12 0.000000 0.541608 0.500000
O O13 0.363345 0.133161 0.216728
O O14 0.539939 0.202659 0.155070
O O15 0.500000 0.144906 0.000000
O O16 0.609854 0.282461 0.206595
O O17 0.306271 0.277212 0.213471
O O18 0.250000 0.750000 0.000000
#
# Coordination Sequence:
#
# PCOD8102287 Si02
#       8
#     8   8   4   8   8   8   8   8
#     4  11  22  39  64  94 128 177 235 284 342 404
#     4  11  22  42  67  94 130 171 223 282 348 405
#     4  12  26  40  67  92 138 184 214 276 339 406
#     4  10  20  36  61  92 127 173 229 285 337 403
#     4  11  25  41  67 102 128 174 224 280 342 407
#     4  12  22  41  64  91 137 175 230 273 343 409
#     4  11  24  42  65  96 130 175 218 270 339 400
#     4  11  24  44  71  99 131 169 229 282 327 398
#
# _framework density 20.464133
#
# number of rings (size 3 to 8) (size 9 to 14) (size 15 to 20)
#    0.000    0.933    2.667    4.800    3.733    2.933 
#    0.000    0.667    0.000    2.800    0.000    0.000 
#    0.000    0.000    0.000    0.000    0.000    0.000 
#
# Total GULP energy -371856.400115 kJ/mol
# GULP energy per Si atom -12395.213337 kJ/mol
# Density = 2.041756 g / cm^3
# Si number density = 20.464133 Si / 1000 Ang^3
#
#
#
# Elastic Constant Matrix: (Units=GPa)
#
#
# Indices 1 2 3 4 5 6 
#
# 1 97.1324 61.8830 66.3939 0.0000 -4.0821 0.0000
# 2 61.8830 109.2343 47.5676 0.0000 7.7430 0.0000
# 3 66.3939 47.5676 128.0584 0.0000 14.3546 0.0000
# 4 0.0000 0.0000 0.0000 -19.6819 0.0000 -50.2657
# 5 -4.0821 7.7430 14.3546 0.0000 41.2235 0.0000
# 6 0.0000 0.0000 0.0000 -50.2657 0.0000 2.0427
#
#
#
# Elastic Compliance Matrix: (Units=1/GPa)
#
#
# Indices 1 2 3 4 5 6 
#
# 1 0.022922 -0.009509 -0.009165 0.000000 0.007247 0.000000
# 2 -0.009509 0.014883 -0.000187 0.000000 -0.003672 0.000000
# 3 -0.009165 -0.000187 0.013245 0.000000 -0.005484 0.000000
# 4 0.000000 0.000000 0.000000 -0.000796 0.000000 -0.019583
# 5 0.007247 -0.003672 -0.005484 0.000000 0.027575 0.000000
# 6 0.000000 0.000000 0.000000 -0.019583 0.000000 0.007668
#
#
# Mechanical properties :
#
#
# Convention : Reuss Voigt Hill
#
# Bulk Modulus (GPa) = 75.02106 76.23489 75.62797
# Shear Modulus (GPa) = 39.16633 15.28890 27.22762
#
# Velocity S-wave (km/s) = 4.37956 2.73629 3.65156
# Velocity P-wave (km/s) = 7.89389 6.87872 7.40373
#
# Compressibility (1/GPa) = 0.01332959
#
# Stress axis : x y z
#
# Youngs Moduli (GPa) = 43.62585 67.19044 75.50172
#
# Poissons Ratio (x) = 0.63889 0.69195
# Poissons Ratio (y) = 0.41482 0.01411
# Poissons Ratio (z) = 0.39982 0.01255
#
# Static dielectric constant tensor:
#      x y z
#    x 3.852730 0.000000 0.105730 
#    y 0.000000 4.161570 0.000000 
#    z 0.105730 0.000000 3.611190 
# 
# 
# High freq. dielectric constant tensor:
#      x y z
#    x 1.813720 0.000000 0.008740 
#    y 0.000000 1.811740 0.000000 
#    z 0.008740 0.000000 1.794940 
# 
# From -- ./inp_files/125713.got.cif
#   From: 2010.06.25/outbox.cif.g09.slc.cpg/sg12_63_cif.got.tgz:125713.got - 2010.06.28 00:19:55.
