data_PCOD8102998
_publ_section_title
;
Structure prediction by ZEFSAII (Michael W. Deem and Ramdas Pophale) SiO2 
 PCOD8102998
Probable space group: C 2/M
;
_chemical_formula_sum "Si O2"
_cell_formula_units_Z 48
_cell_length_a 19.967862
_cell_length_b 9.142620
_cell_length_c 24.126612
_cell_angle_alpha 90.000000
_cell_angle_beta 145.509702
_cell_angle_gamma 90.000000
_cell_volume 2494.132848
_symmetry_space_group_name_H-M "C 2/M"
_symmetry_group_IT_number 12
_symmetry_cell_setting 'monoclinic'
loop_
_space_group_symop_operation_xyz
x,y,z
-x,y,-z
-x,-y,-z
x,-y,z
1/2+x,1/2+y,z
1/2-x,1/2+y,-z
1/2-x,1/2-y,-z
1/2+x,1/2-y,z
loop_
_atom_site_type_symbol
_atom_site_label
_atom_site_fract_x
_atom_site_fract_y
_atom_site_fract_z
Si Si1 0.869477 0.672284 0.919562
Si Si2 0.192707 0.169112 0.706398
Si Si3 0.040188 0.329977 0.423799
Si Si4 0.506790 0.168340 0.273333
Si Si5 0.246491 0.333156 0.376406
Si Si6 0.221171 0.171801 0.923475
O O1 0.875992 0.500000 0.913988
O O2 0.778540 0.737213 0.812041
O O3 0.824654 0.710662 0.950459
O O4 0.000000 0.741354 0.000000
O O5 0.256476 0.191030 0.691335
O O6 0.069063 0.252576 0.620855
O O7 0.165144 0.000000 0.699966
O O8 0.029866 0.500000 0.429602
O O9 0.042245 0.296305 0.360193
O O10 0.161380 0.272752 0.531743
O O11 0.616670 0.206106 0.309251
O O12 0.402112 0.274646 0.184891
O O13 0.466753 0.000000 0.238884
O O14 0.280135 0.500000 0.414412
O O15 0.213606 0.000000 0.928820
O O16 0.250000 0.250000 0.000000
#
# Coordination Sequence:
#
# PCOD8102998 Si02
#       6
#     8   8   8   8   8   8
#     4   9  19  36  61  88 111 145 193 239 281 331
#     4  10  20  37  60  85 113 149 197 241 280 337
#     4  11  22  37  58  84 120 155 188 238 295 347
#     4  10  22  40  60  85 117 153 193 239 287 338
#     4  10  22  37  59  86 114 153 200 243 277 333
#     4  11  23  39  63  89 117 151 188 237 288 344
#
# _framework density 19.245165
#
# number of rings (size 3 to 8) (size 9 to 14) (size 15 to 20)
#    0.000    1.833    1.667    2.000    2.333    4.000 
#    0.000    0.000    0.000    2.500    0.000    0.000 
#    0.000    0.000    0.000    0.000    0.000    0.000 
#
# Total GULP energy -297709.161988 kJ/mol
# GULP energy per Si atom -12404.548416 kJ/mol
# Density = 1.920136 g / cm^3
# Si number density = 19.245165 Si / 1000 Ang^3
#
#
#
# Elastic Constant Matrix: (Units=GPa)
#
#
# Indices 1 2 3 4 5 6 
#
# 1 128.4211 54.6762 49.6809 0.0000 11.8076 0.0000
# 2 54.6762 77.3080 54.2943 0.0000 0.5439 0.0001
# 3 49.6809 54.2943 97.2163 0.0000 -0.0824 0.0000
# 4 0.0000 0.0000 0.0000 30.4827 0.0000 -5.1950
# 5 11.8076 0.5439 -0.0824 0.0000 35.1832 0.0000
# 6 0.0000 0.0001 0.0000 -5.1950 0.0000 25.5428
#
#
#
# Elastic Compliance Matrix: (Units=1/GPa)
#
#
# Indices 1 2 3 4 5 6 
#
# 1 0.011929 -0.006788 -0.002308 0.000000 -0.003904 0.000000
# 2 -0.006788 0.025151 -0.010576 0.000000 0.001865 0.000000
# 3 -0.002308 -0.010576 0.017373 0.000000 0.000979 0.000000
# 4 0.000000 0.000000 0.000000 0.033983 0.000000 0.006912
# 5 -0.003904 0.001865 0.000979 0.000000 0.029706 0.000000
# 6 0.000000 0.000000 0.000000 0.006912 0.000000 0.040556
#
#
# Mechanical properties :
#
#
# Convention : Reuss Voigt Hill
#
# Bulk Modulus (GPa) = 66.18872 68.91647 67.55259
# Shear Modulus (GPa) = 24.62099 27.86133 26.24116
#
# Velocity S-wave (km/s) = 3.58066 3.80900 3.69659
# Velocity P-wave (km/s) = 7.18066 7.43183 7.30733
#
# Compressibility (1/GPa) = 0.01510832
#
# Stress axis : x y z
#
# Youngs Moduli (GPa) = 83.82995 39.76048 57.55972
#
# Poissons Ratio (x) = 0.26990 0.13286
# Poissons Ratio (y) = 0.56905 0.60874
# Poissons Ratio (z) = 0.19350 0.42050
#
# Static dielectric constant tensor:
#      x y z
#    x 3.777570 0.000000 -0.099120 
#    y 0.000000 3.403050 0.000000 
#    z -0.099120 0.000000 3.837730 
# 
# 
# High freq. dielectric constant tensor:
#      x y z
#    x 1.767320 0.000000 -0.001370 
#    y 0.000000 1.730240 0.000000 
#    z -0.001370 0.000000 1.755320 
# 
# From -- ./inp_files/365342.got.cif
#   From: 2010.06.25/outbox.cif.g09.slc.cpg/sg12_183_cif.got.tgz:365342.got - 2010.06.28 00:19:55.
