data_PCOD8102693
_publ_section_title
;
Structure prediction by ZEFSAII (Michael W. Deem and Ramdas Pophale) SiO2 
 PCOD8102693
Probable space group: C 2/M
;
_chemical_formula_sum "Si O2"
_cell_formula_units_Z 64
_cell_length_a 22.611814
_cell_length_b 17.736840
_cell_length_c 15.396617
_cell_angle_alpha 90.000000
_cell_angle_beta 33.189189
_cell_angle_gamma 90.000000
_cell_volume 3380.227872
_symmetry_space_group_name_H-M "C 2/M"
_symmetry_group_IT_number 12
_symmetry_cell_setting 'monoclinic'
loop_
_space_group_symop_operation_xyz
x,y,z
-x,y,-z
-x,-y,-z
x,-y,z
1/2+x,1/2+y,z
1/2-x,1/2+y,-z
1/2-x,1/2-y,-z
1/2+x,1/2-y,z
loop_
_atom_site_type_symbol
_atom_site_label
_atom_site_fract_x
_atom_site_fract_y
_atom_site_fract_z
Si Si1 0.733631 0.804464 0.240374
Si Si2 0.575328 0.584390 0.761073
Si Si3 0.224724 0.334285 0.058264
Si Si4 0.453548 0.717045 0.468895
Si Si5 0.700900 0.914534 0.436154
Si Si6 0.973961 0.235128 0.939099
Si Si7 0.550556 0.414257 0.260231
Si Si8 0.504555 0.173572 0.255043
O O1 0.687759 0.835746 0.205012
O O2 0.673309 0.733654 0.361388
O O3 0.735810 0.872532 0.305552
O O4 0.848632 0.771653 0.075310
O O5 0.542788 0.500000 0.835646
O O6 0.705267 0.593748 0.606534
O O7 0.524727 0.651289 0.879659
O O8 0.533682 0.594050 0.714835
O O9 0.123371 0.363871 0.123721
O O10 0.250000 0.250000 0.000000
O O11 0.330192 0.385230 0.911802
O O12 0.500000 0.752564 0.500000
O O13 0.492820 0.630719 0.410230
O O14 0.500651 0.758074 0.327381
O O15 0.588912 0.886451 0.613941
O O16 0.683506 0.000000 0.429470
O O17 0.018682 0.291109 0.810804
O O18 0.000000 0.272727 0.000000
O O19 0.562710 0.500000 0.275804
#
# Coordination Sequence:
#
# PCOD8102693 Si02
#       8
#     8   8   8   8   8   8   8   8
#     4  11  21  33  59  89 116 151 194 245 294 359
#     4  10  20  37  58  83 123 160 191 242 306 355
#     4  12  19  38  61  86 120 158 198 236 309 357
#     4  11  20  36  59  86 116 157 193 237 298 354
#     4  10  24  40  58  86 123 165 199 239 302 363
#     4  12  22  37  58  97 117 149 204 253 296 350
#     4  11  23  37  60  90 119 156 202 249 299 356
#     4  11  23  39  63  86 124 160 197 246 295 366
#
# _framework density 18.933634999999999
#
# number of rings (size 3 to 8) (size 9 to 14) (size 15 to 20)
#    0.000    1.000    7.500    0.000    0.000    3.500 
#    0.000    0.625    0.000    0.375    0.000    0.000 
#    0.000    0.000    0.000    0.000    0.000    0.000 
#
# Total GULP energy -396606.736209 kJ/mol
# GULP energy per Si atom -12393.960507 kJ/mol
# Density = 1.889054 g / cm^3
# Si number density = 18.933635 Si / 1000 Ang^3
#
#
#
# Elastic Constant Matrix: (Units=GPa)
#
#
# Indices 1 2 3 4 5 6 
#
# 1 103.8362 24.8973 31.6028 0.0000 1.1444 0.0000
# 2 24.8973 87.5973 50.6518 0.0000 -0.3756 0.0000
# 3 31.6028 50.6518 99.0337 0.0000 -9.1808 0.0000
# 4 0.0000 0.0000 0.0000 25.6079 0.0000 -7.9424
# 5 1.1444 -0.3756 -9.1808 0.0000 36.2542 0.0000
# 6 0.0000 0.0000 0.0000 -7.9424 0.0000 10.4718
#
#
#
# Elastic Compliance Matrix: (Units=1/GPa)
#
#
# Indices 1 2 3 4 5 6 
#
# 1 0.010849 -0.001461 -0.002814 0.000000 -0.001070 0.000000
# 2 -0.001461 0.016546 -0.008168 0.000000 -0.001851 0.000000
# 3 -0.002814 -0.008168 0.015538 0.000000 0.003939 0.000000
# 4 0.000000 0.000000 0.000000 0.051062 0.000000 0.038729
# 5 -0.001070 -0.001851 0.003939 0.000000 0.028595 0.000000
# 6 0.000000 0.000000 0.000000 0.038729 0.000000 0.124868
#
#
# Mechanical properties :
#
#
# Convention : Reuss Voigt Hill
#
# Bulk Modulus (GPa) = 55.40945 56.08566 55.74756
# Shear Modulus (GPa) = 17.96225 26.68780 22.32503
#
# Velocity S-wave (km/s) = 3.08343 3.75846 3.43756
# Velocity P-wave (km/s) = 6.48115 6.96572 6.72780
#
# Compressibility (1/GPa) = 0.01804746
#
# Stress axis : x y z
#
# Youngs Moduli (GPa) = 92.17339 60.43651 64.35670
#
# Poissons Ratio (x) = 0.08830 0.18110
# Poissons Ratio (y) = 0.13467 0.52567
# Poissons Ratio (z) = 0.25938 0.49365
#
# Static dielectric constant tensor:
#      x y z
#    x 3.637540 0.000000 -0.132460 
#    y 0.000000 3.368740 0.000000 
#    z -0.132460 0.000000 3.666820 
# 
# 
# High freq. dielectric constant tensor:
#      x y z
#    x 1.744820 0.000000 -0.008950 
#    y 0.000000 1.713130 0.000000 
#    z -0.008950 0.000000 1.739110 
# 
# From -- ./inp_files/290445.got.cif
#   From: 2010.06.25/outbox.cif.g09.slc.cpg/sg12_146_cif.got.tgz:290445.got - 2010.06.28 00:19:55.
