data_PCOD8102533
_publ_section_title
;
Structure prediction by ZEFSAII (Michael W. Deem and Ramdas Pophale) SiO2 
 PCOD8102533
Probable space group: C 2/M
;
_chemical_formula_sum "Si O2"
_cell_formula_units_Z 56
_cell_length_a 15.722116
_cell_length_b 22.501188
_cell_length_c 8.890071
_cell_angle_alpha 90.000000
_cell_angle_beta 67.606766
_cell_angle_gamma 90.000000
_cell_volume 2907.845638
_symmetry_space_group_name_H-M "C 2/M"
_symmetry_group_IT_number 12
_symmetry_cell_setting 'monoclinic'
loop_
_space_group_symop_operation_xyz
x,y,z
-x,y,-z
-x,-y,-z
x,-y,z
1/2+x,1/2+y,z
1/2-x,1/2+y,-z
1/2-x,1/2-y,-z
1/2+x,1/2-y,z
loop_
_atom_site_type_symbol
_atom_site_label
_atom_site_fract_x
_atom_site_fract_y
_atom_site_fract_z
Si Si1 0.723620 0.568666 0.151347
Si Si2 0.222515 0.159553 0.728405
Si Si3 0.398128 0.569300 0.037528
Si Si4 0.530870 0.067270 0.650155
Si Si5 0.107105 0.728248 0.903076
Si Si6 0.800942 0.637583 0.368818
Si Si7 0.635524 0.864019 0.130193
O O1 0.725972 0.500000 0.198819
O O2 0.730211 0.610175 0.294194
O O3 0.631643 0.583495 0.115767
O O4 0.808971 0.582226 0.984459
O O5 0.168278 0.098911 0.795631
O O6 0.163382 0.211607 0.843286
O O7 0.237993 0.167916 0.539800
O O8 0.322805 0.154507 0.737230
O O9 0.390801 0.500000 0.075088
O O10 0.500000 0.593585 0.000000
O O11 0.500000 0.071765 0.500000
O O12 0.636958 0.085597 0.600586
O O13 0.468050 0.112065 0.788691
O O14 0.519460 0.000000 0.716827
O O15 0.129345 0.686227 0.746014
O O16 0.141893 0.695551 0.028574
O O17 0.000000 0.742919 0.000000
#
# Coordination Sequence:
#
# PCOD8102533 Si02
#       7
#     8   8   8   8   8   8   8
#     4   9  19  34  56  84 115 149 186 231 293 359
#     4  11  22  37  59  83 114 153 201 240 299 351
#     4   9  19  38  62  85 112 148 194 245 291 349
#     4  11  21  34  57  88 124 160 194 239 296 355
#     4  11  22  38  59  80 111 154 199 249 294 345
#     4  11  22  37  55  85 123 152 190 245 296 353
#     4  10  20  37  56  82 114 152 201 242 284 347
#
# _framework density 19.258243
#
# number of rings (size 3 to 8) (size 9 to 14) (size 15 to 20)
#    0.000    1.714    2.857    2.143    0.000    1.714 
#    0.000    2.857    0.000    2.571    0.000    0.000 
#    0.000    0.000    0.000    0.000    0.000    0.000 
#
# Total GULP energy -347163.012718 kJ/mol
# GULP energy per Si atom -12398.679026 kJ/mol
# Density = 1.921441 g / cm^3
# Si number density = 19.258243 Si / 1000 Ang^3
#
#
#
# Elastic Constant Matrix: (Units=GPa)
#
#
# Indices 1 2 3 4 5 6 
#
# 1 108.6526 33.8955 34.1424 0.0000 -0.8762 0.0000
# 2 33.8955 79.8939 38.3202 0.0000 -4.7278 0.0000
# 3 34.1424 38.3202 106.0508 0.0000 1.5485 0.0000
# 4 0.0000 0.0000 0.0000 25.2636 0.0000 -2.3596
# 5 -0.8762 -4.7278 1.5485 0.0000 24.7978 0.0000
# 6 0.0000 0.0000 0.0000 -2.3596 0.0000 24.6104
#
#
#
# Elastic Compliance Matrix: (Units=1/GPa)
#
#
# Indices 1 2 3 4 5 6 
#
# 1 0.011035 -0.003615 -0.002244 0.000000 -0.000159 0.000000
# 2 -0.003615 0.016588 -0.004879 0.000000 0.003339 0.000000
# 3 -0.002244 -0.004879 0.011941 0.000000 -0.001755 0.000000
# 4 0.000000 0.000000 0.000000 0.039940 0.000000 0.003829
# 5 -0.000159 0.003339 -0.001755 0.000000 0.041067 0.000000
# 6 0.000000 0.000000 0.000000 0.003829 0.000000 0.041000
#
#
# Mechanical properties :
#
#
# Convention : Reuss Voigt Hill
#
# Bulk Modulus (GPa) = 55.28555 56.36819 55.82687
# Shear Modulus (GPa) = 26.44437 27.48365 26.96401
#
# Velocity S-wave (km/s) = 3.70962 3.78181 3.74589
# Velocity P-wave (km/s) = 6.86427 6.95720 6.91089
#
# Compressibility (1/GPa) = 0.01808791
#
# Stress axis : x y z
#
# Youngs Moduli (GPa) = 90.61867 60.28499 83.74855
#
# Poissons Ratio (x) = 0.21792 0.18795
# Poissons Ratio (y) = 0.32757 0.40860
# Poissons Ratio (z) = 0.20337 0.29412
#
# Static dielectric constant tensor:
#      x y z
#    x 3.673560 0.000000 0.088250 
#    y 0.000000 3.468660 0.000000 
#    z 0.088250 0.000000 3.362330 
# 
# 
# High freq. dielectric constant tensor:
#      x y z
#    x 1.749520 0.000000 0.008740 
#    y 0.000000 1.751520 0.000000 
#    z 0.008740 0.000000 1.737780 
# 
# From -- ./inp_files/65275.got.cif
#   From: 2010.06.25/outbox.cif.g09.slc.cpg/sg12_33_cif.got.tgz:65275.got - 2010.06.28 00:19:55.
