data_PCOD8102272
_publ_section_title
;
Structure prediction by ZEFSAII (Michael W. Deem and Ramdas Pophale) SiO2 
 PCOD8102272
Probable space group: C 2/M
;
_chemical_formula_sum "Si O2"
_cell_formula_units_Z 64
_cell_length_a 24.858624
_cell_length_b 9.442292
_cell_length_c 14.591506
_cell_angle_alpha 90.000000
_cell_angle_beta 78.053728
_cell_angle_gamma 90.000000
_cell_volume 3350.775942
_symmetry_space_group_name_H-M "C 2/M"
_symmetry_group_IT_number 12
_symmetry_cell_setting 'monoclinic'
loop_
_space_group_symop_operation_xyz
x,y,z
-x,y,-z
-x,-y,-z
x,-y,z
1/2+x,1/2+y,z
1/2-x,1/2+y,-z
1/2-x,1/2-y,-z
1/2+x,1/2-y,z
loop_
_atom_site_type_symbol
_atom_site_label
_atom_site_fract_x
_atom_site_fract_y
_atom_site_fract_z
Si Si1 0.059487 0.667564 0.694257
Si Si2 0.866952 0.163986 0.193470
Si Si3 0.895782 0.844755 0.977097
Si Si4 0.872657 0.341078 0.656998
Si Si5 0.561880 0.333989 0.509489
Si Si6 0.741697 0.842766 0.235534
Si Si7 0.940459 0.661864 0.809492
Si Si8 0.217676 0.845236 0.079675
O O1 0.069748 0.500000 0.679808
O O2 0.097110 0.728930 0.760977
O O3 0.075383 0.747341 0.595875
O O4 0.996665 0.703626 0.739242
O O5 0.803609 0.187021 0.247657
O O6 0.883960 0.000000 0.203260
O O7 0.876352 0.209142 0.083943
O O8 0.937702 0.743696 0.907958
O O9 0.844634 0.854952 0.928119
O O10 0.923220 0.000000 0.977612
O O11 0.894432 0.500000 0.624445
O O12 0.897300 0.223019 0.582350
O O13 0.805925 0.338976 0.669886
O O14 0.891058 0.306068 0.755439
O O15 0.500000 0.305208 0.500000
O O16 0.573102 0.500000 0.521766
O O17 0.722284 0.719373 0.177250
O O18 0.741533 0.000000 0.188696
O O19 0.940269 0.500000 0.839652
O O20 0.244943 0.000000 0.071806
O O21 0.250000 0.750000 0.000000
#
# Coordination Sequence:
#
# PCOD8102272 Si02
#       8
#     8   8   8   8   8   8   8   8
#     4  11  24  42  62  86 116 154 199 241 290 354
#     4  10  22  41  59  81 118 162 203 241 284 341
#     4  10  21  35  55  84 119 158 199 243 291 343
#     4  10  20  36  61  92 122 152 185 239 303 350
#     4  11  23  39  64  94 120 149 187 238 297 355
#     4  10  20  37  59  85 119 156 196 240 294 347
#     4  10  21  36  58  87 120 153 190 243 297 346
#     4  11  20  31  51  81 115 152 197 245 291 339
#
# _framework density 19.100054
#
# number of rings (size 3 to 8) (size 9 to 14) (size 15 to 20)
#    0.000    1.625    3.750    1.125    0.000    4.500 
#    0.000    3.125    0.000    0.000    0.000    0.000 
#    0.000    0.000    0.000    0.000    0.000    0.000 
#
# Total GULP energy -396656.042659 kJ/mol
# GULP energy per Si atom -12395.501333 kJ/mol
# Density = 1.905658 g / cm^3
# Si number density = 19.100054 Si / 1000 Ang^3
#
#
#
# Elastic Constant Matrix: (Units=GPa)
#
#
# Indices 1 2 3 4 5 6 
#
# 1 62.0926 35.9331 27.6011 0.0000 -6.1856 0.0000
# 2 35.9331 114.3788 53.4118 0.0000 -3.0823 0.0000
# 3 27.6011 53.4118 83.8064 0.0000 -10.7539 0.0000
# 4 0.0000 0.0000 0.0000 35.3388 0.0000 -0.2842
# 5 -6.1856 -3.0823 -10.7539 0.0000 26.8734 0.0000
# 6 0.0000 0.0000 0.0000 -0.2842 0.0000 27.7405
#
#
#
# Elastic Compliance Matrix: (Units=1/GPa)
#
#
# Indices 1 2 3 4 5 6 
#
# 1 0.020691 -0.004859 -0.003350 0.000000 0.002865 0.000000
# 2 -0.004859 0.013675 -0.007440 0.000000 -0.002527 0.000000
# 3 -0.003350 -0.007440 0.018520 0.000000 0.005786 0.000000
# 4 0.000000 0.000000 0.000000 0.028300 0.000000 0.000290
# 5 0.002865 -0.002527 0.005786 0.000000 0.039897 0.000000
# 6 0.000000 0.000000 0.000000 0.000290 0.000000 0.036051
#
#
# Mechanical properties :
#
#
# Convention : Reuss Voigt Hill
#
# Bulk Modulus (GPa) = 46.32021 54.90775 50.61398
# Shear Modulus (GPa) = 25.55871 27.54600 26.55236
#
# Velocity S-wave (km/s) = 3.66204 3.80174 3.73255
# Velocity P-wave (km/s) = 6.49498 6.93404 6.71809
#
# Compressibility (1/GPa) = 0.02158885
#
# Stress axis : x y z
#
# Youngs Moduli (GPa) = 48.32936 73.12466 53.99645
#
# Poissons Ratio (x) = 0.35528 0.18091
# Poissons Ratio (y) = 0.23481 0.40172
# Poissons Ratio (z) = 0.16193 0.54403
#
# Static dielectric constant tensor:
#      x y z
#    x 3.455020 0.000000 -0.131740 
#    y 0.000000 3.650030 0.000000 
#    z -0.131740 0.000000 3.489840 
# 
# 
# High freq. dielectric constant tensor:
#      x y z
#    x 1.732500 0.000000 -0.014440 
#    y 0.000000 1.751490 0.000000 
#    z -0.014440 0.000000 1.730710 
# 
# From -- ./inp_files/243759.got.cif
#   From: 2010.06.25/outbox.cif.g09.slc.cpg/sg12_122_cif.got.tgz:243759.got - 2010.06.28 00:19:55.
