data_PCOD8102981
_publ_section_title
;
Structure prediction by ZEFSAII (Michael W. Deem and Ramdas Pophale) SiO2 
 PCOD8102981
Probable space group: C 2/M
;
_chemical_formula_sum "Si O2"
_cell_formula_units_Z 52
_cell_length_a 26.354613
_cell_length_b 18.857052
_cell_length_c 6.722372
_cell_angle_alpha 90.000000
_cell_angle_beta 129.674252
_cell_angle_gamma 90.000000
_cell_volume 2571.383606
_symmetry_space_group_name_H-M "C 2/M"
_symmetry_group_IT_number 12
_symmetry_cell_setting 'monoclinic'
loop_
_space_group_symop_operation_xyz
x,y,z
-x,y,-z
-x,-y,-z
x,-y,z
1/2+x,1/2+y,z
1/2-x,1/2+y,-z
1/2-x,1/2-y,-z
1/2+x,1/2-y,z
loop_
_atom_site_type_symbol
_atom_site_label
_atom_site_fract_x
_atom_site_fract_y
_atom_site_fract_z
Si Si1 0.065570 0.578968 0.763514
Si Si2 0.303249 0.417111 0.969420
Si Si3 0.000000 0.874175 0.500000
Si Si4 0.102739 0.921394 0.455409
Si Si5 0.150065 0.420695 0.604957
Si Si6 0.075578 0.318184 0.141820
Si Si7 0.602841 0.331027 0.069106
O O1 0.047895 0.500000 0.794708
O O2 0.129073 0.577468 0.781457
O O3 0.000000 0.611846 0.500000
O O4 0.085168 0.624776 0.997360
O O5 0.318995 0.500000 0.964294
O O6 0.226320 0.401239 0.779415
O O7 0.333745 0.368007 0.871917
O O8 0.332253 0.396165 0.259753
O O9 0.044447 0.923447 0.472035
O O10 0.044174 0.826520 0.759382
O O11 0.083982 0.872842 0.222512
O O12 0.112823 0.000000 0.395120
O O13 0.136821 0.500000 0.479499
O O14 0.108204 0.356261 0.411147
O O15 0.116290 0.248790 0.176617
O O16 0.000000 0.298059 0.000000
#
# Coordination Sequence:
#
# PCOD8102981 Si02
#       7
#     8   8   4   8   8   8   8
#     4  10  21  38  62  88 115 154 201 249 302 355
#     4   9  21  42  64  88 121 160 204 255 300 351
#     4  10  21  36  54  86 119 156 204 256 301 348
#     4  10  20  37  60  84 115 156 207 257 301 351
#     4  10  22  41  65  92 120 154 203 257 306 357
#     4  12  24  37  59  90 128 162 199 246 304 360
#     4  11  24  38  59  88 124 164 201 239 301 367
#
# _framework density 20.222577999999999
#
# number of rings (size 3 to 8) (size 9 to 14) (size 15 to 20)
#    0.000    1.692    1.538    2.538    1.077    7.385 
#    0.000    4.615    0.000    0.000    0.000    0.000 
#    0.000    0.000    0.000    0.000    0.000    0.000 
#
# Total GULP energy -322306.447574 kJ/mol
# GULP energy per Si atom -12396.401830 kJ/mol
# Density = 2.017655 g / cm^3
# Si number density = 20.222578 Si / 1000 Ang^3
#
#
#
# Elastic Constant Matrix: (Units=GPa)
#
#
# Indices 1 2 3 4 5 6 
#
# 1 112.3978 34.7252 38.8670 0.0000 5.8607 0.0000
# 2 34.7252 90.8212 36.4141 0.0000 -9.6771 0.0000
# 3 38.8670 36.4141 76.2748 0.0000 -8.8464 0.0000
# 4 0.0000 0.0000 0.0000 48.7436 0.0000 -34.7733
# 5 5.8607 -9.6771 -8.8464 0.0000 34.1596 0.0000
# 6 0.0000 0.0000 0.0000 -34.7733 0.0000 63.9621
#
#
#
# Elastic Compliance Matrix: (Units=1/GPa)
#
#
# Indices 1 2 3 4 5 6 
#
# 1 0.011773 -0.002901 -0.005097 0.000000 -0.004162 0.000000
# 2 -0.002901 0.014501 -0.005062 0.000000 0.003295 0.000000
# 3 -0.005097 -0.005062 0.018619 0.000000 0.004262 0.000000
# 4 0.000000 0.000000 0.000000 0.033513 0.000000 0.018220
# 5 -0.004162 0.003295 0.004262 0.000000 0.032025 0.000000
# 6 0.000000 0.000000 0.000000 0.018220 0.000000 0.025539
#
#
# Mechanical properties :
#
#
# Convention : Reuss Voigt Hill
#
# Bulk Modulus (GPa) = 53.27113 55.50069 54.38591
# Shear Modulus (GPa) = 29.70049 40.67224 35.18636
#
# Velocity S-wave (km/s) = 3.83649 4.48954 4.17580
# Velocity P-wave (km/s) = 6.78414 7.37422 7.08532
#
# Compressibility (1/GPa) = 0.01877189
#
# Stress axis : x y z
#
# Youngs Moduli (GPa) = 84.94245 68.96252 53.70985
#
# Poissons Ratio (x) = 0.20008 0.27373
# Poissons Ratio (y) = 0.24644 0.27189
# Poissons Ratio (z) = 0.43291 0.34910
#
# Static dielectric constant tensor:
#      x y z
#    x 3.639650 0.000000 -0.008310 
#    y 0.000000 3.594960 0.000000 
#    z -0.008310 0.000000 3.723860 
# 
# 
# High freq. dielectric constant tensor:
#      x y z
#    x 1.789970 0.000000 -0.007230 
#    y 0.000000 1.783760 0.000000 
#    z -0.007230 0.000000 1.786450 
# 
# From -- ./inp_files/29352.got.cif
#   From: 2010.06.25/outbox.cif.g09.slc.cpg/sg12_15_cif.got.tgz:29352.got - 2010.06.28 00:19:55.
