data_PCOD8102012
_publ_section_title
;
Structure prediction by ZEFSAII (Michael W. Deem and Ramdas Pophale) SiO2 
 PCOD8102012
Probable space group: C 2/M
;
_chemical_formula_sum "Si O2"
_cell_formula_units_Z 56
_cell_length_a 18.069451
_cell_length_b 8.643620
_cell_length_c 19.881550
_cell_angle_alpha 90.000000
_cell_angle_beta 62.818165
_cell_angle_gamma 90.000000
_cell_volume 2762.273760
_symmetry_space_group_name_H-M "C 2/M"
_symmetry_group_IT_number 12
_symmetry_cell_setting 'monoclinic'
loop_
_space_group_symop_operation_xyz
x,y,z
-x,y,-z
-x,-y,-z
x,-y,z
1/2+x,1/2+y,z
1/2-x,1/2+y,-z
1/2-x,1/2-y,-z
1/2+x,1/2-y,z
loop_
_atom_site_type_symbol
_atom_site_label
_atom_site_fract_x
_atom_site_fract_y
_atom_site_fract_z
Si Si1 0.038914 0.678498 0.280879
Si Si2 0.211212 0.679011 0.413038
Si Si3 0.170613 0.180732 0.997066
Si Si4 0.695850 0.321042 0.280231
Si Si5 0.648648 0.318475 0.854421
Si Si6 0.983463 0.678782 0.864959
Si Si7 0.865146 0.320684 0.414599
O O1 0.065155 0.500000 0.279547
O O2 0.114469 0.787403 0.270261
O O3 0.015042 0.714778 0.214464
O O4 0.960289 0.720682 0.359912
O O5 0.205315 0.500000 0.395877
O O6 0.177814 0.780182 0.365170
O O7 0.152199 0.719736 0.500560
O O8 0.306508 0.719766 0.390711
O O9 0.087121 0.220825 0.070840
O O10 0.183481 0.000000 0.991163
O O11 0.250000 0.250000 0.000000
O O12 0.165427 0.241544 0.922918
O O13 0.719775 0.500000 0.262734
O O14 0.771152 0.215325 0.223751
O O15 0.627795 0.500000 0.860996
O O16 0.572028 0.222762 0.857836
O O17 0.964786 0.500000 0.887183
O O18 0.845958 0.500000 0.407211
#
# Coordination Sequence:
#
# PCOD8102012 Si02
#       7
#     8   8   8   8   8   8   8
#     4  10  22  40  59  83 117 153 192 239 291 345
#     4  10  20  36  60  87 117 154 194 240 293 347
#     4  11  24  41  62  89 122 158 196 242 293 346
#     4  12  25  39  58  85 117 153 195 243 294 350
#     4  11  24  42  63  87 117 154 197 243 291 344
#     4  11  23  39  63  92 121 155 194 239 291 349
#     4   9  19  37  61  87 116 153 197 242 288 344
#
# _framework density 20.273154000000002
#
# number of rings (size 3 to 8) (size 9 to 14) (size 15 to 20)
#    0.000    1.429    0.000    5.143    0.000   11.429 
#    0.000    2.857    0.000    0.000    0.000    0.000 
#    0.000    0.000    0.000    0.000    0.000    0.000 
#
# Total GULP energy -347401.629555 kJ/mol
# GULP energy per Si atom -12407.201056 kJ/mol
# Density = 2.022701 g / cm^3
# Si number density = 20.273154 Si / 1000 Ang^3
#
#
#
# Elastic Constant Matrix: (Units=GPa)
#
#
# Indices 1 2 3 4 5 6 
#
# 1 126.7468 23.1953 53.0996 -0.0001 8.8913 -0.0002
# 2 23.1953 42.8352 22.7447 -0.0003 6.4406 -0.0006
# 3 53.0996 22.7447 107.7851 0.0000 3.8874 -0.0001
# 4 -0.0001 -0.0003 0.0000 31.4251 0.0000 1.2130
# 5 8.8913 6.4406 3.8874 0.0000 32.0265 0.0000
# 6 -0.0002 -0.0006 -0.0001 1.2130 0.0000 39.7586
#
#
#
# Elastic Compliance Matrix: (Units=1/GPa)
#
#
# Indices 1 2 3 4 5 6 
#
# 1 0.010424 -0.003028 -0.004433 0.000000 -0.001747 0.000000
# 2 -0.003028 0.027874 -0.004237 0.000000 -0.004251 0.000000
# 3 -0.004433 -0.004237 0.012335 0.000000 0.000586 0.000000
# 4 0.000000 0.000000 0.000000 0.031859 0.000000 -0.000972
# 5 -0.001747 -0.004251 0.000586 0.000000 0.032493 0.000000
# 6 0.000000 0.000000 0.000000 -0.000972 0.000000 0.025181
#
#
# Mechanical properties :
#
#
# Convention : Reuss Voigt Hill
#
# Bulk Modulus (GPa) = 36.71599 52.82736 44.77167
# Shear Modulus (GPa) = 28.96196 32.53052 30.74624
#
# Velocity S-wave (km/s) = 3.78377 4.01010 3.89858
# Velocity P-wave (km/s) = 6.10239 6.89606 6.51133
#
# Compressibility (1/GPa) = 0.02723609
#
# Stress axis : x y z
#
# Youngs Moduli (GPa) = 95.93561 35.87610 81.07221
#
# Poissons Ratio (x) = 0.10863 0.35941
# Poissons Ratio (y) = 0.29047 0.34350
# Poissons Ratio (z) = 0.42530 0.15201
#
# Static dielectric constant tensor:
#      x y z
#    x 3.437740 0.000000 0.407840 
#    y 0.000000 3.684550 0.000000 
#    z 0.407840 0.000000 3.496970 
# 
# 
# High freq. dielectric constant tensor:
#      x y z
#    x 1.796870 0.000000 0.002100 
#    y 0.000000 1.793860 0.000000 
#    z 0.002100 0.000000 1.807870 
# 
# From -- ./inp_files/275192.got.cif
#   From: 2010.06.25/outbox.cif.g09.slc.cpg/sg12_138_cif.got.tgz:275192.got - 2010.06.28 00:19:55.
