data_PCOD8102429
_publ_section_title
;
Structure prediction by ZEFSAII (Michael W. Deem and Ramdas Pophale) SiO2 
 PCOD8102429
Probable space group: C 2/M
;
_chemical_formula_sum "Si O2"
_cell_formula_units_Z 56
_cell_length_a 17.081601
_cell_length_b 15.023675
_cell_length_c 11.224232
_cell_angle_alpha 90.000000
_cell_angle_beta 111.484241
_cell_angle_gamma 90.000000
_cell_volume 2680.318008
_symmetry_space_group_name_H-M "C 2/M"
_symmetry_group_IT_number 12
_symmetry_cell_setting 'monoclinic'
loop_
_space_group_symop_operation_xyz
x,y,z
-x,y,-z
-x,-y,-z
x,-y,z
1/2+x,1/2+y,z
1/2-x,1/2+y,-z
1/2-x,1/2-y,-z
1/2+x,1/2-y,z
loop_
_atom_site_type_symbol
_atom_site_label
_atom_site_fract_x
_atom_site_fract_y
_atom_site_fract_z
Si Si1 0.819718 0.713520 0.387099
Si Si2 0.343085 0.397969 0.081370
Si Si3 0.950225 0.595802 0.350836
Si Si4 0.103750 0.664661 0.317443
Si Si5 0.762865 0.101723 0.283048
Si Si6 0.316203 0.599420 0.803985
Si Si7 0.982472 0.820734 0.860374
O O1 0.882192 0.675125 0.319549
O O2 0.845980 0.681710 0.532156
O O3 0.816217 0.821535 0.381724
O O4 0.728610 0.671314 0.307180
O O5 0.369921 0.500000 0.089085
O O6 0.276553 0.380851 0.150136
O O7 0.430371 0.346073 0.155106
O O8 0.298977 0.371046 0.932080
O O9 0.904788 0.500000 0.306011
O O10 0.000000 0.595666 0.500000
O O11 0.019149 0.607138 0.285988
O O12 0.164521 0.613275 0.259331
O O13 0.071769 0.756923 0.251076
O O14 0.791369 0.000000 0.333285
O O15 0.281682 0.500000 0.758397
O O16 0.417493 0.597080 0.841819
O O17 0.000000 0.777817 0.000000
#
# Coordination Sequence:
#
# PCOD8102429 Si02
#       7
#     8   8   8   8   8   8   8
#     4  11  22  39  61  91 121 155 208 254 297 357
#     4   9  20  39  61  89 120 156 202 247 299 363
#     4   9  19  36  60  85 114 154 196 243 293 343
#     4  11  22  40  59  88 124 157 204 246 296 369
#     4  11  23  39  59  86 125 164 195 241 306 364
#     4  10  20  36  63  94 120 151 202 259 302 349
#     4  10  20  38  61  88 117 159 204 246 301 352
#
# _framework density 20.893044
#
# number of rings (size 3 to 8) (size 9 to 14) (size 15 to 20)
#    0.000    1.857    1.429    2.571    0.000    4.000 
#    2.571    0.714    0.000    6.429    0.000    0.000 
#    0.000    0.000    0.000    0.000    0.000    0.000 
#
# Total GULP energy -346965.862697 kJ/mol
# GULP energy per Si atom -12391.637953 kJ/mol
# Density = 2.084549 g / cm^3
# Si number density = 20.893044 Si / 1000 Ang^3
#
#
#
# Elastic Constant Matrix: (Units=GPa)
#
#
# Indices 1 2 3 4 5 6 
#
# 1 147.1771 42.2572 37.5045 0.0000 -12.4399 0.0000
# 2 42.2572 120.1305 28.5245 0.0000 4.8103 0.0000
# 3 37.5045 28.5245 84.3245 0.0000 3.0696 0.0000
# 4 0.0000 0.0000 0.0000 8.8628 0.0000 12.9756
# 5 -12.4399 4.8103 3.0696 0.0000 27.4810 0.0000
# 6 0.0000 0.0000 0.0000 12.9756 0.0000 23.4645
#
#
#
# Elastic Compliance Matrix: (Units=1/GPa)
#
#
# Indices 1 2 3 4 5 6 
#
# 1 0.008732 -0.002499 -0.003211 0.000000 0.004749 0.000000
# 2 -0.002499 0.009809 -0.002112 0.000000 -0.002613 0.000000
# 3 -0.003211 -0.002112 0.014098 0.000000 -0.002659 0.000000
# 4 0.000000 0.000000 0.000000 0.592615 0.000000 -0.327710
# 5 0.004749 -0.002613 -0.002659 0.000000 0.039293 0.000000
# 6 0.000000 0.000000 0.000000 -0.327710 0.000000 0.223838
#
#
# Mechanical properties :
#
#
# Convention : Reuss Voigt Hill
#
# Bulk Modulus (GPa) = 58.83839 63.13384 60.98611
# Shear Modulus (GPa) = 5.49636 28.18472 16.84054
#
# Velocity S-wave (km/s) = 1.62371 3.67686 2.84216
# Velocity P-wave (km/s) = 5.63366 6.95046 6.32641
#
# Compressibility (1/GPa) = 0.01699571
#
# Stress axis : x y z
#
# Youngs Moduli (GPa) = 114.52491 101.94312 70.93119
#
# Poissons Ratio (x) = 0.25477 0.22776
# Poissons Ratio (y) = 0.28622 0.14978
# Poissons Ratio (z) = 0.36774 0.21526
#
# Static dielectric constant tensor:
#      x y z
#    x 4.253690 0.000000 -0.195170 
#    y 0.000000 3.846110 0.000000 
#    z -0.195170 0.000000 3.561820 
# 
# 
# High freq. dielectric constant tensor:
#      x y z
#    x 1.832090 0.000000 -0.006050 
#    y 0.000000 1.816160 0.000000 
#    z -0.006050 0.000000 1.792590 
# 
# From -- ./inp_files/156726.got.cif
#   From: 2010.06.25/outbox.cif.g09.slc.cpg/sg12_79_cif.got.tgz:156726.got - 2010.06.28 00:19:55.
