data_PCOD8102842
_publ_section_title
;
Structure prediction by ZEFSAII (Michael W. Deem and Ramdas Pophale) SiO2 
 PCOD8102842
Probable space group: C 2/M
;
_chemical_formula_sum "Si O2"
_cell_formula_units_Z 64
_cell_length_a 15.366564
_cell_length_b 8.915750
_cell_length_c 25.105955
_cell_angle_alpha 90.000000
_cell_angle_beta 72.041282
_cell_angle_gamma 90.000000
_cell_volume 3272.045014
_symmetry_space_group_name_H-M "C 2/M"
_symmetry_group_IT_number 12
_symmetry_cell_setting 'monoclinic'
loop_
_space_group_symop_operation_xyz
x,y,z
-x,y,-z
-x,-y,-z
x,-y,z
1/2+x,1/2+y,z
1/2-x,1/2+y,-z
1/2-x,1/2-y,-z
1/2+x,1/2-y,z
loop_
_atom_site_type_symbol
_atom_site_label
_atom_site_fract_x
_atom_site_fract_y
_atom_site_fract_z
Si Si1 0.214888 0.176025 0.260698
Si Si2 0.577572 0.323628 0.142726
Si Si3 0.532659 0.176765 0.256790
Si Si4 0.537399 0.322702 0.437070
Si Si5 0.718991 0.173387 0.866442
Si Si6 0.417085 0.328314 0.360720
Si Si7 0.721070 0.171066 0.366785
Si Si8 0.963368 0.176918 0.062634
O O1 0.113263 0.235369 0.270870
O O2 0.276796 0.210673 0.197319
O O3 0.254682 0.260348 0.304212
O O4 0.209703 0.000000 0.273082
O O5 0.565019 0.500000 0.156421
O O6 0.523060 0.231564 0.197867
O O7 0.685103 0.281597 0.123694
O O8 0.534530 0.272883 0.094836
O O9 0.442396 0.220938 0.306455
O O10 0.549546 0.000000 0.254677
O O11 0.500000 0.258927 0.500000
O O12 0.546119 0.500000 0.437496
O O13 0.467181 0.270917 0.404525
O O14 0.637635 0.259202 0.408029
O O15 0.638697 0.266831 0.908043
O O16 0.697810 0.000000 0.879852
O O17 0.444912 0.500000 0.342419
O O18 0.307844 0.316424 0.389936
O O19 0.691079 0.000000 0.363307
O O20 0.957702 0.000000 0.060736
O O21 0.000000 0.243757 0.000000
#
# Coordination Sequence:
#
# PCOD8102842 Si02
#       8
#     8   8   8   8   8   8   8   8
#     4  10  20  37  59  84 121 158 189 238 302 356
#     4   9  20  39  58  80 116 158 190 233 300 353
#     4  11  21  34  58  90 119 150 198 244 288 353
#     4  10  22  42  65  85 115 164 208 243 292 352
#     4   9  20  37  57  82 113 152 193 236 291 349
#     4  10  22  39  58  85 123 159 192 240 301 350
#     4  11  23  37  58  90 120 155 199 244 295 348
#     4  10  22  39  59  84 115 153 198 242 289 348
#
# _framework density 19.559633000000002
#
# number of rings (size 3 to 8) (size 9 to 14) (size 15 to 20)
#    0.000    2.000    1.250    2.625    1.750    5.500 
#    0.000    0.000    0.000    0.000    0.000    0.000 
#    0.000    0.000    0.000    0.000    0.000    0.000 
#
# Total GULP energy -396852.813951 kJ/mol
# GULP energy per Si atom -12401.650436 kJ/mol
# Density = 1.951511 g / cm^3
# Si number density = 19.559633 Si / 1000 Ang^3
#
#
#
# Elastic Constant Matrix: (Units=GPa)
#
#
# Indices 1 2 3 4 5 6 
#
# 1 109.5550 15.3136 67.1722 0.0000 -0.9287 0.0000
# 2 15.3136 18.2518 26.5716 0.0000 2.0044 0.0000
# 3 67.1722 26.5716 140.1522 0.0000 1.9672 0.0000
# 4 0.0000 0.0000 0.0000 23.2273 0.0000 -6.9154
# 5 -0.9287 2.0044 1.9672 0.0000 22.0195 0.0000
# 6 0.0000 0.0000 0.0000 -6.9154 0.0000 27.1169
#
#
#
# Elastic Compliance Matrix: (Units=1/GPa)
#
#
# Indices 1 2 3 4 5 6 
#
# 1 0.013048 -0.002708 -0.005759 0.000000 0.001311 0.000000
# 2 -0.002708 0.076939 -0.013206 0.000000 -0.005938 0.000000
# 3 -0.005759 -0.013206 0.012401 0.000000 -0.000149 0.000000
# 4 0.000000 0.000000 0.000000 0.046590 0.000000 0.011882
# 5 0.001311 -0.005938 -0.000149 0.000000 0.046023 0.000000
# 6 0.000000 0.000000 0.000000 0.011882 0.000000 0.039907
#
#
# Mechanical properties :
#
#
# Convention : Reuss Voigt Hill
#
# Bulk Modulus (GPa) = 16.93676 54.00817 35.47247
# Shear Modulus (GPa) = 16.78218 25.06619 20.92418
#
# Velocity S-wave (km/s) = 2.93234 3.58373 3.27427
# Velocity P-wave (km/s) = 4.48806 6.69299 5.69819
#
# Compressibility (1/GPa) = 0.05904317
#
# Stress axis : x y z
#
# Youngs Moduli (GPa) = 76.63751 12.99736 80.63881
#
# Poissons Ratio (x) = 0.03520 0.46439
# Poissons Ratio (y) = 0.20753 1.06489
# Poissons Ratio (z) = 0.44135 0.17164
#
# Static dielectric constant tensor:
#      x y z
#    x 3.554980 0.000000 0.145460 
#    y 0.000000 3.454900 0.000000 
#    z 0.145460 0.000000 3.721410 
# 
# 
# High freq. dielectric constant tensor:
#      x y z
#    x 1.767110 0.000000 0.002120 
#    y 0.000000 1.755620 0.000000 
#    z 0.002120 0.000000 1.757210 
# 
# From -- ./inp_files/359782.got.cif
#   From: 2010.06.25/outbox.cif.g09.slc.cpg/sg12_180_cif.got.tgz:359782.got - 2010.06.28 00:19:55.
