data_PCOD8102240
_publ_section_title
;
Structure prediction by ZEFSAII (Michael W. Deem and Ramdas Pophale) SiO2 
 PCOD8102240
Probable space group: C 2/M
;
_chemical_formula_sum "Si O2"
_cell_formula_units_Z 64
_cell_length_a 8.850900
_cell_length_b 28.106247
_cell_length_c 13.804302
_cell_angle_alpha 90.000000
_cell_angle_beta 117.874016
_cell_angle_gamma 90.000000
_cell_volume 3035.610717
_symmetry_space_group_name_H-M "C 2/M"
_symmetry_group_IT_number 12
_symmetry_cell_setting 'monoclinic'
loop_
_space_group_symop_operation_xyz
x,y,z
-x,y,-z
-x,-y,-z
x,-y,z
1/2+x,1/2+y,z
1/2-x,1/2+y,-z
1/2-x,1/2-y,-z
1/2+x,1/2-y,z
loop_
_atom_site_type_symbol
_atom_site_label
_atom_site_fract_x
_atom_site_fract_y
_atom_site_fract_z
Si Si1 0.765417 0.353268 0.613430
Si Si2 0.961238 0.134503 0.840623
Si Si3 0.937916 0.826169 0.630849
Si Si4 0.978768 0.729566 0.741954
Si Si5 0.258160 0.552723 0.886499
Si Si6 0.869670 0.446340 0.736382
Si Si7 0.309584 0.092382 0.928719
Si Si8 0.856888 0.768701 0.888372
O O1 0.620709 0.341846 0.647431
O O2 0.709982 0.339413 0.489081
O O3 0.937906 0.322900 0.688128
O O4 0.797026 0.409630 0.634871
O O5 0.883753 0.145027 0.711264
O O6 0.889417 0.087399 0.870788
O O7 0.918208 0.177228 0.898204
O O8 0.167031 0.133637 0.886871
O O9 0.952270 0.769321 0.651046
O O10 0.841108 0.741277 0.782452
O O11 0.157132 0.731722 0.857079
O O12 0.329579 0.500000 0.888222
O O13 0.071892 0.559215 0.786020
O O14 0.240808 0.558469 0.997077
O O15 0.811282 0.500000 0.692230
O O16 0.803808 0.435880 0.825570
O O17 0.500000 0.114441 0.000000
O O18 0.000000 0.743766 0.000000
#
# Coordination Sequence:
#
# PCOD8102240 Si02
#       8
#     8   8   8   8   8   8   8   8
#     4  11  21  42  68  90 123 166 210 269 318 366
#     4  11  22  40  56  90 125 159 210 258 315 377
#     4  10  23  41  62  94 122 157 215 268 313 375
#     4  11  22  42  64  91 124 162 209 258 312 366
#     4  10  21  37  60  89 126 165 206 258 312 373
#     4  10  21  39  62  94 127 163 210 255 310 381
#     4  10  20  36  61  89 123 168 211 257 307 370
#     4  11  23  39  59  90 127 164 198 249 307 388
#
# _framework density 21.083072000000001
#
# number of rings (size 3 to 8) (size 9 to 14) (size 15 to 20)
#    0.000    1.500    2.500    3.000    0.000    4.000 
#    0.000    8.125    0.000    1.500    0.000    0.000 
#    0.000    0.000    0.000    0.000    0.000    0.000 
#
# Total GULP energy -396525.546188 kJ/mol
# GULP energy per Si atom -12391.423318 kJ/mol
# Density = 2.103509 g / cm^3
# Si number density = 21.083072 Si / 1000 Ang^3
#
#
#
# Elastic Constant Matrix: (Units=GPa)
#
#
# Indices 1 2 3 4 5 6 
#
# 1 77.6184 25.7089 24.8359 0.0000 3.8258 0.0000
# 2 25.7089 126.2917 47.2735 0.0000 1.9008 0.0000
# 3 24.8359 47.2735 109.4024 0.0000 6.4516 0.0000
# 4 0.0000 0.0000 0.0000 22.5445 0.0000 4.4849
# 5 3.8258 1.9008 6.4516 0.0000 31.1649 0.0000
# 6 0.0000 0.0000 0.0000 4.4849 0.0000 28.2566
#
#
#
# Elastic Compliance Matrix: (Units=1/GPa)
#
#
# Indices 1 2 3 4 5 6 
#
# 1 0.014355 -0.002041 -0.002309 0.000000 -0.001160 0.000000
# 2 -0.002041 0.009738 -0.003771 0.000000 0.000437 0.000000
# 3 -0.002309 -0.003771 0.011403 0.000000 -0.001847 0.000000
# 4 0.000000 0.000000 0.000000 0.045803 0.000000 -0.007270
# 5 -0.001160 0.000437 -0.001847 0.000000 0.032585 0.000000
# 6 0.000000 0.000000 0.000000 -0.007270 0.000000 0.036544
#
#
# Mechanical properties :
#
#
# Convention : Reuss Voigt Hill
#
# Bulk Modulus (GPa) = 51.92951 56.54988 54.23970
# Shear Modulus (GPa) = 28.88710 30.75948 29.82329
#
# Velocity S-wave (km/s) = 3.70558 3.82379 3.76515
# Velocity P-wave (km/s) = 6.55689 6.80997 6.68463
#
# Compressibility (1/GPa) = 0.01925687
#
# Stress axis : x y z
#
# Youngs Moduli (GPa) = 69.66049 102.68637 87.69713
#
# Poissons Ratio (x) = 0.20955 0.20247
# Poissons Ratio (y) = 0.14215 0.33067
# Poissons Ratio (z) = 0.16082 0.38718
#
# Static dielectric constant tensor:
#      x y z
#    x 3.882690 0.000000 0.043180 
#    y 0.000000 3.722490 0.000000 
#    z 0.043180 0.000000 3.719140 
# 
# 
# High freq. dielectric constant tensor:
#      x y z
#    x 1.833390 0.000000 0.003630 
#    y 0.000000 1.816530 0.000000 
#    z 0.003630 0.000000 1.817590 
# 
# From -- ./inp_files/200939.got.cif
#   From: 2010.06.25/outbox.cif.g09.slc.cpg/sg12_101_cif.got.tgz:200939.got - 2010.06.28 00:19:55.
