data_PCOD8102290
_publ_section_title
;
Structure prediction by ZEFSAII (Michael W. Deem and Ramdas Pophale) SiO2 
 PCOD8102290
Probable space group: C 2/M
;
_chemical_formula_sum "Si O2"
_cell_formula_units_Z 40
_cell_length_a 15.194775
_cell_length_b 8.572778
_cell_length_c 16.587589
_cell_angle_alpha 90.000000
_cell_angle_beta 120.811618
_cell_angle_gamma 90.000000
_cell_volume 1855.750118
_symmetry_space_group_name_H-M "C 2/M"
_symmetry_group_IT_number 12
_symmetry_cell_setting 'monoclinic'
loop_
_space_group_symop_operation_xyz
x,y,z
-x,y,-z
-x,-y,-z
x,-y,z
1/2+x,1/2+y,z
1/2-x,1/2+y,-z
1/2-x,1/2-y,-z
1/2+x,1/2-y,z
loop_
_atom_site_type_symbol
_atom_site_label
_atom_site_fract_x
_atom_site_fract_y
_atom_site_fract_z
Si Si1 0.765882 0.818245 0.223846
Si Si2 0.094066 0.179552 0.392294
Si Si3 0.454592 0.681070 0.892475
Si Si4 0.067710 0.319011 0.799590
Si Si5 0.311854 0.180238 0.412056
O O1 0.646254 0.780718 0.171516
O O2 0.822048 0.767133 0.332137
O O3 0.817519 0.728144 0.173028
O O4 0.782456 0.000000 0.218849
O O5 0.007696 0.281891 0.309521
O O6 0.197493 0.202261 0.390813
O O7 0.107679 0.241621 0.489285
O O8 0.059633 0.000000 0.377791
O O9 0.425136 0.500000 0.872863
O O10 0.538860 0.720896 0.865034
O O11 0.500000 0.726078 0.000000
O O12 0.063325 0.500000 0.819411
O O13 0.339994 0.000000 0.414082
#
# Coordination Sequence:
#
# PCOD8102290 Si02
#       5
#     8   8   8   8   8
#     4  12  25  42  67  97 132 171 216 264 319 381
#     4  10  20  36  61  92 131 172 216 263 314 375
#     4  11  25  47  72  97 128 165 209 265 327 387
#     4  12  25  42  67  97 132 171 216 264 319 381
#     4  10  20  36  61  92 131 172 216 263 314 375
#
# _framework density 21.554625000000001
#
# number of rings (size 3 to 8) (size 9 to 14) (size 15 to 20)
#    0.000    1.000    2.000    5.400    0.000    4.800 
#    0.000    4.000    0.000    0.000    0.000    0.000 
#    0.000    0.000    0.000    0.000    0.000    0.000 
#
# Total GULP energy -248168.014890 kJ/mol
# GULP energy per Si atom -12408.400745 kJ/mol
# Density = 2.150557 g / cm^3
# Si number density = 21.554625 Si / 1000 Ang^3
#
#
#
# Elastic Constant Matrix: (Units=GPa)
#
#
# Indices 1 2 3 4 5 6 
#
# 1 63.1110 12.1561 33.7313 0.0000 -25.2377 0.0000
# 2 12.1561 89.6221 28.9153 0.0000 -0.6208 0.0000
# 3 33.7313 28.9153 115.7616 0.0000 -20.9043 0.0000
# 4 0.0000 0.0000 0.0000 32.4829 0.0000 -4.0815
# 5 -25.2377 -0.6208 -20.9043 0.0000 17.8011 0.0000
# 6 0.0000 0.0000 0.0000 -4.0815 0.0000 32.7980
#
#
#
# Elastic Compliance Matrix: (Units=1/GPa)
#
#
# Indices 1 2 3 4 5 6 
#
# 1 0.038599 -0.004777 -0.000256 0.000000 0.054257 0.000000
# 2 -0.004777 0.012954 -0.003788 0.000000 -0.010770 0.000000
# 3 -0.000256 -0.003788 0.012146 0.000000 0.013767 0.000000
# 4 0.000000 0.000000 0.000000 0.031274 0.000000 0.003892
# 5 0.054257 -0.010770 0.013767 0.000000 0.148892 0.000000
# 6 0.000000 0.000000 0.000000 0.003892 0.000000 0.030974
#
#
# Mechanical properties :
#
#
# Convention : Reuss Voigt Hill
#
# Bulk Modulus (GPa) = 21.71321 46.45555 34.08438
# Shear Modulus (GPa) = 16.24253 29.52919 22.88586
#
# Velocity S-wave (km/s) = 2.74807 3.70533 3.26200
# Velocity P-wave (km/s) = 4.49050 6.31705 5.48041
#
# Compressibility (1/GPa) = 0.04605492
#
# Stress axis : x y z
#
# Youngs Moduli (GPa) = 25.90721 77.19865 82.33482
#
# Poissons Ratio (x) = 0.36878 0.02110
# Poissons Ratio (y) = 0.12376 0.31192
# Poissons Ratio (z) = 0.00664 0.29246
#
# Static dielectric constant tensor:
#      x y z
#    x 3.871390 0.000000 -0.117150 
#    y 0.000000 3.894320 0.000000 
#    z -0.117150 0.000000 3.917240 
# 
# 
# High freq. dielectric constant tensor:
#      x y z
#    x 1.850060 0.000000 -0.009180 
#    y 0.000000 1.856880 0.000000 
#    z -0.009180 0.000000 1.844970 
# 
# From -- ./inp_files/41900.got.cif
#   From: 2010.06.25/outbox.cif.g09.slc.cpg/sg12_21_cif.got.tgz:41900.got - 2010.06.28 00:19:55.
