data_PCOD8102467
_publ_section_title
;
Structure prediction by ZEFSAII (Michael W. Deem and Ramdas Pophale) SiO2 
 PCOD8102467
Probable space group: C 2/M
;
_chemical_formula_sum "Si O2"
_cell_formula_units_Z 56
_cell_length_a 17.535932
_cell_length_b 27.400003
_cell_length_c 9.569136
_cell_angle_alpha 90.000000
_cell_angle_beta 141.821745
_cell_angle_gamma 90.000000
_cell_volume 2841.960457
_symmetry_space_group_name_H-M "C 2/M"
_symmetry_group_IT_number 12
_symmetry_cell_setting 'monoclinic'
loop_
_space_group_symop_operation_xyz
x,y,z
-x,y,-z
-x,-y,-z
x,-y,z
1/2+x,1/2+y,z
1/2-x,1/2+y,-z
1/2-x,1/2-y,-z
1/2+x,1/2-y,z
loop_
_atom_site_type_symbol
_atom_site_label
_atom_site_fract_x
_atom_site_fract_y
_atom_site_fract_z
Si Si1 0.276724 0.371111 0.871672
Si Si2 0.398863 0.850822 0.124468
Si Si3 0.352134 0.798419 0.508226
Si Si4 0.957698 0.862064 0.794170
Si Si5 0.250526 0.303305 0.343734
Si Si6 0.203614 0.944914 0.316815
Si Si7 0.973710 0.445260 0.803124
O O1 0.189650 0.356586 0.871784
O O2 0.242471 0.338701 0.685603
O O3 0.265488 0.426235 0.796491
O O4 0.418846 0.364963 0.122625
O O5 0.506225 0.812661 0.321207
O O6 0.455015 0.904457 0.182325
O O7 0.321167 0.830654 0.882648
O O8 0.311234 0.747385 0.378375
O O9 0.343975 0.794422 0.664852
O O10 0.862534 0.834986 0.560311
O O11 0.904491 0.914820 0.762573
O O12 0.000000 0.834903 0.000000
O O13 0.327757 0.939640 0.583930
O O14 0.156998 0.000000 0.240406
O O15 0.015976 0.500000 0.817165
O O16 0.000000 0.434804 0.000000
#
# Coordination Sequence:
#
# PCOD8102467 Si02
#       7
#     8   8   8   8   8   8   8
#     4  11  24  40  59  90 131 165 200 260 321 373
#     4  12  24  41  62  93 136 164 204 268 324 379
#     4  11  23  41  63  89 120 166 215 263 304 373
#     4  10  20  40  62  87 125 157 210 265 297 371
#     4  11  24  40  68  90 116 169 222 256 314 368
#     4  10  20  38  66  95 121 166 218 260 313 379
#     4  10  20  36  64  96 127 164 211 262 318 379
#
# _framework density 19.704708
#
# number of rings (size 3 to 8) (size 9 to 14) (size 15 to 20)
#    0.000    1.286    4.286    2.571    2.000    4.286 
#    2.571    1.429    0.000    0.000    0.000    9.000 
#    0.000    0.000    0.000    0.000    0.000    0.000 
#
# Total GULP energy -347054.095152 kJ/mol
# GULP energy per Si atom -12394.789113 kJ/mol
# Density = 1.965986 g / cm^3
# Si number density = 19.704708 Si / 1000 Ang^3
#
#
#
# Elastic Constant Matrix: (Units=GPa)
#
#
# Indices 1 2 3 4 5 6 
#
# 1 117.5124 43.6308 24.9087 0.0000 19.2233 0.0000
# 2 43.6308 117.2688 34.1296 0.0000 12.5395 0.0000
# 3 24.9087 34.1296 91.1211 0.0000 17.4758 0.0000
# 4 0.0000 0.0000 0.0000 68.9800 0.0000 39.9420
# 5 19.2233 12.5395 17.4758 0.0000 27.2593 0.0000
# 6 0.0000 0.0000 0.0000 39.9420 0.0000 52.6849
#
#
#
# Elastic Compliance Matrix: (Units=1/GPa)
#
#
# Indices 1 2 3 4 5 6 
#
# 1 0.010772 -0.003209 -0.000649 0.000000 -0.005704 0.000000
# 2 -0.003209 0.010666 -0.002977 0.000000 -0.000735 0.000000
# 3 -0.000649 -0.002977 0.013587 0.000000 -0.006884 0.000000
# 4 0.000000 0.000000 0.000000 0.025841 0.000000 -0.019591
# 5 -0.005704 -0.000735 -0.006884 0.000000 0.045459 0.000000
# 6 0.000000 0.000000 0.000000 -0.019591 0.000000 0.033833
#
#
# Mechanical properties :
#
#
# Convention : Reuss Voigt Hill
#
# Bulk Modulus (GPa) = 46.82518 59.02671 52.92595
# Shear Modulus (GPa) = 31.06651 44.66706 37.86679
#
# Velocity S-wave (km/s) = 3.97495 4.76628 4.38849
# Velocity P-wave (km/s) = 6.69941 7.76599 7.25233
#
# Compressibility (1/GPa) = 0.02135603
#
# Stress axis : x y z
#
# Youngs Moduli (GPa) = 92.83480 93.75278 73.60022
#
# Poissons Ratio (x) = 0.30085 0.04774
# Poissons Ratio (y) = 0.29791 0.21910
# Poissons Ratio (z) = 0.06021 0.27909
#
# Static dielectric constant tensor:
#      x y z
#    x 15.122320 0.000000 9.522130 
#    y 0.000000 3.815660 0.000000 
#    z 9.522130 0.000000 11.236540 
# 
# 
# High freq. dielectric constant tensor:
#      x y z
#    x 1.748530 0.000000 0.020550 
#    y 0.000000 1.771770 0.000000 
#    z 0.020550 0.000000 1.783190 
# 
# From -- ./inp_files/80068.got.cif
#   From: 2010.06.25/outbox.cif.g09.slc.cpg/sg12_41_cif.got.tgz:80068.got - 2010.06.28 00:19:55.
