data_PCOD8102662
_publ_section_title
;
Structure prediction by ZEFSAII (Michael W. Deem and Ramdas Pophale) SiO2 
 PCOD8102662
Probable space group: C 2/M
;
_chemical_formula_sum "Si O2"
_cell_formula_units_Z 48
_cell_length_a 8.979352
_cell_length_b 9.949588
_cell_length_c 25.268997
_cell_angle_alpha 90.000000
_cell_angle_beta 83.526489
_cell_angle_gamma 90.000000
_cell_volume 2243.159775
_symmetry_space_group_name_H-M "C 2/M"
_symmetry_group_IT_number 12
_symmetry_cell_setting 'monoclinic'
loop_
_space_group_symop_operation_xyz
x,y,z
-x,y,-z
-x,-y,-z
x,-y,z
1/2+x,1/2+y,z
1/2-x,1/2+y,-z
1/2-x,1/2-y,-z
1/2+x,1/2-y,z
loop_
_atom_site_type_symbol
_atom_site_label
_atom_site_fract_x
_atom_site_fract_y
_atom_site_fract_z
Si Si1 0.554468 0.848540 0.056006
Si Si2 0.386396 0.352499 0.645673
Si Si3 0.760508 0.154709 0.884255
Si Si4 0.392488 0.772492 0.283121
Si Si5 0.840556 0.850424 0.532163
Si Si6 0.319892 0.852999 0.787700
O O1 0.418170 0.844473 0.103122
O O2 0.673076 0.735689 0.068383
O O3 0.624076 0.000000 0.052983
O O4 0.500000 0.809804 0.000000
O O5 0.443588 0.500000 0.629329
O O6 0.525114 0.283967 0.668909
O O7 0.241972 0.364484 0.689842
O O8 0.349901 0.283672 0.590702
O O9 0.806302 0.230326 0.828980
O O10 0.819921 0.000000 0.880704
O O11 0.513573 0.853054 0.243694
O O12 0.311019 0.658556 0.250892
O O13 0.750000 0.750000 0.500000
O O14 0.000000 0.865338 0.500000
O O15 0.765220 0.000000 0.537782
O O16 0.300202 0.000000 0.815844
#
# Coordination Sequence:
#
# PCOD8102662 Si02
#       6
#     8   8   8   8   8   8
#     4  10  22  41  63  88 119 153 191 237 286 337
#     4  10  20  37  58  81 113 149 187 234 285 337
#     4  11  24  39  60  89 118 153 194 235 283 340
#     4  10  22  37  58  84 111 147 193 237 283 338
#     4  10  21  37  58  85 116 150 188 233 285 341
#     4  11  23  39  59  84 115 151 191 236 286 339
#
# _framework density 21.398387
#
# number of rings (size 3 to 8) (size 9 to 14) (size 15 to 20)
#    0.000    1.667    0.000    4.000    0.000    8.667 
#    0.000    4.167    0.000    0.000    0.000    0.000 
#    0.000    0.000    0.000    0.000    0.000    0.000 
#
# Total GULP energy -297496.160326 kJ/mol
# GULP energy per Si atom -12395.673347 kJ/mol
# Density = 2.134968 g / cm^3
# Si number density = 21.398387 Si / 1000 Ang^3
#
#
#
# Elastic Constant Matrix: (Units=GPa)
#
#
# Indices 1 2 3 4 5 6 
#
# 1 71.8066 28.2226 8.5325 0.0000 8.4137 0.0000
# 2 28.2226 132.3890 33.7575 0.0000 18.1515 0.0000
# 3 8.5325 33.7575 99.8364 0.0000 9.2884 0.0000
# 4 0.0000 0.0000 0.0000 27.5387 0.0000 -2.1948
# 5 8.4137 18.1515 9.2884 0.0000 36.2158 0.0000
# 6 0.0000 0.0000 0.0000 -2.1948 0.0000 11.7746
#
#
#
# Elastic Compliance Matrix: (Units=1/GPa)
#
#
# Indices 1 2 3 4 5 6 
#
# 1 0.015344 -0.002959 -0.000120 0.000000 -0.002051 0.000000
# 2 -0.002959 0.009297 -0.002583 0.000000 -0.003310 0.000000
# 3 -0.000120 -0.002583 0.011040 0.000000 -0.001509 0.000000
# 4 0.000000 0.000000 0.000000 0.036860 0.000000 0.006871
# 5 -0.002051 -0.003310 -0.001509 0.000000 0.030135 0.000000
# 6 0.000000 0.000000 0.000000 0.006871 0.000000 0.086209
#
#
# Mechanical properties :
#
#
# Convention : Reuss Voigt Hill
#
# Bulk Modulus (GPa) = 41.05556 49.45080 45.25318
# Shear Modulus (GPa) = 24.00067 30.67378 27.33723
#
# Velocity S-wave (km/s) = 3.35268 3.79022 3.57814
# Velocity P-wave (km/s) = 5.84938 6.50493 6.18584
#
# Compressibility (1/GPa) = 0.02435724
#
# Stress axis : x y z
#
# Youngs Moduli (GPa) = 65.17229 107.56544 90.57708
#
# Poissons Ratio (x) = 0.31831 0.01087
# Poissons Ratio (y) = 0.19286 0.23393
# Poissons Ratio (z) = 0.00782 0.27780
#
# Static dielectric constant tensor:
#      x y z
#    x 3.789060 0.000000 0.042620 
#    y 0.000000 3.947980 0.000000 
#    z 0.042620 0.000000 3.995100 
# 
# 
# High freq. dielectric constant tensor:
#      x y z
#    x 1.836080 0.000000 0.002190 
#    y 0.000000 1.832700 0.000000 
#    z 0.002190 0.000000 1.853950 
# 
# From -- ./inp_files/371865.got.cif
#   From: 2010.06.25/outbox.cif.g09.slc.cpg/sg12_186_cif.got.tgz:371865.got - 2010.06.28 00:19:55.
