data_PCOD8102863
_publ_section_title
;
Structure prediction by ZEFSAII (Michael W. Deem and Ramdas Pophale) SiO2 
 PCOD8102863
Probable space group: C 2/M
;
_chemical_formula_sum "Si O2"
_cell_formula_units_Z 56
_cell_length_a 18.939456
_cell_length_b 9.066655
_cell_length_c 19.157842
_cell_angle_alpha 90.000000
_cell_angle_beta 64.984888
_cell_angle_gamma 90.000000
_cell_volume 2981.147450
_symmetry_space_group_name_H-M "C 2/M"
_symmetry_group_IT_number 12
_symmetry_cell_setting 'monoclinic'
loop_
_space_group_symop_operation_xyz
x,y,z
-x,y,-z
-x,-y,-z
x,-y,z
1/2+x,1/2+y,z
1/2-x,1/2+y,-z
1/2-x,1/2-y,-z
1/2+x,1/2-y,z
loop_
_atom_site_type_symbol
_atom_site_label
_atom_site_fract_x
_atom_site_fract_y
_atom_site_fract_z
Si Si1 0.300305 0.338202 0.170713
Si Si2 0.449286 0.830107 0.089590
Si Si3 0.843161 0.840848 0.310980
Si Si4 0.083009 0.670869 0.429715
Si Si5 0.123249 0.325583 0.256023
Si Si6 0.491824 0.671826 0.798277
Si Si7 0.223598 0.828036 0.441629
O O1 0.300022 0.500000 0.134090
O O2 0.362399 0.230792 0.107521
O O3 0.331741 0.359370 0.234553
O O4 0.212918 0.273236 0.210798
O O5 0.493626 0.746938 0.133275
O O6 0.440837 0.000000 0.114673
O O7 0.500000 0.807959 0.000000
O O8 0.791268 0.705740 0.358111
O O9 0.934189 0.805492 0.284318
O O10 0.821423 0.000000 0.355707
O O11 0.107354 0.500000 0.424881
O O12 0.087859 0.721041 0.346543
O O13 0.141803 0.766191 0.450503
O O14 0.000000 0.699711 0.500000
O O15 0.115421 0.500000 0.250172
O O16 0.079932 0.245814 0.211166
O O17 0.474266 0.500000 0.818413
O O18 0.250000 0.750000 0.500000
O O19 0.215453 0.000000 0.456895
#
# Coordination Sequence:
#
# PCOD8102863 Si02
#       7
#     8   8   8   8   8   8   8
#     4   9  18  35  60  85 113 149 185 229 282 337
#     4  10  21  38  61  89 119 149 188 236 281 336
#     4   9  18  37  57  78 109 145 188 237 284 334
#     4  10  22  41  61  83 114 153 194 240 296 346
#     4  10  20  37  59  85 119 153 191 238 286 341
#     4  10  22  37  58  87 118 151 190 234 280 338
#     4  12  25  38  56  80 110 148 192 242 291 341
#
# _framework density 18.784713
#
# number of rings (size 3 to 8) (size 9 to 14) (size 15 to 20)
#    0.000    2.000    1.429    3.000    2.000    5.429 
#    0.000    0.714    0.000    0.000    0.000    0.000 
#    0.000    0.000    0.000    0.000    0.000    0.000 
#
# Total GULP energy -347078.527898 kJ/mol
# GULP energy per Si atom -12395.661711 kJ/mol
# Density = 1.874196 g / cm^3
# Si number density = 18.784713 Si / 1000 Ang^3
#
#
#
# Elastic Constant Matrix: (Units=GPa)
#
#
# Indices 1 2 3 4 5 6 
#
# 1 123.1521 62.2843 50.1012 0.0000 -11.8625 0.0002
# 2 62.2843 112.6955 53.3155 0.0000 -4.3094 0.0004
# 3 50.1012 53.3155 91.2656 0.0000 -15.4111 0.0000
# 4 0.0000 0.0000 0.0000 23.2400 0.0000 3.7067
# 5 -11.8625 -4.3094 -15.4111 0.0000 27.6938 0.0000
# 6 0.0002 0.0004 0.0000 3.7067 0.0000 25.4711
#
#
#
# Elastic Compliance Matrix: (Units=1/GPa)
#
#
# Indices 1 2 3 4 5 6 
#
# 1 0.012323 -0.005141 -0.003317 0.000000 0.002633 0.000000
# 2 -0.005141 0.014540 -0.006249 0.000000 -0.003417 0.000000
# 3 -0.003317 -0.006249 0.017687 0.000000 0.007449 0.000000
# 4 0.000000 0.000000 0.000000 0.044052 0.000000 -0.006411
# 5 0.002633 -0.003417 0.007449 0.000000 0.040850 0.000000
# 6 0.000000 0.000000 0.000000 -0.006411 0.000000 0.040193
#
#
# Mechanical properties :
#
#
# Convention : Reuss Voigt Hill
#
# Bulk Modulus (GPa) = 66.06849 73.16836 69.61842
# Shear Modulus (GPa) = 24.49727 26.04180 25.26954
#
# Velocity S-wave (km/s) = 3.61516 3.72738 3.67170
# Velocity P-wave (km/s) = 7.25766 7.58684 7.42407
#
# Compressibility (1/GPa) = 0.01513581
#
# Stress axis : x y z
#
# Youngs Moduli (GPa) = 81.14885 68.77421 56.54023
#
# Poissons Ratio (x) = 0.35354 0.18756
# Poissons Ratio (y) = 0.41715 0.35333
# Poissons Ratio (z) = 0.26919 0.42978
#
# Static dielectric constant tensor:
#      x y z
#    x 3.522470 0.000000 -0.202370 
#    y 0.000000 3.535360 0.000000 
#    z -0.202370 0.000000 3.467480 
# 
# 
# High freq. dielectric constant tensor:
#      x y z
#    x 1.733290 0.000000 -0.012630 
#    y 0.000000 1.731240 0.000000 
#    z -0.012630 0.000000 1.718500 
# 
# From -- ./inp_files/313738.got.cif
#   From: 2010.06.25/outbox.cif.g09.slc.cpg/sg12_157_cif.got.tgz:313738.got - 2010.06.28 00:19:55.
