data_PCOD8102823
_publ_section_title
;
Structure prediction by ZEFSAII (Michael W. Deem and Ramdas Pophale) SiO2 
 PCOD8102823
Probable space group: C 2/M
;
_chemical_formula_sum "Si O2"
_cell_formula_units_Z 48
_cell_length_a 27.469584
_cell_length_b 23.091556
_cell_length_c 9.564809
_cell_angle_alpha 90.000000
_cell_angle_beta 152.946168
_cell_angle_gamma 90.000000
_cell_volume 2759.486295
_symmetry_space_group_name_H-M "C 2/M"
_symmetry_group_IT_number 12
_symmetry_cell_setting 'monoclinic'
loop_
_space_group_symop_operation_xyz
x,y,z
-x,y,-z
-x,-y,-z
x,-y,z
1/2+x,1/2+y,z
1/2-x,1/2+y,-z
1/2-x,1/2-y,-z
1/2+x,1/2-y,z
loop_
_atom_site_type_symbol
_atom_site_label
_atom_site_fract_x
_atom_site_fract_y
_atom_site_fract_z
Si Si1 0.691278 0.231724 0.207487
Si Si2 0.395088 0.434030 0.146563
Si Si3 0.971210 0.065757 0.771775
Si Si4 0.752788 0.830651 0.857968
Si Si5 0.664926 0.671217 0.627607
Si Si6 0.530781 0.781043 0.237239
O O1 0.750000 0.250000 0.500000
O O2 0.688949 0.286201 0.097142
O O3 0.752426 0.178789 0.289034
O O4 0.572065 0.208709 0.929028
O O5 0.500000 0.413244 0.500000
O O6 0.365974 0.500000 0.112835
O O7 0.423167 0.428497 0.054154
O O8 0.292994 0.394904 0.922330
O O9 0.875694 0.105477 0.470515
O O10 0.928159 0.000000 0.660348
O O11 0.000000 0.086777 0.000000
O O12 0.624392 0.826435 0.515293
O O13 0.780091 0.813349 0.085691
O O14 0.566795 0.714864 0.351139
O O15 0.500000 0.792327 0.000000
#
# Coordination Sequence:
#
# PCOD8102823 Si02
#       6
#     8   8   8   8   8   8
#     4  11  22  36  56  79 106 153 187 224 281 335
#     4  10  20  37  59  84 113 147 184 227 282 336
#     4  10  21  34  55  85 115 145 183 233 281 329
#     4  11  23  35  55  85 111 145 186 234 275 334
#     4  11  22  35  55  81 114 146 183 229 279 332
#     4  11  21  36  53  79 110 144 188 227 273 331
#
# _framework density 17.394541
#
# number of rings (size 3 to 8) (size 9 to 14) (size 15 to 20)
#    0.000    1.333    5.000    3.500    2.333    2.000 
#    0.000    0.000    0.000    1.500    0.000    2.333 
#    0.000    0.000    0.000    0.000    0.000    0.000 
#
# Total GULP energy -297622.401872 kJ/mol
# GULP energy per Si atom -12400.933411 kJ/mol
# Density = 1.735495 g / cm^3
# Si number density = 17.394541 Si / 1000 Ang^3
#
#
#
# Elastic Constant Matrix: (Units=GPa)
#
#
# Indices 1 2 3 4 5 6 
#
# 1 118.7665 31.2970 53.9428 0.0000 5.2784 0.0000
# 2 31.2970 87.8208 44.7641 0.0000 13.2044 0.0000
# 3 53.9428 44.7641 108.0409 0.0000 2.4740 0.0000
# 4 0.0000 0.0000 0.0000 23.8905 0.0000 1.6650
# 5 5.2784 13.2044 2.4740 0.0000 45.4783 0.0000
# 6 0.0000 0.0000 0.0000 1.6650 0.0000 25.5980
#
#
#
# Elastic Compliance Matrix: (Units=1/GPa)
#
#
# Indices 1 2 3 4 5 6 
#
# 1 0.011045 -0.001316 -0.004955 0.000000 -0.000630 0.000000
# 2 -0.001316 0.015306 -0.005594 0.000000 -0.003987 0.000000
# 3 -0.004955 -0.005594 0.014014 0.000000 0.001437 0.000000
# 4 0.000000 0.000000 0.000000 0.042048 0.000000 -0.002735
# 5 -0.000630 -0.003987 0.001437 0.000000 0.023141 0.000000
# 6 0.000000 0.000000 0.000000 -0.002735 0.000000 0.039244
#
#
# Mechanical properties :
#
#
# Convention : Reuss Voigt Hill
#
# Bulk Modulus (GPa) = 60.10645 63.84844 61.97745
# Shear Modulus (GPa) = 28.72351 31.30163 30.01257
#
# Velocity S-wave (km/s) = 4.06802 4.24666 4.15830
# Velocity P-wave (km/s) = 7.52960 7.79944 7.66571
#
# Compressibility (1/GPa) = 0.01663715
#
# Stress axis : x y z
#
# Youngs Moduli (GPa) = 90.53734 65.33223 71.35511
#
# Poissons Ratio (x) = 0.08596 0.35357
# Poissons Ratio (y) = 0.11912 0.39913
# Poissons Ratio (z) = 0.44862 0.36544
#
# Static dielectric constant tensor:
#      x y z
#    x 3.630010 0.000000 -0.021800 
#    y 0.000000 3.097610 0.000000 
#    z -0.021800 0.000000 3.329340 
# 
# 
# High freq. dielectric constant tensor:
#      x y z
#    x 1.690600 0.000000 -0.018850 
#    y 0.000000 1.654890 0.000000 
#    z -0.018850 0.000000 1.662680 
# 
# From -- ./inp_files/106819.got.cif
#   From: 2010.06.25/outbox.cif.g09.slc.cpg/sg12_54_cif.got.tgz:106819.got - 2010.06.28 00:19:55.
