data_PCOD8102785
_publ_section_title
;
Structure prediction by ZEFSAII (Michael W. Deem and Ramdas Pophale) SiO2 
 PCOD8102785
Probable space group: C 2/M
;
_chemical_formula_sum "Si O2"
_cell_formula_units_Z 56
_cell_length_a 29.051806
_cell_length_b 8.930490
_cell_length_c 12.653791
_cell_angle_alpha 90.000000
_cell_angle_beta 67.163236
_cell_angle_gamma 90.000000
_cell_volume 3025.647231
_symmetry_space_group_name_H-M "C 2/M"
_symmetry_group_IT_number 12
_symmetry_cell_setting 'monoclinic'
loop_
_space_group_symop_operation_xyz
x,y,z
-x,y,-z
-x,-y,-z
x,-y,z
1/2+x,1/2+y,z
1/2-x,1/2+y,-z
1/2-x,1/2-y,-z
1/2+x,1/2-y,z
loop_
_atom_site_type_symbol
_atom_site_label
_atom_site_fract_x
_atom_site_fract_y
_atom_site_fract_z
Si Si1 0.385268 0.675554 0.944815
Si Si2 0.767740 0.830955 0.670059
Si Si3 0.334877 0.673709 0.205268
Si Si4 0.849392 0.168735 0.749978
Si Si5 0.137120 0.323649 0.464978
Si Si6 0.489471 0.176359 0.889545
Si Si7 0.081296 0.823545 0.702352
O O1 0.399364 0.500000 0.936794
O O2 0.356344 0.722135 0.863730
O O3 0.434402 0.774704 0.906499
O O4 0.348739 0.717744 0.073399
O O5 0.713186 0.763121 0.714440
O O6 0.790387 0.826078 0.769987
O O7 0.806792 0.739755 0.560456
O O8 0.764943 0.000000 0.629512
O O9 0.322155 0.500000 0.226845
O O10 0.380758 0.720857 0.238292
O O11 0.879018 0.275078 0.640247
O O12 0.870196 0.000000 0.718361
O O13 0.136841 0.500000 0.477485
O O14 0.097701 0.252445 0.579384
O O15 0.527127 0.261663 0.779167
O O16 0.495918 0.000000 0.868564
O O17 0.500000 0.225933 0.000000
O O18 0.078294 0.000000 0.688565
#
# Coordination Sequence:
#
# PCOD8102785 Si02
#       7
#     8   8   8   8   8   8   8
#     4  10  20  38  61  84 115 150 190 233 279 338
#     4   9  19  36  56  81 115 152 189 228 279 333
#     4  10  21  34  55  87 114 147 191 232 279 335
#     4   8  18  37  58  82 113 150 189 231 279 332
#     4  10  20  37  59  82 113 149 189 235 282 332
#     4  11  23  38  57  86 119 148 185 231 281 334
#     4  11  22  38  60  83 114 150 190 233 282 337
#
# _framework density 18.508438000000002
#
# number of rings (size 3 to 8) (size 9 to 14) (size 15 to 20)
#    0.857    1.286    1.429    2.143    0.000    4.000 
#    0.000    0.714    0.000    4.286    0.000    0.000 
#    0.000    0.000    0.000    0.000    0.000    0.000 
#
# Total GULP energy -347098.769692 kJ/mol
# GULP energy per Si atom -12396.384632 kJ/mol
# Density = 1.846631 g / cm^3
# Si number density = 18.508438 Si / 1000 Ang^3
#
#
#
# Elastic Constant Matrix: (Units=GPa)
#
#
# Indices 1 2 3 4 5 6 
#
# 1 27.6382 14.1478 -8.3191 0.0000 -10.8894 0.0000
# 2 14.1478 67.4316 19.6310 0.0000 -7.8519 0.0000
# 3 -8.3191 19.6310 71.0247 0.0000 -7.1896 0.0000
# 4 0.0000 0.0000 0.0000 24.1448 0.0000 -8.6558
# 5 -10.8894 -7.8519 -7.1896 0.0000 30.2030 0.0000
# 6 0.0000 0.0000 0.0000 -8.6558 0.0000 28.7018
#
#
#
# Elastic Compliance Matrix: (Units=1/GPa)
#
#
# Indices 1 2 3 4 5 6 
#
# 1 0.053417 -0.012391 0.011584 0.000000 0.018795 0.000000
# 2 -0.012391 0.019311 -0.006899 0.000000 -0.001089 0.000000
# 3 0.011584 -0.006899 0.018019 0.000000 0.006672 0.000000
# 4 0.000000 0.000000 0.000000 0.046437 0.000000 0.014004
# 5 0.018795 -0.001089 0.006672 0.000000 0.041191 0.000000
# 6 0.000000 0.000000 0.000000 0.014004 0.000000 0.039064
#
#
# Mechanical properties :
#
#
# Convention : Reuss Voigt Hill
#
# Bulk Modulus (GPa) = 13.27417 24.11266 18.69341
# Shear Modulus (GPa) = 19.38259 25.98557 22.68408
#
# Velocity S-wave (km/s) = 3.23960 3.75104 3.50467
# Velocity P-wave (km/s) = 4.60227 5.64062 5.14770
#
# Compressibility (1/GPa) = 0.07533428
#
# Stress axis : x y z
#
# Youngs Moduli (GPa) = 18.72067 51.78304 55.49757
#
# Poissons Ratio (x) = 0.64166 -0.64289
# Poissons Ratio (y) = 0.23197 0.38289
# Poissons Ratio (z) = -0.21686 0.35727
#
# Static dielectric constant tensor:
#      x y z
#    x 3.242710 0.000000 0.093990 
#    y 0.000000 3.362630 0.000000 
#    z 0.093990 0.000000 3.376130 
# 
# 
# High freq. dielectric constant tensor:
#      x y z
#    x 1.702020 0.000000 0.000670 
#    y 0.000000 1.722890 0.000000 
#    z 0.000670 0.000000 1.716270 
# 
# From -- ./inp_files/187270.got.cif
#   From: 2010.06.25/outbox.cif.g09.slc.cpg/sg12_94_cif.got.tgz:187270.got - 2010.06.28 00:19:55.
