data_PCOD8102866
_publ_section_title
;
Structure prediction by ZEFSAII (Michael W. Deem and Ramdas Pophale) SiO2 
 PCOD8102866
Probable space group: C 2/M
;
_chemical_formula_sum "Si O2"
_cell_formula_units_Z 56
_cell_length_a 27.794967
_cell_length_b 24.558691
_cell_length_c 6.976367
_cell_angle_alpha 90.000000
_cell_angle_beta 141.249450
_cell_angle_gamma 90.000000
_cell_volume 2980.760819
_symmetry_space_group_name_H-M "C 2/M"
_symmetry_group_IT_number 12
_symmetry_cell_setting 'monoclinic'
loop_
_space_group_symop_operation_xyz
x,y,z
-x,y,-z
-x,-y,-z
x,-y,z
1/2+x,1/2+y,z
1/2-x,1/2+y,-z
1/2-x,1/2-y,-z
1/2+x,1/2-y,z
loop_
_atom_site_type_symbol
_atom_site_label
_atom_site_fract_x
_atom_site_fract_y
_atom_site_fract_z
Si Si1 0.796847 0.897554 0.130287
Si Si2 0.192520 0.438890 0.478668
Si Si3 0.804561 0.299053 0.112189
Si Si4 0.919349 0.263433 0.155877
Si Si5 0.413686 0.160870 0.782467
Si Si6 0.915280 0.136824 0.181525
Si Si7 0.169879 0.938811 0.364294
O O1 0.862692 0.870909 0.204677
O O2 0.832338 0.932869 0.412532
O O3 0.742671 0.934345 0.828309
O O4 0.748821 0.850919 0.087475
O O5 0.157450 0.500000 0.363581
O O6 0.125156 0.394557 0.262554
O O7 0.245011 0.428121 0.455410
O O8 0.846935 0.284635 0.048873
O O9 0.868803 0.312780 0.467503
O O10 0.750000 0.250000 0.000000
O O11 0.913505 0.199045 0.109274
O O12 0.000000 0.280380 0.500000
O O13 0.913555 0.291149 0.934048
O O14 0.500000 0.144172 0.000000
O O15 0.000000 0.117611 0.500000
O O16 0.889779 0.101856 0.919773
O O17 0.143980 0.000000 0.232339
#
# Coordination Sequence:
#
# PCOD8102866 Si02
#       7
#     8   8   8   8   8   8   8
#     4  10  20  37  59  86 114 150 197 244 291 356
#     4   9  20  39  60  86 118 151 196 246 290 346
#     4  11  22  37  59  90 117 153 202 240 291 352
#     4  11  22  39  59  84 125 158 189 243 295 350
#     4  11  23  38  61  89 121 160 195 240 297 348
#     4  10  23  38  55  84 118 154 193 242 301 350
#     4  10  21  39  62  85 112 153 199 246 297 347
#
# _framework density 18.78715
#
# number of rings (size 3 to 8) (size 9 to 14) (size 15 to 20)
#    0.000    1.714    2.857    1.286    2.000    2.286 
#    0.000    0.714    0.000    0.429    0.000    0.000 
#    0.000    0.000    0.000    0.000    0.000    0.000 
#
# Total GULP energy -347259.142666 kJ/mol
# GULP energy per Si atom -12402.112238 kJ/mol
# Density = 1.874439 g / cm^3
# Si number density = 18.787150 Si / 1000 Ang^3
#
#
#
# Elastic Constant Matrix: (Units=GPa)
#
#
# Indices 1 2 3 4 5 6 
#
# 1 80.0552 32.7139 35.0447 0.0000 5.7302 0.0000
# 2 32.7139 98.8637 40.8518 0.0000 5.9298 0.0000
# 3 35.0447 40.8518 81.5665 0.0000 3.5485 0.0000
# 4 0.0000 0.0000 0.0000 20.3823 0.0000 -9.3659
# 5 5.7302 5.9298 3.5485 0.0000 34.5701 0.0000
# 6 0.0000 0.0000 0.0000 -9.3659 0.0000 13.5259
#
#
#
# Elastic Compliance Matrix: (Units=1/GPa)
#
#
# Indices 1 2 3 4 5 6 
#
# 1 0.016200 -0.003048 -0.005364 0.000000 -0.001612 0.000000
# 2 -0.003048 0.013410 -0.005353 0.000000 -0.001246 0.000000
# 3 -0.005364 -0.005353 0.017244 0.000000 0.000037 0.000000
# 4 0.000000 0.000000 0.000000 0.071959 0.000000 0.049828
# 5 -0.001612 -0.001246 0.000037 0.000000 0.029404 0.000000
# 6 0.000000 0.000000 0.000000 0.049828 0.000000 0.108435
#
#
# Mechanical properties :
#
#
# Convention : Reuss Voigt Hill
#
# Bulk Modulus (GPa) = 51.74476 53.07848 52.41162
# Shear Modulus (GPa) = 17.20450 23.82063 20.51257
#
# Velocity S-wave (km/s) = 3.02943 3.56465 3.30789
# Velocity P-wave (km/s) = 6.31182 6.72727 6.52285
#
# Compressibility (1/GPa) = 0.01932563
#
# Stress axis : x y z
#
# Youngs Moduli (GPa) = 61.72768 74.57194 57.99205
#
# Poissons Ratio (x) = 0.22726 0.31106
# Poissons Ratio (y) = 0.18812 0.31041
# Poissons Ratio (z) = 0.33110 0.39916
#
# Static dielectric constant tensor:
#      x y z
#    x 3.126540 0.000000 0.222920 
#    y 0.000000 3.519860 0.000000 
#    z 0.222920 0.000000 3.302640 
# 
# 
# High freq. dielectric constant tensor:
#      x y z
#    x 1.736000 0.000000 -0.001760 
#    y 0.000000 1.740220 0.000000 
#    z -0.001760 0.000000 1.724050 
# 
# From -- ./inp_files/17634.got.cif
#   From: 2010.06.25/outbox.cif.g09.slc.cpg/sg12_9_cif.got.tgz:17634.got - 2010.06.28 00:19:55.
