data_PCOD8102091
_publ_section_title
;
Structure prediction by ZEFSAII (Michael W. Deem and Ramdas Pophale) SiO2 
 PCOD8102091
Probable space group: C 2/M
;
_chemical_formula_sum "Si O2"
_cell_formula_units_Z 48
_cell_length_a 16.580385
_cell_length_b 28.482599
_cell_length_c 9.852164
_cell_angle_alpha 90.000000
_cell_angle_beta 147.755146
_cell_angle_gamma 90.000000
_cell_volume 2482.399454
_symmetry_space_group_name_H-M "C 2/M"
_symmetry_group_IT_number 12
_symmetry_cell_setting 'monoclinic'
loop_
_space_group_symop_operation_xyz
x,y,z
-x,y,-z
-x,-y,-z
x,-y,z
1/2+x,1/2+y,z
1/2-x,1/2+y,-z
1/2-x,1/2-y,-z
1/2+x,1/2-y,z
loop_
_atom_site_type_symbol
_atom_site_label
_atom_site_fract_x
_atom_site_fract_y
_atom_site_fract_z
Si Si1 0.561264 0.448897 0.234698
Si Si2 0.633945 0.552861 0.795867
Si Si3 0.688209 0.125829 0.406443
Si Si4 0.705431 0.776566 0.568397
Si Si5 0.654747 0.126898 0.049924
Si Si6 0.859661 0.731667 0.044973
O O1 0.610165 0.500000 0.364743
O O2 0.434250 0.428189 0.157451
O O3 0.705951 0.417569 0.414228
O O4 0.500000 0.456728 0.000000
O O5 0.500000 0.551946 0.500000
O O6 0.702300 0.500000 0.910056
O O7 0.759373 0.588138 0.916807
O O8 0.726746 0.168268 0.564759
O O9 0.716664 0.137447 0.288917
O O10 0.517286 0.109514 0.188392
O O11 0.750000 0.750000 0.500000
O O12 0.819214 0.760096 0.849505
O O13 0.530763 0.761819 0.342134
O O14 0.671957 0.176679 0.004213
O O15 0.750000 0.750000 0.000000
#
# Coordination Sequence:
#
# PCOD8102091 Si02
#       6
#     8   8   8   8   8   8
#     4  10  22  40  60  88 123 155 194 243 296 357
#     4  10  20  36  60  89 118 149 193 245 293 349
#     4  10  21  38  60  86 117 157 198 244 298 355
#     4  11  22  40  60  84 117 157 201 244 298 356
#     4  10  21  38  60  87 120 152 197 252 295 350
#     4  11  24  40  59  87 121 157 200 252 299 352
#
# _framework density 19.336130000000001
#
# number of rings (size 3 to 8) (size 9 to 14) (size 15 to 20)
#    0.000    1.667    3.333    1.000    0.000    6.000 
#    0.000    4.167    0.000    3.000    0.000    0.000 
#    0.000    0.000    0.000    0.000    0.000    0.000 
#
# Total GULP energy -297376.271528 kJ/mol
# GULP energy per Si atom -12390.677980 kJ/mol
# Density = 1.929212 g / cm^3
# Si number density = 19.336130 Si / 1000 Ang^3
#
#
#
# Elastic Constant Matrix: (Units=GPa)
#
#
# Indices 1 2 3 4 5 6 
#
# 1 126.8249 53.1166 18.2300 0.0000 3.9100 0.0000
# 2 53.1166 101.5599 35.5871 0.0000 21.5040 0.0000
# 3 18.2300 35.5871 50.3641 0.0000 5.4077 0.0000
# 4 0.0000 0.0000 0.0000 36.3164 0.0000 12.4483
# 5 3.9100 21.5040 5.4077 0.0000 30.9616 0.0000
# 6 0.0000 0.0000 0.0000 12.4483 0.0000 42.6797
#
#
#
# Elastic Compliance Matrix: (Units=1/GPa)
#
#
# Indices 1 2 3 4 5 6 
#
# 1 0.010311 -0.006097 0.000266 0.000000 0.002886 0.000000
# 2 -0.006097 0.018729 -0.009898 0.000000 -0.010509 0.000000
# 3 0.000266 -0.009898 0.026516 0.000000 0.002210 0.000000
# 4 0.000000 0.000000 0.000000 0.030594 0.000000 -0.008923
# 5 0.002886 -0.010509 0.002210 0.000000 0.038847 0.000000
# 6 0.000000 0.000000 0.000000 -0.008923 0.000000 0.026033
#
#
# Mechanical properties :
#
#
# Convention : Reuss Voigt Hill
#
# Bulk Modulus (GPa) = 41.49886 54.73515 48.11700
# Shear Modulus (GPa) = 26.24375 33.44590 29.84482
#
# Velocity S-wave (km/s) = 3.68807 4.16349 3.93297
# Velocity P-wave (km/s) = 6.29637 7.17506 6.75003
#
# Compressibility (1/GPa) = 0.02409705
#
# Stress axis : x y z
#
# Youngs Moduli (GPa) = 96.98114 53.39345 37.71313
#
# Poissons Ratio (x) = 0.32555 -0.01003
# Poissons Ratio (y) = 0.59131 0.37330
# Poissons Ratio (z) = -0.02580 0.52851
#
# Static dielectric constant tensor:
#      x y z
#    x 3.610930 0.000010 -0.279770 
#    y 0.000010 -49.888760 0.000010 
#    z -0.279770 0.000010 2.885800 
# 
# 
# High freq. dielectric constant tensor:
#      x y z
#    x 1.767560 0.000000 -0.002480 
#    y 0.000000 1.757130 0.000000 
#    z -0.002480 0.000000 1.741760 
# 
# From -- ./inp_files/67302.got.cif
#   From: 2010.06.25/outbox.cif.g09.slc.cpg/sg12_34_cif.got.tgz:67302.got - 2010.06.28 00:19:55.
