data_PCOD8102994
_publ_section_title
;
Structure prediction by ZEFSAII (Michael W. Deem and Ramdas Pophale) SiO2 
 PCOD8102994
Probable space group: C 2/M
;
_chemical_formula_sum "Si O2"
_cell_formula_units_Z 64
_cell_length_a 24.300537
_cell_length_b 8.961818
_cell_length_c 19.137857
_cell_angle_alpha 90.000000
_cell_angle_beta 129.918536
_cell_angle_gamma 90.000000
_cell_volume 3196.514270
_symmetry_space_group_name_H-M "C 2/M"
_symmetry_group_IT_number 12
_symmetry_cell_setting 'monoclinic'
loop_
_space_group_symop_operation_xyz
x,y,z
-x,y,-z
-x,-y,-z
x,-y,z
1/2+x,1/2+y,z
1/2-x,1/2+y,-z
1/2-x,1/2-y,-z
1/2+x,1/2-y,z
loop_
_atom_site_type_symbol
_atom_site_label
_atom_site_fract_x
_atom_site_fract_y
_atom_site_fract_z
Si Si1 0.817556 0.324110 0.518353
Si Si2 0.222290 0.172754 0.187214
Si Si3 0.084269 0.825203 0.875187
Si Si4 0.076664 0.168135 0.663474
Si Si5 0.174083 0.828693 0.622054
Si Si6 0.431358 0.676452 0.983128
Si Si7 0.458093 0.670034 0.666559
Si Si8 0.675359 0.169162 0.846388
O O1 0.808700 0.500000 0.514978
O O2 0.750000 0.250000 0.500000
O O3 0.823917 0.274321 0.443613
O O4 0.889348 0.275584 0.617778
O O5 0.262686 0.280361 0.273823
O O6 0.138496 0.214929 0.119965
O O7 0.247311 0.197845 0.126627
O O8 0.235585 0.000000 0.219433
O O9 0.158676 0.766744 0.901481
O O10 0.016408 0.780660 0.771781
O O11 0.093170 0.000000 0.887974
O O12 0.073450 0.754146 0.942949
O O13 0.096197 0.188321 0.597370
O O14 0.119232 0.293633 0.739633
O O15 0.992748 0.185653 0.616367
O O16 0.100939 0.000000 0.706884
O O17 0.186886 0.000000 0.610089
O O18 0.440431 0.500000 0.997713
O O19 0.500000 0.746747 0.000000
O O20 0.433003 0.500000 0.658764
O O21 0.665527 0.000000 0.861728
#
# Coordination Sequence:
#
# PCOD8102994 Si02
#       8
#     8   8   8   8   8   8   8   8
#     4  12  26  42  58  79 108 144 187 230 272 321
#     4   9  18  33  54  81 110 140 178 224 271 319
#     4   9  18  33  54  79 108 144 182 218 263 324
#     4   8  16  32  56  83 111 143 176 212 262 330
#     4  10  20  37  60  85 113 145 180 220 270 326
#     4   9  18  33  53  77 104 139 186 229 264 315
#     4   9  18  35  57  82 111 143 181 224 270 321
#     4   9  16  27  47  77 110 139 172 220 272 319
#
# _framework density 20.021809999999999
#
# number of rings (size 3 to 8) (size 9 to 14) (size 15 to 20)
#    0.000    2.625    0.000    2.625    0.000    5.000 
#    0.000    5.625    0.000    1.500    0.000    0.000 
#    0.000    0.000    0.000    0.000    0.000    0.000 
#
# Total GULP energy -396591.888101 kJ/mol
# GULP energy per Si atom -12393.496503 kJ/mol
# Density = 1.997624 g / cm^3
# Si number density = 20.021810 Si / 1000 Ang^3
#
#
#
# Elastic Constant Matrix: (Units=GPa)
#
#
# Indices 1 2 3 4 5 6 
#
# 1 82.0532 24.3307 2.4240 0.0000 5.8418 0.0000
# 2 24.3307 67.0905 12.1319 0.0000 5.2344 0.0000
# 3 2.4240 12.1319 29.2219 0.0000 -4.7316 0.0000
# 4 0.0000 0.0000 0.0000 20.9741 0.0000 -1.0741
# 5 5.8418 5.2344 -4.7316 0.0000 31.6497 0.0000
# 6 0.0000 0.0000 0.0000 -1.0741 0.0000 29.6357
#
#
#
# Elastic Compliance Matrix: (Units=1/GPa)
#
#
# Indices 1 2 3 4 5 6 
#
# 1 0.013761 -0.004985 0.000666 0.000000 -0.001616 0.000000
# 2 -0.004985 0.018369 -0.007743 0.000000 -0.003275 0.000000
# 3 0.000666 -0.007743 0.038500 0.000000 0.006913 0.000000
# 4 0.000000 0.000000 0.000000 0.047767 0.000000 0.001731
# 5 -0.001616 -0.003275 0.006913 0.000000 0.033469 0.000000
# 6 0.000000 0.000000 0.000000 0.001731 0.000000 0.033806
#
#
# Mechanical properties :
#
#
# Convention : Reuss Voigt Hill
#
# Bulk Modulus (GPa) = 21.50242 28.45989 24.98115
# Shear Modulus (GPa) = 22.19306 25.75048 23.97177
#
# Velocity S-wave (km/s) = 3.33294 3.59014 3.46393
# Velocity P-wave (km/s) = 5.05709 5.60632 5.33877
#
# Compressibility (1/GPa) = 0.04650638
#
# Stress axis : x y z
#
# Youngs Moduli (GPa) = 72.67079 54.44042 25.97425
#
# Poissons Ratio (x) = 0.27138 -0.01731
# Poissons Ratio (y) = 0.36225 0.20112
# Poissons Ratio (z) = -0.04843 0.42153
#
# Static dielectric constant tensor:
#      x y z
#    x 4.021700 0.000000 -0.097410 
#    y 0.000000 3.441280 0.000000 
#    z -0.097410 0.000000 3.405640 
# 
# 
# High freq. dielectric constant tensor:
#      x y z
#    x 1.790780 0.000000 -0.003650 
#    y 0.000000 1.759970 0.000000 
#    z -0.003650 0.000000 1.762230 
# 
# From -- ./inp_files/323777.got.cif
#   From: 2010.06.25/outbox.cif.g09.slc.cpg/sg12_162_cif.got.tgz:323777.got - 2010.06.28 00:19:55.
