data_PCOD8102326
_publ_section_title
;
Structure prediction by ZEFSAII (Michael W. Deem and Ramdas Pophale) SiO2 
 PCOD8102326
Probable space group: C 2/M
;
_chemical_formula_sum "Si O2"
_cell_formula_units_Z 64
_cell_length_a 22.883011
_cell_length_b 8.809249
_cell_length_c 16.724981
_cell_angle_alpha 90.000000
_cell_angle_beta 96.370913
_cell_angle_gamma 90.000000
_cell_volume 3350.636650
_symmetry_space_group_name_H-M "C 2/M"
_symmetry_group_IT_number 12
_symmetry_cell_setting 'monoclinic'
loop_
_space_group_symop_operation_xyz
x,y,z
-x,y,-z
-x,-y,-z
x,-y,z
1/2+x,1/2+y,z
1/2-x,1/2+y,-z
1/2-x,1/2-y,-z
1/2+x,1/2-y,z
loop_
_atom_site_type_symbol
_atom_site_label
_atom_site_fract_x
_atom_site_fract_y
_atom_site_fract_z
Si Si1 0.230081 0.677652 0.120911
Si Si2 0.328086 0.319366 0.733856
Si Si3 0.481818 0.173258 0.366560
Si Si4 0.164489 0.322228 0.948738
Si Si5 0.961305 0.177438 0.770135
Si Si6 0.701759 0.818031 0.435764
Si Si7 0.911205 0.672838 0.497580
Si Si8 0.470530 0.172340 0.080979
O O1 0.230989 0.500000 0.141094
O O2 0.207258 0.769600 0.193347
O O3 0.296140 0.730974 0.109160
O O4 0.186151 0.715581 0.041429
O O5 0.326504 0.500000 0.726569
O O6 0.395382 0.255610 0.748317
O O7 0.294786 0.246824 0.653151
O O8 0.492481 0.271255 0.289996
O O9 0.428215 0.241474 0.412554
O O10 0.537178 0.183710 0.431832
O O11 0.469994 0.000000 0.338290
O O12 0.171433 0.500000 0.932020
O O13 0.096816 0.268651 0.930829
O O14 0.988441 0.225725 0.857881
O O15 0.955778 0.000000 0.766725
O O16 0.750000 0.750000 0.500000
O O17 0.643797 0.748360 0.469183
O O18 0.704075 0.000000 0.432159
O O19 0.895141 0.500000 0.477281
O O20 0.471723 0.000000 0.112750
O O21 0.500000 0.184313 0.000000
#
# Coordination Sequence:
#
# PCOD8102326 Si02
#       8
#     8   8   8   8   8   8   8   8
#     4  10  20  36  62  89 113 149 194 240 286 335
#     4  11  23  39  58  83 115 150 192 237 287 345
#     4   9  16  33  59  83 105 140 187 231 275 334
#     4   9  19  37  59  86 119 152 190 235 284 340
#     4  11  23  36  54  85 119 149 186 238 292 335
#     4  11  22  39  60  84 113 148 189 236 289 343
#     4   8  16  32  58  84 106 137 183 229 273 329
#     4  10  21  38  60  85 115 154 195 231 275 338
#
# _framework density 19.100847999999999
#
# number of rings (size 3 to 8) (size 9 to 14) (size 15 to 20)
#    0.000    2.125    1.250    3.000    0.000    3.750 
#    2.250    2.500    0.000    0.000    0.000    0.000 
#    0.000    0.000    0.000    0.000    0.000    0.000 
#
# Total GULP energy -396658.955797 kJ/mol
# GULP energy per Si atom -12395.592369 kJ/mol
# Density = 1.905737 g / cm^3
# Si number density = 19.100848 Si / 1000 Ang^3
#
#
#
# Elastic Constant Matrix: (Units=GPa)
#
#
# Indices 1 2 3 4 5 6 
#
# 1 89.2054 32.0267 49.3940 0.0000 -5.8113 0.0000
# 2 32.0267 63.4710 39.4801 0.0000 -1.0653 0.0000
# 3 49.3940 39.4801 114.6369 0.0000 -10.0562 0.0000
# 4 0.0000 0.0000 0.0000 24.5576 0.0000 8.5205
# 5 -5.8113 -1.0653 -10.0562 0.0000 31.9466 0.0000
# 6 0.0000 0.0000 0.0000 8.5205 0.0000 19.2168
#
#
#
# Elastic Compliance Matrix: (Units=1/GPa)
#
#
# Indices 1 2 3 4 5 6 
#
# 1 0.015811 -0.004814 -0.005056 0.000000 0.001124 0.000000
# 2 -0.004814 0.021591 -0.005528 0.000000 -0.001896 0.000000
# 3 -0.005056 -0.005528 0.013069 0.000000 0.003010 0.000000
# 4 0.000000 0.000000 0.000000 0.048124 0.000000 -0.021337
# 5 0.001124 -0.001896 0.003010 0.000000 0.032391 0.000000
# 6 0.000000 0.000000 0.000000 -0.021337 0.000000 0.061498
#
#
# Mechanical properties :
#
#
# Convention : Reuss Voigt Hill
#
# Bulk Modulus (GPa) = 50.82447 56.56830 53.69639
# Shear Modulus (GPa) = 21.75427 24.90504 23.32966
#
# Velocity S-wave (km/s) = 3.37845 3.61483 3.49864
# Velocity P-wave (km/s) = 6.47184 6.86313 6.67036
#
# Compressibility (1/GPa) = 0.01967556
#
# Stress axis : x y z
#
# Youngs Moduli (GPa) = 63.24556 46.31551 76.51429
#
# Poissons Ratio (x) = 0.22298 0.38686
# Poissons Ratio (y) = 0.30449 0.42295
# Poissons Ratio (z) = 0.31977 0.25602
#
# Static dielectric constant tensor:
#      x y z
#    x 3.771730 0.000000 -0.079270 
#    y 0.000000 3.389190 0.000000 
#    z -0.079270 0.000000 3.672950 
# 
# 
# High freq. dielectric constant tensor:
#      x y z
#    x 1.745330 0.000000 -0.015360 
#    y 0.000000 1.727100 0.000000 
#    z -0.015360 0.000000 1.748790 
# 
# From -- ./inp_files/238573.got.cif
#   From: 2010.06.25/outbox.cif.g09.slc.cpg/sg12_120_cif.got.tgz:238573.got - 2010.06.28 00:19:55.
