data_PCOD8102369
_publ_section_title
;
Structure prediction by ZEFSAII (Michael W. Deem and Ramdas Pophale) SiO2 
 PCOD8102369
Probable space group: C 2/M
;
_chemical_formula_sum "Si O2"
_cell_formula_units_Z 56
_cell_length_a 12.866864
_cell_length_b 19.811911
_cell_length_c 12.221290
_cell_angle_alpha 90.000000
_cell_angle_beta 66.233264
_cell_angle_gamma 90.000000
_cell_volume 2851.209945
_symmetry_space_group_name_H-M "C 2/M"
_symmetry_group_IT_number 12
_symmetry_cell_setting 'monoclinic'
loop_
_space_group_symop_operation_xyz
x,y,z
-x,y,-z
-x,-y,-z
x,-y,z
1/2+x,1/2+y,z
1/2-x,1/2+y,-z
1/2-x,1/2-y,-z
1/2+x,1/2-y,z
loop_
_atom_site_type_symbol
_atom_site_label
_atom_site_fract_x
_atom_site_fract_y
_atom_site_fract_z
Si Si1 0.132374 0.790215 0.424823
Si Si2 0.220266 0.648584 0.460196
Si Si3 0.526936 0.078727 0.670545
Si Si4 0.366918 0.315001 0.042186
Si Si5 0.235160 0.579422 0.237297
Si Si6 0.727049 0.310631 0.154644
Si Si7 0.897140 0.578122 0.119843
O O1 0.198612 0.721218 0.417641
O O2 0.188218 0.847111 0.480133
O O3 0.144932 0.810119 0.293404
O O4 0.000000 0.783066 0.500000
O O5 0.100239 0.618820 0.551088
O O6 0.273490 0.600656 0.343407
O O7 0.396340 0.101055 0.719433
O O8 0.572717 0.098129 0.769883
O O9 0.540237 0.000000 0.639254
O O10 0.307253 0.382122 0.114461
O O11 0.318619 0.249726 0.125833
O O12 0.500000 0.321339 0.000000
O O13 0.347711 0.304802 0.921711
O O14 0.253491 0.500000 0.211175
O O15 0.788059 0.382424 0.125420
O O16 0.868490 0.500000 0.118746
O O17 0.000000 0.600221 0.000000
#
# Coordination Sequence:
#
# PCOD8102369 Si02
#       7
#     8   8   8   8   8   8   8
#     4  11  24  39  65  94 124 163 206 258 311 370
#     4  11  22  39  63  92 125 164 205 256 313 370
#     4  10  20  36  62  92 123 159 204 257 311 363
#     4  11  26  42  65  91 124 165 207 253 313 372
#     4  11  23  40  62  93 129 165 209 257 309 367
#     4  11  23  44  64  92 123 160 205 259 307 368
#     4  10  20  37  63  92 122 158 203 256 309 361
#
# _framework density 19.640785000000001
#
# number of rings (size 3 to 8) (size 9 to 14) (size 15 to 20)
#    0.000    1.286    2.857    3.000    2.000    4.286 
#    0.000    0.000    0.000    2.143    0.000    0.000 
#    0.000    0.000    0.000    0.000    0.000    0.000 
#
# Total GULP energy -347347.226224 kJ/mol
# GULP energy per Si atom -12405.258079 kJ/mol
# Density = 1.959608 g / cm^3
# Si number density = 19.640785 Si / 1000 Ang^3
#
#
#
# Elastic Constant Matrix: (Units=GPa)
#
#
# Indices 1 2 3 4 5 6 
#
# 1 81.9315 23.0557 27.5529 0.0000 0.6836 0.0000
# 2 23.0557 55.8720 29.4109 0.0000 -8.0470 0.0000
# 3 27.5529 29.4109 95.9407 0.0000 -6.2688 0.0000
# 4 0.0000 0.0000 0.0000 35.1798 0.0000 -2.7821
# 5 0.6836 -8.0470 -6.2688 0.0000 16.5132 0.0000
# 6 0.0000 0.0000 0.0000 -2.7821 0.0000 26.1371
#
#
#
# Elastic Compliance Matrix: (Units=1/GPa)
#
#
# Indices 1 2 3 4 5 6 
#
# 1 0.014662 -0.005122 -0.002916 0.000000 -0.004210 0.000000
# 2 -0.005122 0.024248 -0.005308 0.000000 0.010013 0.000000
# 3 -0.002916 -0.005308 0.013050 0.000000 0.002488 0.000000
# 4 0.000000 0.000000 0.000000 0.028667 0.000000 0.003051
# 5 -0.004210 0.010013 0.002488 0.000000 0.066556 0.000000
# 6 0.000000 0.000000 0.000000 0.003051 0.000000 0.038585
#
#
# Mechanical properties :
#
#
# Convention : Reuss Voigt Hill
#
# Bulk Modulus (GPa) = 39.57413 43.75369 41.66391
# Shear Modulus (GPa) = 22.63650 25.81433 24.22542
#
# Velocity S-wave (km/s) = 3.39857 3.62929 3.51582
# Velocity P-wave (km/s) = 5.96599 6.31567 6.14332
#
# Compressibility (1/GPa) = 0.02526903
#
# Stress axis : x y z
#
# Youngs Moduli (GPa) = 68.20211 41.24063 76.62683
#
# Poissons Ratio (x) = 0.21123 0.22343
# Poissons Ratio (y) = 0.34933 0.40674
# Poissons Ratio (z) = 0.19886 0.21891
#
# Static dielectric constant tensor:
#      x y z
#    x 3.463070 0.000000 0.149200 
#    y 0.000000 3.577750 0.000000 
#    z 0.149200 0.000000 3.601890 
# 
# 
# High freq. dielectric constant tensor:
#      x y z
#    x 1.754210 0.000000 0.010160 
#    y 0.000000 1.764720 0.000000 
#    z 0.010160 0.000000 1.783920 
# 
# From -- ./inp_files/133856.got.cif
#   From: 2010.06.25/outbox.cif.g09.slc.cpg/sg12_67_cif.got.tgz:133856.got - 2010.06.28 00:19:55.
