data_PCOD8102401
_publ_section_title
;
Structure prediction by ZEFSAII (Michael W. Deem and Ramdas Pophale) SiO2 
 PCOD8102401
Probable space group: C 2/M
;
_chemical_formula_sum "Si O2"
_cell_formula_units_Z 48
_cell_length_a 14.354262
_cell_length_b 10.717299
_cell_length_c 21.118526
_cell_angle_alpha 90.000000
_cell_angle_beta 140.494195
_cell_angle_gamma 90.000000
_cell_volume 2066.777458
_symmetry_space_group_name_H-M "C 2/M"
_symmetry_group_IT_number 12
_symmetry_cell_setting 'monoclinic'
loop_
_space_group_symop_operation_xyz
x,y,z
-x,y,-z
-x,-y,-z
x,-y,z
1/2+x,1/2+y,z
1/2-x,1/2+y,-z
1/2-x,1/2-y,-z
1/2+x,1/2-y,z
loop_
_atom_site_type_symbol
_atom_site_label
_atom_site_fract_x
_atom_site_fract_y
_atom_site_fract_z
Si Si1 0.895681 0.000000 0.611074
Si Si2 0.615702 0.500000 0.616785
Si Si3 0.184706 0.865640 0.909600
Si Si4 0.498391 0.252995 0.288927
Si Si5 0.228528 0.751729 0.717460
Si Si6 0.385866 0.000000 0.382744
Si Si7 0.533844 0.729024 0.946764
Si Si8 0.399116 0.000000 0.619743
O O1 0.756946 0.000000 0.493825
O O2 0.041409 0.000000 0.646123
O O3 0.893511 0.873374 0.651921
O O4 0.500000 0.500000 0.500000
O O5 0.712637 0.373215 0.663715
O O6 0.099833 0.759935 0.825644
O O7 0.130837 0.865855 0.954681
O O8 0.147904 0.000000 0.860346
O O9 0.360257 0.849727 0.994313
O O10 0.400139 0.250258 0.299457
O O11 0.589961 0.124781 0.331778
O O12 0.215933 0.624574 0.668859
O O13 0.383407 0.760409 0.833294
O O14 0.500000 0.000000 0.500000
O O15 0.471454 0.000000 0.362342
O O16 0.500000 0.676602 0.000000
#
# Coordination Sequence:
#
# PCOD8102401 Si02
#       8
#     4   4   8   8   8   4   8   4
#     4  10  20  36  63  87 129 177 224 283 338 395
#     4  10  22  38  62  94 128 171 230 280 328 403
#     4  11  25  45  69 103 135 178 235 279 341 425
#     4  10  20  41  62  93 134 176 228 279 336 417
#     4  10  22  40  65  96 130 181 224 277 345 398
#     4  10  22  40  62  92 134 177 228 274 334 419
#     4  11  25  45  69 101 139 180 225 287 348 408
#     4  10  22  36  61  95 129 177 224 283 346 393
#
# _framework density 23.224561000000001
#
# number of rings (size 3 to 8) (size 9 to 14) (size 15 to 20)
#    0.000    1.667    2.500    1.000    2.333    3.333 
#    6.000    0.000    0.000    0.000    0.000    0.000 
#    0.000    0.000    0.000    0.000    0.000    0.000 
#
# Total GULP energy -297430.915270 kJ/mol
# GULP energy per Si atom -12392.954803 kJ/mol
# Density = 2.317170 g / cm^3
# Si number density = 23.224561 Si / 1000 Ang^3
#
#
#
# Elastic Constant Matrix: (Units=GPa)
#
#
# Indices 1 2 3 4 5 6 
#
# 1 69.1605 21.2450 11.5964 0.0000 -5.4519 0.0000
# 2 21.2450 218.1326 97.1591 0.0000 3.0253 0.0000
# 3 11.5964 97.1591 191.9141 0.0000 8.9740 0.0000
# 4 0.0000 0.0000 0.0000 37.0949 0.0000 -1.6327
# 5 -5.4519 3.0253 8.9740 0.0000 32.8616 0.0000
# 6 0.0000 0.0000 0.0000 -1.6327 0.0000 -11.8249
#
#
#
# Elastic Compliance Matrix: (Units=1/GPa)
#
#
# Indices 1 2 3 4 5 6 
#
# 1 0.015151 -0.001354 -0.000358 0.000000 0.002736 0.000000
# 2 -0.001354 0.006043 -0.002979 0.000000 0.000033 0.000000
# 3 -0.000358 -0.002979 0.006817 0.000000 -0.001647 0.000000
# 4 0.000000 0.000000 0.000000 0.026795 0.000000 -0.003700
# 5 0.002736 0.000033 -0.001647 0.000000 0.031331 0.000000
# 6 0.000000 0.000000 0.000000 -0.003700 0.000000 -0.084056
#
#
# Mechanical properties :
#
#
# Convention : Reuss Voigt Hill
#
# Bulk Modulus (GPa) = 53.67965 82.13426 67.90696
# Shear Modulus (GPa) = 282.92829 34.90677 158.91753
#
# Velocity S-wave (km/s) = 11.04931 3.88107 8.28100
# Velocity P-wave (km/s) = 13.63622 7.45156 10.98800
#
# Compressibility (1/GPa) = 0.01862903
#
# Stress axis : x y z
#
# Youngs Moduli (GPa) = 66.00324 165.49097 146.68389
#
# Poissons Ratio (x) = 0.22410 0.05249
# Poissons Ratio (y) = 0.08938 0.43695
# Poissons Ratio (z) = 0.02362 0.49297
#
# Static dielectric constant tensor:
#      x y z
#    x 4.178530 0.000000 0.014250 
#    y 0.000000 4.630750 0.000000 
#    z 0.014250 0.000000 3.986890 
# 
# 
# High freq. dielectric constant tensor:
#      x y z
#    x 1.919190 0.000000 0.001310 
#    y 0.000000 1.917310 0.000000 
#    z 0.001310 0.000000 1.922750 
# 
# From -- ./inp_files/310323.got.cif
#   From: 2010.06.25/outbox.cif.g09.slc.cpg/sg12_156_cif.got.tgz:310323.got - 2010.06.28 00:19:55.
