data_PCOD8102911
_publ_section_title
;
Structure prediction by ZEFSAII (Michael W. Deem and Ramdas Pophale) SiO2 
 PCOD8102911
Probable space group: C 2/M
;
_chemical_formula_sum "Si O2"
_cell_formula_units_Z 64
_cell_length_a 19.983499
_cell_length_b 8.862486
_cell_length_c 31.414049
_cell_angle_alpha 90.000000
_cell_angle_beta 142.394609
_cell_angle_gamma 90.000000
_cell_volume 3394.980171
_symmetry_space_group_name_H-M "C 2/M"
_symmetry_group_IT_number 12
_symmetry_cell_setting 'monoclinic'
loop_
_space_group_symop_operation_xyz
x,y,z
-x,y,-z
-x,-y,-z
x,-y,z
1/2+x,1/2+y,z
1/2-x,1/2+y,-z
1/2-x,1/2-y,-z
1/2+x,1/2-y,z
loop_
_atom_site_type_symbol
_atom_site_label
_atom_site_fract_x
_atom_site_fract_y
_atom_site_fract_z
Si Si1 0.335480 0.825733 0.574272
Si Si2 0.270498 0.178413 0.055552
Si Si3 0.583517 0.823268 0.579205
Si Si4 0.297215 0.174260 0.653051
Si Si5 0.038456 0.678379 0.789744
Si Si6 0.686602 0.822073 0.787445
Si Si7 0.878707 0.821398 0.943338
Si Si8 0.051587 0.821783 0.652535
O O1 0.250000 0.750000 0.500000
O O2 0.290487 0.807415 0.599080
O O3 0.451670 0.744618 0.629298
O O4 0.350095 0.000000 0.569239
O O5 0.391754 0.226182 0.133419
O O6 0.180120 0.239917 0.043580
O O7 0.262092 0.000000 0.047214
O O8 0.250000 0.250000 0.000000
O O9 0.500000 0.776754 0.500000
O O10 0.705888 0.776700 0.628524
O O11 0.544491 0.735236 0.600987
O O12 0.580054 0.000000 0.586875
O O13 0.413863 0.237634 0.729310
O O14 0.279266 0.000000 0.657170
O O15 0.035767 0.500000 0.783877
O O16 0.099118 0.737968 0.778090
O O17 0.807890 0.779835 0.865726
O O18 0.663659 0.734777 0.731733
O O19 0.675603 0.000000 0.773803
O O20 0.886111 0.000000 0.951167
O O21 0.000000 0.749530 0.000000
O O22 0.045909 0.000000 0.649561
#
# Coordination Sequence:
#
# PCOD8102911 Si02
#       8
#     8   8   8   8   8   8   8   8
#     4  11  22  37  60  88 116 145 183 230 279 331
#     4   9  17  31  53  78 110 146 181 220 269 324
#     4  11  25  43  60  79 109 147 186 233 287 339
#     4  10  20  37  60  82 109 145 185 226 275 335
#     4   8  15  32  56  79 106 148 185 219 274 332
#     4   9  16  33  59  82 110 148 188 231 279 329
#     4   8  15  30  55  83 109 143 187 229 271 325
#     4  12  24  38  58  84 115 150 190 231 279 338
#
# _framework density 18.851362999999999
#
# number of rings (size 3 to 8) (size 9 to 14) (size 15 to 20)
#    0.000    2.250    1.250    4.125    0.000    4.000 
#    2.250    3.125    0.000    0.750    0.000    0.000 
#    0.000    0.000    0.000    0.000    0.000    0.000 
#
# Total GULP energy -396753.255576 kJ/mol
# GULP energy per Si atom -12398.539237 kJ/mol
# Density = 1.880846 g / cm^3
# Si number density = 18.851363 Si / 1000 Ang^3
#
#
#
# Elastic Constant Matrix: (Units=GPa)
#
#
# Indices 1 2 3 4 5 6 
#
# 1 54.9216 22.9397 31.5851 0.0000 1.7328 0.0000
# 2 22.9397 71.3929 33.5006 0.0000 -8.0080 -0.0001
# 3 31.5851 33.5006 132.8880 0.0000 -0.4516 0.0000
# 4 0.0000 0.0000 0.0000 26.7201 0.0000 -5.0301
# 5 1.7328 -8.0080 -0.4516 0.0000 37.4960 0.0000
# 6 0.0000 -0.0001 0.0000 -5.0301 0.0000 27.5948
#
#
#
# Elastic Compliance Matrix: (Units=1/GPa)
#
#
# Indices 1 2 3 4 5 6 
#
# 1 0.023003 -0.005767 -0.004022 0.000000 -0.002343 0.000000
# 2 -0.005767 0.017763 -0.003094 0.000000 0.004023 0.000000
# 3 -0.004022 -0.003094 0.009260 0.000000 -0.000363 0.000000
# 4 0.000000 0.000000 0.000000 0.038755 0.000000 0.007064
# 5 -0.002343 0.004023 -0.000363 0.000000 0.027633 0.000000
# 6 0.000000 0.000000 0.000000 0.007064 0.000000 0.037526
#
#
# Mechanical properties :
#
#
# Convention : Reuss Voigt Hill
#
# Bulk Modulus (GPa) = 41.21768 48.36147 44.78958
# Shear Modulus (GPa) = 26.62532 29.77400 28.19966
#
# Velocity S-wave (km/s) = 3.76224 3.97849 3.87188
# Velocity P-wave (km/s) = 6.38629 6.84210 6.61812
#
# Compressibility (1/GPa) = 0.02426143
#
# Stress axis : x y z
#
# Youngs Moduli (GPa) = 43.47206 56.29710 107.99564
#
# Poissons Ratio (x) = 0.32467 0.43431
# Poissons Ratio (y) = 0.25071 0.33409
# Poissons Ratio (z) = 0.17483 0.17416
#
# Static dielectric constant tensor:
#      x y z
#    x 3.494650 0.000000 0.123760 
#    y 0.000000 3.183450 0.000000 
#    z 0.123760 0.000000 3.871940 
# 
# 
# High freq. dielectric constant tensor:
#      x y z
#    x 1.720140 0.000000 -0.000120 
#    y 0.000000 1.705320 0.000000 
#    z -0.000120 0.000000 1.751090 
# 
# From -- ./inp_files/378497.got.cif
#   From: 2010.06.25/outbox.cif.g09.slc.cpg/sg12_190_cif.got.tgz:378497.got - 2010.06.28 00:19:55.
