data_PCOD8102666
_publ_section_title
;
Structure prediction by ZEFSAII (Michael W. Deem and Ramdas Pophale) SiO2 
 PCOD8102666
Probable space group: C 2/M
;
_chemical_formula_sum "Si O2"
_cell_formula_units_Z 64
_cell_length_a 11.682538
_cell_length_b 24.085134
_cell_length_c 11.354604
_cell_angle_alpha 90.000000
_cell_angle_beta 76.786093
_cell_angle_gamma 90.000000
_cell_volume 3110.317172
_symmetry_space_group_name_H-M "C 2/M"
_symmetry_group_IT_number 12
_symmetry_cell_setting 'monoclinic'
loop_
_space_group_symop_operation_xyz
x,y,z
-x,y,-z
-x,-y,-z
x,-y,z
1/2+x,1/2+y,z
1/2-x,1/2+y,-z
1/2-x,1/2-y,-z
1/2+x,1/2-y,z
loop_
_atom_site_type_symbol
_atom_site_label
_atom_site_fract_x
_atom_site_fract_y
_atom_site_fract_z
Si Si1 0.378352 0.166763 0.209491
Si Si2 0.973371 0.776883 0.132568
Si Si3 0.497738 0.435713 0.869094
Si Si4 0.180304 0.137293 0.698032
Si Si5 0.620168 0.612899 0.452405
Si Si6 0.631011 0.715524 0.309603
Si Si7 0.240236 0.936022 0.212189
Si Si8 0.062868 0.337477 0.367930
O O1 0.437728 0.213016 0.111963
O O2 0.266500 0.197760 0.292583
O O3 0.341142 0.109034 0.152164
O O4 0.470451 0.151548 0.287793
O O5 0.868410 0.806161 0.230606
O O6 0.091925 0.781004 0.181977
O O7 0.000000 0.805380 0.000000
O O8 0.521395 0.500000 0.869013
O O9 0.604951 0.412813 0.767692
O O10 0.373119 0.421613 0.839429
O O11 0.500000 0.410222 0.000000
O O12 0.179284 0.136026 0.556625
O O13 0.318217 0.129798 0.695832
O O14 0.500000 0.577056 0.500000
O O15 0.565751 0.664518 0.388672
O O16 0.711489 0.575237 0.356871
O O17 0.600278 0.773251 0.379780
O O18 0.281874 0.000000 0.184924
O O19 0.000000 0.360003 0.500000
#
# Coordination Sequence:
#
# PCOD8102666 Si02
#       8
#     8   8   8   8   8   8   8   8
#     4  10  22  41  54  88 120 159 207 249 299 363
#     4  11  23  38  59  87 123 161 203 255 307 357
#     4  10  22  42  68  94 120 155 204 259 309 358
#     4  12  22  38  60  95 127 164 200 246 311 367
#     4  11  19  32  58  92 123 151 195 250 304 362
#     4  10  20  37  58  81 120 161 201 247 297 357
#     4  10  21  40  66  90 118 157 204 257 313 361
#     4  11  23  36  57  85 126 167 202 237 299 370
#
# _framework density 20.57668
#
# number of rings (size 3 to 8) (size 9 to 14) (size 15 to 20)
#    0.000    1.375    3.750    3.000    1.750    2.250 
#    4.500    0.625    0.000    1.875    0.000    0.000 
#    0.000    0.000    0.000    0.000    0.000    0.000 
#
# Total GULP energy -396512.604794 kJ/mol
# GULP energy per Si atom -12391.018900 kJ/mol
# Density = 2.052985 g / cm^3
# Si number density = 20.576680 Si / 1000 Ang^3
#
#
#
# Elastic Constant Matrix: (Units=GPa)
#
#
# Indices 1 2 3 4 5 6 
#
# 1 131.2049 43.2526 33.9611 0.0000 14.3621 0.0000
# 2 43.2526 109.2723 24.2696 0.0000 5.0712 0.0000
# 3 33.9611 24.2696 107.0450 0.0000 17.0752 0.0000
# 4 0.0000 0.0000 0.0000 -16.3102 0.0000 10.2326
# 5 14.3621 5.0712 17.0752 0.0000 17.2192 0.0000
# 6 0.0000 0.0000 0.0000 10.2326 0.0000 25.7410
#
#
#
# Elastic Compliance Matrix: (Units=1/GPa)
#
#
# Indices 1 2 3 4 5 6 
#
# 1 0.009688 -0.003253 -0.001425 0.000000 -0.005709 0.000000
# 2 -0.003253 0.010738 -0.001581 0.000000 0.001119 0.000000
# 3 -0.001425 -0.001581 0.011747 0.000000 -0.009994 0.000000
# 4 0.000000 0.000000 0.000000 -0.049073 0.000000 0.019508
# 5 -0.005709 0.001119 -0.009994 0.000000 0.072418 0.000000
# 6 0.000000 0.000000 0.000000 0.019508 0.000000 0.031094
#
#
# Mechanical properties :
#
#
# Convention : Reuss Voigt Hill
#
# Bulk Modulus (GPa) = 50.88031 61.16542 56.02287
# Shear Modulus (GPa) = 47.31168 21.73257 34.52213
#
# Velocity S-wave (km/s) = 4.80029 3.25341 4.10045
# Velocity P-wave (km/s) = 7.45014 6.62594 7.05009
#
# Compressibility (1/GPa) = 0.01965397
#
# Stress axis : x y z
#
# Youngs Moduli (GPa) = 103.22076 93.12394 85.13021
#
# Poissons Ratio (x) = 0.30295 0.12134
# Poissons Ratio (y) = 0.33580 0.13459
# Poissons Ratio (z) = 0.14713 0.14723
#
# Static dielectric constant tensor:
#      x y z
#    x 3.799090 0.000000 0.030070 
#    y 0.000000 3.715100 0.000000 
#    z 0.030070 0.000000 3.727960 
# 
# 
# High freq. dielectric constant tensor:
#      x y z
#    x 1.805380 0.000000 0.006620 
#    y 0.000000 1.788700 0.000000 
#    z 0.006620 0.000000 1.794740 
# 
# From -- ./inp_files/136629.got.cif
#   From: 2010.06.25/outbox.cif.g09.slc.cpg/sg12_69_cif.got.tgz:136629.got - 2010.06.28 00:19:55.
