data_PCOD8102312
_publ_section_title
;
Structure prediction by ZEFSAII (Michael W. Deem and Ramdas Pophale) SiO2 
 PCOD8102312
Probable space group: C 2/M
;
_chemical_formula_sum "Si O2"
_cell_formula_units_Z 52
_cell_length_a 9.117690
_cell_length_b 18.891593
_cell_length_c 20.557887
_cell_angle_alpha 90.000000
_cell_angle_beta 128.562896
_cell_angle_gamma 90.000000
_cell_volume 2768.831971
_symmetry_space_group_name_H-M "C 2/M"
_symmetry_group_IT_number 12
_symmetry_cell_setting 'monoclinic'
loop_
_space_group_symop_operation_xyz
x,y,z
-x,y,-z
-x,-y,-z
x,-y,z
1/2+x,1/2+y,z
1/2-x,1/2+y,-z
1/2-x,1/2-y,-z
1/2+x,1/2-y,z
loop_
_atom_site_type_symbol
_atom_site_label
_atom_site_fract_x
_atom_site_fract_y
_atom_site_fract_z
Si Si1 0.980302 0.580115 0.320224
Si Si2 0.089832 0.801414 0.887833
Si Si3 0.666543 0.580742 0.495465
Si Si4 0.440822 0.420157 0.765145
Si Si5 0.500000 0.756904 0.000000
Si Si6 0.403660 0.207023 0.727749
Si Si7 0.004756 0.169418 0.339157
O O1 0.008900 0.500000 0.301249
O O2 0.783327 0.587351 0.302554
O O3 0.138184 0.599273 0.416363
O O4 0.990337 0.634671 0.262836
O O5 0.314716 0.804870 0.942592
O O6 0.011637 0.877677 0.847223
O O7 0.006764 0.739134 0.819224
O O8 0.023677 0.791614 0.943219
O O9 0.500000 0.591459 0.500000
O O10 0.666342 0.500000 0.468705
O O11 0.644173 0.635816 0.430556
O O12 0.507311 0.500000 0.792651
O O13 0.535892 0.389297 0.726854
O O14 0.189739 0.190544 0.682721
O O15 0.402695 0.261560 0.667343
#
# Coordination Sequence:
#
# PCOD8102312 Si02
#       7
#     8   8   8   8   4   8   8
#     4  10  21  37  58  82 113 153 194 236 283 329
#     4  10  20  37  59  85 112 142 180 227 273 341
#     4  10  20  37  56  80 114 152 196 240 280 329
#     4  10  21  38  59  85 114 148 189 233 277 330
#     4  10  20  36  62  84 108 144 178 216 286 340
#     4  11  21  37  58  84 113 146 190 234 280 334
#     4  11  22  36  57  81 113 155 192 238 283 322
#
# _framework density 18.780481999999999
#
# number of rings (size 3 to 8) (size 9 to 14) (size 15 to 20)
#    0.000    1.692    1.538    5.077    0.000    1.846 
#    0.000    3.077    0.000    3.692    0.000    0.000 
#    0.000    0.000    0.000    0.000    0.000    0.000 
#
# Total GULP energy -322457.014306 kJ/mol
# GULP energy per Si atom -12402.192858 kJ/mol
# Density = 1.873774 g / cm^3
# Si number density = 18.780482 Si / 1000 Ang^3
#
#
#
# Elastic Constant Matrix: (Units=GPa)
#
#
# Indices 1 2 3 4 5 6 
#
# 1 91.0062 46.5673 22.9796 0.0000 -2.2208 0.0000
# 2 46.5673 134.1903 52.9050 0.0000 -6.7808 0.0000
# 3 22.9796 52.9050 83.9293 0.0000 -3.3016 0.0000
# 4 0.0000 0.0000 0.0000 14.2364 0.0000 8.9848
# 5 -2.2208 -6.7808 -3.3016 0.0000 26.6651 0.0000
# 6 0.0000 0.0000 0.0000 8.9848 0.0000 23.2825
#
#
#
# Elastic Compliance Matrix: (Units=1/GPa)
#
#
# Indices 1 2 3 4 5 6 
#
# 1 0.013422 -0.004274 -0.000984 0.000000 -0.000091 0.000000
# 2 -0.004274 0.011360 -0.005920 0.000000 0.001800 0.000000
# 3 -0.000984 -0.005920 0.015931 0.000000 0.000385 0.000000
# 4 0.000000 0.000000 0.000000 0.092858 0.000000 -0.035834
# 5 -0.000091 0.001800 0.000385 0.000000 0.038000 0.000000
# 6 0.000000 0.000000 0.000000 -0.035834 0.000000 0.056779
#
#
# Mechanical properties :
#
#
# Convention : Reuss Voigt Hill
#
# Bulk Modulus (GPa) = 54.47681 61.55885 58.01783
# Shear Modulus (GPa) = 19.46845 25.28171 22.37508
#
# Velocity S-wave (km/s) = 3.22317 3.67300 3.45541
# Velocity P-wave (km/s) = 6.55148 7.13002 6.84686
#
# Compressibility (1/GPa) = 0.01835643
#
# Stress axis : x y z
#
# Youngs Moduli (GPa) = 74.50651 88.02618 62.77073
#
# Poissons Ratio (x) = 0.37625 0.06177
# Poissons Ratio (y) = 0.31846 0.37160
# Poissons Ratio (z) = 0.07332 0.52110
#
# Static dielectric constant tensor:
#      x y z
#    x 3.554540 0.000000 0.038860 
#    y 0.000000 3.604300 0.000000 
#    z 0.038860 0.000000 3.461630 
# 
# 
# High freq. dielectric constant tensor:
#      x y z
#    x 1.740970 0.000000 0.004030 
#    y 0.000000 1.729870 0.000000 
#    z 0.004030 0.000000 1.721460 
# 
# From -- ./inp_files/301188.got.cif
#   From: 2010.06.25/outbox.cif.g09.slc.cpg/sg12_151_cif.got.tgz:301188.got - 2010.06.28 00:19:55.
