data_PCOD8102074
_publ_section_title
;
Structure prediction by ZEFSAII (Michael W. Deem and Ramdas Pophale) SiO2 
 PCOD8102074
Probable space group: C 2/M
;
_chemical_formula_sum "Si O2"
_cell_formula_units_Z 64
_cell_length_a 13.454866
_cell_length_b 15.617071
_cell_length_c 23.204262
_cell_angle_alpha 90.000000
_cell_angle_beta 42.177732
_cell_angle_gamma 90.000000
_cell_volume 3273.777518
_symmetry_space_group_name_H-M "C 2/M"
_symmetry_group_IT_number 12
_symmetry_cell_setting 'monoclinic'
loop_
_space_group_symop_operation_xyz
x,y,z
-x,y,-z
-x,-y,-z
x,-y,z
1/2+x,1/2+y,z
1/2-x,1/2+y,-z
1/2-x,1/2-y,-z
1/2+x,1/2-y,z
loop_
_atom_site_type_symbol
_atom_site_label
_atom_site_fract_x
_atom_site_fract_y
_atom_site_fract_z
Si Si1 0.699769 0.597819 0.254827
Si Si2 0.402370 0.816760 0.785936
Si Si3 0.338353 0.100679 0.080336
Si Si4 0.635913 0.300982 0.087893
Si Si5 0.081772 0.899112 0.904309
Si Si6 0.357244 0.739009 0.529165
Si Si7 0.063720 0.196963 0.632900
Si Si8 0.298777 0.098633 0.333926
O O1 0.745618 0.500000 0.233778
O O2 0.777400 0.642252 0.166062
O O3 0.519754 0.605799 0.330947
O O4 0.757926 0.638825 0.289081
O O5 0.418090 0.762784 0.838463
O O6 0.244827 0.860756 0.843599
O O7 0.441833 0.758127 0.714506
O O8 0.525793 0.891363 0.733668
O O9 0.227196 0.120995 0.076525
O O10 0.351299 0.000000 0.080264
O O11 0.500000 0.141846 0.000000
O O12 0.502228 0.343692 0.108911
O O13 0.750000 0.250000 0.000000
O O14 0.089216 0.000000 0.883577
O O15 0.000000 0.888331 0.000000
O O16 0.500000 0.775011 0.500000
O O17 0.221429 0.806005 0.598129
O O18 0.402973 0.733487 0.443829
O O19 0.300454 0.647007 0.575928
O O20 0.253517 0.000000 0.358432
#
# Coordination Sequence:
#
# PCOD8102074 Si02
#       8
#     8   8   8   8   8   8   8   8
#     4  10  20  36  60  88 121 156 196 244 298 355
#     4  11  24  40  63  87 125 163 206 257 296 363
#     4  10  23  40  59  85 124 163 198 246 300 354
#     4  12  25  37  62  90 116 158 214 255 296 353
#     4  11  25  44  62  87 126 169 208 254 312 365
#     4  10  20  36  61  84 118 152 187 242 306 357
#     4  10  21  37  57  88 117 154 196 242 300 359
#     4  10  22  38  61  94 121 153 196 248 312 367
#
# _framework density 19.549282000000002
#
# number of rings (size 3 to 8) (size 9 to 14) (size 15 to 20)
#    0.000    1.500    3.750    0.750    5.250    0.750 
#    0.000    0.000    0.000    0.375    0.000    0.000 
#    0.000    0.000    0.000    0.000    0.000    0.000 
#
# Total GULP energy -396566.980581 kJ/mol
# GULP energy per Si atom -12392.718143 kJ/mol
# Density = 1.950479 g / cm^3
# Si number density = 19.549282 Si / 1000 Ang^3
#
#
#
# Elastic Constant Matrix: (Units=GPa)
#
#
# Indices 1 2 3 4 5 6 
#
# 1 125.4239 36.1342 45.9211 0.0000 -15.3705 0.0000
# 2 36.1342 48.0768 30.2798 0.0000 1.9498 0.0000
# 3 45.9211 30.2798 126.5716 0.0000 -1.1435 0.0000
# 4 0.0000 0.0000 0.0000 22.3977 0.0000 -4.7839
# 5 -15.3705 1.9498 -1.1435 0.0000 41.7078 0.0000
# 6 0.0000 0.0000 0.0000 -4.7839 0.0000 32.4997
#
#
#
# Elastic Compliance Matrix: (Units=1/GPa)
#
#
# Indices 1 2 3 4 5 6 
#
# 1 0.011512 -0.007336 -0.002381 0.000000 0.004520 0.000000
# 2 -0.007336 0.029237 -0.004370 0.000000 -0.004190 0.000000
# 3 -0.002381 -0.004370 0.009806 0.000000 -0.000404 0.000000
# 4 0.000000 0.000000 0.000000 0.046097 0.000000 0.006785
# 5 0.004520 -0.004190 -0.000404 0.000000 0.025827 0.000000
# 6 0.000000 0.000000 0.000000 0.006785 0.000000 0.031768
#
#
# Mechanical properties :
#
#
# Convention : Reuss Voigt Hill
#
# Bulk Modulus (GPa) = 44.68297 58.30473 51.49385
# Shear Modulus (GPa) = 26.33213 31.83684 29.08448
#
# Velocity S-wave (km/s) = 3.67408 4.03990 3.86132
# Velocity P-wave (km/s) = 6.39568 7.18681 6.80275
#
# Compressibility (1/GPa) = 0.02237989
#
# Stress axis : x y z
#
# Youngs Moduli (GPa) = 86.86471 34.20375 101.97495
#
# Poissons Ratio (x) = 0.25093 0.24278
# Poissons Ratio (y) = 0.63727 0.44568
# Poissons Ratio (z) = 0.20681 0.14949
#
# Static dielectric constant tensor:
#      x y z
#    x 3.957700 0.000000 -0.033770 
#    y 0.000000 3.402420 0.000000 
#    z -0.033770 0.000000 4.085590 
# 
# 
# High freq. dielectric constant tensor:
#      x y z
#    x 1.771190 0.000000 -0.002690 
#    y 0.000000 1.740190 0.000000 
#    z -0.002690 0.000000 1.781410 
# 
# From -- ./inp_files/306186.got.cif
#   From: 2010.06.25/outbox.cif.g09.slc.cpg/sg12_154_cif.got.tgz:306186.got - 2010.06.28 00:19:55.
