data_PCOD8102689
_publ_section_title
;
Structure prediction by ZEFSAII (Michael W. Deem and Ramdas Pophale) SiO2 
 PCOD8102689
Probable space group: C 2/M
;
_chemical_formula_sum "Si O2"
_cell_formula_units_Z 64
_cell_length_a 27.761262
_cell_length_b 8.894701
_cell_length_c 16.612202
_cell_angle_alpha 90.000000
_cell_angle_beta 52.943650
_cell_angle_gamma 90.000000
_cell_volume 3273.589256
_symmetry_space_group_name_H-M "C 2/M"
_symmetry_group_IT_number 12
_symmetry_cell_setting 'monoclinic'
loop_
_space_group_symop_operation_xyz
x,y,z
-x,y,-z
-x,-y,-z
x,-y,z
1/2+x,1/2+y,z
1/2-x,1/2+y,-z
1/2-x,1/2-y,-z
1/2+x,1/2-y,z
loop_
_atom_site_type_symbol
_atom_site_label
_atom_site_fract_x
_atom_site_fract_y
_atom_site_fract_z
Si Si1 0.855928 0.174662 0.999230
Si Si2 0.350815 0.824434 0.295535
Si Si3 0.886370 0.173125 0.788450
Si Si4 0.115893 0.678102 0.561641
Si Si5 0.002156 0.321728 0.407060
Si Si6 0.237286 0.823632 0.172722
Si Si7 0.766606 0.321808 0.649565
Si Si8 0.569514 0.825646 0.938206
O O1 0.794321 0.267863 0.064617
O O2 0.902329 0.224706 0.020734
O O3 0.840223 0.000000 0.026069
O O4 0.887036 0.206356 0.882531
O O5 0.380434 0.770589 0.349368
O O6 0.289999 0.731519 0.345370
O O7 0.398303 0.787453 0.178003
O O8 0.334156 0.000000 0.314338
O O9 0.936454 0.274305 0.696891
O O10 0.821913 0.219720 0.817338
O O11 0.900580 0.000000 0.755594
O O12 0.114497 0.500000 0.557269
O O13 0.173213 0.739442 0.454337
O O14 0.054955 0.745634 0.584099
O O15 0.999518 0.500000 0.410503
O O16 0.000000 0.258107 0.500000
O O17 0.236609 0.743835 0.258685
O O18 0.243584 0.000000 0.180965
O O19 0.765989 0.500000 0.655729
O O20 0.577640 0.000000 0.953242
O O21 0.500000 0.781413 0.000000
#
# Coordination Sequence:
#
# PCOD8102689 Si02
#       8
#     8   8   8   8   8   8   8   8
#     4  11  23  40  61  88 120 151 193 246 294 341
#     4  10  20  37  58  83 118 154 196 241 283 346
#     4  10  24  41  59  87 120 154 192 240 294 348
#     4   9  20  36  57  85 118 156 196 241 287 343
#     4  10  21  39  63  90 118 153 198 241 285 341
#     4  11  22  39  61  85 117 155 195 236 290 355
#     4  11  21  36  59  87 119 152 193 243 297 343
#     4  10  22  38  60  88 119 158 197 233 287 353
#
# _framework density 19.550405999999999
#
# number of rings (size 3 to 8) (size 9 to 14) (size 15 to 20)
#    0.000    1.750    1.250    2.625    1.750    3.500 
#    0.000    2.500    0.000    0.000    0.000    0.000 
#    0.000    0.000    0.000    0.000    0.000    0.000 
#
# Total GULP energy -396946.975347 kJ/mol
# GULP energy per Si atom -12404.592980 kJ/mol
# Density = 1.950591 g / cm^3
# Si number density = 19.550406 Si / 1000 Ang^3
#
#
#
# Elastic Constant Matrix: (Units=GPa)
#
#
# Indices 1 2 3 4 5 6 
#
# 1 141.1264 43.3658 71.4564 0.0000 0.3563 0.0000
# 2 43.3658 48.0326 33.5493 -0.0003 2.5334 0.0003
# 3 71.4564 33.5493 120.9221 -0.0001 2.8127 0.0000
# 4 0.0000 -0.0003 -0.0001 23.9827 0.0000 -2.6911
# 5 0.3563 2.5334 2.8127 0.0000 39.0774 0.0000
# 6 0.0000 0.0003 0.0000 -2.6911 0.0000 22.6353
#
#
#
# Elastic Compliance Matrix: (Units=1/GPa)
#
#
# Indices 1 2 3 4 5 6 
#
# 1 0.011842 -0.007231 -0.005008 0.000000 0.000721 0.000000
# 2 -0.007231 0.030292 -0.004094 0.000000 -0.001603 0.000000
# 3 -0.005008 -0.004094 0.012379 0.000000 -0.000580 0.000000
# 4 0.000000 0.000000 0.000000 0.042261 0.000000 0.005024
# 5 0.000721 -0.001603 -0.000580 0.000000 0.025729 0.000000
# 6 0.000000 0.000000 0.000000 0.005024 0.000000 0.044776
#
#
# Mechanical properties :
#
#
# Convention : Reuss Voigt Hill
#
# Bulk Modulus (GPa) = 45.77574 67.42489 56.60031
# Shear Modulus (GPa) = 24.12813 27.91971 26.02392
#
# Velocity S-wave (km/s) = 3.51686 3.78311 3.65241
# Velocity P-wave (km/s) = 6.32108 7.32428 6.84110
#
# Compressibility (1/GPa) = 0.02184563
#
# Stress axis : x y z
#
# Youngs Moduli (GPa) = 84.44608 33.01214 80.78462
#
# Poissons Ratio (x) = 0.23872 0.40459
# Poissons Ratio (y) = 0.61065 0.33072
# Poissons Ratio (z) = 0.42292 0.13515
#
# Static dielectric constant tensor:
#      x y z
#    x 3.875950 0.000000 0.035930 
#    y 0.000000 3.412540 0.000000 
#    z 0.035930 0.000000 3.685440 
# 
# 
# High freq. dielectric constant tensor:
#      x y z
#    x 1.776900 0.000000 0.002640 
#    y 0.000000 1.745810 0.000000 
#    z 0.002640 0.000000 1.775980 
# 
# From -- ./inp_files/249675.got.cif
#   From: 2010.06.25/outbox.cif.g09.slc.cpg/sg12_125_cif.got.tgz:249675.got - 2010.06.28 00:19:55.
