data_PCOD8102950
_publ_section_title
;
Structure prediction by ZEFSAII (Michael W. Deem and Ramdas Pophale) SiO2 
 PCOD8102950
Probable space group: C 2/M
;
_chemical_formula_sum "Si O2"
_cell_formula_units_Z 48
_cell_length_a 8.814528
_cell_length_b 15.615315
_cell_length_c 16.599943
_cell_angle_alpha 90.000000
_cell_angle_beta 89.604674
_cell_angle_gamma 90.000000
_cell_volume 2284.788848
_symmetry_space_group_name_H-M "C 2/M"
_symmetry_group_IT_number 12
_symmetry_cell_setting 'monoclinic'
loop_
_space_group_symop_operation_xyz
x,y,z
-x,y,-z
-x,-y,-z
x,-y,z
1/2+x,1/2+y,z
1/2-x,1/2+y,-z
1/2-x,1/2-y,-z
1/2+x,1/2-y,z
loop_
_atom_site_type_symbol
_atom_site_label
_atom_site_fract_x
_atom_site_fract_y
_atom_site_fract_z
Si Si1 0.550377 0.831523 0.091096
Si Si2 0.045609 0.666908 0.408956
Si Si3 0.776461 0.173803 0.839610
Si Si4 0.290493 0.500000 0.668156
Si Si5 0.229786 0.816510 0.347309
Si Si6 0.711813 0.000000 0.145985
Si Si7 0.068645 0.000000 0.163860
Si Si8 0.435123 0.000000 0.681380
O O1 0.404588 0.832136 0.149813
O O2 0.657229 0.751178 0.109217
O O3 0.648697 0.916692 0.101766
O O4 0.500000 0.824594 0.000000
O O5 0.160440 0.745686 0.405712
O O6 0.117125 0.581682 0.370601
O O7 0.000000 0.646475 0.500000
O O8 0.908136 0.696587 0.353478
O O9 0.816584 0.190933 0.745882
O O10 0.851247 0.085450 0.871366
O O11 0.314633 0.412001 0.618180
O O12 0.409407 0.500000 0.740338
O O13 0.115384 0.500000 0.701368
O O14 0.893348 0.000000 0.140230
O O15 0.662017 0.000000 0.238177
#
# Coordination Sequence:
#
# PCOD8102950 Si02
#       8
#     8   8   8   4   8   4   4   4
#     4  12  25  42  63  93 127 162 206 265 321 368
#     4  11  22  37  57  88 123 157 199 255 311 361
#     4  11  22  42  65  89 122 165 211 260 310 375
#     4   8  18  37  57  82 112 151 198 250 302 353
#     4  10  20  37  60  83 114 158 203 247 301 368
#     4  12  23  40  63  92 121 162 213 258 308 382
#     4  10  22  38  63  92 119 154 205 260 306 358
#     4  10  21  39  63  84 115 163 209 250 302 373
#
# _framework density 21.008506000000001
#
# number of rings (size 3 to 8) (size 9 to 14) (size 15 to 20)
#    0.000    1.333    0.000    8.000    0.000    4.000 
#    0.000    1.667    0.000    0.000    0.000    0.000 
#    0.000    0.000    0.000    0.000    0.000    0.000 
#
# Total GULP energy -297597.073162 kJ/mol
# GULP energy per Si atom -12399.878048 kJ/mol
# Density = 2.096069 g / cm^3
# Si number density = 21.008506 Si / 1000 Ang^3
#
#
#
# Elastic Constant Matrix: (Units=GPa)
#
#
# Indices 1 2 3 4 5 6 
#
# 1 86.9133 41.3809 -8.2672 0.0000 13.9331 0.0000
# 2 41.3809 164.4290 13.0049 0.0000 12.4029 0.0000
# 3 -8.2672 13.0049 66.1442 0.0000 4.2727 0.0000
# 4 0.0000 0.0000 0.0000 14.0731 0.0000 3.7932
# 5 13.9331 12.4029 4.2727 0.0000 15.5645 0.0000
# 6 0.0000 0.0000 0.0000 3.7932 0.0000 37.4202
#
#
#
# Elastic Compliance Matrix: (Units=1/GPa)
#
#
# Indices 1 2 3 4 5 6 
#
# 1 0.015273 -0.003198 0.003315 0.000000 -0.012034 0.000000
# 2 -0.003198 0.007200 -0.001659 0.000000 -0.002419 0.000000
# 3 0.003315 -0.001659 0.016254 0.000000 -0.006107 0.000000
# 4 0.000000 0.000000 0.000000 0.073054 0.000000 -0.007405
# 5 -0.012034 -0.002419 -0.006107 0.000000 0.078625 0.000000
# 6 0.000000 0.000000 0.000000 -0.007405 0.000000 0.027474
#
#
# Mechanical properties :
#
#
# Convention : Reuss Voigt Hill
#
# Bulk Modulus (GPa) = 28.05666 45.52486 36.79076
# Shear Modulus (GPa) = 21.47353 31.50276 26.48815
#
# Velocity S-wave (km/s) = 3.20055 3.87657 3.55467
# Velocity P-wave (km/s) = 5.20019 6.46172 5.86497
#
# Compressibility (1/GPa) = 0.03564216
#
# Stress axis : x y z
#
# Youngs Moduli (GPa) = 65.47584 138.88480 61.52509
#
# Poissons Ratio (x) = 0.44417 -0.20396
# Poissons Ratio (y) = 0.20940 0.10208
# Poissons Ratio (z) = -0.21705 0.23042
#
# Static dielectric constant tensor:
#      x y z
#    x 3.736420 0.000000 0.144140 
#    y 0.000000 4.237050 0.000000 
#    z 0.144140 0.000000 3.509880 
# 
# 
# High freq. dielectric constant tensor:
#      x y z
#    x 1.816600 0.000000 0.015720 
#    y 0.000000 1.849780 0.000000 
#    z 0.015720 0.000000 1.806440 
# 
# From -- ./inp_files/255878.got.cif
#   From: 2010.06.25/outbox.cif.g09.slc.cpg/sg12_128_cif.got.tgz:255878.got - 2010.06.28 00:19:55.
