data_PCOD8102545
_publ_section_title
;
Structure prediction by ZEFSAII (Michael W. Deem and Ramdas Pophale) SiO2 
 PCOD8102545
Probable space group: C 2/M
;
_chemical_formula_sum "Si O2"
_cell_formula_units_Z 40
_cell_length_a 31.333180
_cell_length_b 8.834899
_cell_length_c 9.689168
_cell_angle_alpha 90.000000
_cell_angle_beta 54.398265
_cell_angle_gamma 90.000000
_cell_volume 2180.858563
_symmetry_space_group_name_H-M "C 2/M"
_symmetry_group_IT_number 12
_symmetry_cell_setting 'monoclinic'
loop_
_space_group_symop_operation_xyz
x,y,z
-x,y,-z
-x,-y,-z
x,-y,z
1/2+x,1/2+y,z
1/2-x,1/2+y,-z
1/2-x,1/2-y,-z
1/2+x,1/2-y,z
loop_
_atom_site_type_symbol
_atom_site_label
_atom_site_fract_x
_atom_site_fract_y
_atom_site_fract_z
Si Si1 0.252075 0.825841 0.143024
Si Si2 0.058817 0.680313 0.753089
Si Si3 0.551227 0.321284 0.057231
Si Si4 0.151050 0.676658 0.378630
Si Si5 0.367611 0.825848 0.903124
O O1 0.206230 0.752511 0.323102
O O2 0.238760 0.000000 0.149696
O O3 0.250000 0.750000 0.000000
O O4 0.311502 0.803574 0.087397
O O5 0.051821 0.500000 0.768762
O O6 0.105184 0.733484 0.565100
O O7 0.005838 0.756803 0.796651
O O8 0.072369 0.739884 0.879856
O O9 0.547828 0.500000 0.039494
O O10 0.590276 0.284516 0.108199
O O11 0.159707 0.500000 0.376772
O O12 0.136551 0.721137 0.249336
O O13 0.386094 0.000000 0.881437
#
# Coordination Sequence:
#
# PCOD8102545 Si02
#       5
#     8   8   8   8   8
#     4   9  17  30  51  76 105 137 168 205 252 301
#     4  10  20  37  57  74  99 137 171 207 258 311
#     4  11  22  35  52  76 103 134 172 213 253 299
#     4   9  19  34  55  80 103 131 171 212 253 302
#     4   9  18  34  53  76 104 135 169 205 249 303
#
# _framework density 18.341398999999999
#
# number of rings (size 3 to 8) (size 9 to 14) (size 15 to 20)
#    0.000    2.400    0.000    5.400    0.000    6.400 
#    0.000    5.000    0.000    0.000    0.000    0.000 
#    0.000    0.000    0.000    0.000    0.000    0.000 
#
# Total GULP energy -247931.527905 kJ/mol
# GULP energy per Si atom -12396.576395 kJ/mol
# Density = 1.829965 g / cm^3
# Si number density = 18.341399 Si / 1000 Ang^3
#
#
#
# Elastic Constant Matrix: (Units=GPa)
#
#
# Indices 1 2 3 4 5 6 
#
# 1 30.4305 17.5879 37.5038 0.0000 -14.4284 0.0000
# 2 17.5879 71.5619 34.3531 0.0000 -13.5082 0.0000
# 3 37.5038 34.3531 125.5305 0.0000 -35.0715 0.0000
# 4 0.0000 0.0000 0.0000 25.6343 0.0000 -6.0635
# 5 -14.4284 -13.5082 -35.0715 0.0000 24.0576 0.0000
# 6 0.0000 0.0000 0.0000 -6.0635 0.0000 32.7480
#
#
#
# Elastic Compliance Matrix: (Units=1/GPa)
#
#
# Indices 1 2 3 4 5 6 
#
# 1 0.057163 -0.005840 -0.011503 0.000000 0.014235 0.000000
# 2 -0.005840 0.016966 -0.002050 0.000000 0.003035 0.000000
# 3 -0.011503 -0.002050 0.016391 0.000000 0.015844 0.000000
# 4 0.000000 0.000000 0.000000 0.040797 0.000000 0.007554
# 5 0.014235 0.003035 0.015844 0.000000 0.074906 0.000000
# 6 0.000000 0.000000 0.000000 0.007554 0.000000 0.031935
#
#
# Mechanical properties :
#
#
# Convention : Reuss Voigt Hill
#
# Bulk Modulus (GPa) = 19.32985 45.15695 32.24340
# Shear Modulus (GPa) = 16.99581 25.69320 21.34451
#
# Velocity S-wave (km/s) = 3.04737 3.74683 3.41506
# Velocity P-wave (km/s) = 4.78997 6.58726 5.75916
#
# Compressibility (1/GPa) = 0.05173347
#
# Stress axis : x y z
#
# Youngs Moduli (GPa) = 17.49372 58.94004 61.01030
#
# Poissons Ratio (x) = 0.34422 0.70180
# Poissons Ratio (y) = 0.10217 0.12509
# Poissons Ratio (z) = 0.20123 0.12085
#
# Static dielectric constant tensor:
#      x y z
#    x 3.441620 0.000000 -0.378820 
#    y 0.000000 3.470090 0.000000 
#    z -0.378820 0.000000 3.536770 
# 
# 
# High freq. dielectric constant tensor:
#      x y z
#    x 1.705130 0.000000 -0.024410 
#    y 0.000000 1.717660 0.000000 
#    z -0.024410 0.000000 1.699530 
# 
# From -- ./inp_files/101107.got.cif
#   From: 2010.06.25/outbox.cif.g09.slc.cpg/sg12_51_cif.got.tgz:101107.got - 2010.06.28 00:19:55.
