data_PCOD8102331
_publ_section_title
;
Structure prediction by ZEFSAII (Michael W. Deem and Ramdas Pophale) SiO2 
 PCOD8102331
Probable space group: C 2/M
;
_chemical_formula_sum "Si O2"
_cell_formula_units_Z 48
_cell_length_a 26.407444
_cell_length_b 15.254101
_cell_length_c 9.877186
_cell_angle_alpha 90.000000
_cell_angle_beta 141.088457
_cell_angle_gamma 90.000000
_cell_volume 2499.129284
_symmetry_space_group_name_H-M "C 2/M"
_symmetry_group_IT_number 12
_symmetry_cell_setting 'monoclinic'
loop_
_space_group_symop_operation_xyz
x,y,z
-x,y,-z
-x,-y,-z
x,-y,z
1/2+x,1/2+y,z
1/2-x,1/2+y,-z
1/2-x,1/2-y,-z
1/2+x,1/2-y,z
loop_
_atom_site_type_symbol
_atom_site_label
_atom_site_fract_x
_atom_site_fract_y
_atom_site_fract_z
Si Si1 0.078070 0.406382 0.251554
Si Si2 0.898898 0.896690 0.550635
Si Si3 0.066292 0.802139 0.872379
Si Si4 0.660785 0.711769 0.806185
Si Si5 0.964683 0.351816 0.560640
Si Si6 0.841688 0.769285 0.662252
O O1 0.117610 0.500000 0.289315
O O2 0.061061 0.419101 0.376979
O O3 0.133222 0.323230 0.347775
O O4 0.000000 0.389340 0.000000
O O5 0.846361 0.870957 0.309652
O O6 0.857877 0.846437 0.590211
O O7 0.993066 0.871688 0.727071
O O8 0.892207 0.000000 0.562585
O O9 0.129610 0.825420 0.885428
O O10 0.033767 0.705886 0.774673
O O11 0.111791 0.799483 0.108327
O O12 0.607245 0.789640 0.635978
O O13 0.750000 0.750000 0.000000
O O14 0.000000 0.400408 0.500000
O O15 0.750000 0.750000 0.500000
#
# Coordination Sequence:
#
# PCOD8102331 Si02
#       6
#     8   8   8   8   8   8
#     4  11  21  38  62  87 117 156 204 252 301 364
#     4  11  23  41  65  91 123 164 210 253 303 370
#     4  10  20  36  62  89 119 159 208 244 299 367
#     4  10  20  37  62  90 120 162 200 248 309 360
#     4   9  18  35  59  85 114 151 202 246 294 363
#     4  12  23  39  62  89 126 163 199 258 314 363
#
# _framework density 19.206689999999998
#
# number of rings (size 3 to 8) (size 9 to 14) (size 15 to 20)
#    0.000    1.500    5.000    3.000    0.000    3.667 
#    0.000    0.833    0.000    0.000    0.000    0.000 
#    0.000    0.000    0.000    0.000    0.000    0.000 
#
# Total GULP energy -297412.228553 kJ/mol
# GULP energy per Si atom -12392.176190 kJ/mol
# Density = 1.916297 g / cm^3
# Si number density = 19.206690 Si / 1000 Ang^3
#
#
#
# Elastic Constant Matrix: (Units=GPa)
#
#
# Indices 1 2 3 4 5 6 
#
# 1 150.5837 64.8207 65.5392 0.0000 -11.1826 0.0000
# 2 64.8207 130.8218 41.7349 0.0000 -0.0553 0.0000
# 3 65.5392 41.7349 91.7673 0.0000 -11.8579 0.0000
# 4 0.0000 0.0000 0.0000 30.0267 0.0000 -5.6018
# 5 -11.1826 -0.0553 -11.8579 0.0000 37.3272 0.0000
# 6 0.0000 0.0000 0.0000 -5.6018 0.0000 4.2446
#
#
#
# Elastic Compliance Matrix: (Units=1/GPa)
#
#
# Indices 1 2 3 4 5 6 
#
# 1 0.010837 -0.003457 -0.005995 0.000000 0.001337 0.000000
# 2 -0.003457 0.010108 -0.002357 0.000000 -0.001769 0.000000
# 3 -0.005995 -0.002357 0.016704 0.000000 0.003507 0.000000
# 4 0.000000 0.000000 0.000000 0.044182 0.000000 0.058309
# 5 0.001337 -0.001769 0.003507 0.000000 0.028302 0.000000
# 6 0.000000 0.000000 0.000000 0.058309 0.000000 0.312549
#
#
# Mechanical properties :
#
#
# Convention : Reuss Voigt Hill
#
# Bulk Modulus (GPa) = 71.26694 79.70691 75.48693
# Shear Modulus (GPa) = 11.08706 27.72490 19.40598
#
# Velocity S-wave (km/s) = 2.40521 3.80347 3.18209
# Velocity P-wave (km/s) = 6.70069 7.80244 7.27246
#
# Compressibility (1/GPa) = 0.01403175
#
# Stress axis : x y z
#
# Youngs Moduli (GPa) = 92.27350 98.93287 59.86671
#
# Poissons Ratio (x) = 0.34198 0.35891
# Poissons Ratio (y) = 0.31896 0.14110
# Poissons Ratio (z) = 0.55319 0.23317
#
# Static dielectric constant tensor:
#      x y z
#    x 3.437530 0.000000 -0.439130 
#    y 0.000000 3.327250 0.000000 
#    z -0.439130 0.000000 3.396290 
# 
# 
# High freq. dielectric constant tensor:
#      x y z
#    x 1.755530 0.000000 -0.019980 
#    y 0.000000 1.730050 0.000000 
#    z -0.019980 0.000000 1.754190 
# 
# From -- ./inp_files/104945.got.cif
#   From: 2010.06.25/outbox.cif.g09.slc.cpg/sg12_53_cif.got.tgz:104945.got - 2010.06.28 00:19:55.
