data_PCOD8102827
_publ_section_title
;
Structure prediction by ZEFSAII (Michael W. Deem and Ramdas Pophale) SiO2 
 PCOD8102827
Probable space group: C 2/M
;
_chemical_formula_sum "Si O2"
_cell_formula_units_Z 48
_cell_length_a 30.891714
_cell_length_b 8.710781
_cell_length_c 9.259619
_cell_angle_alpha 90.000000
_cell_angle_beta 90.065591
_cell_angle_gamma 90.000000
_cell_volume 2491.678090
_symmetry_space_group_name_H-M "C 2/M"
_symmetry_group_IT_number 12
_symmetry_cell_setting 'monoclinic'
loop_
_space_group_symop_operation_xyz
x,y,z
-x,y,-z
-x,-y,-z
x,-y,z
1/2+x,1/2+y,z
1/2-x,1/2+y,-z
1/2-x,1/2-y,-z
1/2+x,1/2-y,z
loop_
_atom_site_type_symbol
_atom_site_label
_atom_site_fract_x
_atom_site_fract_y
_atom_site_fract_z
Si Si1 0.959098 0.822309 0.416520
Si Si2 0.710624 0.318226 0.089509
Si Si3 0.367890 0.819198 0.080888
Si Si4 0.370321 0.819716 0.409469
Si Si5 0.457474 0.678348 0.081768
Si Si6 0.211494 0.682511 0.407154
O O1 0.914978 0.746041 0.471944
O O2 0.966307 0.790886 0.248865
O O3 0.000000 0.749126 0.500000
O O4 0.955233 0.000000 0.454450
O O5 0.715257 0.500000 0.094594
O O6 0.712756 0.252921 0.249551
O O7 0.750000 0.250000 0.000000
O O8 0.665496 0.271850 0.017898
O O9 0.361189 0.762190 0.245966
O O10 0.416191 0.776018 0.028683
O O11 0.360030 0.000000 0.063008
O O12 0.332495 0.764333 0.514759
O O13 0.374521 0.000000 0.406164
O O14 0.448410 0.500000 0.048723
O O15 0.500000 0.737784 0.000000
O O16 0.215364 0.500000 0.398442
O O17 0.250000 0.750000 0.500000
#
# Coordination Sequence:
#
# PCOD8102827 Si02
#       6
#     8   8   8   8   8   8
#     4   9  18  32  51  76 106 142 184 228 273 324
#     4  12  25  41  61  86 115 149 189 234 286 342
#     4  10  20  37  59  84 114 148 189 235 284 339
#     4   9  20  37  57  81 111 146 184 228 277 331
#     4   9  18  33  52  76 109 148 189 232 279 332
#     4  11  23  40  61  87 117 150 189 232 281 338
#
# _framework density 19.264126999999998
#
# number of rings (size 3 to 8) (size 9 to 14) (size 15 to 20)
#    0.000    2.000    0.000    3.500    0.000    5.333 
#    0.000    1.667    0.000    0.000    0.000    0.000 
#    0.000    0.000    0.000    0.000    0.000    0.000 
#
# Total GULP energy -297672.223012 kJ/mol
# GULP energy per Si atom -12403.009292 kJ/mol
# Density = 1.922028 g / cm^3
# Si number density = 19.264127 Si / 1000 Ang^3
#
#
#
# Elastic Constant Matrix: (Units=GPa)
#
#
# Indices 1 2 3 4 5 6 
#
# 1 181.9568 55.8531 96.7669 0.0000 -2.3071 0.0000
# 2 55.8531 67.9598 46.3503 0.0000 -4.9760 0.0000
# 3 96.7669 46.3503 122.7017 0.0000 -2.2632 0.0000
# 4 0.0000 0.0000 0.0000 29.0677 0.0000 1.4129
# 5 -2.3071 -4.9760 -2.2632 0.0000 41.7126 0.0000
# 6 0.0000 0.0000 0.0000 1.4129 0.0000 38.7412
#
#
#
# Elastic Compliance Matrix: (Units=1/GPa)
#
#
# Indices 1 2 3 4 5 6 
#
# 1 0.010180 -0.003915 -0.006554 0.000000 -0.000260 0.000000
# 2 -0.003915 0.021489 -0.004991 0.000000 0.002076 0.000000
# 3 -0.006554 -0.004991 0.015201 0.000000 -0.000133 0.000000
# 4 0.000000 0.000000 0.000000 0.034464 0.000000 -0.001257
# 5 -0.000260 0.002076 -0.000133 0.000000 0.024200 0.000000
# 6 0.000000 0.000000 0.000000 -0.001257 0.000000 0.025858
#
#
# Mechanical properties :
#
#
# Convention : Reuss Voigt Hill
#
# Bulk Modulus (GPa) = 62.70027 85.61764 74.15895
# Shear Modulus (GPa) = 29.82788 33.48084 31.65436
#
# Velocity S-wave (km/s) = 3.93919 4.17344 4.05801
# Velocity P-wave (km/s) = 7.30123 8.23189 7.78049
#
# Compressibility (1/GPa) = 0.01594890
#
# Stress axis : x y z
#
# Youngs Moduli (GPa) = 98.23325 46.53640 65.78325
#
# Poissons Ratio (x) = 0.18221 0.43114
# Poissons Ratio (y) = 0.38462 0.32833
# Poissons Ratio (z) = 0.64381 0.23227
#
# Static dielectric constant tensor:
#      x y z
#    x 3.844130 0.000000 -0.033750 
#    y 0.000000 3.551460 0.000000 
#    z -0.033750 0.000000 3.645170 
# 
# 
# High freq. dielectric constant tensor:
#      x y z
#    x 1.766810 0.000000 0.000430 
#    y 0.000000 1.748730 0.000000 
#    z 0.000430 0.000000 1.749100 
# 
# From -- ./inp_files/108685.got.cif
#   From: 2010.06.25/outbox.cif.g09.slc.cpg/sg12_55_cif.got.tgz:108685.got - 2010.06.28 00:19:55.
