data_PCOD8102897
_publ_section_title
;
Structure prediction by ZEFSAII (Michael W. Deem and Ramdas Pophale) SiO2 
 PCOD8102897
Probable space group: C 2/M
;
_chemical_formula_sum "Si O2"
_cell_formula_units_Z 64
_cell_length_a 18.432613
_cell_length_b 9.001335
_cell_length_c 20.139549
_cell_angle_alpha 90.000000
_cell_angle_beta 90.163450
_cell_angle_gamma 90.000000
_cell_volume 3341.502602
_symmetry_space_group_name_H-M "C 2/M"
_symmetry_group_IT_number 12
_symmetry_cell_setting 'monoclinic'
loop_
_space_group_symop_operation_xyz
x,y,z
-x,y,-z
-x,-y,-z
x,-y,z
1/2+x,1/2+y,z
1/2-x,1/2+y,-z
1/2-x,1/2-y,-z
1/2+x,1/2-y,z
loop_
_atom_site_type_symbol
_atom_site_label
_atom_site_fract_x
_atom_site_fract_y
_atom_site_fract_z
Si Si1 0.335494 0.175544 0.629000
Si Si2 0.674078 0.829495 0.001513
Si Si3 0.414029 0.330685 0.742334
Si Si4 0.328883 0.323757 0.383268
Si Si5 0.428271 0.327358 0.894676
Si Si6 0.923898 0.670482 0.123800
Si Si7 0.083090 0.175633 0.489651
Si Si8 0.919184 0.174237 0.258121
O O1 0.360722 0.222385 0.702396
O O2 0.253657 0.233928 0.616866
O O3 0.389282 0.248938 0.576885
O O4 0.339120 0.000000 0.621959
O O5 0.640238 0.813783 0.928754
O O6 0.684430 0.000000 0.021537
O O7 0.750000 0.750000 0.000000
O O8 0.625247 0.754176 0.056599
O O9 0.396433 0.500000 0.722530
O O10 0.399958 0.303084 0.819883
O O11 0.497139 0.293218 0.724340
O O12 0.332475 0.500000 0.382743
O O13 0.369352 0.263208 0.448780
O O14 0.370382 0.264623 0.318239
O O15 0.432220 0.500000 0.912835
O O16 0.507933 0.260539 0.903977
O O17 0.947088 0.500000 0.134383
O O18 0.894910 0.737576 0.192653
O O19 0.000000 0.222181 0.500000
O O20 0.090793 0.000000 0.481486
O O21 0.907555 0.000000 0.244400
#
# Coordination Sequence:
#
# PCOD8102897 Si02
#       8
#     8   8   8   8   8   8   8   8
#     4  11  22  34  52  81 114 142 171 217 273 325
#     4  11  24  39  56  81 115 151 187 231 280 332
#     4   9  19  36  57  80 106 140 182 222 261 316
#     4   9  19  35  54  79 109 139 176 220 268 323
#     4  10  21  38  61  85 109 143 188 233 277 331
#     4  10  21  37  57  84 115 145 182 229 279 330
#     4  10  20  37  60  78  99 139 184 223 264 315
#     4   9  18  36  60  81 103 139 187 229 264 315
#
# _framework density 19.153061000000001
#
# number of rings (size 3 to 8) (size 9 to 14) (size 15 to 20)
#    0.000    2.125    0.000    3.750    0.000    9.250 
#    0.000    5.000    0.000    0.000    0.000    0.000 
#    0.000    0.000    0.000    0.000    0.000    0.000 
#
# Total GULP energy -396924.308409 kJ/mol
# GULP energy per Si atom -12403.884638 kJ/mol
# Density = 1.910947 g / cm^3
# Si number density = 19.153061 Si / 1000 Ang^3
#
#
#
# Elastic Constant Matrix: (Units=GPa)
#
#
# Indices 1 2 3 4 5 6 
#
# 1 80.2867 39.1908 36.8004 0.0000 19.9468 0.0000
# 2 39.1908 83.9634 42.2350 0.0000 10.1888 0.0000
# 3 36.8004 42.2350 87.4836 0.0000 9.0707 0.0000
# 4 0.0000 0.0000 0.0000 34.8800 0.0000 3.5583
# 5 19.9468 10.1888 9.0707 0.0000 24.4080 0.0000
# 6 0.0000 0.0000 0.0000 3.5583 0.0000 22.3356
#
#
#
# Elastic Compliance Matrix: (Units=1/GPa)
#
#
# Indices 1 2 3 4 5 6 
#
# 1 0.020480 -0.005745 -0.004529 0.000000 -0.012655 0.000000
# 2 -0.005745 0.017706 -0.006086 0.000000 -0.000434 0.000000
# 3 -0.004529 -0.006086 0.016253 0.000000 0.000202 0.000000
# 4 0.000000 0.000000 0.000000 0.029143 0.000000 -0.004643
# 5 -0.012655 -0.000434 0.000202 0.000000 0.051418 0.000000
# 6 0.000000 0.000000 0.000000 -0.004643 0.000000 0.045511
#
#
# Mechanical properties :
#
#
# Convention : Reuss Voigt Hill
#
# Bulk Modulus (GPa) = 46.04521 54.24290 50.14405
# Shear Modulus (GPa) = 22.67858 25.22521 23.95190
#
# Velocity S-wave (km/s) = 3.44477 3.63303 3.54015
# Velocity P-wave (km/s) = 6.31781 6.78091 6.55345
#
# Compressibility (1/GPa) = 0.02171779
#
# Stress axis : x y z
#
# Youngs Moduli (GPa) = 48.82819 56.47893 61.52622
#
# Poissons Ratio (x) = 0.32449 0.27866
# Poissons Ratio (y) = 0.28053 0.37445
# Poissons Ratio (z) = 0.22115 0.34374
#
# Static dielectric constant tensor:
#      x y z
#    x 3.513450 0.000000 0.029720 
#    y 0.000000 3.436160 0.000000 
#    z 0.029720 0.000000 3.603420 
# 
# 
# High freq. dielectric constant tensor:
#      x y z
#    x 1.745950 0.000000 -0.000180 
#    y 0.000000 1.736470 0.000000 
#    z -0.000180 0.000000 1.758200 
# 
# From -- ./inp_files/314039.got.cif
#   From: 2010.06.25/outbox.cif.g09.slc.cpg/sg12_158_cif.got.tgz:314039.got - 2010.06.28 00:19:55.
