data_PCOD8102697
_publ_section_title
;
Structure prediction by ZEFSAII (Michael W. Deem and Ramdas Pophale) SiO2 
 PCOD8102697
Probable space group: C 2/M
;
_chemical_formula_sum "Si O2"
_cell_formula_units_Z 64
_cell_length_a 15.121872
_cell_length_b 8.656222
_cell_length_c 33.161291
_cell_angle_alpha 90.000000
_cell_angle_beta 133.709215
_cell_angle_gamma 90.000000
_cell_volume 3137.741601
_symmetry_space_group_name_H-M "C 2/M"
_symmetry_group_IT_number 12
_symmetry_cell_setting 'monoclinic'
loop_
_space_group_symop_operation_xyz
x,y,z
-x,y,-z
-x,-y,-z
x,-y,z
1/2+x,1/2+y,z
1/2-x,1/2+y,-z
1/2-x,1/2-y,-z
1/2+x,1/2-y,z
loop_
_atom_site_type_symbol
_atom_site_label
_atom_site_fract_x
_atom_site_fract_y
_atom_site_fract_z
Si Si1 0.343532 0.818713 0.997756
Si Si2 0.196256 0.318738 0.388162
Si Si3 0.272288 0.181601 0.691536
Si Si4 0.139982 0.819296 0.490205
Si Si5 0.727173 0.176450 0.885426
Si Si6 0.968208 0.820277 0.810396
Si Si7 0.066547 0.176023 0.109129
Si Si8 0.481555 0.182276 0.378256
O O1 0.322698 0.733595 0.949008
O O2 0.321818 0.000000 0.985483
O O3 0.250000 0.750000 0.000000
O O4 0.480263 0.787701 0.056038
O O5 0.174566 0.500000 0.377968
O O6 0.204902 0.247593 0.346101
O O7 0.325582 0.285286 0.452121
O O8 0.079086 0.251350 0.376049
O O9 0.389509 0.218725 0.755194
O O10 0.153270 0.257092 0.674602
O O11 0.251471 0.000000 0.682643
O O12 0.250000 0.750000 0.500000
O O13 0.016660 0.739469 0.434753
O O14 0.127893 0.000000 0.478607
O O15 0.609922 0.285551 0.847329
O O16 0.795576 0.188882 0.864068
O O17 0.687893 0.000000 0.882099
O O18 0.932462 0.770515 0.844303
O O19 0.942331 0.000000 0.794563
O O20 0.017491 0.000000 0.090205
O O21 0.481701 0.000000 0.377768
#
# Coordination Sequence:
#
# PCOD8102697 Si02
#       8
#     8   8   8   8   8   8   8   8
#     4  12  23  37  62  94 128 161 195 240 293 347
#     4   8  18  36  58  81 113 154 190 229 288 356
#     4  11  23  40  60  83 111 151 200 245 288 345
#     4   9  16  31  55  84 115 150 189 232 287 350
#     4  11  23  41  65  92 120 157 198 240 292 356
#     4  11  24  43  62  84 117 156 197 247 296 345
#     4  10  23  42  64  89 122 160 197 238 297 358
#     4  10  20  37  58  84 116 151 190 236 292 352
#
# _framework density 20.396834999999999
#
# number of rings (size 3 to 8) (size 9 to 14) (size 15 to 20)
#    0.000    1.750    1.250    4.125    0.000    4.500 
#    0.000   15.000    0.000    0.000    0.000    0.000 
#    0.000    0.000    0.000    0.000    0.000    0.000 
#
# Total GULP energy -396797.182461 kJ/mol
# GULP energy per Si atom -12399.911952 kJ/mol
# Density = 2.035041 g / cm^3
# Si number density = 20.396835 Si / 1000 Ang^3
#
#
#
# Elastic Constant Matrix: (Units=GPa)
#
#
# Indices 1 2 3 4 5 6 
#
# 1 94.0483 21.4135 35.4396 0.0000 -3.9606 0.0000
# 2 21.4135 64.2202 19.5601 0.0000 3.0467 0.0000
# 3 35.4396 19.5601 107.7360 0.0000 -4.4952 0.0000
# 4 0.0000 0.0000 0.0000 35.9840 0.0000 6.7529
# 5 -3.9606 3.0467 -4.4952 0.0000 7.8331 0.0000
# 6 0.0000 0.0000 0.0000 6.7529 0.0000 27.1829
#
#
#
# Elastic Compliance Matrix: (Units=1/GPa)
#
#
# Indices 1 2 3 4 5 6 
#
# 1 0.012971 -0.003586 -0.003364 0.000000 0.006022 0.000000
# 2 -0.003586 0.018022 -0.002521 0.000000 -0.010270 0.000000
# 3 -0.003364 -0.002521 0.011082 0.000000 0.005639 0.000000
# 4 0.000000 0.000000 0.000000 0.029149 0.000000 -0.007241
# 5 0.006022 -0.010270 0.005639 0.000000 0.137940 0.000000
# 6 0.000000 0.000000 0.000000 -0.007241 0.000000 0.038587
#
#
# Mechanical properties :
#
#
# Convention : Reuss Voigt Hill
#
# Bulk Modulus (GPa) = 43.23013 46.53675 44.88344
# Shear Modulus (GPa) = 18.22137 26.83941 22.53039
#
# Velocity S-wave (km/s) = 2.99213 3.63142 3.32716
# Velocity P-wave (km/s) = 5.76000 6.35988 6.06736
#
# Compressibility (1/GPa) = 0.02313201
#
# Stress axis : x y z
#
# Youngs Moduli (GPa) = 77.09686 55.48725 90.23956
#
# Poissons Ratio (x) = 0.19897 0.30360
# Poissons Ratio (y) = 0.27646 0.22749
# Poissons Ratio (z) = 0.25938 0.13988
#
# Static dielectric constant tensor:
#      x y z
#    x 3.786180 0.000000 -0.140420 
#    y 0.000000 3.700720 0.000000 
#    z -0.140420 0.000000 3.902600 
# 
# 
# High freq. dielectric constant tensor:
#      x y z
#    x 1.797590 0.000000 -0.000940 
#    y 0.000000 1.791100 0.000000 
#    z -0.000940 0.000000 1.795780 
# 
# From -- ./inp_files/375640.got.cif
#   From: 2010.06.25/outbox.cif.g09.slc.cpg/sg12_188_cif.got.tgz:375640.got - 2010.06.28 00:19:55.
