data_PCOD8102424
_publ_section_title
;
Structure prediction by ZEFSAII (Michael W. Deem and Ramdas Pophale) SiO2 
 PCOD8102424
Probable space group: C 2/M
;
_chemical_formula_sum "Si O2"
_cell_formula_units_Z 48
_cell_length_a 19.443762
_cell_length_b 14.598262
_cell_length_c 11.638848
_cell_angle_alpha 90.000000
_cell_angle_beta 44.237373
_cell_angle_gamma 90.000000
_cell_volume 2304.720169
_symmetry_space_group_name_H-M "C 2/M"
_symmetry_group_IT_number 12
_symmetry_cell_setting 'monoclinic'
loop_
_space_group_symop_operation_xyz
x,y,z
-x,y,-z
-x,-y,-z
x,-y,z
1/2+x,1/2+y,z
1/2-x,1/2+y,-z
1/2-x,1/2-y,-z
1/2+x,1/2-y,z
loop_
_atom_site_type_symbol
_atom_site_label
_atom_site_fract_x
_atom_site_fract_y
_atom_site_fract_z
Si Si1 0.873183 0.603741 0.879456
Si Si2 0.744516 0.641911 0.499402
Si Si3 0.419577 0.898282 0.447375
Si Si4 0.386241 0.395045 0.143676
Si Si5 0.291356 0.201253 0.775593
Si Si6 0.742200 0.399010 0.237707
O O1 0.864003 0.500000 0.845471
O O2 0.794877 0.666108 0.902491
O O3 0.982305 0.643864 0.727746
O O4 0.847973 0.608549 0.045596
O O5 0.750000 0.750000 0.500000
O O6 0.837452 0.597389 0.448574
O O7 0.645617 0.609644 0.684091
O O8 0.749332 0.605571 0.365231
O O9 0.385052 0.841515 0.598483
O O10 0.440335 0.000000 0.467331
O O11 0.376874 0.500000 0.110157
O O12 0.313180 0.329022 0.157058
O O13 0.500000 0.361568 0.000000
O O14 0.315186 0.309926 0.739798
O O15 0.695476 0.500000 0.262297
#
# Coordination Sequence:
#
# PCOD8102424 Si02
#       6
#     8   8   8   8   8   8
#     4  10  22  38  62  93 119 153 195 243 301 358
#     4  11  20  39  59  87 121 160 192 241 301 352
#     4  10  20  36  63  93 118 149 196 249 300 350
#     4  10  21  37  62  90 115 151 200 249 293 344
#     4  11  20  39  61  88 120 157 198 244 294 343
#     4  11  23  39  59  85 123 161 196 238 297 356
#
# _framework density 20.826823999999998
#
# number of rings (size 3 to 8) (size 9 to 14) (size 15 to 20)
#    0.000    1.500    3.333    5.000    0.000    3.333 
#    0.000    2.500    0.000    2.000    0.000    0.000 
#    0.000    0.000    0.000    0.000    0.000    0.000 
#
# Total GULP energy -297359.602483 kJ/mol
# GULP energy per Si atom -12389.983437 kJ/mol
# Density = 2.077942 g / cm^3
# Si number density = 20.826824 Si / 1000 Ang^3
#
#
#
# Elastic Constant Matrix: (Units=GPa)
#
#
# Indices 1 2 3 4 5 6 
#
# 1 62.4493 15.3080 64.3030 0.0000 4.5239 0.0000
# 2 15.3080 137.1357 34.6022 0.0000 -3.6847 0.0000
# 3 64.3030 34.6022 156.2720 0.0000 0.4436 0.0000
# 4 0.0000 0.0000 0.0000 24.6698 0.0000 5.7340
# 5 4.5239 -3.6847 0.4436 0.0000 28.9420 0.0000
# 6 0.0000 0.0000 0.0000 5.7340 0.0000 15.3416
#
#
#
# Elastic Compliance Matrix: (Units=1/GPa)
#
#
# Indices 1 2 3 4 5 6 
#
# 1 0.028314 -0.000359 -0.011559 0.000000 -0.004294 0.000000
# 2 -0.000359 0.007758 -0.001573 0.000000 0.001068 0.000000
# 3 -0.011559 -0.001573 0.011500 0.000000 0.001430 0.000000
# 4 0.000000 0.000000 0.000000 0.044392 0.000000 -0.016592
# 5 -0.004294 0.001068 0.001430 0.000000 0.035337 0.000000
# 6 0.000000 0.000000 0.000000 -0.016592 0.000000 0.071384
#
#
# Mechanical properties :
#
#
# Convention : Reuss Voigt Hill
#
# Bulk Modulus (GPa) = 48.56958 64.92039 56.74498
# Shear Modulus (GPa) = 21.50260 29.90024 25.70142
#
# Velocity S-wave (km/s) = 3.21666 3.79312 3.51672
# Velocity P-wave (km/s) = 6.09649 7.10091 6.61778
#
# Compressibility (1/GPa) = 0.02058902
#
# Stress axis : x y z
#
# Youngs Moduli (GPa) = 35.31775 128.90365 86.95918
#
# Poissons Ratio (x) = 0.04633 1.00517
# Poissons Ratio (y) = 0.01269 0.13678
# Poissons Ratio (z) = 0.40824 0.20275
#
# Static dielectric constant tensor:
#      x y z
#    x 2.322220 0.000000 -0.470480 
#    y 0.000000 4.925660 0.000000 
#    z -0.470480 0.000000 3.771550 
# 
# 
# High freq. dielectric constant tensor:
#      x y z
#    x 1.776690 0.000000 0.017230 
#    y 0.000000 1.830430 0.000000 
#    z 0.017230 0.000000 1.829840 
# 
# From -- ./inp_files/143523.got.cif
#   From: 2010.06.25/outbox.cif.g09.slc.cpg/sg12_72_cif.got.tgz:143523.got - 2010.06.28 00:19:55.
