data_PCOD8102147
_publ_section_title
;
Structure prediction by ZEFSAII (Michael W. Deem and Ramdas Pophale) SiO2 
 PCOD8102147
Probable space group: C 2/M
;
_chemical_formula_sum "Si O2"
_cell_formula_units_Z 64
_cell_length_a 17.758876
_cell_length_b 24.629588
_cell_length_c 14.290593
_cell_angle_alpha 90.000000
_cell_angle_beta 28.378893
_cell_angle_gamma 90.000000
_cell_volume 2970.918936
_symmetry_space_group_name_H-M "C 2/M"
_symmetry_group_IT_number 12
_symmetry_cell_setting 'monoclinic'
loop_
_space_group_symop_operation_xyz
x,y,z
-x,y,-z
-x,-y,-z
x,-y,z
1/2+x,1/2+y,z
1/2-x,1/2+y,-z
1/2-x,1/2-y,-z
1/2+x,1/2-y,z
loop_
_atom_site_type_symbol
_atom_site_label
_atom_site_fract_x
_atom_site_fract_y
_atom_site_fract_z
Si Si1 0.706894 0.347447 0.703766
Si Si2 0.874950 0.154655 0.001055
Si Si3 0.820136 0.061248 0.721317
Si Si4 0.182422 0.333483 0.808837
Si Si5 0.632229 0.748659 0.275361
Si Si6 0.763861 0.059909 0.000658
Si Si7 0.056767 0.561460 0.542087
Si Si8 0.163511 0.760065 0.498187
O O1 0.651776 0.366956 0.865517
O O2 0.814056 0.398067 0.553400
O O3 0.804496 0.291629 0.605279
O O4 0.562361 0.331034 0.791572
O O5 0.750325 0.202661 0.118023
O O6 0.864105 0.105637 0.941269
O O7 0.705222 0.101981 0.791506
O O8 0.000000 0.077085 0.500000
O O9 0.783933 0.000000 0.727074
O O10 0.781204 0.068691 0.872049
O O11 0.261243 0.302944 0.811574
O O12 0.264277 0.314561 0.623728
O O13 0.000000 0.317526 0.000000
O O14 0.500000 0.760809 0.500000
O O15 0.529872 0.734713 0.291982
O O16 0.583125 0.064835 0.230256
O O17 0.829093 0.000000 0.956616
O O18 0.124456 0.500000 0.461262
O O19 0.000000 0.580584 0.500000
O O20 0.250000 0.750000 0.500000
#
# Coordination Sequence:
#
# PCOD8102147 Si02
#       8
#     8   8   8   8   8   8   8   8
#     4  11  22  35  57  89 135 174 215 265 330 389
#     4  11  21  35  60  90 129 175 217 267 323 396
#     4  10  23  46  71  94 127 171 221 277 330 381
#     4  11  23  41  67  96 132 169 220 273 329 397
#     4  10  20  38  64  89 131 180 214 267 332 395
#     4  10  22  39  63  95 125 169 229 271 324 397
#     4  10  20  36  60  90 128 172 217 267 325 387
#     4  11  24  40  63  95 129 170 221 271 324 396
#
# _framework density 21.542155999999999
#
# number of rings (size 3 to 8) (size 9 to 14) (size 15 to 20)
#    0.000    1.500    3.750    2.625    0.000    4.750 
#    0.000    3.125    0.000    5.250    0.000    0.000 
#    0.000    0.000    0.000    0.000    0.000    0.000 
#
# Total GULP energy -396575.962751 kJ/mol
# GULP energy per Si atom -12392.998836 kJ/mol
# Density = 2.149313 g / cm^3
# Si number density = 21.542156 Si / 1000 Ang^3
#
#
#
# Elastic Constant Matrix: (Units=GPa)
#
#
# Indices 1 2 3 4 5 6 
#
# 1 118.6225 47.6032 47.6227 -0.0016 -28.9333 -0.0212
# 2 47.6032 125.8214 43.4939 -0.0874 -16.6285 0.0253
# 3 47.6227 43.4939 106.1069 -0.0982 -18.2914 -0.0097
# 4 -0.0016 -0.0874 -0.0982 22.5023 0.0018 -7.9339
# 5 -28.9333 -16.6285 -18.2914 0.0018 45.9258 0.0460
# 6 -0.0212 0.0253 -0.0097 -7.9339 0.0460 16.3659
#
#
#
# Elastic Compliance Matrix: (Units=1/GPa)
#
#
# Indices 1 2 3 4 5 6 
#
# 1 0.012206 -0.002723 -0.003443 -0.000029 0.005332 -0.000011
# 2 -0.002723 0.010038 -0.002750 0.000022 0.000823 -0.000012
# 3 -0.003443 -0.002750 0.012403 0.000053 0.001775 0.000028
# 4 -0.000029 0.000022 0.000053 0.053602 -0.000017 0.025986
# 5 0.005332 0.000823 0.001775 -0.000017 0.026139 -0.000075
# 6 -0.000011 -0.000012 0.000028 0.025986 -0.000075 0.073700
#
#
# Mechanical properties :
#
#
# Convention : Reuss Voigt Hill
#
# Bulk Modulus (GPa) = 59.47409 69.77671 64.62540
# Shear Modulus (GPa) = 23.63792 31.08088 27.35940
#
# Velocity S-wave (km/s) = 3.31613 3.80253 3.56763
# Velocity P-wave (km/s) = 6.50618 7.19306 6.85823
#
# Compressibility (1/GPa) = 0.01681404
#
# Stress axis : x y z
#
# Youngs Moduli (GPa) = 81.92932 99.62538 80.62547
#
# Poissons Ratio (x) = 0.27129 0.27757
# Poissons Ratio (y) = 0.22310 0.22175
# Poissons Ratio (z) = 0.28206 0.27400
#
# Static dielectric constant tensor:
#      x y z
#    x 3.885810 -0.000210 -0.208150 
#    y -0.000210 3.991840 0.000450 
#    z -0.208150 0.000450 4.002460 
# 
# 
# High freq. dielectric constant tensor:
#      x y z
#    x 1.832860 -0.000020 -0.007930 
#    y -0.000020 1.849850 0.000030 
#    z -0.007930 0.000030 1.849040 
# 
# From -- ./inp_files/228126.got.cif
#   From: 2010.06.25/outbox.cif.g09.slc.cpg/sg12_115_cif.got.tgz:228126.got - 2010.06.28 00:19:55.
