data_PCOD8102935
_publ_section_title
;
Structure prediction by ZEFSAII (Michael W. Deem and Ramdas Pophale) SiO2 
 PCOD8102935
Probable space group: C 2/M
;
_chemical_formula_sum "Si O2"
_cell_formula_units_Z 56
_cell_length_a 21.670625
_cell_length_b 17.354743
_cell_length_c 9.396525
_cell_angle_alpha 90.000000
_cell_angle_beta 55.411312
_cell_angle_gamma 90.000000
_cell_volume 2909.295436
_symmetry_space_group_name_H-M "C 2/M"
_symmetry_group_IT_number 12
_symmetry_cell_setting 'monoclinic'
loop_
_space_group_symop_operation_xyz
x,y,z
-x,y,-z
-x,-y,-z
x,-y,z
1/2+x,1/2+y,z
1/2-x,1/2+y,-z
1/2-x,1/2-y,-z
1/2+x,1/2-y,z
loop_
_atom_site_type_symbol
_atom_site_label
_atom_site_fract_x
_atom_site_fract_y
_atom_site_fract_z
Si Si1 0.934328 0.410396 0.478934
Si Si2 0.951795 0.299275 0.194694
Si Si3 0.811308 0.799045 0.342054
Si Si4 0.766309 0.588420 0.774613
Si Si5 0.659044 0.413821 0.160454
Si Si6 0.514785 0.679349 0.326941
Si Si7 0.872810 0.914235 0.486988
O O1 0.945576 0.500000 0.429753
O O2 0.933131 0.367824 0.328296
O O3 0.854776 0.393729 0.658915
O O4 0.000000 0.381863 0.500000
O O5 0.878869 0.259663 0.218395
O O6 0.998891 0.236140 0.218839
O O7 0.000000 0.332249 0.000000
O O8 0.750000 0.750000 0.500000
O O9 0.778613 0.846171 0.252317
O O10 0.838145 0.862073 0.414992
O O11 0.751888 0.500000 0.738572
O O12 0.736854 0.597912 0.974489
O O13 0.627290 0.500000 0.173392
O O14 0.598353 0.350994 0.190900
O O15 0.675828 0.403588 0.305566
O O16 0.500000 0.721119 0.500000
O O17 0.459167 0.606377 0.402337
O O18 0.868881 0.000000 0.433339
#
# Coordination Sequence:
#
# PCOD8102935 Si02
#       7
#     8   8   8   8   8   8   8
#     4  10  22  42  62  78 102 144 192 236 282 324
#     4  11  22  37  58  83 113 143 182 228 272 326
#     4  11  21  37  55  79 114 147 177 219 275 335
#     4  10  20  37  60  83 112 146 180 225 278 328
#     4   9  17  32  55  87 116 140 179 223 262 322
#     4   9  17  31  55  82 117 151 177 209 265 326
#     4   9  18  32  53  80 112 149 182 214 262 322
#
# _framework density 19.248647999999999
#
# number of rings (size 3 to 8) (size 9 to 14) (size 15 to 20)
#    0.000    2.143    1.429    2.143    0.000    2.000 
#    2.571    0.714    0.000    6.857    0.000    0.000 
#    0.000    0.000    0.000    0.000    0.000    0.000 
#
# Total GULP energy -347046.968399 kJ/mol
# GULP energy per Si atom -12394.534586 kJ/mol
# Density = 1.920484 g / cm^3
# Si number density = 19.248648 Si / 1000 Ang^3
#
#
#
# Elastic Constant Matrix: (Units=GPa)
#
#
# Indices 1 2 3 4 5 6 
#
# 1 76.7841 16.3990 29.8426 0.0000 -11.5893 0.0000
# 2 16.3990 57.4686 28.0093 0.0000 -8.8558 0.0000
# 3 29.8426 28.0093 128.3033 0.0000 -15.2063 0.0000
# 4 0.0000 0.0000 0.0000 21.9344 0.0000 -3.5850
# 5 -11.5893 -8.8558 -15.2063 0.0000 21.6690 0.0000
# 6 0.0000 0.0000 0.0000 -3.5850 0.0000 14.3904
#
#
#
# Elastic Compliance Matrix: (Units=1/GPa)
#
#
# Indices 1 2 3 4 5 6 
#
# 1 0.015289 -0.002345 -0.002387 0.000000 0.005543 0.000000
# 2 -0.002345 0.020435 -0.003353 0.000000 0.004744 0.000000
# 3 -0.002387 -0.003353 0.009563 0.000000 0.004064 0.000000
# 4 0.000000 0.000000 0.000000 0.047526 0.000000 0.011840
# 5 0.005543 0.004744 0.004064 0.000000 0.053904 0.000000
# 6 0.000000 0.000000 0.000000 0.011840 0.000000 0.072440
#
#
# Mechanical properties :
#
#
# Convention : Reuss Voigt Hill
#
# Bulk Modulus (GPa) = 34.34550 45.67310 40.00930
# Shear Modulus (GPa) = 20.40536 24.15245 22.27891
#
# Velocity S-wave (km/s) = 3.25944 3.54610 3.40579
# Velocity P-wave (km/s) = 5.66101 6.36757 6.02466
#
# Compressibility (1/GPa) = 0.02911590
#
# Stress axis : x y z
#
# Youngs Moduli (GPa) = 65.40723 48.93449 104.57017
#
# Poissons Ratio (x) = 0.11475 0.24963
# Poissons Ratio (y) = 0.15338 0.35067
# Poissons Ratio (z) = 0.15614 0.16410
#
# Static dielectric constant tensor:
#      x y z
#    x 3.516160 0.000000 -0.009750 
#    y 0.000000 2.589640 0.000000 
#    z -0.009750 0.000000 3.554810 
# 
# 
# High freq. dielectric constant tensor:
#      x y z
#    x 1.737230 0.000000 -0.004060 
#    y 0.000000 1.752340 0.000000 
#    z -0.004060 0.000000 1.750700 
# 
# From -- ./inp_files/75841.got.cif
#   From: 2010.06.25/outbox.cif.g09.slc.cpg/sg12_38_cif.got.tgz:75841.got - 2010.06.28 00:19:55.
