data_PCOD8102410
_publ_section_title
;
Structure prediction by ZEFSAII (Michael W. Deem and Ramdas Pophale) SiO2 
 PCOD8102410
Probable space group: C 2/M
;
_chemical_formula_sum "Si O2"
_cell_formula_units_Z 56
_cell_length_a 11.047130
_cell_length_b 27.288984
_cell_length_c 11.811286
_cell_angle_alpha 90.000000
_cell_angle_beta 50.477107
_cell_angle_gamma 90.000000
_cell_volume 2746.609834
_symmetry_space_group_name_H-M "C 2/M"
_symmetry_group_IT_number 12
_symmetry_cell_setting 'monoclinic'
loop_
_space_group_symop_operation_xyz
x,y,z
-x,y,-z
-x,-y,-z
x,-y,z
1/2+x,1/2+y,z
1/2-x,1/2+y,-z
1/2-x,1/2-y,-z
1/2+x,1/2-y,z
loop_
_atom_site_type_symbol
_atom_site_label
_atom_site_fract_x
_atom_site_fract_y
_atom_site_fract_z
Si Si1 0.266273 0.606550 0.845732
Si Si2 0.326684 0.121572 0.635194
Si Si3 0.816938 0.271274 0.577116
Si Si4 0.579516 0.127048 0.179774
Si Si5 0.382347 0.799705 0.166210
Si Si6 0.089975 0.943092 0.656375
Si Si7 0.181902 0.554923 0.675916
O O1 0.241678 0.660084 0.806044
O O2 0.446175 0.593856 0.760032
O O3 0.201854 0.566296 0.796662
O O4 0.171601 0.603927 0.019095
O O5 0.500000 0.104781 0.500000
O O6 0.282736 0.170779 0.592263
O O7 0.308193 0.135251 0.779698
O O8 0.216863 0.075711 0.671162
O O9 0.750000 0.250000 0.500000
O O10 0.714761 0.246840 0.736561
O O11 0.000000 0.261196 0.500000
O O12 0.490139 0.177355 0.201680
O O13 0.450002 0.088722 0.300440
O O14 0.500000 0.780981 0.000000
O O15 0.155403 0.937515 0.489480
O O16 0.046836 0.000000 0.707367
O O17 0.122162 0.500000 0.698518
#
# Coordination Sequence:
#
# PCOD8102410 Si02
#       7
#     8   8   8   8   8   8   8
#     4  10  22  37  62  91 129 158 202 262 318 371
#     4  11  23  43  63  87 128 165 211 265 311 389
#     4  11  25  41  68 100 127 170 220 268 328 384
#     4  10  21  41  61  89 127 165 204 255 315 382
#     4   9  20  41  64  93 127 164 201 256 320 384
#     4  11  24  40  62  91 125 167 212 263 317 370
#     4  10  20  36  63  90 119 162 209 259 313 369
#
# _framework density 20.388771999999999
#
# number of rings (size 3 to 8) (size 9 to 14) (size 15 to 20)
#    0.000    1.714    1.429    3.857    4.000    4.286 
#    2.571    2.857    0.000    0.000    0.000    0.000 
#    0.000    0.000    0.000    0.000    0.000    0.000 
#
# Total GULP energy -347139.656285 kJ/mol
# GULP energy per Si atom -12397.844867 kJ/mol
# Density = 2.034237 g / cm^3
# Si number density = 20.388772 Si / 1000 Ang^3
#
#
#
# Elastic Constant Matrix: (Units=GPa)
#
#
# Indices 1 2 3 4 5 6 
#
# 1 99.1772 25.7416 34.3091 0.0000 11.0714 0.0000
# 2 25.7416 53.3210 26.0249 0.0000 -12.8907 0.0000
# 3 34.3091 26.0249 79.7655 0.0000 -7.6402 0.0000
# 4 0.0000 0.0000 0.0000 24.5170 0.0000 1.5711
# 5 11.0714 -12.8907 -7.6402 0.0000 29.9542 0.0000
# 6 0.0000 0.0000 0.0000 1.5711 0.0000 11.4116
#
#
#
# Elastic Compliance Matrix: (Units=1/GPa)
#
#
# Indices 1 2 3 4 5 6 
#
# 1 0.014712 -0.007031 -0.004966 0.000000 -0.009730 0.000000
# 2 -0.007031 0.027673 -0.004731 0.000000 0.013301 0.000000
# 3 -0.004966 -0.004731 0.016603 0.000000 0.004034 0.000000
# 4 0.000000 0.000000 0.000000 0.041151 0.000000 -0.005666
# 5 -0.009730 0.013301 0.004034 0.000000 0.043734 0.000000
# 6 0.000000 0.000000 0.000000 -0.005666 0.000000 0.088410
#
#
# Mechanical properties :
#
#
# Convention : Reuss Voigt Hill
#
# Bulk Modulus (GPa) = 39.16560 44.93500 42.05030
# Shear Modulus (GPa) = 18.23158 22.92241 20.57700
#
# Velocity S-wave (km/s) = 2.99356 3.35665 3.18029
# Velocity P-wave (km/s) = 5.58566 6.09177 5.84420
#
# Compressibility (1/GPa) = 0.02553261
#
# Stress axis : x y z
#
# Youngs Moduli (GPa) = 67.97177 36.13594 60.23144
#
# Poissons Ratio (x) = 0.25407 0.29911
# Poissons Ratio (y) = 0.47791 0.28494
# Poissons Ratio (z) = 0.33755 0.17095
#
# Static dielectric constant tensor:
#      x y z
#    x 3.752780 0.000000 0.002970 
#    y 0.000000 3.622880 0.000000 
#    z 0.002970 0.000000 3.769700 
# 
# 
# High freq. dielectric constant tensor:
#      x y z
#    x 1.793270 0.000000 0.006120 
#    y 0.000000 1.790620 0.000000 
#    z 0.006120 0.000000 1.801360 
# 
# From -- ./inp_files/136920.got.cif
#   From: 2010.06.25/outbox.cif.g09.slc.cpg/sg12_69_cif.got.tgz:136920.got - 2010.06.28 00:19:55.
