data_PCOD8102787
_publ_section_title
;
Structure prediction by ZEFSAII (Michael W. Deem and Ramdas Pophale) SiO2 
 PCOD8102787
Probable space group: C 2/M
;
_chemical_formula_sum "Si O2"
_cell_formula_units_Z 56
_cell_length_a 28.145435
_cell_length_b 9.068539
_cell_length_c 11.801826
_cell_angle_alpha 90.000000
_cell_angle_beta 107.257814
_cell_angle_gamma 90.000000
_cell_volume 2876.660060
_symmetry_space_group_name_H-M "C 2/M"
_symmetry_group_IT_number 12
_symmetry_cell_setting 'monoclinic'
loop_
_space_group_symop_operation_xyz
x,y,z
-x,y,-z
-x,-y,-z
x,-y,z
1/2+x,1/2+y,z
1/2-x,1/2+y,-z
1/2-x,1/2-y,-z
1/2+x,1/2-y,z
loop_
_atom_site_type_symbol
_atom_site_label
_atom_site_fract_x
_atom_site_fract_y
_atom_site_fract_z
Si Si1 0.801809 0.329913 0.027745
Si Si2 0.353245 0.174117 0.839291
Si Si3 0.992451 0.832612 0.677516
Si Si4 0.739744 0.825505 0.372953
Si Si5 0.176510 0.669899 0.704903
Si Si6 0.036632 0.674605 0.122545
Si Si7 0.080750 0.167604 0.576039
O O1 0.790263 0.500000 0.995311
O O2 0.831272 0.307988 0.166146
O O3 0.750000 0.250000 0.000000
O O4 0.833813 0.262831 0.946387
O O5 0.315541 0.215912 0.710620
O O6 0.407777 0.242128 0.853199
O O7 0.357911 0.000000 0.852940
O O8 0.986625 0.721079 0.775540
O O9 0.945158 0.815563 0.563061
O O10 0.042508 0.788147 0.647555
O O11 0.995902 0.000000 0.724406
O O12 0.750000 0.750000 0.500000
O O13 0.777650 0.767160 0.305439
O O14 0.746343 0.000000 0.391012
O O15 0.186772 0.500000 0.680803
O O16 0.126652 0.721385 0.607860
O O17 0.039051 0.500000 0.119901
O O18 0.000000 0.736520 0.000000
O O19 0.099323 0.000000 0.606958
#
# Coordination Sequence:
#
# PCOD8102787 Si02
#       7
#     8   8   8   8   8   8   8
#     4  10  20  37  59  82 114 149 191 238 283 342
#     4   9  20  39  59  82 115 157 193 237 293 344
#     4   9  20  40  61  83 114 151 195 241 290 349
#     4  11  23  40  61  84 121 161 200 244 292 350
#     4  11  23  36  59  92 119 147 194 244 291 352
#     4  10  22  38  60  86 117 155 195 239 294 350
#     4   9  20  39  61  84 115 154 190 236 297 350
#
# _framework density 19.467020000000002
#
# number of rings (size 3 to 8) (size 9 to 14) (size 15 to 20)
#    0.000    2.143    1.429    1.714    4.000    2.000 
#    0.000    2.857    0.000    0.000    0.000    0.000 
#    0.000    0.000    0.000    0.000    0.000    0.000 
#
# Total GULP energy -347226.573555 kJ/mol
# GULP energy per Si atom -12400.949056 kJ/mol
# Density = 1.942271 g / cm^3
# Si number density = 19.467020 Si / 1000 Ang^3
#
#
#
# Elastic Constant Matrix: (Units=GPa)
#
#
# Indices 1 2 3 4 5 6 
#
# 1 101.6290 32.1136 57.2035 0.0000 13.3573 0.0000
# 2 32.1136 51.8303 38.4249 0.0000 6.1495 0.0000
# 3 57.2035 38.4249 116.8147 0.0000 -3.8295 0.0000
# 4 0.0000 0.0000 0.0000 29.4947 0.0000 -5.1631
# 5 13.3573 6.1495 -3.8295 0.0000 36.2514 0.0000
# 6 0.0000 0.0000 0.0000 -5.1631 0.0000 30.2055
#
#
#
# Elastic Compliance Matrix: (Units=1/GPa)
#
#
# Indices 1 2 3 4 5 6 
#
# 1 0.015517 -0.004190 -0.006406 0.000000 -0.005683 0.000000
# 2 -0.004190 0.027677 -0.007180 0.000000 -0.003909 0.000000
# 3 -0.006406 -0.007180 0.014226 0.000000 0.005081 0.000000
# 4 0.000000 0.000000 0.000000 0.034950 0.000000 0.005974
# 5 -0.005683 -0.003909 0.005081 0.000000 0.030879 0.000000
# 6 0.000000 0.000000 0.000000 0.005974 0.000000 0.034128
#
#
# Mechanical properties :
#
#
# Convention : Reuss Voigt Hill
#
# Bulk Modulus (GPa) = 45.73302 58.41755 52.07529
# Shear Modulus (GPa) = 24.97259 28.69245 26.83252
#
# Velocity S-wave (km/s) = 3.58553 3.84331 3.71665
# Velocity P-wave (km/s) = 6.37847 7.05466 6.72507
#
# Compressibility (1/GPa) = 0.02186604
#
# Stress axis : x y z
#
# Youngs Moduli (GPa) = 64.44671 36.13110 70.29284
#
# Poissons Ratio (x) = 0.15140 0.45033
# Poissons Ratio (y) = 0.27005 0.50472
# Poissons Ratio (z) = 0.41287 0.25943
#
# Static dielectric constant tensor:
#      x y z
#    x 3.716440 0.000000 0.010020 
#    y 0.000000 3.369190 0.000000 
#    z 0.010020 0.000000 3.711160 
# 
# 
# High freq. dielectric constant tensor:
#      x y z
#    x 1.763180 0.000000 0.000460 
#    y 0.000000 1.739140 0.000000 
#    z 0.000460 0.000000 1.767910 
# 
# From -- ./inp_files/181076.got.cif
#   From: 2010.06.25/outbox.cif.g09.slc.cpg/sg12_91_cif.got.tgz:181076.got - 2010.06.28 00:19:55.
