data_PCOD8102146
_publ_section_title
;
Structure prediction by ZEFSAII (Michael W. Deem and Ramdas Pophale) SiO2 
 PCOD8102146
Probable space group: C 2/M
;
_chemical_formula_sum "Si O2"
_cell_formula_units_Z 24
_cell_length_a 19.470180
_cell_length_b 7.889972
_cell_length_c 16.058463
_cell_angle_alpha 90.000000
_cell_angle_beta 26.749808
_cell_angle_gamma 90.000000
_cell_volume 1110.334988
_symmetry_space_group_name_H-M "C 2/M"
_symmetry_group_IT_number 12
_symmetry_cell_setting 'monoclinic'
loop_
_space_group_symop_operation_xyz
x,y,z
-x,y,-z
-x,-y,-z
x,-y,z
1/2+x,1/2+y,z
1/2-x,1/2+y,-z
1/2-x,1/2-y,-z
1/2+x,1/2-y,z
loop_
_atom_site_type_symbol
_atom_site_label
_atom_site_fract_x
_atom_site_fract_y
_atom_site_fract_z
Si Si1 0.539610 0.681021 0.053845
Si Si2 0.893682 0.500000 0.198123
Si Si3 0.461319 0.500000 0.446576
Si Si4 0.837406 0.695235 0.822995
O O1 0.496839 0.500000 0.142800
O O2 0.439487 0.832989 0.202174
O O3 0.500000 0.670517 0.000000
O O4 0.719854 0.714721 0.872684
O O5 0.718446 0.500000 0.367838
O O6 0.000000 0.500000 0.000000
O O7 0.500000 0.500000 0.500000
O O8 0.524397 0.326640 0.337631
O O9 0.897090 0.500000 0.763771
O O10 0.750000 0.750000 0.000000
#
# Coordination Sequence:
#
# PCOD8102146 Si02
#       4
#     8   4   4   8
#     4   9  18  35  61  89 120 166 214 263 318 380
#     4  10  20  36  60  90 128 165 206 269 319 374
#     4  12  24  40  68 104 130 173 228 271 329 400
#     4  11  23  42  70  96 136 177 216 276 340 392
#
# _framework density 21.615100000000002
#
# number of rings (size 3 to 8) (size 9 to 14) (size 15 to 20)
#    0.000    1.667    1.667    5.000    0.000    2.000 
#    0.000    1.667    0.000    0.000    0.000    0.000 
#    0.000    0.000    0.000    0.000    0.000    0.000 
#
# Total GULP energy -148661.205776 kJ/mol
# GULP energy per Si atom -12388.433815 kJ/mol
# Density = 2.156590 g / cm^3
# Si number density = 21.615100 Si / 1000 Ang^3
#
#
#
# Elastic Constant Matrix: (Units=GPa)
#
#
# Indices 1 2 3 4 5 6 
#
# 1 46.2361 29.2608 27.4270 0.0000 -17.8752 0.0000
# 2 29.2608 259.9992 85.2454 0.0000 -34.3466 0.0000
# 3 27.4270 85.2454 126.0839 -0.0001 -25.6388 0.0000
# 4 0.0000 0.0000 -0.0001 31.6247 0.0000 -10.0322
# 5 -17.8752 -34.3466 -25.6388 0.0000 40.5917 0.0000
# 6 0.0000 0.0000 0.0000 -10.0322 0.0000 28.2430
#
#
#
# Elastic Compliance Matrix: (Units=1/GPa)
#
#
# Indices 1 2 3 4 5 6 
#
# 1 0.027874 -0.000690 -0.003694 0.000000 0.009358 0.000000
# 2 -0.000690 0.005167 -0.002887 0.000000 0.002245 0.000000
# 3 -0.003694 -0.002887 0.011312 0.000000 0.003075 0.000000
# 4 0.000000 0.000000 0.000000 0.035636 0.000000 0.012658
# 5 0.009358 0.002245 0.003075 0.000000 0.032598 0.000000
# 6 0.000000 0.000000 0.000000 0.012658 0.000000 0.039903
#
#
# Mechanical properties :
#
#
# Convention : Reuss Voigt Hill
#
# Bulk Modulus (GPa) = 33.54441 79.57617 56.56029
# Shear Modulus (GPa) = 28.25353 39.45095 33.85224
#
# Velocity S-wave (km/s) = 3.61933 4.27682 3.96174
# Velocity P-wave (km/s) = 5.74620 7.82836 6.86666
#
# Compressibility (1/GPa) = 0.02981123
#
# Stress axis : x y z
#
# Youngs Moduli (GPa) = 35.87612 193.54298 88.40166
#
# Poissons Ratio (x) = 0.13345 0.32658
# Poissons Ratio (y) = 0.02474 0.25520
# Poissons Ratio (z) = 0.13254 0.55872
#
# Static dielectric constant tensor:
#      x y z
#    x 3.770210 0.000000 -0.091280 
#    y 0.000000 7.114600 0.000000 
#    z -0.091280 0.000000 3.510120 
# 
# 
# High freq. dielectric constant tensor:
#      x y z
#    x 1.848880 0.000000 -0.024810 
#    y 0.000000 1.896260 0.000000 
#    z -0.024810 0.000000 1.795120 
# 
# From -- ./inp_files/69319.got.cif
#   From: 2010.06.25/outbox.cif.g09.slc.cpg/sg12_35_cif.got.tgz:69319.got - 2010.06.28 00:19:55.
