data_PCOD8102965
_publ_section_title
;
Structure prediction by ZEFSAII (Michael W. Deem and Ramdas Pophale) SiO2 
 PCOD8102965
Probable space group: C 2/M
;
_chemical_formula_sum "Si O2"
_cell_formula_units_Z 64
_cell_length_a 30.651025
_cell_length_b 8.433985
_cell_length_c 23.733184
_cell_angle_alpha 90.000000
_cell_angle_beta 149.600984
_cell_angle_gamma 90.000000
_cell_volume 3104.563985
_symmetry_space_group_name_H-M "C 2/M"
_symmetry_group_IT_number 12
_symmetry_cell_setting 'monoclinic'
loop_
_space_group_symop_operation_xyz
x,y,z
-x,y,-z
-x,-y,-z
x,-y,z
1/2+x,1/2+y,z
1/2-x,1/2+y,-z
1/2-x,1/2-y,-z
1/2+x,1/2-y,z
loop_
_atom_site_type_symbol
_atom_site_label
_atom_site_fract_x
_atom_site_fract_y
_atom_site_fract_z
Si Si1 0.513423 0.688457 0.255384
Si Si2 0.732923 0.187686 0.659191
Si Si3 0.699174 0.311965 0.496879
Si Si4 0.094214 0.188989 0.085936
Si Si5 0.755711 0.316828 0.944109
Si Si6 0.902695 0.815245 0.034755
Si Si7 0.055856 0.811025 0.508456
Si Si8 0.934533 0.182768 0.277761
O O1 0.513877 0.500000 0.250858
O O2 0.604365 0.752658 0.377487
O O3 0.483155 0.756339 0.160766
O O4 0.445225 0.750547 0.226287
O O5 0.729176 0.244202 0.590281
O O6 0.824918 0.250573 0.786491
O O7 0.654032 0.248320 0.610970
O O8 0.730367 0.000000 0.657374
O O9 0.704103 0.500000 0.506163
O O10 0.750000 0.250000 0.500000
O O11 0.095780 0.000000 0.088511
O O12 0.105027 0.262510 0.035246
O O13 0.000000 0.251313 0.000000
O O14 0.784534 0.500000 0.977100
O O15 0.663052 0.295756 0.810793
O O16 0.750000 0.250000 0.000000
O O17 0.816817 0.211029 0.974368
O O18 0.917375 0.000000 0.042114
O O19 0.000000 0.750987 0.500000
O O20 0.001862 0.739133 0.395903
O O21 0.061233 0.000000 0.515725
O O22 0.961136 0.000000 0.304937
#
# Coordination Sequence:
#
# PCOD8102965 Si02
#       8
#     8   8   8   8   8   8   8   8
#     4   9  17  33  59  84 110 147 193 240 288 350
#     4  11  23  40  62  92 125 156 198 254 305 355
#     4  11  23  40  64  92 119 153 195 244 301 361
#     4   9  21  40  63  86 114 159 210 248 291 357
#     4  11  21  34  54  82 117 151 187 234 287 348
#     4  10  20  37  60  84 112 151 200 247 289 343
#     4  10  21  38  61  84 114 163 208 241 292 363
#     4   9  17  33  53  78 110 149 196 236 280 351
#
# _framework density 20.614811
#
# number of rings (size 3 to 8) (size 9 to 14) (size 15 to 20)
#    0.000    2.000    2.500    1.125    3.500    0.250 
#    0.000    4.375    0.000    1.875    0.000    0.000 
#    0.000    0.000    0.000    0.000    0.000    0.000 
#
# Total GULP energy -396470.960613 kJ/mol
# GULP energy per Si atom -12389.717519 kJ/mol
# Density = 2.056789 g / cm^3
# Si number density = 20.614811 Si / 1000 Ang^3
#
#
#
# Elastic Constant Matrix: (Units=GPa)
#
#
# Indices 1 2 3 4 5 6 
#
# 1 165.0342 11.0059 83.7871 0.0000 -9.7899 0.0000
# 2 11.0059 28.2543 18.9606 0.0000 -4.0502 0.0000
# 3 83.7871 18.9606 179.9577 0.0000 -13.1644 0.0000
# 4 0.0000 0.0000 0.0000 23.1912 0.0000 3.9392
# 5 -9.7899 -4.0502 -13.1644 0.0000 34.7471 0.0000
# 6 0.0000 0.0000 0.0000 3.9392 0.0000 26.4496
#
#
#
# Elastic Compliance Matrix: (Units=1/GPa)
#
#
# Indices 1 2 3 4 5 6 
#
# 1 0.007969 -0.000578 -0.003589 0.000000 0.000818 0.000000
# 2 -0.000578 0.038434 -0.003563 0.000000 0.002967 0.000000
# 3 -0.003589 -0.003563 0.007713 0.000000 0.001495 0.000000
# 4 0.000000 0.000000 0.000000 0.044239 0.000000 -0.006589
# 5 0.000818 0.002967 0.001495 0.000000 0.029922 0.000000
# 6 0.000000 0.000000 0.000000 -0.006589 0.000000 0.038789
#
#
# Mechanical properties :
#
#
# Convention : Reuss Voigt Hill
#
# Bulk Modulus (GPa) = 25.87020 66.75039 46.31029
# Shear Modulus (GPa) = 25.58685 34.17711 29.88198
#
# Velocity S-wave (km/s) = 3.52687 4.07614 3.81141
# Velocity P-wave (km/s) = 5.40015 7.38941 6.47167
#
# Compressibility (1/GPa) = 0.03865452
#
# Stress axis : x y z
#
# Youngs Moduli (GPa) = 125.48979 26.01829 129.65242
#
# Poissons Ratio (x) = 0.01504 0.46538
# Poissons Ratio (y) = 0.07254 0.46199
# Poissons Ratio (z) = 0.45044 0.09271
#
# Static dielectric constant tensor:
#      x y z
#    x 3.932590 0.000000 -0.022010 
#    y 0.000000 3.315460 0.000000 
#    z -0.022010 0.000000 4.233580 
# 
# 
# High freq. dielectric constant tensor:
#      x y z
#    x 1.814350 0.000000 -0.002730 
#    y 0.000000 1.762010 0.000000 
#    z -0.002730 0.000000 1.825780 
# 
# From -- ./inp_files/353542.got.cif
#   From: 2010.06.25/outbox.cif.g09.slc.cpg/sg12_177_cif.got.tgz:353542.got - 2010.06.28 00:19:55.
