data_PCOD8102595
_publ_section_title
;
Structure prediction by ZEFSAII (Michael W. Deem and Ramdas Pophale) SiO2 
 PCOD8102595
Probable space group: C 2/M
;
_chemical_formula_sum "Si O2"
_cell_formula_units_Z 56
_cell_length_a 19.547118
_cell_length_b 13.681196
_cell_length_c 14.439436
_cell_angle_alpha 90.000000
_cell_angle_beta 131.496585
_cell_angle_gamma 90.000000
_cell_volume 2892.251613
_symmetry_space_group_name_H-M "C 2/M"
_symmetry_group_IT_number 12
_symmetry_cell_setting 'monoclinic'
loop_
_space_group_symop_operation_xyz
x,y,z
-x,y,-z
-x,-y,-z
x,-y,z
1/2+x,1/2+y,z
1/2-x,1/2+y,-z
1/2-x,1/2-y,-z
1/2+x,1/2-y,z
loop_
_atom_site_type_symbol
_atom_site_label
_atom_site_fract_x
_atom_site_fract_y
_atom_site_fract_z
Si Si1 0.027175 0.802003 0.427695
Si Si2 0.489726 0.612287 0.199683
Si Si3 0.172950 0.609785 0.944191
Si Si4 0.818588 0.199461 0.949468
Si Si5 0.813612 0.694348 0.486991
Si Si6 0.660911 0.612418 0.229676
Si Si7 0.998747 0.608473 0.674918
O O1 0.135769 0.779477 0.526750
O O2 0.973688 0.696469 0.370832
O O3 0.000000 0.853040 0.500000
O O4 0.003777 0.872579 0.321589
O O5 0.469246 0.500000 0.161218
O O6 0.579082 0.646739 0.223326
O O7 0.404015 0.674066 0.090594
O O8 0.199817 0.500000 0.999713
O O9 0.230541 0.638260 0.903724
O O10 0.065219 0.613892 0.823160
O O11 0.197525 0.684190 0.049613
O O12 0.840810 0.179183 0.862884
O O13 0.750000 0.750000 0.500000
O O14 0.756138 0.624552 0.368362
O O15 0.892737 0.630066 0.610117
O O16 0.649205 0.500000 0.189172
O O17 0.006543 0.500000 0.636307
#
# Coordination Sequence:
#
# PCOD8102595 Si02
#       7
#     8   8   8   8   8   8   8
#     4  10  22  37  58  85 118 155 197 242 303 351
#     4  11  22  40  59  83 119 156 199 251 301 354
#     4  10  21  37  61  88 119 159 198 241 300 360
#     4  11  22  38  61  88 121 156 200 248 297 355
#     4  10  20  37  57  84 121 157 188 239 299 356
#     4  11  22  35  59  91 117 154 202 250 302 358
#     4   9  19  36  59  87 118 150 190 242 297 352
#
# _framework density 19.362076999999999
#
# number of rings (size 3 to 8) (size 9 to 14) (size 15 to 20)
#    0.857    0.857    2.857    2.143    2.000    1.714 
#    0.000    0.000    0.000    6.857    0.000    0.000 
#    0.000    0.000    0.000    0.000    0.000    0.000 
#
# Total GULP energy -346963.895956 kJ/mol
# GULP energy per Si atom -12391.567713 kJ/mol
# Density = 1.931801 g / cm^3
# Si number density = 19.362077 Si / 1000 Ang^3
#
#
#
# Elastic Constant Matrix: (Units=GPa)
#
#
# Indices 1 2 3 4 5 6 
#
# 1 103.0451 30.1137 50.8938 0.0000 -7.6015 0.0000
# 2 30.1137 98.5903 37.1390 0.0000 -7.1250 0.0000
# 3 50.8938 37.1390 78.1479 0.0000 -7.2849 0.0000
# 4 0.0000 0.0000 0.0000 26.6084 0.0000 2.0578
# 5 -7.6015 -7.1250 -7.2849 0.0000 41.4888 0.0000
# 6 0.0000 0.0000 0.0000 2.0578 0.0000 21.2841
#
#
#
# Elastic Compliance Matrix: (Units=1/GPa)
#
#
# Indices 1 2 3 4 5 6 
#
# 1 0.014430 -0.001015 -0.008829 0.000000 0.000919 0.000000
# 2 -0.001015 0.012477 -0.005171 0.000000 0.001049 0.000000
# 3 -0.008829 -0.005171 0.021116 0.000000 0.001202 0.000000
# 4 0.000000 0.000000 0.000000 0.037865 0.000000 -0.003661
# 5 0.000919 0.001049 0.001202 0.000000 0.024662 0.000000
# 6 0.000000 0.000000 0.000000 -0.003661 0.000000 0.047337
#
#
# Mechanical properties :
#
#
# Convention : Reuss Voigt Hill
#
# Bulk Modulus (GPa) = 55.57977 57.34182 56.46080
# Shear Modulus (GPa) = 25.78463 28.65205 27.21834
#
# Velocity S-wave (km/s) = 3.65322 3.85099 3.75341
# Velocity P-wave (km/s) = 6.82367 7.03231 6.92877
#
# Compressibility (1/GPa) = 0.01799216
#
# Stress axis : x y z
#
# Youngs Moduli (GPa) = 69.30161 80.15027 47.35836
#
# Poissons Ratio (x) = 0.08136 0.41814
# Poissons Ratio (y) = 0.07034 0.24487
# Poissons Ratio (z) = 0.61188 0.41442
#
# Static dielectric constant tensor:
#      x y z
#    x 3.566470 0.000000 0.332510 
#    y 0.000000 3.544790 0.000000 
#    z 0.332510 0.000000 3.492390 
# 
# 
# High freq. dielectric constant tensor:
#      x y z
#    x 1.748530 0.000000 0.023020 
#    y 0.000000 1.750890 0.000000 
#    z 0.023020 0.000000 1.738090 
# 
# From -- ./inp_files/156711.got.cif
#   From: 2010.06.25/outbox.cif.g09.slc.cpg/sg12_79_cif.got.tgz:156711.got - 2010.06.28 00:19:55.
