data_PCOD8102912
_publ_section_title
;
Structure prediction by ZEFSAII (Michael W. Deem and Ramdas Pophale) SiO2 
 PCOD8102912
Probable space group: C 2/M
;
_chemical_formula_sum "Si O2"
_cell_formula_units_Z 40
_cell_length_a 19.203081
_cell_length_b 9.190723
_cell_length_c 24.750956
_cell_angle_alpha 90.000000
_cell_angle_beta 28.598081
_cell_angle_gamma 90.000000
_cell_volume 2090.941728
_symmetry_space_group_name_H-M "C 2/M"
_symmetry_group_IT_number 12
_symmetry_cell_setting 'monoclinic'
loop_
_space_group_symop_operation_xyz
x,y,z
-x,y,-z
-x,-y,-z
x,-y,z
1/2+x,1/2+y,z
1/2-x,1/2+y,-z
1/2-x,1/2-y,-z
1/2+x,1/2-y,z
loop_
_atom_site_type_symbol
_atom_site_label
_atom_site_fract_x
_atom_site_fract_y
_atom_site_fract_z
Si Si1 0.933148 0.328956 0.706469
Si Si2 0.878426 0.831797 0.045237
Si Si3 0.949677 0.170367 0.474917
Si Si4 0.114984 0.330617 0.685044
Si Si5 0.398365 0.331643 0.909030
O O1 0.928285 0.500000 0.698917
O O2 0.782948 0.267377 0.834751
O O3 0.954524 0.251342 0.634827
O O4 0.062531 0.290449 0.660284
O O5 0.866343 0.000000 0.068898
O O6 0.935785 0.809784 0.945985
O O7 0.000000 0.754999 0.000000
O O8 0.782515 0.210835 0.578070
O O9 0.000000 0.223309 0.500000
O O10 0.977579 0.000000 0.449379
O O11 0.084585 0.500000 0.717791
O O12 0.028939 0.235996 0.786703
O O13 0.379288 0.500000 0.906541
O O14 0.250000 0.250000 0.000000
#
# Coordination Sequence:
#
# PCOD8102912 Si02
#       5
#     8   8   8   8   8
#     4  10  20  37  60  82 109 147 192 235 273 328
#     4   9  19  35  55  82 116 148 180 228 281 325
#     4  10  23  40  57  81 116 150 182 234 294 337
#     4  10  21  39  59  81 114 150 188 234 279 330
#     4  11  21  36  60  87 116 148 186 229 279 335
#
# _framework density 19.130136
#
# number of rings (size 3 to 8) (size 9 to 14) (size 15 to 20)
#    0.000    2.000    2.000    1.200    2.800    2.000 
#    0.000    0.000    0.000    3.000    0.000    0.000 
#    0.000    0.000    0.000    0.000    0.000    0.000 
#
# Total GULP energy -248010.667201 kJ/mol
# GULP energy per Si atom -12400.533360 kJ/mol
# Density = 1.908659 g / cm^3
# Si number density = 19.130136 Si / 1000 Ang^3
#
#
#
# Elastic Constant Matrix: (Units=GPa)
#
#
# Indices 1 2 3 4 5 6 
#
# 1 135.6515 29.4983 50.7073 0.0002 -1.3151 0.0000
# 2 29.4983 48.2847 36.3910 0.0007 10.7822 0.0000
# 3 50.7073 36.3910 96.7098 0.0023 15.1949 -0.0005
# 4 0.0002 0.0007 0.0023 33.2582 -0.0004 11.4769
# 5 -1.3151 10.7822 15.1949 -0.0004 38.0725 0.0000
# 6 0.0000 0.0000 -0.0005 11.4769 0.0000 22.0381
#
#
#
# Elastic Compliance Matrix: (Units=1/GPa)
#
#
# Indices 1 2 3 4 5 6 
#
# 1 0.009748 -0.003377 -0.004314 0.000000 0.003015 0.000000
# 2 -0.003377 0.030693 -0.008956 0.000000 -0.005234 0.000000
# 3 -0.004314 -0.008956 0.016641 -0.000001 -0.004254 0.000001
# 4 0.000000 0.000000 -0.000001 0.036655 0.000001 -0.019089
# 5 0.003015 -0.005234 -0.004254 0.000001 0.029550 -0.000001
# 6 0.000000 0.000000 0.000001 -0.019089 -0.000001 0.055317
#
#
# Mechanical properties :
#
#
# Convention : Reuss Voigt Hill
#
# Bulk Modulus (GPa) = 42.04058 57.09323 49.56691
# Shear Modulus (GPa) = 22.74514 29.61038 26.17776
#
# Velocity S-wave (km/s) = 3.45188 3.93853 3.70321
# Velocity P-wave (km/s) = 6.15720 7.11281 6.65219
#
# Compressibility (1/GPa) = 0.02378654
#
# Stress axis : x y z
#
# Youngs Moduli (GPa) = 102.58451 32.58112 60.09367
#
# Poissons Ratio (x) = 0.11003 0.25925
# Poissons Ratio (y) = 0.34645 0.53821
# Poissons Ratio (z) = 0.44255 0.29180
#
# Static dielectric constant tensor:
#      x y z
#    x 2.723560 0.000020 -3.333050 
#    y 0.000020 3.307250 0.000060 
#    z -3.333050 0.000060 -5.677860 
# 
# 
# High freq. dielectric constant tensor:
#      x y z
#    x 1.758580 0.000000 -0.001190 
#    y 0.000000 1.719430 0.000000 
#    z -0.001190 0.000000 1.752200 
# 
# From -- ./inp_files/151659.got.cif
#   From: 2010.06.25/outbox.cif.g09.slc.cpg/sg12_76_cif.got.tgz:151659.got - 2010.06.28 00:19:55.
