data_PCOD8102282
_publ_section_title
;
Structure prediction by ZEFSAII (Michael W. Deem and Ramdas Pophale) SiO2 
 PCOD8102282
Probable space group: C 2/M
;
_chemical_formula_sum "Si O2"
_cell_formula_units_Z 56
_cell_length_a 18.453815
_cell_length_b 13.484276
_cell_length_c 21.261285
_cell_angle_alpha 90.000000
_cell_angle_beta 28.668979
_cell_angle_gamma 90.000000
_cell_volume 2538.148056
_symmetry_space_group_name_H-M "C 2/M"
_symmetry_group_IT_number 12
_symmetry_cell_setting 'monoclinic'
loop_
_space_group_symop_operation_xyz
x,y,z
-x,y,-z
-x,-y,-z
x,-y,z
1/2+x,1/2+y,z
1/2-x,1/2+y,-z
1/2-x,1/2-y,-z
1/2+x,1/2-y,z
loop_
_atom_site_type_symbol
_atom_site_label
_atom_site_fract_x
_atom_site_fract_y
_atom_site_fract_z
Si Si1 0.886367 0.617265 0.140190
Si Si2 0.630550 0.384681 0.753590
Si Si3 0.219512 0.386770 0.229255
Si Si4 0.490882 0.115392 0.822434
Si Si5 0.442265 0.293247 0.612752
Si Si6 0.797174 0.882662 0.030832
Si Si7 0.754950 0.219383 0.566762
O O1 0.874178 0.500000 0.154554
O O2 0.957636 0.663118 0.149909
O O3 0.718389 0.655303 0.252542
O O4 0.000000 0.652123 0.000000
O O5 0.658801 0.500000 0.712867
O O6 0.661401 0.370865 0.804720
O O7 0.730541 0.312148 0.633774
O O8 0.455565 0.352919 0.878085
O O9 0.166859 0.500000 0.264127
O O10 0.072395 0.323425 0.360022
O O11 0.285855 0.346776 0.112265
O O12 0.336880 0.162322 0.911033
O O13 0.627698 0.135728 0.670863
O O14 0.465095 0.000000 0.851716
O O15 0.500000 0.314409 0.500000
O O16 0.581016 0.332214 0.549304
O O17 0.782454 0.000000 0.044063
O O18 0.750000 0.250000 0.500000
#
# Coordination Sequence:
#
# PCOD8102282 Si02
#       7
#     8   8   8   8   8   8   8
#     4  10  23  43  69  95 119 158 212 265 315 365
#     4  10  21  38  60  88 125 162 206 258 302 363
#     4  10  20  36  61  92 126 164 204 247 303 373
#     4  10  21  40  62  87 122 158 201 259 312 365
#     4  12  23  41  62  91 125 165 209 249 305 370
#     4   9  19  36  61  92 123 160 202 249 314 373
#     4  12  26  41  58  88 124 162 211 251 305 374
#
# _framework density 22.063330000000001
#
# number of rings (size 3 to 8) (size 9 to 14) (size 15 to 20)
#    0.000    1.571    2.857    1.286    0.000    8.000 
#    0.000    1.429    0.000    0.000    0.000    0.000 
#    0.000    0.000    0.000    0.000    0.000    0.000 
#
# Total GULP energy -347031.742228 kJ/mol
# GULP energy per Si atom -12393.990794 kJ/mol
# Density = 2.201311 g / cm^3
# Si number density = 22.063330 Si / 1000 Ang^3
#
#
#
# Elastic Constant Matrix: (Units=GPa)
#
#
# Indices 1 2 3 4 5 6 
#
# 1 153.8126 14.3198 73.2320 -0.0049 -5.8551 0.0021
# 2 14.3198 28.5799 19.8147 -0.0154 -3.6665 0.0049
# 3 73.2320 19.8147 145.1790 -0.0192 -14.8432 0.0062
# 4 -0.0049 -0.0154 -0.0192 33.8605 0.0036 -2.5053
# 5 -5.8551 -3.6665 -14.8432 0.0036 44.4796 -0.0009
# 6 0.0021 0.0049 0.0062 -2.5053 -0.0009 20.1548
#
#
#
# Elastic Compliance Matrix: (Units=1/GPa)
#
#
# Indices 1 2 3 4 5 6 
#
# 1 0.008616 -0.001464 -0.004185 -0.000002 -0.000383 0.000000
# 2 -0.001464 0.038989 -0.004425 0.000014 0.001545 -0.000006
# 3 -0.004185 -0.004425 0.009845 0.000003 0.002370 -0.000001
# 4 -0.000002 0.000014 0.000003 0.029807 0.000000 0.003705
# 5 -0.000383 0.001545 0.002370 0.000000 0.023350 0.000000
# 6 0.000000 -0.000006 -0.000001 0.003705 0.000000 0.050077
#
#
# Mechanical properties :
#
#
# Convention : Reuss Voigt Hill
#
# Bulk Modulus (GPa) = 26.80858 60.25604 43.53231
# Shear Modulus (GPa) = 25.87090 34.37931 30.12511
#
# Velocity S-wave (km/s) = 3.42800 3.95170 3.69913
# Velocity P-wave (km/s) = 5.27687 6.94198 6.16589
#
# Compressibility (1/GPa) = 0.03730149
#
# Stress axis : x y z
#
# Youngs Moduli (GPa) = 116.06495 25.64805 101.56941
#
# Poissons Ratio (x) = 0.03756 0.42511
# Poissons Ratio (y) = 0.16996 0.44943
# Poissons Ratio (z) = 0.48578 0.11349
#
# Static dielectric constant tensor:
#      x y z
#    x 4.314830 -0.000010 -0.160820 
#    y -0.000010 3.986870 0.000040 
#    z -0.160820 0.000040 4.064610 
# 
# 
# High freq. dielectric constant tensor:
#      x y z
#    x 1.877640 0.000000 -0.008740 
#    y 0.000000 1.861270 0.000000 
#    z -0.008740 0.000000 1.868220 
# 
# From -- ./inp_files/316700.got.cif
#   From: 2010.06.25/outbox.cif.g09.slc.cpg/sg12_159_cif.got.tgz:316700.got - 2010.06.28 00:19:55.
