data_PCOD8102738
_publ_section_title
;
Structure prediction by ZEFSAII (Michael W. Deem and Ramdas Pophale) SiO2 
 PCOD8102738
Probable space group: C 2/M
;
_chemical_formula_sum "Si O2"
_cell_formula_units_Z 56
_cell_length_a 12.184985
_cell_length_b 27.139307
_cell_length_c 14.322564
_cell_angle_alpha 90.000000
_cell_angle_beta 36.656009
_cell_angle_gamma 90.000000
_cell_volume 2827.650159
_symmetry_space_group_name_H-M "C 2/M"
_symmetry_group_IT_number 12
_symmetry_cell_setting 'monoclinic'
loop_
_space_group_symop_operation_xyz
x,y,z
-x,y,-z
-x,-y,-z
x,-y,z
1/2+x,1/2+y,z
1/2-x,1/2+y,-z
1/2-x,1/2-y,-z
1/2+x,1/2-y,z
loop_
_atom_site_type_symbol
_atom_site_label
_atom_site_fract_x
_atom_site_fract_y
_atom_site_fract_z
Si Si1 0.556979 0.303319 0.187136
Si Si2 0.473291 0.901760 0.784856
Si Si3 0.307622 0.114668 0.087875
Si Si4 0.206771 0.944734 0.328348
Si Si5 0.671896 0.200302 0.166422
Si Si6 0.284462 0.842170 0.672899
Si Si7 0.154941 0.553836 0.316241
O O1 0.670648 0.339184 0.177237
O O2 0.552824 0.249851 0.237666
O O3 0.347880 0.323202 0.319394
O O4 0.652842 0.299993 0.020868
O O5 0.680172 0.911428 0.676694
O O6 0.465521 0.844991 0.758947
O O7 0.426512 0.938049 0.731768
O O8 0.335717 0.909820 0.966550
O O9 0.221736 0.073013 0.211756
O O10 0.500000 0.134015 0.000000
O O11 0.000000 0.941642 0.500000
O O12 0.284533 0.000000 0.279657
O O13 0.748544 0.194878 0.218668
O O14 0.500000 0.841850 0.500000
O O15 0.220070 0.898437 0.743662
O O16 0.257768 0.500000 0.245673
O O17 0.000000 0.550882 0.500000
#
# Coordination Sequence:
#
# PCOD8102738 Si02
#       7
#     8   8   8   8   8   8   8
#     4  10  20  37  59  79 108 146 179 224 273 321
#     4   9  18  35  56  79 106 140 185 232 273 317
#     4   9  20  36  56  82 110 142 187 231 271 321
#     4  10  21  35  53  79 110 145 183 225 278 335
#     4   9  20  36  57  78 102 143 188 219 266 327
#     4  10  21  35  53  82 114 141 177 224 272 325
#     4   9  18  33  54  78 106 144 184 220 266 326
#
# _framework density 19.804428999999999
#
# number of rings (size 3 to 8) (size 9 to 14) (size 15 to 20)
#    0.000    2.571    0.000    0.857    0.000   11.714 
#    0.000    3.571    0.000   12.000    0.000    0.000 
#    0.000    0.000    0.000    0.000    0.000    0.000 
#
# Total GULP energy -347069.563372 kJ/mol
# GULP energy per Si atom -12395.341549 kJ/mol
# Density = 1.975935 g / cm^3
# Si number density = 19.804429 Si / 1000 Ang^3
#
#
#
# Elastic Constant Matrix: (Units=GPa)
#
#
# Indices 1 2 3 4 5 6 
#
# 1 94.9753 56.7310 37.9543 0.0000 0.0580 0.0000
# 2 56.7310 137.9516 39.9302 0.0000 -12.4908 0.0000
# 3 37.9543 39.9302 52.5165 0.0000 -1.6214 0.0000
# 4 0.0000 0.0000 0.0000 25.5396 0.0000 4.0269
# 5 0.0580 -12.4908 -1.6214 0.0000 31.7590 0.0000
# 6 0.0000 0.0000 0.0000 4.0269 0.0000 25.0055
#
#
#
# Elastic Compliance Matrix: (Units=1/GPa)
#
#
# Indices 1 2 3 4 5 6 
#
# 1 0.016733 -0.004573 -0.008687 0.000000 -0.002273 0.000000
# 2 -0.004573 0.010903 -0.004860 0.000000 0.004048 0.000000
# 3 -0.008687 -0.004860 0.029002 0.000000 -0.000415 0.000000
# 4 0.000000 0.000000 0.000000 0.040175 0.000000 -0.006470
# 5 -0.002273 0.004048 -0.000415 0.000000 0.033062 0.000000
# 6 0.000000 0.000000 0.000000 -0.006470 0.000000 0.041033
#
#
# Mechanical properties :
#
#
# Convention : Reuss Voigt Hill
#
# Bulk Modulus (GPa) = 49.02148 61.63050 55.32599
# Shear Modulus (GPa) = 23.37031 26.51601 24.94316
#
# Velocity S-wave (km/s) = 3.43892 3.66306 3.55276
# Velocity P-wave (km/s) = 6.36983 7.00555 6.69524
#
# Compressibility (1/GPa) = 0.02039922
#
# Stress axis : x y z
#
# Youngs Moduli (GPa) = 59.76135 91.72056 34.48045
#
# Poissons Ratio (x) = 0.41942 0.29952
# Poissons Ratio (y) = 0.27327 0.16757
# Poissons Ratio (z) = 0.51912 0.44576
#
# Static dielectric constant tensor:
#      x y z
#    x 3.614520 0.000000 0.254960 
#    y 0.000000 3.950890 0.000000 
#    z 0.254960 0.000000 3.429560 
# 
# 
# High freq. dielectric constant tensor:
#      x y z
#    x 1.769470 0.000000 0.017010 
#    y 0.000000 1.778890 0.000000 
#    z 0.017010 0.000000 1.754040 
# 
# From -- ./inp_files/209099.got.cif
#   From: 2010.06.25/outbox.cif.g09.slc.cpg/sg12_105_cif.got.tgz:209099.got - 2010.06.28 00:19:55.
