data_PCOD8102299
_publ_section_title
;
Structure prediction by ZEFSAII (Michael W. Deem and Ramdas Pophale) SiO2 
 PCOD8102299
Probable space group: C 2/M
;
_chemical_formula_sum "Si O2"
_cell_formula_units_Z 64
_cell_length_a 8.762638
_cell_length_b 31.032494
_cell_length_c 16.211810
_cell_angle_alpha 90.000000
_cell_angle_beta 138.842024
_cell_angle_gamma 90.000000
_cell_volume 2901.346774
_symmetry_space_group_name_H-M "C 2/M"
_symmetry_group_IT_number 12
_symmetry_cell_setting 'monoclinic'
loop_
_space_group_symop_operation_xyz
x,y,z
-x,y,-z
-x,-y,-z
x,-y,z
1/2+x,1/2+y,z
1/2-x,1/2+y,-z
1/2-x,1/2-y,-z
1/2+x,1/2-y,z
loop_
_atom_site_type_symbol
_atom_site_label
_atom_site_fract_x
_atom_site_fract_y
_atom_site_fract_z
Si Si1 0.127303 0.395368 0.187559
Si Si2 0.992665 0.234861 0.404564
Si Si3 0.079041 0.147816 0.365907
Si Si4 0.097774 0.385284 0.362276
Si Si5 0.654057 0.048357 0.637470
Si Si6 0.373716 0.624643 0.034882
Si Si7 0.251235 0.321609 0.728035
Si Si8 0.326646 0.451063 0.142246
O O1 0.357004 0.376186 0.237870
O O2 0.186881 0.400983 0.308977
O O3 0.122045 0.438342 0.126453
O O4 0.900512 0.364927 0.088701
O O5 0.795053 0.270484 0.301069
O O6 0.000000 0.218867 0.500000
O O7 0.250000 0.250000 0.500000
O O8 0.953209 0.192901 0.334701
O O9 0.189205 0.122394 0.488251
O O10 0.266101 0.155531 0.369307
O O11 0.907378 0.420787 0.311167
O O12 0.956509 0.340223 0.300253
O O13 0.500000 0.065220 0.500000
O O14 0.917088 0.051146 0.712037
O O15 0.586418 0.000000 0.636693
O O16 0.499599 0.665453 0.130630
O O17 0.359756 0.579346 0.076420
O O18 0.500000 0.615584 0.000000
O O19 0.274182 0.500000 0.092441
#
# Coordination Sequence:
#
# PCOD8102299 Si02
#       8
#     8   8   8   8   8   8   8   8
#     4  12  25  41  66  96 135 178 222 275 339 405
#     4  12  23  40  66 104 139 168 217 289 338 394
#     4  12  25  41  70 102 136 174 223 282 347 400
#     4  12  21  39  67  98 132 175 227 274 335 410
#     4  10  20  36  61  93 133 176 218 271 337 404
#     4  12  25  47  69  93 132 183 230 280 332 407
#     4  12  23  43  68  98 133 180 222 280 336 405
#     4  11  24  43  68 101 136 176 232 289 338 395
#
# _framework density 22.058720999999998
#
# number of rings (size 3 to 8) (size 9 to 14) (size 15 to 20)
#    0.000    0.375    6.250    3.375    0.000    1.750 
#    0.000    0.625    0.000    3.750    0.000    0.000 
#    0.000    0.000    0.000    0.000    0.000    0.000 
#
# Total GULP energy -396426.588125 kJ/mol
# GULP energy per Si atom -12388.330879 kJ/mol
# Density = 2.200851 g / cm^3
# Si number density = 22.058721 Si / 1000 Ang^3
#
#
#
# Elastic Constant Matrix: (Units=GPa)
#
#
# Indices 1 2 3 4 5 6 
#
# 1 110.9292 30.6991 20.0213 0.0000 -11.5546 0.0000
# 2 30.6991 89.3449 24.2177 0.0000 -4.1352 0.0000
# 3 20.0213 24.2177 89.4832 0.0000 6.8581 0.0000
# 4 0.0000 0.0000 0.0000 27.6878 0.0000 7.9055
# 5 -11.5546 -4.1352 6.8581 0.0000 43.4414 0.0000
# 6 0.0000 0.0000 0.0000 7.9055 0.0000 33.3537
#
#
#
# Elastic Compliance Matrix: (Units=1/GPa)
#
#
# Indices 1 2 3 4 5 6 
#
# 1 0.010444 -0.002989 -0.001740 0.000000 0.002768 0.000000
# 2 -0.002989 0.013057 -0.002935 0.000000 0.000911 0.000000
# 3 -0.001740 -0.002935 0.012568 0.000000 -0.002726 0.000000
# 4 0.000000 0.000000 0.000000 0.038739 0.000000 -0.009182
# 5 0.002768 0.000911 -0.002726 0.000000 0.024273 0.000000
# 6 0.000000 0.000000 0.000000 -0.009182 0.000000 0.032158
#
#
# Mechanical properties :
#
#
# Convention : Reuss Voigt Hill
#
# Bulk Modulus (GPa) = 48.21215 48.84817 48.53016
# Shear Modulus (GPa) = 32.57739 35.21787 33.89763
#
# Velocity S-wave (km/s) = 3.84715 4.00002 3.92433
# Velocity P-wave (km/s) = 6.45273 6.59744 6.52549
#
# Compressibility (1/GPa) = 0.02074166
#
# Stress axis : x y z
#
# Youngs Moduli (GPa) = 95.74578 76.58562 79.56800
#
# Poissons Ratio (x) = 0.22891 0.13846
# Poissons Ratio (y) = 0.28617 0.23353
# Poissons Ratio (z) = 0.16661 0.22477
#
# Static dielectric constant tensor:
#      x y z
#    x 4.131040 0.000000 0.159230 
#    y 0.000000 3.932940 0.000000 
#    z 0.159230 0.000000 4.111710 
# 
# 
# High freq. dielectric constant tensor:
#      x y z
#    x 1.878720 0.000000 0.010820 
#    y 0.000000 1.854280 0.000000 
#    z 0.010820 0.000000 1.869280 
# 
# From -- ./inp_files/260378.got.cif
#   From: 2010.06.25/outbox.cif.g09.slc.cpg/sg12_131_cif.got.tgz:260378.got - 2010.06.28 00:19:55.
