data_PCOD8102485
_publ_section_title
;
Structure prediction by ZEFSAII (Michael W. Deem and Ramdas Pophale) SiO2 
 PCOD8102485
Probable space group: C 2/M
;
_chemical_formula_sum "Si O2"
_cell_formula_units_Z 40
_cell_length_a 10.354808
_cell_length_b 25.652563
_cell_length_c 9.393847
_cell_angle_alpha 90.000000
_cell_angle_beta 52.980522
_cell_angle_gamma 90.000000
_cell_volume 1992.294875
_symmetry_space_group_name_H-M "C 2/M"
_symmetry_group_IT_number 12
_symmetry_cell_setting 'monoclinic'
loop_
_space_group_symop_operation_xyz
x,y,z
-x,y,-z
-x,-y,-z
x,-y,z
1/2+x,1/2+y,z
1/2-x,1/2+y,-z
1/2-x,1/2-y,-z
1/2+x,1/2-y,z
loop_
_atom_site_type_symbol
_atom_site_label
_atom_site_fract_x
_atom_site_fract_y
_atom_site_fract_z
Si Si1 0.309419 0.805644 0.120652
Si Si2 0.167966 0.500000 0.807923
Si Si3 0.808426 0.808563 0.119165
Si Si4 0.378418 0.598766 0.702015
Si Si5 0.612886 0.407204 0.795910
Si Si6 0.828229 0.500000 0.536305
O O1 0.250823 0.748378 0.214916
O O2 0.224123 0.849729 0.273791
O O3 0.500000 0.812295 0.000000
O O4 0.260888 0.815881 0.990902
O O5 0.260138 0.550491 0.805244
O O6 0.147716 0.500000 0.650076
O O7 0.000000 0.500000 0.000000
O O8 0.764060 0.859441 0.243124
O O9 0.000000 0.808359 0.000000
O O10 0.500000 0.581472 0.500000
O O11 0.481841 0.613245 0.771056
O O12 0.726379 0.450384 0.652423
O O13 0.500000 0.428334 0.000000
O O14 0.000000 0.500000 0.500000
#
# Coordination Sequence:
#
# PCOD8102485 Si02
#       6
#     8   4   8   8   8   4
#     4  10  20  36  66  97 129 169 219 267 322 383
#     4  12  28  45  66  94 133 173 217 276 339 389
#     4   9  18  38  65  94 129 170 216 266 322 394
#     4  12  23  43  67  93 132 173 219 268 327 403
#     4  11  22  43  70  95 129 176 218 262 330 400
#     4  12  28  44  64 100 133 166 223 284 326 390
#
# _framework density 20.077349999999999
#
# number of rings (size 3 to 8) (size 9 to 14) (size 15 to 20)
#    0.000    1.200    6.000    1.800    2.800    1.600 
#    0.000    2.000    0.000    0.000    0.000    0.000 
#    0.000    0.000    0.000    0.000    0.000    0.000 
#
# Total GULP energy -247833.455686 kJ/mol
# GULP energy per Si atom -12391.672784 kJ/mol
# Density = 2.003165 g / cm^3
# Si number density = 20.077350 Si / 1000 Ang^3
#
#
#
# Elastic Constant Matrix: (Units=GPa)
#
#
# Indices 1 2 3 4 5 6 
#
# 1 125.6552 43.7128 33.3823 0.0000 6.6049 0.0000
# 2 43.7128 180.8964 48.7652 0.0000 -10.8466 0.0000
# 3 33.3823 48.7652 99.6900 0.0000 -6.0344 0.0000
# 4 0.0000 0.0000 0.0000 1.4888 0.0000 0.8723
# 5 6.6049 -10.8466 -6.0344 0.0000 32.8769 0.0000
# 6 0.0000 0.0000 0.0000 0.8723 0.0000 50.5775
#
#
#
# Elastic Compliance Matrix: (Units=1/GPa)
#
#
# Indices 1 2 3 4 5 6 
#
# 1 0.009382 -0.001783 -0.002446 0.000000 -0.002922 0.000000
# 2 -0.001783 0.006785 -0.002594 0.000000 0.002121 0.000000
# 3 -0.002446 -0.002594 0.012233 0.000000 0.001881 0.000000
# 4 0.000000 0.000000 0.000000 0.678561 0.000000 -0.011703
# 5 -0.002922 0.002121 0.001881 0.000000 0.032048 0.000000
# 6 0.000000 0.000000 0.000000 -0.011703 0.000000 0.019973
#
#
# Mechanical properties :
#
#
# Convention : Reuss Voigt Hill
#
# Bulk Modulus (GPa) = 67.77755 73.10691 70.44223
# Shear Modulus (GPa) = 6.43048 35.68073 21.05561
#
# Velocity S-wave (km/s) = 1.79159 4.22022 3.24191
# Velocity P-wave (km/s) = 6.17343 7.76135 7.01248
#
# Compressibility (1/GPa) = 0.01475415
#
# Stress axis : x y z
#
# Youngs Moduli (GPa) = 106.58687 147.37963 81.74646
#
# Poissons Ratio (x) = 0.26275 0.19999
# Poissons Ratio (y) = 0.19003 0.21203
# Poissons Ratio (z) = 0.26076 0.38226
#
# Static dielectric constant tensor:
#      x y z
#    x 0.013350 0.000000 -3.131940 
#    y 0.000000 4.548830 0.000000 
#    z -3.131940 0.000000 0.454340 
# 
# 
# High freq. dielectric constant tensor:
#      x y z
#    x 1.801110 0.000000 0.005970 
#    y 0.000000 1.810590 0.000000 
#    z 0.005970 0.000000 1.747640 
# 
# From -- ./inp_files/52373.got.cif
#   From: 2010.06.25/outbox.cif.g09.slc.cpg/sg12_27_cif.got.tgz:52373.got - 2010.06.28 00:19:55.
