data_PCOD8102216
_publ_section_title
;
Structure prediction by ZEFSAII (Michael W. Deem and Ramdas Pophale) SiO2 
 PCOD8102216
Probable space group: C 2/M
;
_chemical_formula_sum "Si O2"
_cell_formula_units_Z 48
_cell_length_a 27.545260
_cell_length_b 9.226049
_cell_length_c 10.111257
_cell_angle_alpha 90.000000
_cell_angle_beta 89.585099
_cell_angle_gamma 90.000000
_cell_volume 2569.545990
_symmetry_space_group_name_H-M "C 2/M"
_symmetry_group_IT_number 12
_symmetry_cell_setting 'monoclinic'
loop_
_space_group_symop_operation_xyz
x,y,z
-x,y,-z
-x,-y,-z
x,-y,z
1/2+x,1/2+y,z
1/2-x,1/2+y,-z
1/2-x,1/2-y,-z
1/2+x,1/2-y,z
loop_
_atom_site_type_symbol
_atom_site_label
_atom_site_fract_x
_atom_site_fract_y
_atom_site_fract_z
Si Si1 0.226146 0.837564 0.115398
Si Si2 0.031511 0.670359 0.124709
Si Si3 0.479081 0.333274 0.357039
Si Si4 0.370181 0.669032 0.283122
Si Si5 0.276689 0.172784 0.380027
Si Si6 0.620412 0.664186 0.021014
O O1 0.244201 0.780346 0.255695
O O2 0.168547 0.826138 0.107252
O O3 0.244556 0.000000 0.095489
O O4 0.250000 0.750000 0.000000
O O5 0.035401 0.500000 0.141694
O O6 0.084621 0.733254 0.101454
O O7 0.007675 0.733597 0.255581
O O8 0.000000 0.717059 0.000000
O O9 0.500000 0.295786 0.500000
O O10 0.488844 0.500000 0.319275
O O11 0.421753 0.299747 0.351467
O O12 0.355716 0.500000 0.293939
O O13 0.330966 0.765371 0.361303
O O14 0.371605 0.718459 0.129529
O O15 0.250000 0.250000 0.500000
O O16 0.278948 0.000000 0.401779
O O17 0.600114 0.500000 0.016905
#
# Coordination Sequence:
#
# PCOD8102216 Si02
#       6
#     8   8   8   8   8   8
#     4  10  21  37  59  87 114 146 190 240 288 337
#     4  11  23  37  57  87 120 153 193 241 288 340
#     4  10  22  40  62  87 117 155 196 240 290 346
#     4  10  20  37  62  87 114 152 195 239 291 346
#     4  11  24  40  60  86 120 157 192 236 290 348
#     4  10  20  36  61  88 115 151 196 242 287 341
#
# _framework density 18.680342
#
# number of rings (size 3 to 8) (size 9 to 14) (size 15 to 20)
#    0.000    1.667    3.333    1.000    0.000    5.000 
#    0.000    6.667    0.000    0.000    0.000    0.000 
#    0.000    0.000    0.000    0.000    0.000    0.000 
#
# Total GULP energy -297675.243651 kJ/mol
# GULP energy per Si atom -12403.135152 kJ/mol
# Density = 1.863782 g / cm^3
# Si number density = 18.680342 Si / 1000 Ang^3
#
#
#
# Elastic Constant Matrix: (Units=GPa)
#
#
# Indices 1 2 3 4 5 6 
#
# 1 116.4414 53.9911 73.7807 0.0000 -5.0364 0.0000
# 2 53.9911 76.5970 63.9641 0.0000 -12.2068 0.0000
# 3 73.7807 63.9641 137.0777 0.0000 -0.9680 0.0000
# 4 0.0000 0.0000 0.0000 31.9978 0.0000 -7.1604
# 5 -5.0364 -12.2068 -0.9680 0.0000 35.4393 0.0000
# 6 0.0000 0.0000 0.0000 -7.1604 0.0000 35.9272
#
#
#
# Elastic Compliance Matrix: (Units=1/GPa)
#
#
# Indices 1 2 3 4 5 6 
#
# 1 0.014590 -0.006151 -0.004984 0.000000 -0.000181 0.000000
# 2 -0.006151 0.025931 -0.008734 0.000000 0.007819 0.000000
# 3 -0.004984 -0.008734 0.014030 0.000000 -0.003333 0.000000
# 4 0.000000 0.000000 0.000000 0.032711 0.000000 0.006519
# 5 -0.000181 0.007819 -0.003333 0.000000 0.030794 0.000000
# 6 0.000000 0.000000 0.000000 0.006519 0.000000 0.029133
#
#
# Mechanical properties :
#
#
# Convention : Reuss Voigt Hill
#
# Bulk Modulus (GPa) = 67.51116 79.28756 73.39936
# Shear Modulus (GPa) = 26.06005 29.89821 27.97913
#
# Velocity S-wave (km/s) = 3.73909 4.00499 3.87432
# Velocity P-wave (km/s) = 7.40674 7.99519 7.70658
#
# Compressibility (1/GPa) = 0.01481237
#
# Stress axis : x y z
#
# Youngs Moduli (GPa) = 68.53819 38.56444 71.27727
#
# Poissons Ratio (x) = 0.23722 0.35525
# Poissons Ratio (y) = 0.42159 0.62253
# Poissons Ratio (z) = 0.34160 0.33682
#
# Static dielectric constant tensor:
#      x y z
#    x 5.886290 0.000000 0.994340 
#    y 0.000000 3.477440 0.000000 
#    z 0.994340 0.000000 3.708320 
# 
# 
# High freq. dielectric constant tensor:
#      x y z
#    x 1.735430 0.000000 0.005080 
#    y 0.000000 1.725820 0.000000 
#    z 0.005080 0.000000 1.726510 
# 
# From -- ./inp_files/108662.got.cif
#   From: 2010.06.25/outbox.cif.g09.slc.cpg/sg12_55_cif.got.tgz:108662.got - 2010.06.28 00:19:55.
