data_PCOD8102578
_publ_section_title
;
Structure prediction by ZEFSAII (Michael W. Deem and Ramdas Pophale) SiO2 
 PCOD8102578
Probable space group: C 2/M
;
_chemical_formula_sum "Si O2"
_cell_formula_units_Z 44
_cell_length_a 29.466878
_cell_length_b 18.519053
_cell_length_c 5.046709
_cell_angle_alpha 90.000000
_cell_angle_beta 125.032291
_cell_angle_gamma 90.000000
_cell_volume 2255.039720
_symmetry_space_group_name_H-M "C 2/M"
_symmetry_group_IT_number 12
_symmetry_cell_setting 'monoclinic'
loop_
_space_group_symop_operation_xyz
x,y,z
-x,y,-z
-x,-y,-z
x,-y,z
1/2+x,1/2+y,z
1/2-x,1/2+y,-z
1/2-x,1/2-y,-z
1/2+x,1/2-y,z
loop_
_atom_site_type_symbol
_atom_site_label
_atom_site_fract_x
_atom_site_fract_y
_atom_site_fract_z
Si Si1 0.124082 0.873165 0.751519
Si Si2 0.460810 0.500000 0.615266
Si Si3 0.317232 0.420895 0.534283
Si Si4 0.211706 0.500000 0.127673
Si Si5 0.638169 0.000000 0.381439
Si Si6 0.936367 0.269372 0.275726
Si Si7 0.563741 0.861963 0.226520
O O1 0.074650 0.927108 0.515911
O O2 0.160049 0.863103 0.602780
O O3 0.101692 0.797671 0.780021
O O4 0.165575 0.902687 0.111299
O O5 0.500000 0.500000 0.500000
O O6 0.500000 0.500000 0.000000
O O7 0.343283 0.500000 0.547762
O O8 0.250105 0.428276 0.298077
O O9 0.161037 0.500000 0.160558
O O10 0.189156 0.500000 0.754485
O O11 0.601267 0.930034 0.296384
O O12 0.923512 0.333471 0.437443
O O13 0.000000 0.243986 0.500000
O O14 0.922850 0.298189 0.937116
O O15 0.500000 0.886601 0.000000
#
# Coordination Sequence:
#
# PCOD8102578 Si02
#       7
#     8   4   8   4   4   8   8
#     4  12  20  37  57  79 115 162 204 232 287 337
#     4  12  22  30  46  80 113 142 197 252 273 310
#     4  10  20  37  57  82 109 152 202 245 281 328
#     4  10  22  37  61  94 114 145 189 256 303 332
#     4  12  21  39  70  90 113 141 190 248 295 360
#     4  10  22  38  57  84 124 161 191 229 288 354
#     4  10  22  40  61  91 120 150 186 229 294 365
#
# _framework density 19.511852000000001
#
# number of rings (size 3 to 8) (size 9 to 14) (size 15 to 20)
#    0.545    0.727    1.818    5.182    0.000    2.182 
#    0.000    3.636    0.000   21.818    0.000    0.000 
#    0.000    0.000    0.000    0.000    0.000    0.000 
#
# Total GULP energy -272792.796461 kJ/mol
# GULP energy per Si atom -12399.672566 kJ/mol
# Density = 1.946744 g / cm^3
# Si number density = 19.511852 Si / 1000 Ang^3
#
#
#
# Elastic Constant Matrix: (Units=GPa)
#
#
# Indices 1 2 3 4 5 6 
#
# 1 100.8806 24.5635 18.0858 0.0000 -2.3682 0.0000
# 2 24.5635 65.6060 16.1460 0.0000 21.4527 0.0000
# 3 18.0858 16.1460 97.8427 0.0000 -4.5950 0.0000
# 4 0.0000 0.0000 0.0000 8.5093 0.0000 0.6172
# 5 -2.3682 21.4527 -4.5950 0.0000 33.8812 0.0000
# 6 0.0000 0.0000 0.0000 0.6172 0.0000 36.0180
#
#
#
# Elastic Compliance Matrix: (Units=1/GPa)
#
#
# Indices 1 2 3 4 5 6 
#
# 1 0.011506 -0.005381 -0.001048 0.000000 0.004069 0.000000
# 2 -0.005381 0.023225 -0.003569 0.000000 -0.015566 0.000000
# 3 -0.001048 -0.003569 0.011177 0.000000 0.003702 0.000000
# 4 0.000000 0.000000 0.000000 0.117664 0.000000 -0.002016
# 5 0.004069 -0.015566 0.003702 0.000000 0.040157 0.000000
# 6 0.000000 0.000000 0.000000 -0.002016 0.000000 0.027798
#
#
# Mechanical properties :
#
#
# Convention : Reuss Voigt Hill
#
# Bulk Modulus (GPa) = 38.59013 42.43555 40.51284
# Shear Modulus (GPa) = 19.21883 29.38398 24.30140
#
# Velocity S-wave (km/s) = 3.14185 3.88487 3.53295
# Velocity P-wave (km/s) = 5.74302 6.47447 6.11969
#
# Compressibility (1/GPa) = 0.02591336
#
# Stress axis : x y z
#
# Youngs Moduli (GPa) = 86.90927 43.05632 89.46928
#
# Poissons Ratio (x) = 0.23167 0.09375
# Poissons Ratio (y) = 0.46763 0.31932
# Poissons Ratio (z) = 0.09107 0.15367
#
# Static dielectric constant tensor:
#      x y z
#    x 3.645620 0.000000 -0.143870 
#    y 0.000000 3.288970 0.000000 
#    z -0.143870 0.000000 3.600690 
# 
# 
# High freq. dielectric constant tensor:
#      x y z
#    x 1.772310 0.000000 -0.014890 
#    y 0.000000 1.737450 0.000000 
#    z -0.014890 0.000000 1.766700 
# 
# From -- ./inp_files/28904.got.cif
#   From: 2010.06.25/outbox.cif.g09.slc.cpg/sg12_15_cif.got.tgz:28904.got - 2010.06.28 00:19:55.
