data_PCOD8102726
_publ_section_title
;
Structure prediction by ZEFSAII (Michael W. Deem and Ramdas Pophale) SiO2 
 PCOD8102726
Probable space group: C 2/M
;
_chemical_formula_sum "Si O2"
_cell_formula_units_Z 64
_cell_length_a 25.761247
_cell_length_b 19.888270
_cell_length_c 17.640995
_cell_angle_alpha 90.000000
_cell_angle_beta 158.914162
_cell_angle_gamma 90.000000
_cell_volume 3251.676405
_symmetry_space_group_name_H-M "C 2/M"
_symmetry_group_IT_number 12
_symmetry_cell_setting 'monoclinic'
loop_
_space_group_symop_operation_xyz
x,y,z
-x,y,-z
-x,-y,-z
x,-y,z
1/2+x,1/2+y,z
1/2-x,1/2+y,-z
1/2-x,1/2-y,-z
1/2+x,1/2-y,z
loop_
_atom_site_type_symbol
_atom_site_label
_atom_site_fract_x
_atom_site_fract_y
_atom_site_fract_z
Si Si1 0.248962 0.423110 0.123589
Si Si2 0.363050 0.647668 0.413321
Si Si3 0.821002 0.074873 0.509905
Si Si4 0.140833 0.244414 0.145561
Si Si5 0.571033 0.926279 0.271508
Si Si6 0.166112 0.287740 0.453556
Si Si7 0.169187 0.179341 0.886453
Si Si8 0.960716 0.177223 0.140088
O O1 0.284729 0.500000 0.149287
O O2 0.371541 0.394492 0.347093
O O3 0.241586 0.377703 0.037556
O O4 0.100160 0.418549 0.968154
O O5 0.340008 0.595848 0.449797
O O6 0.223143 0.695561 0.215389
O O7 0.512548 0.687511 0.631742
O O8 0.650292 0.078518 0.297604
O O9 0.908895 0.123554 0.687127
O O10 0.882575 0.000000 0.604286
O O11 0.250949 0.214736 0.355244
O O12 0.101194 0.188119 0.028587
O O13 0.000000 0.269586 0.000000
O O14 0.638503 0.866591 0.411659
O O15 0.606863 0.000000 0.356761
O O16 0.250000 0.250000 0.500000
O O17 0.014977 0.248157 0.250106
O O18 0.154938 0.152735 0.954339
O O19 0.250000 0.250000 0.000000
#
# Coordination Sequence:
#
# PCOD8102726 Si02
#       8
#     8   8   8   8   8   8   8   8
#     4  11  25  40  63  91 127 174 216 264 328 391
#     4  11  23  36  61  96 123 164 208 261 331 383
#     4  10  20  37  58  86 129 166 203 257 323 388
#     4  12  22  34  63  99 130 162 202 255 326 387
#     4  10  21  37  59  88 125 169 205 257 325 390
#     4  12  19  37  61  90 131 163 205 253 316 387
#     4  11  23  42  59  82 123 165 217 267 306 363
#     4  11  23  38  59  92 117 166 213 259 317 371
#
# _framework density 19.682155000000002
#
# number of rings (size 3 to 8) (size 9 to 14) (size 15 to 20)
#    0.000    1.000    5.000    3.000    1.750    3.000 
#    0.000    2.500    0.000    2.250    0.000    1.750 
#    0.000    0.000    0.000    0.000    0.000    0.000 
#
# Total GULP energy -396525.999619 kJ/mol
# GULP energy per Si atom -12391.437488 kJ/mol
# Density = 1.963736 g / cm^3
# Si number density = 19.682155 Si / 1000 Ang^3
#
#
#
# Elastic Constant Matrix: (Units=GPa)
#
#
# Indices 1 2 3 4 5 6 
#
# 1 98.8452 47.4020 50.9459 0.0000 -3.9914 0.0000
# 2 47.4020 143.7704 41.3375 0.0000 -6.2660 0.0000
# 3 50.9459 41.3375 72.0454 0.0000 -10.8810 0.0000
# 4 0.0000 0.0000 0.0000 28.1990 0.0000 -2.4065
# 5 -3.9914 -6.2660 -10.8810 0.0000 41.4008 0.0000
# 6 0.0000 0.0000 0.0000 -2.4065 0.0000 29.9516
#
#
#
# Elastic Compliance Matrix: (Units=1/GPa)
#
#
# Indices 1 2 3 4 5 6 
#
# 1 0.016744 -0.002535 -0.010622 0.000000 -0.001561 0.000000
# 2 -0.002535 0.008713 -0.003171 0.000000 0.000241 0.000000
# 3 -0.010622 -0.003171 0.023933 0.000000 0.004786 0.000000
# 4 0.000000 0.000000 0.000000 0.035707 0.000000 0.002869
# 5 -0.001561 0.000241 0.004786 0.000000 0.025298 0.000000
# 6 0.000000 0.000000 0.000000 0.002869 0.000000 0.033618
#
#
# Mechanical properties :
#
#
# Convention : Reuss Voigt Hill
#
# Bulk Modulus (GPa) = 59.74987 66.00354 62.87670
# Shear Modulus (GPa) = 27.43547 31.57532 29.50539
#
# Velocity S-wave (km/s) = 3.73758 4.00967 3.87601
# Velocity P-wave (km/s) = 7.00352 7.41917 7.21434
#
# Compressibility (1/GPa) = 0.01673644
#
# Stress axis : x y z
#
# Youngs Moduli (GPa) = 59.72376 114.76590 41.78302
#
# Poissons Ratio (x) = 0.29088 0.44380
# Poissons Ratio (y) = 0.15138 0.13248
# Poissons Ratio (z) = 0.63436 0.36390
#
# Static dielectric constant tensor:
#      x y z
#    x 3.853780 0.000000 0.276940 
#    y 0.000000 3.746330 0.000000 
#    z 0.276940 0.000000 3.569500 
# 
# 
# High freq. dielectric constant tensor:
#      x y z
#    x 1.774590 0.000000 0.021070 
#    y 0.000000 1.764490 0.000000 
#    z 0.021070 0.000000 1.751620 
# 
# From -- ./inp_files/294193.got.cif
#   From: 2010.06.25/outbox.cif.g09.slc.cpg/sg12_148_cif.got.tgz:294193.got - 2010.06.28 00:19:55.
