data_PCOD8102268
_publ_section_title
;
Structure prediction by ZEFSAII (Michael W. Deem and Ramdas Pophale) SiO2 
 PCOD8102268
Probable space group: C 2/M
;
_chemical_formula_sum "Si O2"
_cell_formula_units_Z 64
_cell_length_a 15.133414
_cell_length_b 8.712154
_cell_length_c 32.990249
_cell_angle_alpha 90.000000
_cell_angle_beta 135.206741
_cell_angle_gamma 90.000000
_cell_volume 3064.504861
_symmetry_space_group_name_H-M "C 2/M"
_symmetry_group_IT_number 12
_symmetry_cell_setting 'monoclinic'
loop_
_space_group_symop_operation_xyz
x,y,z
-x,y,-z
-x,-y,-z
x,-y,z
1/2+x,1/2+y,z
1/2-x,1/2+y,-z
1/2-x,1/2-y,-z
1/2+x,1/2-y,z
loop_
_atom_site_type_symbol
_atom_site_label
_atom_site_fract_x
_atom_site_fract_y
_atom_site_fract_z
Si Si1 0.921084 0.178469 0.434835
Si Si2 0.122820 0.678616 0.064953
Si Si3 0.879615 0.679311 0.128584
Si Si4 0.080612 0.823475 0.136808
Si Si5 0.053115 0.676099 0.257393
Si Si6 0.159228 0.178093 0.365949
Si Si7 0.513171 0.824047 0.385535
Si Si8 0.246013 0.826640 0.265305
O O1 0.794736 0.277112 0.392925
O O2 0.003132 0.223174 0.422629
O O3 0.000000 0.221345 0.500000
O O4 0.885820 0.000000 0.422130
O O5 0.154901 0.500000 0.071977
O O6 0.235160 0.773245 0.081058
O O7 0.101453 0.720060 0.104570
O O8 0.000000 0.723333 0.000000
O O9 0.894398 0.500000 0.123705
O O10 0.954635 0.772789 0.118973
O O11 0.933245 0.718220 0.190818
O O12 0.202763 0.800605 0.204968
O O13 0.065989 0.000000 0.118797
O O14 0.050606 0.500000 0.270453
O O15 0.054868 0.779277 0.298243
O O16 0.178289 0.704982 0.272072
O O17 0.133397 0.267702 0.399374
O O18 0.152861 0.000000 0.373319
O O19 0.393926 0.800566 0.317239
O O20 0.531725 0.000000 0.404354
O O21 0.209274 0.000000 0.267177
#
# Coordination Sequence:
#
# PCOD8102268 Si02
#       8
#     8   8   8   8   8   8   8   8
#     4  11  25  46  69  93 125 165 211 262 312 366
#     4  11  25  43  62  88 123 164 212 260 308 367
#     4  10  22  40  63  92 124 162 206 254 311 371
#     4  10  21  39  63  92 125 161 205 255 310 369
#     4  10  20  36  61  91 127 163 203 254 309 369
#     4  12  25  40  62  94 129 168 210 253 308 371
#     4  11  23  40  64  95 129 165 208 257 309 368
#     4   9  19  36  60  91 126 161 200 251 311 369
#
# _framework density 20.884287
#
# number of rings (size 3 to 8) (size 9 to 14) (size 15 to 20)
#    0.000    1.500    1.250    3.375    1.750    5.500 
#    0.000    0.000    0.000    0.000    0.000    0.000 
#    0.000    0.000    0.000    0.000    0.000    0.000 
#
# Total GULP energy -396976.266637 kJ/mol
# GULP energy per Si atom -12405.508332 kJ/mol
# Density = 2.083675 g / cm^3
# Si number density = 20.884287 Si / 1000 Ang^3
#
#
#
# Elastic Constant Matrix: (Units=GPa)
#
#
# Indices 1 2 3 4 5 6 
#
# 1 50.3697 4.5218 4.6710 0.0000 -10.8250 0.0000
# 2 4.5218 66.1938 25.1459 0.0000 3.3139 0.0000
# 3 4.6710 25.1459 63.8650 0.0000 -10.2760 0.0000
# 4 0.0000 0.0000 0.0000 28.2862 0.0000 -4.1481
# 5 -10.8250 3.3139 -10.2760 0.0000 27.5530 0.0000
# 6 0.0000 0.0000 0.0000 -4.1481 0.0000 37.6684
#
#
#
# Elastic Compliance Matrix: (Units=1/GPa)
#
#
# Indices 1 2 3 4 5 6 
#
# 1 0.021957 -0.002246 0.000755 0.000000 0.009178 0.000000
# 2 -0.002246 0.018679 -0.008185 0.000000 -0.006182 0.000000
# 3 0.000755 -0.008185 0.020247 0.000000 0.008832 0.000000
# 4 0.000000 0.000000 0.000000 0.035933 0.000000 0.003957
# 5 0.009178 -0.006182 0.008832 0.000000 0.043937 0.000000
# 6 0.000000 0.000000 0.000000 0.003957 0.000000 0.026983
#
#
# Mechanical properties :
#
#
# Convention : Reuss Voigt Hill
#
# Bulk Modulus (GPa) = 24.07829 27.67844 25.87837
# Shear Modulus (GPa) = 24.88390 28.44086 26.66238
#
# Velocity S-wave (km/s) = 3.45557 3.69430 3.57693
# Velocity P-wave (km/s) = 5.24173 5.61063 5.42931
#
# Compressibility (1/GPa) = 0.04153118
#
# Stress axis : x y z
#
# Youngs Moduli (GPa) = 45.54281 53.53470 49.39083
#
# Poissons Ratio (x) = 0.12026 -0.03731
# Poissons Ratio (y) = 0.10231 0.40427
# Poissons Ratio (z) = -0.03440 0.43819
#
# Static dielectric constant tensor:
#      x y z
#    x 3.601800 0.000000 -0.010030 
#    y 0.000000 3.766740 0.000000 
#    z -0.010030 0.000000 3.834270 
# 
# 
# High freq. dielectric constant tensor:
#      x y z
#    x 1.815070 0.000000 -0.005230 
#    y 0.000000 1.824690 0.000000 
#    z -0.005230 0.000000 1.815830 
# 
# From -- ./inp_files/375652.got.cif
#   From: 2010.06.25/outbox.cif.g09.slc.cpg/sg12_188_cif.got.tgz:375652.got - 2010.06.28 00:19:55.
