data_PCOD8102231
_publ_section_title
;
Structure prediction by ZEFSAII (Michael W. Deem and Ramdas Pophale) SiO2 
 PCOD8102231
Probable space group: C 2/M
;
_chemical_formula_sum "Si O2"
_cell_formula_units_Z 48
_cell_length_a 29.134862
_cell_length_b 8.744104
_cell_length_c 10.222763
_cell_angle_alpha 90.000000
_cell_angle_beta 99.062504
_cell_angle_gamma 90.000000
_cell_volume 2571.823712
_symmetry_space_group_name_H-M "C 2/M"
_symmetry_group_IT_number 12
_symmetry_cell_setting 'monoclinic'
loop_
_space_group_symop_operation_xyz
x,y,z
-x,y,-z
-x,-y,-z
x,-y,z
1/2+x,1/2+y,z
1/2-x,1/2+y,-z
1/2-x,1/2-y,-z
1/2+x,1/2-y,z
loop_
_atom_site_type_symbol
_atom_site_label
_atom_site_fract_x
_atom_site_fract_y
_atom_site_fract_z
Si Si1 0.138974 0.174598 0.669087
Si Si2 0.723247 0.819925 0.109211
Si Si3 0.962523 0.322233 0.093956
Si Si4 0.466321 0.680382 0.368121
Si Si5 0.635203 0.675347 0.970686
Si Si6 0.228709 0.679973 0.619322
O O1 0.086203 0.227295 0.616580
O O2 0.150277 0.193944 0.827034
O O3 0.173918 0.280510 0.603108
O O4 0.146388 0.000000 0.628175
O O5 0.743515 0.752601 0.249782
O O6 0.730070 0.000000 0.112342
O O7 0.750000 0.750000 0.000000
O O8 0.668941 0.777006 0.075393
O O9 0.950317 0.500000 0.099310
O O10 0.981865 0.264827 0.242463
O O11 0.916990 0.230683 0.031203
O O12 0.000000 0.288101 0.000000
O O13 0.500000 0.732702 0.500000
O O14 0.469111 0.500000 0.342653
O O15 0.638833 0.500000 0.016930
O O16 0.235256 0.500000 0.622502
O O17 0.250000 0.750000 0.500000
#
# Coordination Sequence:
#
# PCOD8102231 Si02
#       6
#     8   8   8   8   8   8
#     4   9  18  35  59  84 115 149 192 241 289 347
#     4  12  23  38  62  90 119 152 195 241 286 347
#     4  10  21  37  57  84 120 156 190 239 293 343
#     4   9  19  37  61  86 112 148 194 241 286 345
#     4  10  20  36  61  89 116 152 196 241 289 343
#     4  12  25  41  60  84 118 158 196 240 296 348
#
# _framework density 18.663798
#
# number of rings (size 3 to 8) (size 9 to 14) (size 15 to 20)
#    0.000    1.667    1.667    5.000    0.000    4.333 
#    3.000    0.000    0.000    0.000    0.000    0.000 
#    0.000    0.000    0.000    0.000    0.000    0.000 
#
# Total GULP energy -297691.150979 kJ/mol
# GULP energy per Si atom -12403.797957 kJ/mol
# Density = 1.862132 g / cm^3
# Si number density = 18.663798 Si / 1000 Ang^3
#
#
#
# Elastic Constant Matrix: (Units=GPa)
#
#
# Indices 1 2 3 4 5 6 
#
# 1 110.4883 56.3017 75.2828 0.0000 2.8929 0.0000
# 2 56.3017 136.8414 63.6184 0.0000 -6.9779 0.0000
# 3 75.2828 63.6184 128.3218 0.0000 2.9045 0.0000
# 4 0.0000 0.0000 0.0000 30.5226 0.0000 -1.1868
# 5 2.8929 -6.9779 2.9045 0.0000 34.2970 0.0000
# 6 0.0000 0.0000 0.0000 -1.1868 0.0000 34.4126
#
#
#
# Elastic Compliance Matrix: (Units=1/GPa)
#
#
# Indices 1 2 3 4 5 6 
#
# 1 0.015953 -0.002978 -0.007854 0.000000 -0.001286 0.000000
# 2 -0.002978 0.010243 -0.003390 0.000000 0.002622 0.000000
# 3 -0.007854 -0.003390 0.014109 0.000000 -0.001222 0.000000
# 4 0.000000 0.000000 0.000000 0.032807 0.000000 0.001131
# 5 -0.001286 0.002622 -0.001222 0.000000 0.029903 0.000000
# 6 0.000000 0.000000 0.000000 0.001131 0.000000 0.029098
#
#
# Mechanical properties :
#
#
# Convention : Reuss Voigt Hill
#
# Bulk Modulus (GPa) = 84.31154 85.11748 84.71451
# Shear Modulus (GPa) = 30.39320 31.87635 31.13477
#
# Velocity S-wave (km/s) = 4.03979 4.13719 4.08878
# Velocity P-wave (km/s) = 8.18730 8.27807 8.23281
#
# Compressibility (1/GPa) = 0.01186077
#
# Stress axis : x y z
#
# Youngs Moduli (GPa) = 62.68329 97.62812 70.87685
#
# Poissons Ratio (x) = 0.29075 0.55665
# Poissons Ratio (y) = 0.18668 0.24030
# Poissons Ratio (z) = 0.49230 0.33099
#
# Static dielectric constant tensor:
#      x y z
#    x 3.584320 0.000000 0.093050 
#    y 0.000000 3.567550 0.000000 
#    z 0.093050 0.000000 3.192350 
# 
# 
# High freq. dielectric constant tensor:
#      x y z
#    x 1.734460 0.000000 0.006500 
#    y 0.000000 1.733780 0.000000 
#    z 0.006500 0.000000 1.711070 
# 
# From -- ./inp_files/108713.got.cif
#   From: 2010.06.25/outbox.cif.g09.slc.cpg/sg12_55_cif.got.tgz:108713.got - 2010.06.28 00:19:55.
