data_PCOD8102773
_publ_section_title
;
Structure prediction by ZEFSAII (Michael W. Deem and Ramdas Pophale) SiO2 
 PCOD8102773
Probable space group: C 2/M
;
_chemical_formula_sum "Si O2"
_cell_formula_units_Z 48
_cell_length_a 29.266002
_cell_length_b 9.418286
_cell_length_c 9.361258
_cell_angle_alpha 90.000000
_cell_angle_beta 81.303846
_cell_angle_gamma 90.000000
_cell_volume 2550.632768
_symmetry_space_group_name_H-M "C 2/M"
_symmetry_group_IT_number 12
_symmetry_cell_setting 'monoclinic'
loop_
_space_group_symop_operation_xyz
x,y,z
-x,y,-z
-x,-y,-z
x,-y,z
1/2+x,1/2+y,z
1/2-x,1/2+y,-z
1/2-x,1/2-y,-z
1/2+x,1/2-y,z
loop_
_atom_site_type_symbol
_atom_site_label
_atom_site_fract_x
_atom_site_fract_y
_atom_site_fract_z
Si Si1 0.372766 0.332710 0.664655
Si Si2 0.042115 0.166504 0.572523
Si Si3 0.782701 0.657868 0.078649
Si Si4 0.728079 0.659621 0.387054
Si Si5 0.116332 0.331481 0.051708
Si Si6 0.547405 0.661048 0.893419
O O1 0.372949 0.500000 0.703256
O O2 0.408467 0.296700 0.521106
O O3 0.321572 0.281158 0.642219
O O4 0.389141 0.244389 0.793536
O O5 0.040788 0.222407 0.735961
O O6 0.000000 0.235186 0.500000
O O7 0.033760 0.000000 0.581452
O O8 0.778707 0.500000 0.018890
O O9 0.766708 0.666071 0.248060
O O10 0.750000 0.750000 0.000000
O O11 0.834854 0.711023 0.040812
O O12 0.720413 0.500000 0.446396
O O13 0.750000 0.750000 0.500000
O O14 0.109447 0.500000 0.073067
O O15 0.079900 0.270595 0.958340
O O16 0.567999 0.500000 0.880162
O O17 0.500000 0.659065 0.000000
#
# Coordination Sequence:
#
# PCOD8102773 Si02
#       6
#     8   8   8   8   8   8
#     4  10  20  37  59  82 110 149 191 234 279 330
#     4   9  18  34  58  86 112 138 179 232 280 327
#     4  10  21  38  57  81 112 150 192 232 277 328
#     4  10  22  37  55  81 113 149 190 233 278 332
#     4  11  23  37  57  85 116 150 186 232 284 334
#     4  10  21  38  62  88 112 146 188 231 279 333
#
# _framework density 18.818860000000001
#
# number of rings (size 3 to 8) (size 9 to 14) (size 15 to 20)
#    0.000    2.000    1.667    1.500    2.333    5.000 
#    0.000    0.833    0.000    2.000    0.000    0.000 
#    0.000    0.000    0.000    0.000    0.000    0.000 
#
# Total GULP energy -297589.663527 kJ/mol
# GULP energy per Si atom -12399.569314 kJ/mol
# Density = 1.877603 g / cm^3
# Si number density = 18.818860 Si / 1000 Ang^3
#
#
#
# Elastic Constant Matrix: (Units=GPa)
#
#
# Indices 1 2 3 4 5 6 
#
# 1 102.2492 39.3341 62.4485 0.0000 5.5771 0.0000
# 2 39.3341 64.4567 47.8793 0.0000 12.2887 0.0000
# 3 62.4485 47.8793 143.7386 0.0000 11.4411 0.0000
# 4 0.0000 0.0000 0.0000 29.3848 0.0000 9.0237
# 5 5.5771 12.2887 11.4411 0.0000 39.3764 0.0000
# 6 0.0000 0.0000 0.0000 9.0237 0.0000 27.5557
#
#
#
# Elastic Compliance Matrix: (Units=1/GPa)
#
#
# Indices 1 2 3 4 5 6 
#
# 1 0.014738 -0.005814 -0.004550 0.000000 0.001049 0.000000
# 2 -0.005814 0.023735 -0.004971 0.000000 -0.005139 0.000000
# 3 -0.004550 -0.004971 0.010661 0.000000 -0.000902 0.000000
# 4 0.000000 0.000000 0.000000 0.037836 0.000000 -0.012390
# 5 0.001049 -0.005139 -0.000902 0.000000 0.027113 0.000000
# 6 0.000000 0.000000 0.000000 -0.012390 0.000000 0.040348
#
#
# Mechanical properties :
#
#
# Convention : Reuss Voigt Hill
#
# Bulk Modulus (GPa) = 54.15858 67.75205 60.95531
# Shear Modulus (GPa) = 26.14292 29.98220 28.06256
#
# Velocity S-wave (km/s) = 3.73122 3.99582 3.86579
# Velocity P-wave (km/s) = 6.88506 7.57424 7.23786
#
# Compressibility (1/GPa) = 0.01846430
#
# Stress axis : x y z
#
# Youngs Moduli (GPa) = 67.85022 42.13257 93.79556
#
# Poissons Ratio (x) = 0.24496 0.42677
# Poissons Ratio (y) = 0.39449 0.46625
# Poissons Ratio (z) = 0.30872 0.20944
#
# Static dielectric constant tensor:
#      x y z
#    x 3.651980 0.000000 -0.270820 
#    y 0.000000 3.254520 0.000000 
#    z -0.270820 0.000000 3.752520 
# 
# 
# High freq. dielectric constant tensor:
#      x y z
#    x 1.743600 0.000000 -0.005510 
#    y 0.000000 1.708670 0.000000 
#    z -0.005510 0.000000 1.739990 
# 
# From -- ./inp_files/108655.got.cif
#   From: 2010.06.25/outbox.cif.g09.slc.cpg/sg12_55_cif.got.tgz:108655.got - 2010.06.28 00:19:55.
