data_PCOD8102620
_publ_section_title
;
Structure prediction by ZEFSAII (Michael W. Deem and Ramdas Pophale) SiO2 
 PCOD8102620
Probable space group: C 2/M
;
_chemical_formula_sum "Si O2"
_cell_formula_units_Z 64
_cell_length_a 29.431575
_cell_length_b 8.903276
_cell_length_c 14.722030
_cell_angle_alpha 90.000000
_cell_angle_beta 61.113815
_cell_angle_gamma 90.000000
_cell_volume 3377.749061
_symmetry_space_group_name_H-M "C 2/M"
_symmetry_group_IT_number 12
_symmetry_cell_setting 'monoclinic'
loop_
_space_group_symop_operation_xyz
x,y,z
-x,y,-z
-x,-y,-z
x,-y,z
1/2+x,1/2+y,z
1/2-x,1/2+y,-z
1/2-x,1/2-y,-z
1/2+x,1/2-y,z
loop_
_atom_site_type_symbol
_atom_site_label
_atom_site_fract_x
_atom_site_fract_y
_atom_site_fract_z
Si Si1 0.363799 0.827122 0.781175
Si Si2 0.338533 0.675049 0.149382
Si Si3 0.702939 0.821936 0.491069
Si Si4 0.596567 0.178162 0.067878
Si Si5 0.778813 0.321752 0.729603
Si Si6 0.495471 0.324886 0.227736
Si Si7 0.977747 0.673207 0.616388
Si Si8 0.378436 0.326051 0.309257
O O1 0.372118 0.757670 0.874043
O O2 0.316900 0.750376 0.769713
O O3 0.415950 0.806104 0.672681
O O4 0.349681 0.000000 0.807854
O O5 0.347204 0.500000 0.120045
O O6 0.279529 0.726083 0.188808
O O7 0.351793 0.713555 0.239906
O O8 0.375515 0.771382 0.049977
O O9 0.750000 0.750000 0.500000
O O10 0.705146 0.762277 0.385349
O O11 0.648190 0.772507 0.586662
O O12 0.708907 0.000000 0.489589
O O13 0.537931 0.239771 0.125692
O O14 0.592962 0.000000 0.076283
O O15 0.784069 0.500000 0.723256
O O16 0.507647 0.500000 0.210186
O O17 0.496734 0.273335 0.330596
O O18 0.438986 0.285639 0.242820
O O19 0.992683 0.500000 0.620184
O O20 0.000000 0.731408 0.500000
O O21 0.370371 0.500000 0.342023
#
# Coordination Sequence:
#
# PCOD8102620 Si02
#       8
#     8   8   8   8   8   8   8   8
#     4   8  16  32  52  77 109 142 178 223 270 320
#     4  10  20  37  58  78 107 145 187 227 277 338
#     4  11  21  35  58  83 114 151 187 228 273 327
#     4  10  21  38  58  81 111 140 181 237 284 329
#     4   9  18  33  55  81 108 146 186 218 264 333
#     4  10  21  37  57  79 111 148 185 229 279 333
#     4   9  18  32  53  80 112 146 184 229 274 326
#     4  10  22  39  56  82 115 148 187 229 276 330
#
# _framework density 18.94753
#
# number of rings (size 3 to 8) (size 9 to 14) (size 15 to 20)
#    0.000    2.375    1.250    1.875    1.750    2.750 
#    0.000    2.500    0.000    5.250    0.000    0.000 
#    0.000    0.000    0.000    0.000    0.000    0.000 
#
# Total GULP energy -396799.240728 kJ/mol
# GULP energy per Si atom -12399.976273 kJ/mol
# Density = 1.890440 g / cm^3
# Si number density = 18.947530 Si / 1000 Ang^3
#
#
#
# Elastic Constant Matrix: (Units=GPa)
#
#
# Indices 1 2 3 4 5 6 
#
# 1 98.0365 25.7135 9.1936 0.0000 -12.3568 0.0000
# 2 25.7135 51.7048 28.2158 0.0000 -7.0455 0.0000
# 3 9.1936 28.2158 86.2472 0.0000 -18.7612 0.0000
# 4 0.0000 0.0000 0.0000 31.2213 0.0000 -1.4796
# 5 -12.3568 -7.0455 -18.7612 0.0000 17.7881 0.0000
# 6 0.0000 0.0000 0.0000 -1.4796 0.0000 23.4098
#
#
#
# Elastic Compliance Matrix: (Units=1/GPa)
#
#
# Indices 1 2 3 4 5 6 
#
# 1 0.012854 -0.006673 0.002830 0.000000 0.009270 0.000000
# 2 -0.006673 0.027042 -0.008843 0.000000 -0.003251 0.000000
# 3 0.002830 -0.008843 0.017976 0.000000 0.017422 0.000000
# 4 0.000000 0.000000 0.000000 0.032126 0.000000 0.002030
# 5 0.009270 -0.003251 0.017422 0.000000 0.079745 0.000000
# 6 0.000000 0.000000 0.000000 0.002030 0.000000 0.042846
#
#
# Mechanical properties :
#
#
# Convention : Reuss Voigt Hill
#
# Bulk Modulus (GPa) = 30.77075 40.24826 35.50950
# Shear Modulus (GPa) = 20.09709 26.00821 23.05265
#
# Velocity S-wave (km/s) = 3.26033 3.70894 3.49185
# Velocity P-wave (km/s) = 5.51799 6.29521 5.91937
#
# Compressibility (1/GPa) = 0.03249840
#
# Stress axis : x y z
#
# Youngs Moduli (GPa) = 77.79883 36.97991 55.63073
#
# Poissons Ratio (x) = 0.24678 -0.15741
# Poissons Ratio (y) = 0.51917 0.49192
# Poissons Ratio (z) = -0.22013 0.32700
#
# Static dielectric constant tensor:
#      x y z
#    x 3.748620 0.000000 0.055100 
#    y 0.000000 3.238670 0.000000 
#    z 0.055100 0.000000 3.520450 
# 
# 
# High freq. dielectric constant tensor:
#      x y z
#    x 1.744490 0.000000 -0.002840 
#    y 0.000000 1.709830 0.000000 
#    z -0.002840 0.000000 1.740420 
# 
# From -- ./inp_files/249107.got.cif
#   From: 2010.06.25/outbox.cif.g09.slc.cpg/sg12_125_cif.got.tgz:249107.got - 2010.06.28 00:19:55.
