data_PCOD8102832
_publ_section_title
;
Structure prediction by ZEFSAII (Michael W. Deem and Ramdas Pophale) SiO2 
 PCOD8102832
Probable space group: C 2/M
;
_chemical_formula_sum "Si O2"
_cell_formula_units_Z 56
_cell_length_a 18.463666
_cell_length_b 8.930443
_cell_length_c 18.158787
_cell_angle_alpha 90.000000
_cell_angle_beta 68.515781
_cell_angle_gamma 90.000000
_cell_volume 2786.138968
_symmetry_space_group_name_H-M "C 2/M"
_symmetry_group_IT_number 12
_symmetry_cell_setting 'monoclinic'
loop_
_space_group_symop_operation_xyz
x,y,z
-x,y,-z
-x,-y,-z
x,-y,z
1/2+x,1/2+y,z
1/2-x,1/2+y,-z
1/2-x,1/2-y,-z
1/2+x,1/2-y,z
loop_
_atom_site_type_symbol
_atom_site_label
_atom_site_fract_x
_atom_site_fract_y
_atom_site_fract_z
Si Si1 0.943332 0.830502 0.460604
Si Si2 0.271841 0.333583 0.564396
Si Si3 0.075512 0.822776 0.014336
Si Si4 0.476818 0.173173 0.298208
Si Si5 0.112040 0.822311 0.164239
Si Si6 0.277710 0.323002 0.133464
Si Si7 0.675068 0.825959 0.735573
O O1 0.863840 0.831245 0.535709
O O2 0.000000 0.758926 0.500000
O O3 0.941226 0.731940 0.387989
O O4 0.967417 0.000000 0.429663
O O5 0.236950 0.500000 0.570772
O O6 0.250000 0.250000 0.500000
O O7 0.233704 0.262717 0.651301
O O8 0.077252 0.769862 0.098502
O O9 0.070508 0.000000 0.011076
O O10 0.155920 0.767946 0.947866
O O11 0.000000 0.753646 0.000000
O O12 0.555412 0.261012 0.248787
O O13 0.413316 0.197789 0.258039
O O14 0.497878 0.000000 0.299775
O O15 0.198050 0.758572 0.142952
O O16 0.116759 0.000000 0.168523
O O17 0.264198 0.500000 0.134971
O O18 0.309149 0.278487 0.201393
O O19 0.691755 0.000000 0.748479
#
# Coordination Sequence:
#
# PCOD8102832 Si02
#       7
#     8   8   8   8   8   8   8
#     4  10  22  38  59  86 116 157 204 248 299 360
#     4  10  20  37  59  84 116 154 199 248 299 354
#     4   9  19  38  64  92 121 155 198 244 291 349
#     4  11  23  40  60  87 121 157 202 254 301 353
#     4  11  23  40  63  88 122 163 198 242 302 357
#     4  11  23  39  62  93 124 156 200 247 292 352
#     4  10  22  39  59  86 122 160 198 246 302 356
#
# _framework density 20.099499999999999
#
# number of rings (size 3 to 8) (size 9 to 14) (size 15 to 20)
#    0.000    1.714    1.429    2.571    2.000    3.143 
#    0.000    2.143    0.000    5.143    0.000    0.000 
#    0.000    0.000    0.000    0.000    0.000    0.000 
#
# Total GULP energy -347224.085466 kJ/mol
# GULP energy per Si atom -12400.860195 kJ/mol
# Density = 2.005375 g / cm^3
# Si number density = 20.099500 Si / 1000 Ang^3
#
#
#
# Elastic Constant Matrix: (Units=GPa)
#
#
# Indices 1 2 3 4 5 6 
#
# 1 106.2922 33.5564 21.3329 0.0000 -6.0079 0.0000
# 2 33.5564 73.6937 30.0650 0.0001 -1.2531 0.0001
# 3 21.3329 30.0650 90.6884 0.0000 -12.8524 0.0000
# 4 0.0000 0.0001 0.0000 24.1870 0.0000 3.6330
# 5 -6.0079 -1.2531 -12.8524 0.0000 39.6822 0.0000
# 6 0.0000 0.0001 0.0000 3.6330 0.0000 29.3044
#
#
#
# Elastic Compliance Matrix: (Units=1/GPa)
#
#
# Indices 1 2 3 4 5 6 
#
# 1 0.011137 -0.004687 -0.000889 0.000000 0.001250 0.000000
# 2 -0.004687 0.017724 -0.005025 0.000000 -0.001778 0.000000
# 3 -0.000889 -0.005025 0.013479 0.000000 0.004072 0.000000
# 4 0.000000 0.000000 0.000000 0.042129 0.000000 -0.005223
# 5 0.001250 -0.001778 0.004072 0.000000 0.026652 0.000000
# 6 0.000000 0.000000 0.000000 -0.005223 0.000000 0.034772
#
#
# Mechanical properties :
#
#
# Convention : Reuss Voigt Hill
#
# Bulk Modulus (GPa) = 47.30937 48.95365 48.13151
# Shear Modulus (GPa) = 28.71233 31.01605 29.86419
#
# Velocity S-wave (km/s) = 3.78366 3.93253 3.85881
# Velocity P-wave (km/s) = 6.53275 6.71031 6.62212
#
# Compressibility (1/GPa) = 0.02113746
#
# Stress axis : x y z
#
# Youngs Moduli (GPa) = 89.79209 56.42079 74.19027
#
# Poissons Ratio (x) = 0.26446 0.06593
# Poissons Ratio (y) = 0.42089 0.37282
# Poissons Ratio (z) = 0.07979 0.28352
#
# Static dielectric constant tensor:
#      x y z
#    x 4.366950 0.000000 -0.491240 
#    y 0.000000 3.489620 0.000000 
#    z -0.491240 0.000000 3.987310 
# 
# 
# High freq. dielectric constant tensor:
#      x y z
#    x 1.797680 0.000000 -0.006250 
#    y 0.000000 1.768460 0.000000 
#    z -0.006250 0.000000 1.795190 
# 
# From -- ./inp_files/275104.got.cif
#   From: 2010.06.25/outbox.cif.g09.slc.cpg/sg12_138_cif.got.tgz:275104.got - 2010.06.28 00:19:55.
