data_PCOD8102324
_publ_section_title
;
Structure prediction by ZEFSAII (Michael W. Deem and Ramdas Pophale) SiO2 
 PCOD8102324
Probable space group: C 2/M
;
_chemical_formula_sum "Si O2"
_cell_formula_units_Z 60
_cell_length_a 9.130617
_cell_length_b 13.914495
_cell_length_c 25.039803
_cell_angle_alpha 90.000000
_cell_angle_beta 113.232868
_cell_angle_gamma 90.000000
_cell_volume 2923.284494
_symmetry_space_group_name_H-M "C 2/M"
_symmetry_group_IT_number 12
_symmetry_cell_setting 'monoclinic'
loop_
_space_group_symop_operation_xyz
x,y,z
-x,y,-z
-x,-y,-z
x,-y,z
1/2+x,1/2+y,z
1/2-x,1/2+y,-z
1/2-x,1/2-y,-z
1/2+x,1/2-y,z
loop_
_atom_site_type_symbol
_atom_site_label
_atom_site_fract_x
_atom_site_fract_y
_atom_site_fract_z
Si Si1 0.500000 0.242300 0.000000
Si Si2 0.033121 0.769718 0.733750
Si Si3 0.839345 0.708644 0.079850
Si Si4 0.805366 0.758289 0.348714
Si Si5 0.353832 0.889532 0.439605
Si Si6 0.472172 0.386367 0.162790
Si Si7 0.022462 0.113476 0.443711
Si Si8 0.332742 0.892476 0.183187
O O1 0.658735 0.304675 0.032748
O O2 0.461585 0.184113 0.049019
O O3 0.176787 0.770783 0.712367
O O4 0.044319 0.859484 0.776579
O O5 0.041555 0.671480 0.767511
O O6 0.881445 0.764617 0.672812
O O7 0.864502 0.815720 0.110021
O O8 0.866175 0.624237 0.125690
O O9 0.890776 0.668170 0.390282
O O10 0.870790 0.853644 0.386801
O O11 0.500000 0.872588 0.500000
O O12 0.191386 0.851287 0.444055
O O13 0.336745 0.000000 0.420688
O O14 0.427873 0.500000 0.148548
O O15 0.652238 0.364951 0.171296
O O16 0.000000 0.156340 0.500000
O O17 0.017854 0.000000 0.444715
O O18 0.372413 0.000000 0.204944
#
# Coordination Sequence:
#
# PCOD8102324 Si02
#       8
#     4   8   8   8   8   8   8   8
#     4  10  20  36  62  88 134 154 192 244 302 324
#     4  11  24  39  60  90 117 150 197 250 295 342
#     4  10  20  39  60  93 120 165 191 246 287 350
#     4  12  23  39  61  87 117 152 194 244 296 351
#     4  10  23  41  61  85 116 156 194 233 292 363
#     4  10  21  40  64  85 117 163 201 235 292 358
#     4  10  23  41  60  85 119 154 190 238 296 355
#     4  10  21  40  63  86 118 160 202 239 289 354
#
# _framework density 20.524858999999999
#
# number of rings (size 3 to 8) (size 9 to 14) (size 15 to 20)
#    0.000    1.600    4.000    0.400    1.867    3.200 
#    0.000    6.000    0.000    0.000    0.000    0.000 
#    0.000    0.000    0.000    0.000    0.000    0.000 
#
# Total GULP energy -371812.729640 kJ/mol
# GULP energy per Si atom -12393.757655 kJ/mol
# Density = 2.047814 g / cm^3
# Si number density = 20.524859 Si / 1000 Ang^3
#
#
#
# Elastic Constant Matrix: (Units=GPa)
#
#
# Indices 1 2 3 4 5 6 
#
# 1 66.7262 20.8553 26.9378 0.0000 -12.5274 0.0000
# 2 20.8553 68.2674 26.3252 0.0000 -1.6953 0.0000
# 3 26.9378 26.3252 105.3775 0.0000 -16.2088 0.0000
# 4 0.0000 0.0000 0.0000 13.7141 0.0000 -3.1217
# 5 -12.5274 -1.6953 -16.2088 0.0000 48.8774 0.0000
# 6 0.0000 0.0000 0.0000 -3.1217 0.0000 20.4462
#
#
#
# Elastic Compliance Matrix: (Units=1/GPa)
#
#
# Indices 1 2 3 4 5 6 
#
# 1 0.018220 -0.004306 -0.003042 0.000000 0.003512 0.000000
# 2 -0.004306 0.017259 -0.003465 0.000000 -0.001654 0.000000
# 3 -0.003042 -0.003465 0.011585 0.000000 0.002942 0.000000
# 4 0.000000 0.000000 0.000000 0.075543 0.000000 0.011534
# 5 0.003512 -0.001654 0.002942 0.000000 0.022278 0.000000
# 6 0.000000 0.000000 0.000000 0.011534 0.000000 0.050670
#
#
# Mechanical properties :
#
#
# Convention : Reuss Voigt Hill
#
# Bulk Modulus (GPa) = 39.31070 43.17863 41.24466
# Shear Modulus (GPa) = 22.15728 27.69107 24.92418
#
# Velocity S-wave (km/s) = 3.28919 3.67706 3.48852
# Velocity P-wave (km/s) = 5.79822 6.25385 6.03034
#
# Compressibility (1/GPa) = 0.02543837
#
# Stress axis : x y z
#
# Youngs Moduli (GPa) = 54.88575 57.94105 86.31489
#
# Poissons Ratio (x) = 0.24949 0.26254
# Poissons Ratio (y) = 0.23633 0.29911
# Poissons Ratio (z) = 0.16694 0.20078
#
# Static dielectric constant tensor:
#      x y z
#    x 3.839900 0.000000 -0.163180 
#    y 0.000000 3.456750 0.000000 
#    z -0.163180 0.000000 3.910900 
# 
# 
# High freq. dielectric constant tensor:
#      x y z
#    x 1.807850 0.000000 -0.005600 
#    y 0.000000 1.778060 0.000000 
#    z -0.005600 0.000000 1.818030 
# 
# From -- ./inp_files/332995.got.cif
#   From: 2010.06.25/outbox.cif.g09.slc.cpg/sg12_167_cif.got.tgz:332995.got - 2010.06.28 00:19:55.
