data_PCOD8102491
_publ_section_title
;
Structure prediction by ZEFSAII (Michael W. Deem and Ramdas Pophale) SiO2 
 PCOD8102491
Probable space group: C 2/M
;
_chemical_formula_sum "Si O2"
_cell_formula_units_Z 48
_cell_length_a 9.927224
_cell_length_b 20.413198
_cell_length_c 13.065227
_cell_angle_alpha 90.000000
_cell_angle_beta 70.436529
_cell_angle_gamma 90.000000
_cell_volume 2494.776899
_symmetry_space_group_name_H-M "C 2/M"
_symmetry_group_IT_number 12
_symmetry_cell_setting 'monoclinic'
loop_
_space_group_symop_operation_xyz
x,y,z
-x,y,-z
-x,-y,-z
x,-y,z
1/2+x,1/2+y,z
1/2-x,1/2+y,-z
1/2-x,1/2-y,-z
1/2+x,1/2-y,z
loop_
_atom_site_type_symbol
_atom_site_label
_atom_site_fract_x
_atom_site_fract_y
_atom_site_fract_z
Si Si1 0.938738 0.500000 0.403119
Si Si2 0.373058 0.500000 0.451401
Si Si3 0.589426 0.248433 0.578701
Si Si4 0.121352 0.423491 0.052080
Si Si5 0.872678 0.125888 0.308131
Si Si6 0.933226 0.369981 0.716812
Si Si7 0.429011 0.427176 0.908654
O O1 0.768447 0.500000 0.444332
O O2 0.000000 0.500000 0.500000
O O3 0.992470 0.437025 0.331072
O O4 0.500000 0.500000 0.500000
O O5 0.374607 0.563023 0.379365
O O6 0.500000 0.244905 0.500000
O O7 0.750000 0.250000 0.500000
O O8 0.559982 0.314328 0.647481
O O9 0.545525 0.187818 0.663173
O O10 0.130590 0.500000 0.084691
O O11 0.097330 0.375365 0.154381
O O12 0.267495 0.401475 0.959823
O O13 0.000000 0.411966 0.000000
O O14 0.712762 0.140534 0.309369
O O15 0.979219 0.119414 0.186303
O O16 0.429676 0.500000 0.860411
O O17 0.500000 0.428275 0.000000
#
# Coordination Sequence:
#
# PCOD8102491 Si02
#       7
#     4   4   8   8   8   8   8
#     4  12  22  38  70  96 123 166 227 277 320 391
#     4  12  26  40  62 103 133 158 220 295 325 375
#     4  12  26  45  65  94 135 180 221 268 328 393
#     4  10  22  40  65 102 137 164 209 276 339 387
#     4  12  23  43  69  96 131 177 223 268 334 395
#     4  12  23  43  70  97 126 180 224 264 336 400
#     4  10  20  36  68  99 128 165 213 268 331 395
#
# _framework density 19.240196000000001
#
# number of rings (size 3 to 8) (size 9 to 14) (size 15 to 20)
#    0.000    0.667    6.667    2.000    0.000    2.667 
#    0.000    1.667    0.000    0.000    0.000    0.000 
#    0.000    0.000    0.000    0.000    0.000    0.000 
#
# Total GULP energy -297632.171096 kJ/mol
# GULP energy per Si atom -12401.340462 kJ/mol
# Density = 1.919640 g / cm^3
# Si number density = 19.240196 Si / 1000 Ang^3
#
#
#
# Elastic Constant Matrix: (Units=GPa)
#
#
# Indices 1 2 3 4 5 6 
#
# 1 106.9452 9.5725 29.0927 0.0000 -20.8330 0.0000
# 2 9.5725 115.2719 45.8699 0.0000 -12.6923 0.0000
# 3 29.0927 45.8699 104.4221 0.0000 -22.4690 0.0000
# 4 0.0000 0.0000 0.0000 73.6310 0.0000 19.4028
# 5 -20.8330 -12.6923 -22.4690 0.0000 39.4189 0.0000
# 6 0.0000 0.0000 0.0000 19.4028 0.0000 42.9004
#
#
#
# Elastic Compliance Matrix: (Units=1/GPa)
#
#
# Indices 1 2 3 4 5 6 
#
# 1 0.010811 0.000501 -0.002243 0.000000 0.004597 0.000000
# 2 0.000501 0.010561 -0.004548 0.000000 0.001073 0.000000
# 3 -0.002243 -0.004548 0.013255 0.000000 0.004905 0.000000
# 4 0.000000 0.000000 0.000000 0.015419 0.000000 -0.006974
# 5 0.004597 0.001073 0.004905 0.000000 0.030939 0.000000
# 6 0.000000 0.000000 0.000000 -0.006974 0.000000 0.026464
#
#
# Mechanical properties :
#
#
# Convention : Reuss Voigt Hill
#
# Bulk Modulus (GPa) = 45.35734 55.07884 50.21809
# Shear Modulus (GPa) = 39.25282 47.33034 43.29158
#
# Velocity S-wave (km/s) = 4.52170 4.96519 4.74862
# Velocity P-wave (km/s) = 7.13347 7.84601 7.49821
#
# Compressibility (1/GPa) = 0.02204715
#
# Stress axis : x y z
#
# Youngs Moduli (GPa) = 92.49536 94.68360 75.44413
#
# Poissons Ratio (x) = -0.04743 0.16923
# Poissons Ratio (y) = -0.04633 0.34313
# Poissons Ratio (z) = 0.20748 0.43063
#
# Static dielectric constant tensor:
#      x y z
#    x 3.635420 0.000000 -0.235320 
#    y 0.000000 3.604700 0.000000 
#    z -0.235320 0.000000 4.323320 
# 
# 
# High freq. dielectric constant tensor:
#      x y z
#    x 1.760720 0.000000 -0.008910 
#    y 0.000000 1.735480 0.000000 
#    z -0.008910 0.000000 1.764170 
# 
# From -- ./inp_files/196968.got.cif
#   From: 2010.06.25/outbox.cif.g09.slc.cpg/sg12_99_cif.got.tgz:196968.got - 2010.06.28 00:19:55.
