data_PCOD8102650
_publ_section_title
;
Structure prediction by ZEFSAII (Michael W. Deem and Ramdas Pophale) SiO2 
 PCOD8102650
Probable space group: C 2/M
;
_chemical_formula_sum "Si O2"
_cell_formula_units_Z 56
_cell_length_a 8.996311
_cell_length_b 10.319414
_cell_length_c 36.843231
_cell_angle_alpha 90.000000
_cell_angle_beta 127.103915
_cell_angle_gamma 90.000000
_cell_volume 2727.917019
_symmetry_space_group_name_H-M "C 2/M"
_symmetry_group_IT_number 12
_symmetry_cell_setting 'monoclinic'
loop_
_space_group_symop_operation_xyz
x,y,z
-x,y,-z
-x,-y,-z
x,-y,z
1/2+x,1/2+y,z
1/2-x,1/2+y,-z
1/2-x,1/2-y,-z
1/2+x,1/2-y,z
loop_
_atom_site_type_symbol
_atom_site_label
_atom_site_fract_x
_atom_site_fract_y
_atom_site_fract_z
Si Si1 0.791421 0.647605 0.254073
Si Si2 0.076183 0.854768 0.596628
Si Si3 0.832618 0.856730 0.841862
Si Si4 0.737790 0.273191 0.901117
Si Si5 0.348325 0.143643 0.039093
Si Si6 0.209114 0.644420 0.300725
Si Si7 0.340206 0.146792 0.448731
O O1 0.714972 0.500000 0.248437
O O2 0.732296 0.703452 0.205914
O O3 0.703020 0.745264 0.269655
O O4 0.012290 0.649213 0.292157
O O5 0.130724 0.826676 0.646323
O O6 0.171068 0.746592 0.585957
O O7 0.854780 0.845736 0.559115
O O8 0.144229 0.000000 0.595533
O O9 0.735433 0.782449 0.860343
O O10 0.057031 0.863718 0.878589
O O11 0.750733 0.000000 0.831703
O O12 0.714464 0.162617 0.928427
O O13 0.929490 0.350947 0.934591
O O14 0.282469 0.000000 0.017623
O O15 0.250000 0.250000 0.000000
O O16 0.239419 0.500000 0.288188
O O17 0.500000 0.190588 0.500000
O O18 0.376918 0.000000 0.439825
#
# Coordination Sequence:
#
# PCOD8102650 Si02
#       7
#     8   8   8   8   8   8   8
#     4  10  21  36  57  84 111 143 183 224 270 325
#     4  10  21  36  55  79 108 144 184 226 274 328
#     4  10  20  37  58  81 111 144 180 224 270 319
#     4  10  22  38  59  83 112 146 183 224 271 322
#     4  11  24  40  60  86 114 147 186 226 272 324
#     4  10  21  37  55  80 113 145 182 227 273 325
#     4  10  21  36  54  79 109 141 182 230 278 330
#
# _framework density 20.528483999999999
#
# number of rings (size 3 to 8) (size 9 to 14) (size 15 to 20)
#    0.000    1.857    0.000    3.429    0.000    6.571 
#    0.000    3.571    0.000    0.000    0.000    0.000 
#    0.000    0.000    0.000    0.000    0.000    0.000 
#
# Total GULP energy -347169.600531 kJ/mol
# GULP energy per Si atom -12398.914305 kJ/mol
# Density = 2.048176 g / cm^3
# Si number density = 20.528484 Si / 1000 Ang^3
#
#
#
# Elastic Constant Matrix: (Units=GPa)
#
#
# Indices 1 2 3 4 5 6 
#
# 1 65.0222 26.2583 11.9223 0.0000 -5.8178 0.0000
# 2 26.2583 126.4529 42.4703 0.0000 -23.0394 0.0000
# 3 11.9223 42.4703 80.0070 0.0000 -1.9585 0.0000
# 4 0.0000 0.0000 0.0000 33.3094 0.0000 -1.8012
# 5 -5.8178 -23.0394 -1.9585 0.0000 33.7495 0.0000
# 6 0.0000 0.0000 0.0000 -1.8012 0.0000 20.6094
#
#
#
# Elastic Compliance Matrix: (Units=1/GPa)
#
#
# Indices 1 2 3 4 5 6 
#
# 1 0.016845 -0.003070 -0.000862 0.000000 0.000758 0.000000
# 2 -0.003070 0.011727 -0.005592 0.000000 0.007152 0.000000
# 3 -0.000862 -0.005592 0.015521 0.000000 -0.003066 0.000000
# 4 0.000000 0.000000 0.000000 0.030164 0.000000 0.002636
# 5 0.000758 0.007152 -0.003066 0.000000 0.034465 0.000000
# 6 0.000000 0.000000 0.000000 0.002636 0.000000 0.048752
#
#
# Mechanical properties :
#
#
# Convention : Reuss Voigt Hill
#
# Bulk Modulus (GPa) = 39.93017 48.08711 44.00864
# Shear Modulus (GPa) = 27.04586 30.25574 28.65080
#
# Velocity S-wave (km/s) = 3.63365 3.84323 3.73991
# Velocity P-wave (km/s) = 6.09080 6.57034 6.33511
#
# Compressibility (1/GPa) = 0.02504372
#
# Stress axis : x y z
#
# Youngs Moduli (GPa) = 59.36433 85.27358 64.42915
#
# Poissons Ratio (x) = 0.26183 0.05552
# Poissons Ratio (y) = 0.18228 0.36032
# Poissons Ratio (z) = 0.05116 0.47689
#
# Static dielectric constant tensor:
#      x y z
#    x 3.600670 0.000000 0.147450 
#    y 0.000000 3.700780 0.000000 
#    z 0.147450 0.000000 3.745360 
# 
# 
# High freq. dielectric constant tensor:
#      x y z
#    x 1.796900 0.000000 0.012980 
#    y 0.000000 1.801380 0.000000 
#    z 0.012980 0.000000 1.808700 
# 
# From -- ./inp_files/355851.got.cif
#   From: 2010.06.25/outbox.cif.g09.slc.cpg/sg12_178_cif.got.tgz:355851.got - 2010.06.28 00:19:55.
