data_PCOD8102003
_publ_section_title
;
Structure prediction by ZEFSAII (Michael W. Deem and Ramdas Pophale) SiO2 
 PCOD8102003
Probable space group: C 2/M
;
_chemical_formula_sum "Si O2"
_cell_formula_units_Z 56
_cell_length_a 17.935321
_cell_length_b 8.551894
_cell_length_c 25.083757
_cell_angle_alpha 90.000000
_cell_angle_beta 135.388514
_cell_angle_gamma 90.000000
_cell_volume 2701.992290
_symmetry_space_group_name_H-M "C 2/M"
_symmetry_group_IT_number 12
_symmetry_cell_setting 'monoclinic'
loop_
_space_group_symop_operation_xyz
x,y,z
-x,y,-z
-x,-y,-z
x,-y,z
1/2+x,1/2+y,z
1/2-x,1/2+y,-z
1/2-x,1/2-y,-z
1/2+x,1/2-y,z
loop_
_atom_site_type_symbol
_atom_site_label
_atom_site_fract_x
_atom_site_fract_y
_atom_site_fract_z
Si Si1 0.305915 0.820576 0.141963
Si Si2 0.958017 0.180077 0.133717
Si Si3 0.728928 0.180950 0.410984
Si Si4 0.640174 0.178896 0.711467
Si Si5 0.920574 0.180275 0.581792
Si Si6 0.588176 0.818550 0.002437
Si Si7 0.317953 0.820018 0.732613
O O1 0.390005 0.785633 0.138779
O O2 0.363092 0.788077 0.227154
O O3 0.269294 0.000000 0.118420
O O4 0.203595 0.710398 0.085937
O O5 0.924344 0.215899 0.056496
O O6 0.081782 0.212444 0.204468
O O7 0.933874 0.000000 0.133704
O O8 0.844179 0.223381 0.493430
O O9 0.638390 0.283444 0.392789
O O10 0.730480 0.221258 0.349598
O O11 0.702079 0.000000 0.408438
O O12 0.525667 0.217358 0.628791
O O13 0.728641 0.288720 0.730800
O O14 0.668492 0.000000 0.713045
O O15 0.953973 0.000000 0.598260
O O16 0.574337 0.000000 0.980735
O O17 0.500000 0.765080 0.000000
O O18 0.353612 0.000000 0.754202
#
# Coordination Sequence:
#
# PCOD8102003 Si02
#       7
#     8   8   8   8   8   8   8
#     4  11  24  42  63  87 119 157 197 242 291 344
#     4  12  25  41  63  90 121 155 195 241 290 347
#     4   9  20  38  59  85 117 154 195 242 296 349
#     4  11  24  40  59  86 120 156 195 242 296 349
#     4  10  20  36  60  87 116 153 197 243 292 349
#     4  11  24  42  65  92 122 156 195 239 289 345
#     4  11  23  40  61  85 118 156 196 243 294 349
#
# _framework density 20.725449000000001
#
# number of rings (size 3 to 8) (size 9 to 14) (size 15 to 20)
#    0.000    1.286    0.000    5.571    0.000   11.429 
#    0.000    2.857    0.000    0.000    0.000    0.000 
#    0.000    0.000    0.000    0.000    0.000    0.000 
#
# Total GULP energy -347432.315735 kJ/mol
# GULP energy per Si atom -12408.296991 kJ/mol
# Density = 2.067828 g / cm^3
# Si number density = 20.725449 Si / 1000 Ang^3
#
#
#
# Elastic Constant Matrix: (Units=GPa)
#
#
# Indices 1 2 3 4 5 6 
#
# 1 78.1697 14.4533 22.2172 0.0000 10.0522 0.0000
# 2 14.4533 57.6918 24.9538 0.0000 -6.9842 0.0000
# 3 22.2172 24.9538 91.9884 0.0000 14.3341 0.0000
# 4 0.0000 0.0000 0.0000 34.2101 0.0000 2.2995
# 5 10.0522 -6.9842 14.3341 0.0000 33.8704 0.0000
# 6 0.0000 0.0000 0.0000 2.2995 0.0000 34.0629
#
#
#
# Elastic Compliance Matrix: (Units=1/GPa)
#
#
# Indices 1 2 3 4 5 6 
#
# 1 0.014491 -0.003283 -0.001963 0.000000 -0.004147 0.000000
# 2 -0.003283 0.021937 -0.006439 0.000000 0.008223 0.000000
# 3 -0.001963 -0.006439 0.014140 0.000000 -0.006729 0.000000
# 4 0.000000 0.000000 0.000000 0.029364 0.000000 -0.001982
# 5 -0.004147 0.008223 -0.006729 0.000000 0.035299 0.000000
# 6 0.000000 0.000000 0.000000 -0.001982 0.000000 0.029491
#
#
# Mechanical properties :
#
#
# Convention : Reuss Voigt Hill
#
# Bulk Modulus (GPa) = 36.76860 39.01094 37.88977
# Shear Modulus (GPa) = 28.22325 31.51040 29.86682
#
# Velocity S-wave (km/s) = 3.69422 3.90343 3.80026
# Velocity P-wave (km/s) = 5.99797 6.25933 6.13004
#
# Compressibility (1/GPa) = 0.02719712
#
# Stress axis : x y z
#
# Youngs Moduli (GPa) = 69.00862 45.58579 70.71934
#
# Poissons Ratio (x) = 0.14967 0.13882
# Poissons Ratio (y) = 0.22658 0.45537
# Poissons Ratio (z) = 0.13546 0.29353
#
# Static dielectric constant tensor:
#      x y z
#    x 3.685500 0.000000 -0.031240 
#    y 0.000000 3.728340 0.000000 
#    z -0.031240 0.000000 3.871370 
# 
# 
# High freq. dielectric constant tensor:
#      x y z
#    x 1.812620 0.000000 -0.000070 
#    y 0.000000 1.816490 0.000000 
#    z -0.000070 0.000000 1.823620 
# 
# From -- ./inp_files/363140.got.cif
#   From: 2010.06.25/outbox.cif.g09.slc.cpg/sg12_182_cif.got.tgz:363140.got - 2010.06.28 00:19:55.
