data_PCOD8102115
_publ_section_title
;
Structure prediction by ZEFSAII (Michael W. Deem and Ramdas Pophale) SiO2 
 PCOD8102115
Probable space group: C 2/M
;
_chemical_formula_sum "Si O2"
_cell_formula_units_Z 56
_cell_length_a 14.762202
_cell_length_b 8.696315
_cell_length_c 21.619217
_cell_angle_alpha 90.000000
_cell_angle_beta 89.951804
_cell_angle_gamma 90.000000
_cell_volume 2775.404022
_symmetry_space_group_name_H-M "C 2/M"
_symmetry_group_IT_number 12
_symmetry_cell_setting 'monoclinic'
loop_
_space_group_symop_operation_xyz
x,y,z
-x,y,-z
-x,-y,-z
x,-y,z
1/2+x,1/2+y,z
1/2-x,1/2+y,-z
1/2-x,1/2-y,-z
1/2+x,1/2-y,z
loop_
_atom_site_type_symbol
_atom_site_label
_atom_site_fract_x
_atom_site_fract_y
_atom_site_fract_z
Si Si1 0.346054 0.321452 0.008491
Si Si2 0.850953 0.677421 0.570824
Si Si3 0.016748 0.320737 0.787203
Si Si4 0.493305 0.321120 0.656014
Si Si5 0.868506 0.180651 0.875234
Si Si6 0.671481 0.318753 0.858265
Si Si7 0.143345 0.177505 0.557364
O O1 0.330097 0.500000 0.011906
O O2 0.380683 0.272034 0.076841
O O3 0.250000 0.250000 0.000000
O O4 0.403095 0.280087 0.946277
O O5 0.874287 0.500000 0.582839
O O6 0.900698 0.782732 0.620800
O O7 0.883014 0.721221 0.501890
O O8 0.744935 0.712432 0.579299
O O9 0.003370 0.500000 0.798771
O O10 0.998756 0.282824 0.716317
O O11 0.946596 0.228079 0.829033
O O12 0.118720 0.269548 0.804117
O O13 0.494663 0.500000 0.674245
O O14 0.577934 0.276014 0.613073
O O15 0.776180 0.269001 0.858605
O O16 0.849634 0.000000 0.868763
O O17 0.666576 0.500000 0.845172
O O18 0.131411 0.000000 0.538347
#
# Coordination Sequence:
#
# PCOD8102115 Si02
#       7
#     8   8   8   8   8   8   8
#     4   8  16  31  56  85 112 143 183 232 288 346
#     4  10  20  36  60  90 119 146 182 229 279 334
#     4  12  26  41  56  81 115 155 201 242 286 345
#     4  11  23  40  59  80 112 153 193 235 284 338
#     4  10  20  38  61  86 115 149 190 238 291 347
#     4  10  20  38  61  86 116 150 188 237 293 346
#     4   9  20  38  60  86 116 149 184 224 277 336
#
# _framework density 20.177240999999999
#
# number of rings (size 3 to 8) (size 9 to 14) (size 15 to 20)
#    0.000    2.000    0.000    3.429    0.000    6.286 
#    0.000    7.143    0.000    0.000    0.000    0.000 
#    0.000    0.000    0.000    0.000    0.000    0.000 
#
# Total GULP energy -347092.710599 kJ/mol
# GULP energy per Si atom -12396.168236 kJ/mol
# Density = 2.013132 g / cm^3
# Si number density = 20.177241 Si / 1000 Ang^3
#
#
#
# Elastic Constant Matrix: (Units=GPa)
#
#
# Indices 1 2 3 4 5 6 
#
# 1 47.3508 15.7658 18.4017 0.0000 6.5957 0.0000
# 2 15.7658 43.6535 26.7194 0.0000 5.5709 0.0000
# 3 18.4017 26.7194 82.1618 0.0000 4.0672 0.0000
# 4 0.0000 0.0000 0.0000 31.9420 0.0000 1.7209
# 5 6.5957 5.5709 4.0672 0.0000 18.9418 0.0000
# 6 0.0000 0.0000 0.0000 1.7209 0.0000 31.9851
#
#
#
# Elastic Compliance Matrix: (Units=1/GPa)
#
#
# Indices 1 2 3 4 5 6 
#
# 1 0.025391 -0.006342 -0.003314 0.000000 -0.006264 0.000000
# 2 -0.006342 0.030995 -0.008407 0.000000 -0.005102 0.000000
# 3 -0.003314 -0.008407 0.015634 0.000000 0.000270 0.000000
# 4 0.000000 0.000000 0.000000 0.031398 0.000000 -0.001689
# 5 -0.006264 -0.005102 0.000270 0.000000 0.056417 0.000000
# 6 0.000000 0.000000 0.000000 -0.001689 0.000000 0.031355
#
#
# Mechanical properties :
#
#
# Convention : Reuss Voigt Hill
#
# Bulk Modulus (GPa) = 27.85992 32.77111 30.31551
# Shear Modulus (GPa) = 20.89589 24.05906 22.47747
#
# Velocity S-wave (km/s) = 3.22159 3.45684 3.34129
# Velocity P-wave (km/s) = 5.26078 5.67537 5.47200
#
# Compressibility (1/GPa) = 0.03589386
#
# Stress axis : x y z
#
# Youngs Moduli (GPa) = 39.38368 32.26335 63.96343
#
# Poissons Ratio (x) = 0.20462 0.21199
# Poissons Ratio (y) = 0.24978 0.53772
# Poissons Ratio (z) = 0.13053 0.27123
#
# Static dielectric constant tensor:
#      x y z
#    x 3.569390 0.000000 -0.001260 
#    y 0.000000 3.659750 0.000000 
#    z -0.001260 0.000000 3.965470 
# 
# 
# High freq. dielectric constant tensor:
#      x y z
#    x 1.782410 0.000000 0.001800 
#    y 0.000000 1.792380 0.000000 
#    z 0.001800 0.000000 1.793840 
# 
# From -- ./inp_files/308924.got.cif
#   From: 2010.06.25/outbox.cif.g09.slc.cpg/sg12_155_cif.got.tgz:308924.got - 2010.06.28 00:19:55.
