data_PCOD8102361
_publ_section_title
;
Structure prediction by ZEFSAII (Michael W. Deem and Ramdas Pophale) SiO2 
 PCOD8102361
Probable space group: C 2/M
;
_chemical_formula_sum "Si O2"
_cell_formula_units_Z 48
_cell_length_a 8.622935
_cell_length_b 31.032123
_cell_length_c 16.337604
_cell_angle_alpha 90.000000
_cell_angle_beta 30.392542
_cell_angle_gamma 90.000000
_cell_volume 2211.760472
_symmetry_space_group_name_H-M "C 2/M"
_symmetry_group_IT_number 12
_symmetry_cell_setting 'monoclinic'
loop_
_space_group_symop_operation_xyz
x,y,z
-x,y,-z
-x,-y,-z
x,-y,z
1/2+x,1/2+y,z
1/2-x,1/2+y,-z
1/2-x,1/2-y,-z
1/2+x,1/2-y,z
loop_
_atom_site_type_symbol
_atom_site_label
_atom_site_fract_x
_atom_site_fract_y
_atom_site_fract_z
Si Si1 0.762215 0.296989 0.680675
Si Si2 0.865134 0.709783 0.323124
Si Si3 0.143270 0.125508 0.178335
Si Si4 0.648345 0.048460 0.179278
Si Si5 0.262198 0.376360 0.681895
Si Si6 0.241941 0.549172 0.320958
O O1 0.555136 0.253961 0.760904
O O2 0.536856 0.337559 0.789057
O O3 0.000000 0.304957 0.500000
O O4 0.955327 0.291109 0.674389
O O5 0.500000 0.709677 0.500000
O O6 0.948296 0.666426 0.235078
O O7 0.064552 0.128472 0.310698
O O8 0.039268 0.079238 0.191554
O O9 0.500000 0.131467 0.000000
O O10 0.449485 0.081510 0.217074
O O11 0.581941 0.055124 0.305764
O O12 0.556842 0.000000 0.194198
O O13 0.000000 0.057390 0.000000
O O14 0.500000 0.381678 0.500000
O O15 0.351964 0.500000 0.283036
O O16 0.000000 0.563178 0.500000
#
# Coordination Sequence:
#
# PCOD8102361 Si02
#       6
#     8   8   8   8   8   8
#     4  11  20  38  63  87 120 158 202 249 298 357
#     4  10  20  36  62  92 116 151 201 252 301 354
#     4  12  25  39  58  90 127 162 201 246 303 359
#     4  10  21  38  59  84 116 155 197 243 298 353
#     4  11  22  38  59  86 117 152 200 244 290 351
#     4  10  21  39  62  87 116 157 208 255 300 354
#
# _framework density 21.702168
#
# number of rings (size 3 to 8) (size 9 to 14) (size 15 to 20)
#    0.000    1.333    0.000    8.500    0.000    1.333 
#    0.000    4.167    0.000    0.000    0.000    0.000 
#    0.000    0.000    0.000    0.000    0.000    0.000 
#
# Total GULP energy -297641.117997 kJ/mol
# GULP energy per Si atom -12401.713250 kJ/mol
# Density = 2.165277 g / cm^3
# Si number density = 21.702168 Si / 1000 Ang^3
#
#
#
# Elastic Constant Matrix: (Units=GPa)
#
#
# Indices 1 2 3 4 5 6 
#
# 1 137.5599 58.1278 13.8228 0.0000 -17.8791 0.0000
# 2 58.1278 172.2692 37.2454 0.0000 -26.0990 0.0000
# 3 13.8228 37.2454 60.3809 0.0000 -9.9807 0.0000
# 4 0.0000 0.0000 0.0000 12.5634 0.0000 -16.1536
# 5 -17.8791 -26.0990 -9.9807 0.0000 29.0035 0.0000
# 6 0.0000 0.0000 0.0000 -16.1536 0.0000 38.1146
#
#
#
# Elastic Compliance Matrix: (Units=1/GPa)
#
#
# Indices 1 2 3 4 5 6 
#
# 1 0.008722 -0.002474 0.000053 0.000000 0.003168 0.000000
# 2 -0.002474 0.008123 -0.003698 0.000000 0.004511 0.000000
# 3 0.000053 -0.003698 0.019389 0.000000 0.003377 0.000000
# 4 0.000000 0.000000 0.000000 0.174911 0.000000 0.074130
# 5 0.003168 0.004511 0.003377 0.000000 0.041653 0.000000
# 6 0.000000 0.000000 0.000000 0.074130 0.000000 0.057654
#
#
# Mechanical properties :
#
#
# Convention : Reuss Voigt Hill
#
# Bulk Modulus (GPa) = 41.67618 65.40021 53.53820
# Shear Modulus (GPa) = 15.11995 33.33724 24.22860
#
# Velocity S-wave (km/s) = 2.64238 3.92359 3.34490
# Velocity P-wave (km/s) = 5.34368 7.12228 6.29610
#
# Compressibility (1/GPa) = 0.02399452
#
# Stress axis : x y z
#
# Youngs Moduli (GPa) = 114.65818 123.10896 51.57613
#
# Poissons Ratio (x) = 0.30463 -0.00276
# Poissons Ratio (y) = 0.28372 0.19075
# Poissons Ratio (z) = -0.00613 0.45530
#
# Static dielectric constant tensor:
#      x y z
#    x 3.974750 0.000000 0.128300 
#    y 0.000000 4.582980 0.000000 
#    z 0.128300 0.000000 3.607030 
# 
# 
# High freq. dielectric constant tensor:
#      x y z
#    x 1.859260 0.000000 0.005420 
#    y 0.000000 1.879020 0.000000 
#    z 0.005420 0.000000 1.821100 
# 
# From -- ./inp_files/260211.got.cif
#   From: 2010.06.25/outbox.cif.g09.slc.cpg/sg12_131_cif.got.tgz:260211.got - 2010.06.28 00:19:55.
