data_PCOD8102841
_publ_section_title
;
Structure prediction by ZEFSAII (Michael W. Deem and Ramdas Pophale) SiO2 
 PCOD8102841
Probable space group: C 2/M
;
_chemical_formula_sum "Si O2"
_cell_formula_units_Z 48
_cell_length_a 16.434927
_cell_length_b 14.455584
_cell_length_c 17.827935
_cell_angle_alpha 90.000000
_cell_angle_beta 32.506101
_cell_angle_gamma 90.000000
_cell_volume 2276.111685
_symmetry_space_group_name_H-M "C 2/M"
_symmetry_group_IT_number 12
_symmetry_cell_setting 'monoclinic'
loop_
_space_group_symop_operation_xyz
x,y,z
-x,y,-z
-x,-y,-z
x,-y,z
1/2+x,1/2+y,z
1/2-x,1/2+y,-z
1/2-x,1/2-y,-z
1/2+x,1/2-y,z
loop_
_atom_site_type_symbol
_atom_site_label
_atom_site_fract_x
_atom_site_fract_y
_atom_site_fract_z
Si Si1 0.084103 0.394742 0.800612
Si Si2 0.370644 0.286359 0.158670
Si Si3 0.067801 0.895950 0.739478
Si Si4 0.824828 0.609284 0.431777
Si Si5 0.638498 0.895287 0.248812
Si Si6 0.238506 0.641283 0.007944
O O1 0.132340 0.500000 0.783648
O O2 0.137236 0.325222 0.825225
O O3 0.164020 0.356179 0.662578
O O4 0.902288 0.392060 0.932459
O O5 0.412974 0.330711 0.204641
O O6 0.212607 0.326060 0.251308
O O7 0.500000 0.314640 0.000000
O O8 0.170173 0.856206 0.591264
O O9 0.122475 0.000000 0.716092
O O10 0.892404 0.897379 0.850818
O O11 0.836391 0.500000 0.418062
O O12 0.968861 0.643583 0.368255
O O13 0.726773 0.896818 0.101341
O O14 0.640618 0.000000 0.279566
O O15 0.250000 0.750000 0.000000
#
# Coordination Sequence:
#
# PCOD8102841 Si02
#       6
#     8   8   8   8   8   8
#     4  10  21  40  61  82 115 157 196 243 289 332
#     4  12  23  35  55  89 121 152 195 236 279 357
#     4  11  21  35  60  90 120 148 183 240 296 342
#     4   8  19  38  61  88 112 145 194 238 289 351
#     4  10  20  37  59  84 121 155 184 235 297 347
#     4  11  19  36  58  89 119 147 197 237 281 349
#
# _framework density 21.088595999999999
#
# number of rings (size 3 to 8) (size 9 to 14) (size 15 to 20)
#    0.000    1.667    3.333    3.000    0.000    2.333 
#    0.000    2.500    3.667    0.000    0.000    2.333 
#    0.000    0.000    0.000    0.000    0.000    0.000 
#
# Total GULP energy -297588.023980 kJ/mol
# GULP energy per Si atom -12399.500999 kJ/mol
# Density = 2.104060 g / cm^3
# Si number density = 21.088596 Si / 1000 Ang^3
#
#
#
# Elastic Constant Matrix: (Units=GPa)
#
#
# Indices 1 2 3 4 5 6 
#
# 1 60.4946 27.1820 25.0249 -0.0011 -6.0313 0.0011
# 2 27.1820 98.1989 9.7789 -0.0001 -2.4030 0.0006
# 3 25.0249 9.7789 150.5715 -0.0006 -13.6274 0.0010
# 4 -0.0011 -0.0001 -0.0006 23.6047 0.0014 2.1211
# 5 -6.0313 -2.4030 -13.6274 0.0014 17.5913 -0.0015
# 6 0.0011 0.0006 0.0010 2.1211 -0.0015 31.3489
#
#
#
# Elastic Compliance Matrix: (Units=1/GPa)
#
#
# Indices 1 2 3 4 5 6 
#
# 1 0.020431 -0.005286 -0.002671 0.000001 0.004214 0.000000
# 2 -0.005286 0.011632 0.000111 0.000000 -0.000138 0.000000
# 3 -0.002671 0.000111 0.007524 0.000000 0.004928 0.000000
# 4 0.000001 0.000000 0.000000 0.042624 -0.000004 -0.002884
# 5 0.004214 -0.000138 0.004928 -0.000004 0.062090 0.000003
# 6 0.000000 0.000000 0.000000 -0.002884 0.000003 0.032094
#
#
# Mechanical properties :
#
#
# Convention : Reuss Voigt Hill
#
# Bulk Modulus (GPa) = 41.85143 48.13741 44.99442
# Shear Modulus (GPa) = 24.99347 30.99425 27.99386
#
# Velocity S-wave (km/s) = 3.44636 3.83785 3.64736
# Velocity P-wave (km/s) = 5.97705 6.52032 6.25459
#
# Compressibility (1/GPa) = 0.02389405
#
# Stress axis : x y z
#
# Youngs Moduli (GPa) = 48.94614 85.96760 132.90653
#
# Poissons Ratio (x) = 0.45444 0.35498
# Poissons Ratio (y) = 0.25874 -0.01471
# Poissons Ratio (z) = 0.13073 -0.00951
#
# Static dielectric constant tensor:
#      x y z
#    x 3.584750 0.000000 -0.087940 
#    y 0.000000 3.818940 0.000000 
#    z -0.087940 0.000000 4.270370 
# 
# 
# High freq. dielectric constant tensor:
#      x y z
#    x 1.791730 0.000000 -0.003850 
#    y 0.000000 1.835040 0.000000 
#    z -0.003850 0.000000 1.826530 
# 
# From -- ./inp_files/278048.got.cif
#   From: 2010.06.25/outbox.cif.g09.slc.cpg/sg12_140_cif.got.tgz:278048.got - 2010.06.28 00:19:55.
