data_PCOD8102577
_publ_section_title
;
Structure prediction by ZEFSAII (Michael W. Deem and Ramdas Pophale) SiO2 
 PCOD8102577
Probable space group: C 2/M
;
_chemical_formula_sum "Si O2"
_cell_formula_units_Z 64
_cell_length_a 9.270833
_cell_length_b 21.141389
_cell_length_c 21.272125
_cell_angle_alpha 90.000000
_cell_angle_beta 126.625012
_cell_angle_gamma 90.000000
_cell_volume 3346.101453
_symmetry_space_group_name_H-M "C 2/M"
_symmetry_group_IT_number 12
_symmetry_cell_setting 'monoclinic'
loop_
_space_group_symop_operation_xyz
x,y,z
-x,y,-z
-x,-y,-z
x,-y,z
1/2+x,1/2+y,z
1/2-x,1/2+y,-z
1/2-x,1/2-y,-z
1/2+x,1/2-y,z
loop_
_atom_site_type_symbol
_atom_site_label
_atom_site_fract_x
_atom_site_fract_y
_atom_site_fract_z
Si Si1 0.524440 0.572623 0.771835
Si Si2 0.127535 0.189842 0.477701
Si Si3 0.330494 0.072936 0.256409
Si Si4 0.380619 0.880611 0.913438
Si Si5 0.851098 0.133439 0.323819
Si Si6 0.289306 0.072797 0.589363
Si Si7 0.691605 0.742310 0.055484
Si Si8 0.028458 0.351729 0.821600
O O1 0.482406 0.500000 0.751304
O O2 0.345542 0.603826 0.756180
O O3 0.692614 0.582605 0.861963
O O4 0.569550 0.598893 0.715493
O O5 0.250000 0.250000 0.500000
O O6 0.228062 0.123349 0.520438
O O7 0.000000 0.210687 0.500000
O O8 0.005112 0.182624 0.383832
O O9 0.498368 0.082875 0.346562
O O10 0.365582 0.102930 0.197750
O O11 0.296519 0.000000 0.233216
O O12 0.342056 0.807381 0.916887
O O13 0.491999 0.887954 0.877643
O O14 0.500000 0.911007 0.000000
O O15 0.815053 0.084958 0.372076
O O16 0.664363 0.169139 0.257930
O O17 0.248037 0.000000 0.557726
O O18 0.844541 0.708230 0.135348
O O19 0.500000 0.705312 0.000000
O O20 0.750000 0.750000 0.000000
#
# Coordination Sequence:
#
# PCOD8102577 Si02
#       8
#     8   8   8   8   8   8   8   8
#     4  10  21  37  57  84 114 145 185 236 285 335
#     4  10  22  40  58  87 123 154 191 236 291 347
#     4   9  20  37  57  85 114 144 188 236 282 333
#     4  10  21  37  54  81 112 143 189 229 281 341
#     4   9  20  38  58  86 113 150 192 233 282 350
#     4   9  18  37  63  87 113 153 199 241 283 342
#     4  11  21  37  57  81 111 142 186 240 279 336
#     4  10  20  37  57  82 109 148 187 227 285 332
#
# _framework density 19.126736999999999
#
# number of rings (size 3 to 8) (size 9 to 14) (size 15 to 20)
#    0.000    2.250    2.500    0.375    1.750    7.000 
#   15.750    0.000    0.000    4.500    0.000    0.000 
#    0.000    0.000    0.000    0.000    0.000    0.000 
#
# Total GULP energy -396608.349598 kJ/mol
# GULP energy per Si atom -12394.010925 kJ/mol
# Density = 1.908320 g / cm^3
# Si number density = 19.126737 Si / 1000 Ang^3
#
#
#
# Elastic Constant Matrix: (Units=GPa)
#
#
# Indices 1 2 3 4 5 6 
#
# 1 140.5022 45.8341 61.8956 0.0000 16.1253 0.0000
# 2 45.8341 83.2772 49.7892 0.0000 9.5856 0.0000
# 3 61.8956 49.7892 135.2821 0.0000 13.7511 0.0000
# 4 0.0000 0.0000 0.0000 26.1265 0.0000 10.6004
# 5 16.1253 9.5856 13.7511 0.0000 26.4553 0.0000
# 6 0.0000 0.0000 0.0000 10.6004 0.0000 23.6725
#
#
#
# Elastic Compliance Matrix: (Units=1/GPa)
#
#
# Indices 1 2 3 4 5 6 
#
# 1 0.009875 -0.003276 -0.002979 0.000000 -0.003284 0.000000
# 2 -0.003276 0.016679 -0.004464 0.000000 -0.001726 0.000000
# 3 -0.002979 -0.004464 0.010609 0.000000 -0.002082 0.000000
# 4 0.000000 0.000000 0.000000 0.046773 0.000000 -0.020945
# 5 -0.003284 -0.001726 -0.002082 0.000000 0.041509 0.000000
# 6 0.000000 0.000000 0.000000 -0.020945 0.000000 0.051622
#
#
# Mechanical properties :
#
#
# Convention : Reuss Voigt Hill
#
# Bulk Modulus (GPa) = 63.59103 74.89992 69.24547
# Shear Modulus (GPa) = 24.54025 28.68702 26.61364
#
# Velocity S-wave (km/s) = 3.58583 3.87698 3.73424
# Velocity P-wave (km/s) = 7.10378 7.69975 7.40776
#
# Compressibility (1/GPa) = 0.01572549
#
# Stress axis : x y z
#
# Youngs Moduli (GPa) = 101.26425 59.95604 94.25698
#
# Poissons Ratio (x) = 0.19643 0.28075
# Poissons Ratio (y) = 0.33177 0.42077
# Poissons Ratio (z) = 0.30162 0.26765
#
# Static dielectric constant tensor:
#      x y z
#    x 3.810430 0.000000 0.198580 
#    y 0.000000 3.364960 0.000000 
#    z 0.198580 0.000000 3.757810 
# 
# 
# High freq. dielectric constant tensor:
#      x y z
#    x 1.758830 0.000000 0.010130 
#    y 0.000000 1.716250 0.000000 
#    z 0.010130 0.000000 1.753210 
# 
# From -- ./inp_files/301768.got.cif
#   From: 2010.06.25/outbox.cif.g09.slc.cpg/sg12_151_cif.got.tgz:301768.got - 2010.06.28 00:19:55.
