data_PCOD8102076
_publ_section_title
;
Structure prediction by ZEFSAII (Michael W. Deem and Ramdas Pophale) SiO2 
 PCOD8102076
Probable space group: C 2/M
;
_chemical_formula_sum "Si O2"
_cell_formula_units_Z 56
_cell_length_a 24.598117
_cell_length_b 8.690878
_cell_length_c 13.971050
_cell_angle_alpha 90.000000
_cell_angle_beta 123.002796
_cell_angle_gamma 90.000000
_cell_volume 2504.795081
_symmetry_space_group_name_H-M "C 2/M"
_symmetry_group_IT_number 12
_symmetry_cell_setting 'monoclinic'
loop_
_space_group_symop_operation_xyz
x,y,z
-x,y,-z
-x,-y,-z
x,-y,z
1/2+x,1/2+y,z
1/2-x,1/2+y,-z
1/2-x,1/2-y,-z
1/2+x,1/2-y,z
loop_
_atom_site_type_symbol
_atom_site_label
_atom_site_fract_x
_atom_site_fract_y
_atom_site_fract_z
Si Si1 0.067472 0.329182 0.060565
Si Si2 0.448025 0.817751 0.266503
Si Si3 0.252047 0.320873 0.786153
Si Si4 0.383559 0.678265 0.375000
Si Si5 0.658384 0.818423 0.988126
Si Si6 0.167267 0.329070 0.307746
Si Si7 0.582526 0.321874 0.374682
O O1 0.054205 0.500000 0.004189
O O2 0.096358 0.340077 0.193397
O O3 0.116422 0.248627 0.035742
O O4 0.000000 0.236131 0.000000
O O5 0.442199 0.729131 0.361674
O O6 0.382201 0.771060 0.144466
O O7 0.515203 0.763639 0.280512
O O8 0.450841 0.000000 0.283039
O O9 0.265145 0.500000 0.792490
O O10 0.176548 0.285762 0.709123
O O11 0.283653 0.244839 0.721405
O O12 0.274043 0.262899 0.915169
O O13 0.365697 0.500000 0.342735
O O14 0.406293 0.710968 0.503637
O O15 0.671003 0.000000 0.004148
O O16 0.193659 0.500000 0.359012
O O17 0.149451 0.234993 0.386661
O O18 0.573807 0.500000 0.341893
#
# Coordination Sequence:
#
# PCOD8102076 Si02
#       7
#     8   8   8   8   8   8   8
#     4   8  13  25  48  78 111 147 186 228 281 345
#     4  11  23  40  65  94 122 157 202 251 303 359
#     4  11  23  40  63  92 123 157 202 251 300 359
#     4  11  25  44  63  84 119 165 207 252 303 356
#     4   9  19  36  58  86 121 158 195 240 298 361
#     4  10  20  36  60  88 121 159 197 245 302 359
#     4  11  24  41  62  90 123 160 203 251 303 358
#
# _framework density 22.357119000000001
#
# number of rings (size 3 to 8) (size 9 to 14) (size 15 to 20)
#    0.000    1.857    0.000    5.143    0.000    8.571 
#    0.000    0.000    0.000    4.714    0.000    0.000 
#    0.000    0.000    0.000    0.000    0.000    0.000 
#
# Total GULP energy -346882.637337 kJ/mol
# GULP energy per Si atom -12388.665619 kJ/mol
# Density = 2.230623 g / cm^3
# Si number density = 22.357119 Si / 1000 Ang^3
#
#
#
# Elastic Constant Matrix: (Units=GPa)
#
#
# Indices 1 2 3 4 5 6 
#
# 1 42.9847 13.1447 7.2099 0.0000 -9.8259 0.0000
# 2 13.1447 109.0717 35.7144 0.0000 -6.1366 0.0000
# 3 7.2099 35.7144 65.3329 0.0000 -5.3843 0.0000
# 4 0.0000 0.0000 0.0000 27.8652 0.0000 0.0843
# 5 -9.8259 -6.1366 -5.3843 0.0000 40.7725 0.0000
# 6 0.0000 0.0000 0.0000 0.0843 0.0000 31.6308
#
#
#
# Elastic Compliance Matrix: (Units=1/GPa)
#
#
# Indices 1 2 3 4 5 6 
#
# 1 0.025463 -0.002416 -0.001025 0.000000 0.005638 0.000000
# 2 -0.002416 0.011428 -0.005952 0.000000 0.000352 0.000000
# 3 -0.001025 -0.005952 0.018783 0.000000 0.001338 0.000000
# 4 0.000000 0.000000 0.000000 0.035887 0.000000 -0.000096
# 5 0.005638 0.000352 0.001338 0.000000 0.026115 0.000000
# 6 0.000000 0.000000 0.000000 -0.000096 0.000000 0.031615
#
#
# Mechanical properties :
#
#
# Convention : Reuss Voigt Hill
#
# Bulk Modulus (GPa) = 27.10769 36.61414 31.86091
# Shear Modulus (GPa) = 27.72040 30.80838 29.26439
#
# Velocity S-wave (km/s) = 3.52503 3.71619 3.62187
# Velocity P-wave (km/s) = 5.35901 5.90135 5.63670
#
# Compressibility (1/GPa) = 0.03688990
#
# Stress axis : x y z
#
# Youngs Moduli (GPa) = 39.27193 87.50439 53.23974
#
# Poissons Ratio (x) = 0.21141 0.05456
# Poissons Ratio (y) = 0.09488 0.31686
# Poissons Ratio (z) = 0.04024 0.52078
#
# Static dielectric constant tensor:
#      x y z
#    x 4.129140 0.000000 0.085480 
#    y 0.000000 3.794360 0.000000 
#    z 0.085480 0.000000 4.151890 
# 
# 
# High freq. dielectric constant tensor:
#      x y z
#    x 1.890810 0.000000 0.000540 
#    y 0.000000 1.860930 0.000000 
#    z 0.000540 0.000000 1.880770 
# 
# From -- ./inp_files/238982.got.cif
#   From: 2010.06.25/outbox.cif.g09.slc.cpg/sg12_120_cif.got.tgz:238982.got - 2010.06.28 00:19:55.
