data_PCOD8102800
_publ_section_title
;
Structure prediction by ZEFSAII (Michael W. Deem and Ramdas Pophale) SiO2 
 PCOD8102800
Probable space group: C 2/M
;
_chemical_formula_sum "Si O2"
_cell_formula_units_Z 64
_cell_length_a 24.464522
_cell_length_b 8.999742
_cell_length_c 14.977669
_cell_angle_alpha 90.000000
_cell_angle_beta 91.621013
_cell_angle_gamma 90.000000
_cell_volume 3296.379364
_symmetry_space_group_name_H-M "C 2/M"
_symmetry_group_IT_number 12
_symmetry_cell_setting 'monoclinic'
loop_
_space_group_symop_operation_xyz
x,y,z
-x,y,-z
-x,-y,-z
x,-y,z
1/2+x,1/2+y,z
1/2-x,1/2+y,-z
1/2-x,1/2-y,-z
1/2+x,1/2-y,z
loop_
_atom_site_type_symbol
_atom_site_label
_atom_site_fract_x
_atom_site_fract_y
_atom_site_fract_z
Si Si1 0.028175 0.173470 0.095183
Si Si2 0.443007 0.672104 0.238230
Si Si3 0.226724 0.824472 0.182508
Si Si4 0.166627 0.327186 0.533181
Si Si5 0.651384 0.826846 0.859874
Si Si6 0.052973 0.173342 0.557318
Si Si7 0.261328 0.827184 0.635711
Si Si8 0.363065 0.175351 0.938612
O O1 0.082392 0.270673 0.107797
O O2 0.989803 0.230132 0.173652
O O3 0.042948 0.000000 0.104804
O O4 0.000000 0.208658 0.000000
O O5 0.433490 0.500000 0.220306
O O6 0.385855 0.750313 0.215906
O O7 0.460260 0.706850 0.340063
O O8 0.286978 0.777885 0.155005
O O9 0.213223 0.751046 0.276786
O O10 0.187767 0.759174 0.105805
O O11 0.218567 0.000000 0.189355
O O12 0.164704 0.500000 0.558392
O O13 0.105621 0.263398 0.526723
O O14 0.202670 0.244698 0.609682
O O15 0.194277 0.299792 0.438991
O O16 0.643646 0.000000 0.847021
O O17 0.633746 0.776693 0.957891
O O18 0.000000 0.227086 0.500000
O O19 0.064795 0.000000 0.541307
O O20 0.251407 0.000000 0.653561
O O21 0.355378 0.000000 0.926522
#
# Coordination Sequence:
#
# PCOD8102800 Si02
#       8
#     8   8   8   8   8   8   8   8
#     4  10  20  37  59  83 112 148 194 242 285 340
#     4  10  21  37  60  86 112 150 195 239 290 345
#     4  11  23  38  57  84 118 154 193 236 288 345
#     4  10  21  38  61  87 116 150 192 238 289 345
#     4  10  22  38  57  83 115 150 191 239 289 343
#     4  10  22  39  58  84 118 154 194 240 292 347
#     4  10  21  38  60  87 117 151 191 236 288 345
#     4  11  23  38  57  83 116 153 192 238 292 344
#
# _framework density 19.415241000000002
#
# number of rings (size 3 to 8) (size 9 to 14) (size 15 to 20)
#    0.000    1.750    1.250    2.625    0.000    7.500 
#    0.000    1.250    0.000    0.000    0.000    0.000 
#    0.000    0.000    0.000    0.000    0.000    0.000 
#
# Total GULP energy -396988.233426 kJ/mol
# GULP energy per Si atom -12405.882295 kJ/mol
# Density = 1.937105 g / cm^3
# Si number density = 19.415241 Si / 1000 Ang^3
#
#
#
# Elastic Constant Matrix: (Units=GPa)
#
#
# Indices 1 2 3 4 5 6 
#
# 1 124.3073 50.3781 58.9732 0.0000 1.7934 0.0000
# 2 50.3781 72.4535 40.9476 0.0000 -1.5301 0.0000
# 3 58.9732 40.9476 91.1772 0.0000 5.9637 0.0000
# 4 0.0000 0.0000 0.0000 25.5185 0.0000 2.6872
# 5 1.7934 -1.5301 5.9637 0.0000 29.2405 0.0000
# 6 0.0000 0.0000 0.0000 2.6872 0.0000 39.2184
#
#
#
# Elastic Compliance Matrix: (Units=1/GPa)
#
#
# Indices 1 2 3 4 5 6 
#
# 1 0.013227 -0.005838 -0.005939 0.000000 0.000095 0.000000
# 2 -0.005838 0.021286 -0.005959 0.000000 0.002687 0.000000
# 3 -0.005939 -0.005959 0.017718 0.000000 -0.003561 0.000000
# 4 0.000000 0.000000 0.000000 0.039472 0.000000 -0.002705
# 5 0.000095 0.002687 -0.003561 0.000000 0.035060 0.000000
# 6 0.000000 0.000000 0.000000 -0.002705 0.000000 0.025684
#
#
# Mechanical properties :
#
#
# Convention : Reuss Voigt Hill
#
# Bulk Modulus (GPa) = 59.67364 65.39286 62.53325
# Shear Modulus (GPa) = 25.83885 27.97141 26.90513
#
# Velocity S-wave (km/s) = 3.65205 3.79976 3.72664
# Velocity P-wave (km/s) = 6.97032 7.28047 7.12709
#
# Compressibility (1/GPa) = 0.01675782
#
# Stress axis : x y z
#
# Youngs Moduli (GPa) = 75.60268 46.97925 56.43830
#
# Poissons Ratio (x) = 0.27428 0.33521
# Poissons Ratio (y) = 0.44139 0.33632
# Poissons Ratio (z) = 0.44904 0.27996
#
# Static dielectric constant tensor:
#      x y z
#    x 3.558190 0.000000 -0.099800 
#    y 0.000000 3.508150 0.000000 
#    z -0.099800 0.000000 3.674900 
# 
# 
# High freq. dielectric constant tensor:
#      x y z
#    x 1.760550 0.000000 -0.004330 
#    y 0.000000 1.756890 0.000000 
#    z -0.004330 0.000000 1.763890 
# 
# From -- ./inp_files/238696.got.cif
#   From: 2010.06.25/outbox.cif.g09.slc.cpg/sg12_120_cif.got.tgz:238696.got - 2010.06.28 00:19:55.
