data_PCOD8102387
_publ_section_title
;
Structure prediction by ZEFSAII (Michael W. Deem and Ramdas Pophale) SiO2 
 PCOD8102387
Probable space group: C 2/M
;
_chemical_formula_sum "Si O2"
_cell_formula_units_Z 48
_cell_length_a 14.013187
_cell_length_b 13.685604
_cell_length_c 27.536193
_cell_angle_alpha 90.000000
_cell_angle_beta 22.760909
_cell_angle_gamma 90.000000
_cell_volume 2043.094263
_symmetry_space_group_name_H-M "C 2/M"
_symmetry_group_IT_number 12
_symmetry_cell_setting 'monoclinic'
loop_
_space_group_symop_operation_xyz
x,y,z
-x,y,-z
-x,-y,-z
x,-y,z
1/2+x,1/2+y,z
1/2-x,1/2+y,-z
1/2-x,1/2-y,-z
1/2+x,1/2-y,z
loop_
_atom_site_type_symbol
_atom_site_label
_atom_site_fract_x
_atom_site_fract_y
_atom_site_fract_z
Si Si1 0.791146 0.888516 0.780296
Si Si2 0.352679 0.884344 0.521094
Si Si3 0.005288 0.786759 0.942408
Si Si4 0.738321 0.110597 0.621693
Si Si5 0.592146 0.110378 0.311492
Si Si6 0.474176 0.888068 0.837662
O O1 0.587736 0.827042 0.906605
O O2 0.710644 0.882232 0.761811
O O3 0.069574 0.843806 0.655368
O O4 0.781722 0.000000 0.803886
O O5 0.500000 0.853726 0.500000
O O6 0.508766 0.842889 0.402069
O O7 0.330723 0.000000 0.525180
O O8 0.194769 0.831766 0.815182
O O9 0.738854 0.813361 0.044545
O O10 0.000000 0.830501 0.000000
O O11 0.648239 0.114139 0.609216
O O12 0.548756 0.154943 0.749688
O O13 0.000000 0.167223 0.500000
O O14 0.778930 0.000000 0.621482
O O15 0.686708 0.000000 0.274561
O O16 0.372564 0.000000 0.883187
#
# Coordination Sequence:
#
# PCOD8102387 Si02
#       6
#     8   8   8   8   8   8
#     4  10  23  44  66  89 126 174 225 277 321 372
#     4   9  19  41  69  95 125 169 223 272 323 384
#     4  12  24  40  62  94 136 176 221 262 315 392
#     4   9  16  29  56  93 128 163 204 256 326 394
#     4  10  20  36  62  95 130 166 208 266 330 391
#     4  10  20  38  64  94 133 174 209 262 325 388
#
# _framework density 23.493776
#
# number of rings (size 3 to 8) (size 9 to 14) (size 15 to 20)
#    0.000    2.000    1.667    2.000    0.000    5.667 
#    6.000    0.833    0.000    0.000    0.000    0.000 
#    0.000    0.667    0.000    0.000    0.000    0.000 
#
# Total GULP energy -297441.093083 kJ/mol
# GULP energy per Si atom -12393.378878 kJ/mol
# Density = 2.344030 g / cm^3
# Si number density = 23.493776 Si / 1000 Ang^3
#
#
#
# Elastic Constant Matrix: (Units=GPa)
#
#
# Indices 1 2 3 4 5 6 
#
# 1 134.8876 18.2971 74.0301 0.0132 7.1037 -0.0161
# 2 18.2971 68.9617 54.2668 -0.0446 4.6255 -0.0170
# 3 74.0301 54.2668 177.9345 -0.1374 0.1073 -0.0118
# 4 0.0132 -0.0446 -0.1374 23.7108 -0.0331 6.0376
# 5 7.1037 4.6255 0.1073 -0.0331 42.1990 0.0347
# 6 -0.0161 -0.0170 -0.0118 6.0376 0.0347 11.2340
#
#
#
# Elastic Compliance Matrix: (Units=1/GPa)
#
#
# Indices 1 2 3 4 5 6 
#
# 1 0.009764 0.000950 -0.004351 -0.000041 -0.001737 0.000038
# 2 0.000950 0.019356 -0.006297 -0.000014 -0.002266 0.000038
# 3 -0.004351 -0.006297 0.009350 0.000057 0.001399 -0.000041
# 4 -0.000041 -0.000014 0.000057 0.048862 0.000068 -0.026261
# 5 -0.001737 -0.002266 0.001399 0.000068 0.024235 -0.000116
# 6 0.000038 0.000038 -0.000041 -0.026261 -0.000116 0.103129
#
#
# Mechanical properties :
#
#
# Convention : Reuss Voigt Hill
#
# Bulk Modulus (GPa) = 52.42881 74.99688 63.71285
# Shear Modulus (GPa) = 20.79431 31.10810 25.95120
#
# Velocity S-wave (km/s) = 2.97829 3.64277 3.32716
# Velocity P-wave (km/s) = 5.84734 7.04871 6.47595
#
# Compressibility (1/GPa) = 0.01907348
#
# Stress axis : x y z
#
# Youngs Moduli (GPa) = 102.41489 51.66364 106.95217
#
# Poissons Ratio (x) = -0.04906 0.46535
# Poissons Ratio (y) = -0.09726 0.67348
# Poissons Ratio (z) = 0.44561 0.32533
#
# Static dielectric constant tensor:
#      x y z
#    x 4.078610 0.000020 0.002550 
#    y 0.000020 4.204670 0.000130 
#    z 0.002550 0.000130 4.279270 
# 
# 
# High freq. dielectric constant tensor:
#      x y z
#    x 1.926850 0.000000 -0.000080 
#    y 0.000000 1.917430 0.000010 
#    z -0.000080 0.000010 1.931150 
# 
# From -- ./inp_files/376585.got.cif
#   From: 2010.06.25/outbox.cif.g09.slc.cpg/sg12_189_cif.got.tgz:376585.got - 2010.06.28 00:19:55.
