data_PCOD8102450
_publ_section_title
;
Structure prediction by ZEFSAII (Michael W. Deem and Ramdas Pophale) SiO2 
 PCOD8102450
Probable space group: C 2/M
;
_chemical_formula_sum "Si O2"
_cell_formula_units_Z 64
_cell_length_a 9.384964
_cell_length_b 17.866939
_cell_length_c 29.593370
_cell_angle_alpha 90.000000
_cell_angle_beta 141.048238
_cell_angle_gamma 90.000000
_cell_volume 3119.586841
_symmetry_space_group_name_H-M "C 2/M"
_symmetry_group_IT_number 12
_symmetry_cell_setting 'monoclinic'
loop_
_space_group_symop_operation_xyz
x,y,z
-x,y,-z
-x,-y,-z
x,-y,z
1/2+x,1/2+y,z
1/2-x,1/2+y,-z
1/2-x,1/2-y,-z
1/2+x,1/2-y,z
loop_
_atom_site_type_symbol
_atom_site_label
_atom_site_fract_x
_atom_site_fract_y
_atom_site_fract_z
Si Si1 0.930273 0.204200 0.200128
Si Si2 0.637185 0.662746 0.164323
Si Si3 0.533456 0.087196 0.315341
Si Si4 0.313162 0.089045 0.799619
Si Si5 0.727513 0.813121 0.530551
Si Si6 0.270639 0.414644 0.462608
Si Si7 0.834583 0.088106 0.921145
Si Si8 0.801530 0.819279 0.315052
O O1 0.746156 0.264575 0.168887
O O2 0.855999 0.126924 0.205762
O O3 0.929623 0.188767 0.145558
O O4 0.175221 0.239522 0.274911
O O5 0.794288 0.616190 0.237751
O O6 0.573082 0.612371 0.105576
O O7 0.558963 0.097315 0.375802
O O8 0.727185 0.140405 0.342666
O O9 0.565584 0.000000 0.309562
O O10 0.577753 0.112362 0.870154
O O11 0.246454 0.119361 0.734624
O O12 0.278559 0.000000 0.794205
O O13 0.500000 0.800076 0.500000
O O14 0.750000 0.750000 0.500000
O O15 0.712202 0.889600 0.498799
O O16 0.930796 0.805739 0.616732
O O17 0.500000 0.374979 0.500000
O O18 0.329434 0.500000 0.483312
O O19 0.850972 0.000000 0.925396
O O20 0.000000 0.122840 0.000000
#
# Coordination Sequence:
#
# PCOD8102450 Si02
#       8
#     8   8   8   8   8   8   8   8
#     4  11  23  40  65  97 126 172 223 281 320 379
#     4  11  21  38  64  90 131 167 224 261 328 382
#     4  10  20  36  64  91 116 161 212 262 320 392
#     4  11  23  42  68 101 135 174 222 274 327 387
#     4  12  29  42  63  88 121 167 215 269 336 397
#     4  10  21  40  61  86 120 156 202 261 325 388
#     4  10  21  41  69 102 140 179 216 262 325 398
#     4  11  23  40  69  88 128 168 220 274 329 395
#
# _framework density 20.515539
#
# number of rings (size 3 to 8) (size 9 to 14) (size 15 to 20)
#    0.000    1.250    5.000    1.125    3.500    1.750 
#    0.000    4.375    0.000    2.250    0.000    0.000 
#    0.000    0.000    0.000    0.000    0.000    0.000 
#
# Total GULP energy -396570.092233 kJ/mol
# GULP energy per Si atom -12392.815382 kJ/mol
# Density = 2.046884 g / cm^3
# Si number density = 20.515539 Si / 1000 Ang^3
#
#
#
# Elastic Constant Matrix: (Units=GPa)
#
#
# Indices 1 2 3 4 5 6 
#
# 1 135.8076 46.0799 48.4983 0.0001 -4.4111 0.0001
# 2 46.0799 69.9337 33.3621 -0.0001 -2.4880 -0.0001
# 3 48.4983 33.3621 118.5807 0.0000 -9.7707 0.0001
# 4 0.0001 -0.0001 0.0000 25.1846 0.0001 -7.0126
# 5 -4.4111 -2.4880 -9.7707 0.0001 21.2963 0.0000
# 6 0.0001 -0.0001 0.0001 -7.0126 0.0000 39.7355
#
#
#
# Elastic Compliance Matrix: (Units=1/GPa)
#
#
# Indices 1 2 3 4 5 6 
#
# 1 0.010144 -0.005435 -0.002597 0.000000 0.000275 0.000000
# 2 -0.005435 0.019429 -0.003273 0.000000 -0.000357 0.000000
# 3 -0.002597 -0.003273 0.010746 0.000000 0.004010 0.000000
# 4 0.000000 0.000000 0.000000 0.041759 0.000000 0.007370
# 5 0.000275 -0.000357 0.004010 0.000000 0.048811 0.000000
# 6 0.000000 0.000000 0.000000 0.007370 0.000000 0.026467
#
#
# Mechanical properties :
#
#
# Convention : Reuss Voigt Hill
#
# Bulk Modulus (GPa) = 56.46686 64.46697 60.46691
# Shear Modulus (GPa) = 26.90054 30.33540 28.61797
#
# Velocity S-wave (km/s) = 3.62502 3.84950 3.73894
# Velocity P-wave (km/s) = 6.71600 7.15890 6.94099
#
# Compressibility (1/GPa) = 0.01770950
#
# Stress axis : x y z
#
# Youngs Moduli (GPa) = 98.58181 51.46906 93.05429
#
# Poissons Ratio (x) = 0.27975 0.24166
# Poissons Ratio (y) = 0.53581 0.30455
# Poissons Ratio (z) = 0.25601 0.16845
#
# Static dielectric constant tensor:
#      x y z
#    x 3.687000 0.000000 -0.014250 
#    y 0.000000 4.002360 0.000000 
#    z -0.014250 0.000000 3.758930 
# 
# 
# High freq. dielectric constant tensor:
#      x y z
#    x 1.799070 0.000000 -0.011420 
#    y 0.000000 1.813390 0.000000 
#    z -0.011420 0.000000 1.785040 
# 
# From -- ./inp_files/373007.got.cif
#   From: 2010.06.25/outbox.cif.g09.slc.cpg/sg12_187_cif.got.tgz:373007.got - 2010.06.28 00:19:55.
