data_PCOD8102743
_publ_section_title
;
Structure prediction by ZEFSAII (Michael W. Deem and Ramdas Pophale) SiO2 
 PCOD8102743
Probable space group: C 2/M
;
_chemical_formula_sum "Si O2"
_cell_formula_units_Z 48
_cell_length_a 9.704137
_cell_length_b 18.531223
_cell_length_c 14.837809
_cell_angle_alpha 90.000000
_cell_angle_beta 77.997809
_cell_angle_gamma 90.000000
_cell_volume 2609.946718
_symmetry_space_group_name_H-M "C 2/M"
_symmetry_group_IT_number 12
_symmetry_cell_setting 'monoclinic'
loop_
_space_group_symop_operation_xyz
x,y,z
-x,y,-z
-x,-y,-z
x,-y,z
1/2+x,1/2+y,z
1/2-x,1/2+y,-z
1/2-x,1/2-y,-z
1/2+x,1/2-y,z
loop_
_atom_site_type_symbol
_atom_site_label
_atom_site_fract_x
_atom_site_fract_y
_atom_site_fract_z
Si Si1 0.262812 0.323184 0.772870
Si Si2 0.808784 0.080023 0.606510
Si Si3 0.365799 0.578811 0.079168
Si Si4 0.361994 0.580844 0.401823
Si Si5 0.410913 0.318993 0.238493
Si Si6 0.340050 0.084809 0.043926
O O1 0.230609 0.366355 0.685051
O O2 0.427084 0.302027 0.758973
O O3 0.169196 0.252577 0.778598
O O4 0.213409 0.371050 0.863227
O O5 0.787993 0.105244 0.505526
O O6 0.971899 0.077337 0.608299
O O7 0.744241 0.000000 0.627294
O O8 0.321019 0.500000 0.123313
O O9 0.406408 0.629559 0.154368
O O10 0.500000 0.569078 0.000000
O O11 0.241721 0.611224 0.034197
O O12 0.309690 0.500000 0.381442
O O13 0.327722 0.640604 0.330884
O O14 0.313245 0.000000 0.066552
O O15 0.500000 0.102672 0.000000
#
# Coordination Sequence:
#
# PCOD8102743 Si02
#       6
#     8   8   8   8   8   8
#     4  11  23  36  53  80 113 146 179 218 268 323
#     4   8  15  31  57  82 104 135 179 227 267 309
#     4  10  20  37  59  80 102 137 184 227 266 311
#     4   8  15  31  56  83 105 133 180 228 264 309
#     4  11  23  35  53  81 113 146 178 218 269 321
#     4  10  22  39  59  81 105 138 181 227 271 315
#
# _framework density 18.391181
#
# number of rings (size 3 to 8) (size 9 to 14) (size 15 to 20)
#    0.000    2.333    1.667    2.000    2.333    3.333 
#    0.000    0.000    0.000    0.000    0.000    2.333 
#    0.000    0.000    0.000    0.000    0.000    0.000 
#
# Total GULP energy -297491.457829 kJ/mol
# GULP energy per Si atom -12395.477410 kJ/mol
# Density = 1.834932 g / cm^3
# Si number density = 18.391181 Si / 1000 Ang^3
#
#
#
# Elastic Constant Matrix: (Units=GPa)
#
#
# Indices 1 2 3 4 5 6 
#
# 1 71.8947 23.8766 22.9742 0.0000 5.9984 0.0000
# 2 23.8766 90.4851 55.2977 0.0000 1.6408 0.0000
# 3 22.9742 55.2977 100.8066 0.0000 1.7499 0.0000
# 4 0.0000 0.0000 0.0000 -23.5375 0.0000 35.3209
# 5 5.9984 1.6408 1.7499 0.0000 16.5976 0.0000
# 6 0.0000 0.0000 0.0000 35.3209 0.0000 -19.7907
#
#
#
# Elastic Compliance Matrix: (Units=1/GPa)
#
#
# Indices 1 2 3 4 5 6 
#
# 1 0.015939 -0.002928 -0.001935 0.000000 -0.005267 0.000000
# 2 -0.002928 0.017170 -0.008756 0.000000 0.000284 0.000000
# 3 -0.001935 -0.008756 0.015165 0.000000 -0.000034 0.000000
# 4 0.000000 0.000000 0.000000 0.025316 0.000000 0.045182
# 5 -0.005267 0.000284 -0.000034 0.000000 0.062129 0.000000
# 6 0.000000 0.000000 0.000000 0.045182 0.000000 0.030109
#
#
# Mechanical properties :
#
#
# Convention : Reuss Voigt Hill
#
# Bulk Modulus (GPa) = 47.53810 51.94259 49.74035
# Shear Modulus (GPa) = 24.99005 5.38973 15.18989
#
# Velocity S-wave (km/s) = 3.69020 1.71376 2.87702
# Velocity P-wave (km/s) = 6.63786 5.67631 6.17583
#
# Compressibility (1/GPa) = 0.02103576
#
# Stress axis : x y z
#
# Youngs Moduli (GPa) = 62.73759 58.24017 65.94140
#
# Poissons Ratio (x) = 0.17052 0.12760
# Poissons Ratio (y) = 0.18369 0.57741
# Poissons Ratio (z) = 0.12140 0.50998
#
# Static dielectric constant tensor:
#      x y z
#    x 3.145240 0.000000 0.010900 
#    y 0.000000 3.488070 0.000000 
#    z 0.010900 0.000000 3.579540 
# 
# 
# High freq. dielectric constant tensor:
#      x y z
#    x 1.682940 0.000000 0.003280 
#    y 0.000000 1.711450 0.000000 
#    z 0.003280 0.000000 1.726490 
# 
# From -- ./inp_files/195949.got.cif
#   From: 2010.06.25/outbox.cif.g09.slc.cpg/sg12_98_cif.got.tgz:195949.got - 2010.06.28 00:19:55.
