data_PCOD8102958
_publ_section_title
;
Structure prediction by ZEFSAII (Michael W. Deem and Ramdas Pophale) SiO2 
 PCOD8102958
Probable space group: C 2/M
;
_chemical_formula_sum "Si O2"
_cell_formula_units_Z 64
_cell_length_a 14.764176
_cell_length_b 8.873260
_cell_length_c 30.789779
_cell_angle_alpha 90.000000
_cell_angle_beta 127.967624
_cell_angle_gamma 90.000000
_cell_volume 3179.968054
_symmetry_space_group_name_H-M "C 2/M"
_symmetry_group_IT_number 12
_symmetry_cell_setting 'monoclinic'
loop_
_space_group_symop_operation_xyz
x,y,z
-x,y,-z
-x,-y,-z
x,-y,z
1/2+x,1/2+y,z
1/2-x,1/2+y,-z
1/2-x,1/2-y,-z
1/2+x,1/2-y,z
loop_
_atom_site_type_symbol
_atom_site_label
_atom_site_fract_x
_atom_site_fract_y
_atom_site_fract_z
Si Si1 0.776448 0.321919 0.743820
Si Si2 0.900617 0.174566 0.941032
Si Si3 0.459862 0.177632 0.326918
Si Si4 0.187831 0.676493 0.344673
Si Si5 0.693632 0.823443 0.941322
Si Si6 0.576060 0.669613 0.437612
Si Si7 0.187460 0.330908 0.544679
Si Si8 0.450892 0.320688 0.861038
O O1 0.774440 0.500000 0.748709
O O2 0.655880 0.254619 0.724719
O O3 0.800294 0.272953 0.701384
O O4 0.878283 0.253744 0.801785
O O5 0.776818 0.201266 0.925025
O O6 0.902234 0.240070 0.892805
O O7 0.932447 0.000000 0.946444
O O8 0.000000 0.251963 0.000000
O O9 0.562333 0.226628 0.324816
O O10 0.484723 0.235061 0.382988
O O11 0.442603 0.000000 0.322689
O O12 0.203720 0.500000 0.355843
O O13 0.289359 0.754309 0.402064
O O14 0.580353 0.735482 0.894539
O O15 0.670639 0.000000 0.943126
O O16 0.750000 0.750000 0.000000
O O17 0.528845 0.500000 0.428487
O O18 0.697305 0.671550 0.449392
O O19 0.588563 0.742293 0.489095
O O20 0.144189 0.500000 0.539732
O O21 0.445623 0.500000 0.854989
#
# Coordination Sequence:
#
# PCOD8102958 Si02
#       8
#     8   8   8   8   8   8   8   8
#     4  11  24  42  60  83 116 152 194 241 291 343
#     4   9  18  36  61  87 119 158 190 221 276 344
#     4  10  20  37  60  84 110 148 196 241 288 344
#     4   9  20  38  59  80 111 154 193 233 292 358
#     4  11  21  37  62  91 122 155 191 231 279 335
#     4   9  16  28  49  79 114 150 186 231 293 354
#     4   9  16  27  49  81 113 145 188 240 289 342
#     4  11  23  41  62  86 117 155 197 238 283 337
#
# _framework density 20.125988
#
# number of rings (size 3 to 8) (size 9 to 14) (size 15 to 20)
#    0.000    2.125    1.250    2.250    0.000    5.500 
#    0.000    8.750    0.000    3.750    0.000    0.000 
#    0.000    0.000    0.000    0.000    0.000    0.000 
#
# Total GULP energy -396871.228820 kJ/mol
# GULP energy per Si atom -12402.225901 kJ/mol
# Density = 2.008018 g / cm^3
# Si number density = 20.125988 Si / 1000 Ang^3
#
#
#
# Elastic Constant Matrix: (Units=GPa)
#
#
# Indices 1 2 3 4 5 6 
#
# 1 57.2455 19.8080 29.2109 0.0000 -8.7848 0.0000
# 2 19.8080 75.7120 33.8389 0.0000 -6.5564 0.0000
# 3 29.2109 33.8389 118.1556 0.0000 -5.1159 0.0000
# 4 0.0000 0.0000 0.0000 39.6757 0.0000 3.8089
# 5 -8.7848 -6.5564 -5.1159 0.0000 34.0677 0.0000
# 6 0.0000 0.0000 0.0000 3.8089 0.0000 25.3815
#
#
#
# Elastic Compliance Matrix: (Units=1/GPa)
#
#
# Indices 1 2 3 4 5 6 
#
# 1 0.021402 -0.003382 -0.004139 0.000000 0.004247 0.000000
# 2 -0.003382 0.015859 -0.003635 0.000000 0.001634 0.000000
# 3 -0.004139 -0.003635 0.010520 0.000000 -0.000187 0.000000
# 4 0.000000 0.000000 0.000000 0.025573 0.000000 -0.003838
# 5 0.004247 0.001634 -0.000187 0.000000 0.030735 0.000000
# 6 0.000000 0.000000 0.000000 -0.003838 0.000000 0.039975
#
#
# Mechanical properties :
#
#
# Convention : Reuss Voigt Hill
#
# Bulk Modulus (GPa) = 39.26260 46.31428 42.78844
# Shear Modulus (GPa) = 28.59363 31.04201 29.81782
#
# Velocity S-wave (km/s) = 3.77335 3.93158 3.85328
# Velocity P-wave (km/s) = 6.20765 6.60847 6.41120
#
# Compressibility (1/GPa) = 0.02546953
#
# Stress axis : x y z
#
# Youngs Moduli (GPa) = 46.72377 63.05621 95.06084
#
# Poissons Ratio (x) = 0.21324 0.39344
# Poissons Ratio (y) = 0.15801 0.34555
# Poissons Ratio (z) = 0.19338 0.22921
#
# Static dielectric constant tensor:
#      x y z
#    x 3.612860 0.000000 -0.091070 
#    y 0.000000 3.641530 0.000000 
#    z -0.091070 0.000000 3.682490 
# 
# 
# High freq. dielectric constant tensor:
#      x y z
#    x 1.783840 0.000000 0.001260 
#    y 0.000000 1.782580 0.000000 
#    z 0.001260 0.000000 1.787890 
# 
# From -- ./inp_files/375671.got.cif
#   From: 2010.06.25/outbox.cif.g09.slc.cpg/sg12_188_cif.got.tgz:375671.got - 2010.06.28 00:19:55.
