data_PCOD8102554
_publ_section_title
;
Structure prediction by ZEFSAII (Michael W. Deem and Ramdas Pophale) SiO2 
 PCOD8102554
Probable space group: C 2/M
;
_chemical_formula_sum "Si O2"
_cell_formula_units_Z 56
_cell_length_a 18.516920
_cell_length_b 9.206573
_cell_length_c 18.294138
_cell_angle_alpha 90.000000
_cell_angle_beta 68.313651
_cell_angle_gamma 90.000000
_cell_volume 2897.994451
_symmetry_space_group_name_H-M "C 2/M"
_symmetry_group_IT_number 12
_symmetry_cell_setting 'monoclinic'
loop_
_space_group_symop_operation_xyz
x,y,z
-x,y,-z
-x,-y,-z
x,-y,z
1/2+x,1/2+y,z
1/2-x,1/2+y,-z
1/2-x,1/2-y,-z
1/2+x,1/2-y,z
loop_
_atom_site_type_symbol
_atom_site_label
_atom_site_fract_x
_atom_site_fract_y
_atom_site_fract_z
Si Si1 0.214866 0.672001 0.943676
Si Si2 0.430632 0.339145 0.970808
Si Si3 0.580303 0.168810 0.506797
Si Si4 0.479638 0.671442 0.792044
Si Si5 0.675180 0.328068 0.226615
Si Si6 0.214386 0.827673 0.372703
Si Si7 0.610672 0.831675 0.661755
O O1 0.219074 0.500000 0.951319
O O2 0.261204 0.726722 0.855178
O O3 0.250000 0.750000 0.000000
O O4 0.126793 0.724946 0.969966
O O5 0.392337 0.500000 0.973982
O O6 0.458779 0.279995 0.881940
O O7 0.500000 0.354302 0.000000
O O8 0.500000 0.222824 0.500000
O O9 0.652530 0.258404 0.449987
O O10 0.576211 0.198983 0.594567
O O11 0.594551 0.000000 0.484319
O O12 0.491641 0.500000 0.782441
O O13 0.410402 0.726313 0.764783
O O14 0.559846 0.745898 0.739521
O O15 0.676095 0.500000 0.227617
O O16 0.697397 0.266666 0.297765
O O17 0.300211 0.778389 0.365612
O O18 0.205010 0.000000 0.380220
O O19 0.605936 0.000000 0.684206
#
# Coordination Sequence:
#
# PCOD8102554 Si02
#       7
#     8   8   8   8   8   8   8
#     4  11  21  37  60  84 114 152 194 241 290 340
#     4  10  22  39  57  81 117 153 192 242 290 339
#     4  10  21  38  58  82 114 146 178 223 274 326
#     4  10  20  37  57  78 109 148 186 227 277 333
#     4   9  19  36  56  79 110 143 182 233 280 326
#     4  10  21  37  58  83 110 143 182 227 274 326
#     4  10  22  37  55  82 115 144 179 229 277 325
#
# _framework density 19.323709000000001
#
# number of rings (size 3 to 8) (size 9 to 14) (size 15 to 20)
#    0.000    2.000    1.429    1.714    2.000    2.286 
#    0.000    1.429    0.000    0.000    0.000    0.000 
#    0.000    0.000    0.000    0.000    0.000    0.000 
#
# Total GULP energy -347248.255646 kJ/mol
# GULP energy per Si atom -12401.723416 kJ/mol
# Density = 1.927973 g / cm^3
# Si number density = 19.323709 Si / 1000 Ang^3
#
#
#
# Elastic Constant Matrix: (Units=GPa)
#
#
# Indices 1 2 3 4 5 6 
#
# 1 119.8846 27.2075 35.0478 0.0000 -10.9648 0.0000
# 2 27.2075 44.9954 27.2235 0.0000 -15.0431 0.0001
# 3 35.0478 27.2235 81.3428 0.0000 -15.6823 0.0000
# 4 0.0000 0.0000 0.0000 26.7616 0.0000 -17.0981
# 5 -10.9648 -15.0431 -15.6823 0.0000 43.2295 0.0000
# 6 0.0000 0.0001 0.0000 -17.0981 0.0000 10.7687
#
#
#
# Elastic Compliance Matrix: (Units=1/GPa)
#
#
# Indices 1 2 3 4 5 6 
#
# 1 0.010193 -0.004398 -0.002921 -0.000001 -0.000005 -0.000002
# 2 -0.004398 0.031750 -0.007329 0.000014 0.007274 0.000021
# 3 -0.002921 -0.007329 0.016526 -0.000004 0.002704 -0.000006
# 4 -0.000001 0.000014 -0.000004 -2.591452 0.000003 -4.114577
# 5 -0.000005 0.007274 0.002704 0.000003 0.026643 0.000005
# 6 -0.000002 0.000021 -0.000006 -4.114577 0.000005 -6.440056
#
#
# Mechanical properties :
#
#
# Convention : Reuss Voigt Hill
#
# Bulk Modulus (GPa) = 34.27657 47.24225 40.75941
# Shear Modulus (GPa) = -0.56133 26.60156 13.02011
#
# Velocity S-wave (km/s) = -0.53956 3.71432 2.59856
# Velocity P-wave (km/s) = 4.16994 6.54949 5.49018
#
# Compressibility (1/GPa) = 0.02917445
#
# Stress axis : x y z
#
# Youngs Moduli (GPa) = 98.10770 31.49635 60.51004
#
# Poissons Ratio (x) = 0.13851 0.17674
# Poissons Ratio (y) = 0.43145 0.44345
# Poissons Ratio (z) = 0.28656 0.23082
#
# Static dielectric constant tensor:
#      x y z
#    x 3.723460 0.000000 0.125710 
#    y 0.000000 3.799400 0.000000 
#    z 0.125710 0.000000 3.510540 
# 
# 
# High freq. dielectric constant tensor:
#      x y z
#    x 1.765130 0.000000 0.002400 
#    y 0.000000 1.729760 0.000000 
#    z 0.002400 0.000000 1.762000 
# 
# From -- ./inp_files/275334.got.cif
#   From: 2010.06.25/outbox.cif.g09.slc.cpg/sg12_138_cif.got.tgz:275334.got - 2010.06.28 00:19:55.
