data_PCOD8102699
_publ_section_title
;
Structure prediction by ZEFSAII (Michael W. Deem and Ramdas Pophale) SiO2 
 PCOD8102699
Probable space group: C 2/M
;
_chemical_formula_sum "Si O2"
_cell_formula_units_Z 40
_cell_length_a 14.533242
_cell_length_b 15.906270
_cell_length_c 9.028605
_cell_angle_alpha 90.000000
_cell_angle_beta 107.478903
_cell_angle_gamma 90.000000
_cell_volume 1990.771423
_symmetry_space_group_name_H-M "C 2/M"
_symmetry_group_IT_number 12
_symmetry_cell_setting 'monoclinic'
loop_
_space_group_symop_operation_xyz
x,y,z
-x,y,-z
-x,-y,-z
x,-y,z
1/2+x,1/2+y,z
1/2-x,1/2+y,-z
1/2-x,1/2-y,-z
1/2+x,1/2-y,z
loop_
_atom_site_type_symbol
_atom_site_label
_atom_site_fract_x
_atom_site_fract_y
_atom_site_fract_z
Si Si1 0.402468 0.253787 0.025914
Si Si2 0.688817 0.409620 0.894158
Si Si3 0.611712 0.197555 0.529208
Si Si4 0.781566 0.687618 0.710748
Si Si5 0.862997 0.593307 0.182721
O O1 0.380204 0.328448 0.131336
O O2 0.419936 0.165623 0.119590
O O3 0.500000 0.282876 0.000000
O O4 0.319231 0.248131 0.861440
O O5 0.634053 0.500000 0.857933
O O6 0.754134 0.400413 0.777074
O O7 0.753705 0.410154 0.072966
O O8 0.500000 0.224623 0.500000
O O9 0.683205 0.274800 0.596243
O O10 0.634483 0.171557 0.369843
O O11 0.635911 0.117483 0.643529
O O12 0.910486 0.500000 0.186859
#
# Coordination Sequence:
#
# PCOD8102699 Si02
#       5
#     8   8   8   8   8
#     4  11  20  37  62  87 116 152 193 244 293 342
#     4  10  20  38  62  84 114 152 195 243 293 338
#     4  11  21  36  59  86 116 158 193 233 287 349
#     4  10  21  37  58  86 118 154 195 236 289 342
#     4  10  20  37  58  84 117 149 187 238 291 347
#
# _framework density 20.092714000000001
#
# number of rings (size 3 to 8) (size 9 to 14) (size 15 to 20)
#    0.000    1.600    4.000    2.400    0.000    2.000 
#    0.000    4.000    0.000    0.600    0.000    0.000 
#    0.000    0.000    0.000    0.000    0.000    0.000 
#
# Total GULP energy -247816.702117 kJ/mol
# GULP energy per Si atom -12390.835106 kJ/mol
# Density = 2.004698 g / cm^3
# Si number density = 20.092714 Si / 1000 Ang^3
#
#
#
# Elastic Constant Matrix: (Units=GPa)
#
#
# Indices 1 2 3 4 5 6 
#
# 1 109.4210 54.6115 29.1450 0.0000 -20.0997 0.0000
# 2 54.6115 131.9851 43.5071 0.0000 -15.4296 0.0000
# 3 29.1450 43.5071 88.6718 0.0000 -25.5273 0.0000
# 4 0.0000 0.0000 0.0000 4.7078 0.0000 -8.1400
# 5 -20.0997 -15.4296 -25.5273 0.0000 35.4237 0.0000
# 6 0.0000 0.0000 0.0000 -8.1400 0.0000 5.3636
#
#
#
# Elastic Compliance Matrix: (Units=1/GPa)
#
#
# Indices 1 2 3 4 5 6 
#
# 1 0.012330 -0.004369 -0.000559 0.000000 0.004691 0.000000
# 2 -0.004369 0.010611 -0.003979 0.000000 -0.000725 0.000000
# 3 -0.000559 -0.003979 0.016180 0.000000 0.009610 0.000000
# 4 0.000000 0.000000 0.000000 -0.130788 0.000000 -0.198491
# 5 0.004691 -0.000725 0.009610 0.000000 0.037501 0.000000
# 6 0.000000 0.000000 0.000000 -0.198491 0.000000 -0.114799
#
#
# Mechanical properties :
#
#
# Convention : Reuss Voigt Hill
#
# Bulk Modulus (GPa) = 46.93136 64.95611 55.94374
# Shear Modulus (GPa) = -34.71054 22.61999 -6.04528
#
# Velocity S-wave (km/s) = -4.16085 3.35891 -1.73644
# Velocity P-wave (km/s) = 0.56967 6.88777 4.88702
#
# Compressibility (1/GPa) = 0.02130771
#
# Stress axis : x y z
#
# Youngs Moduli (GPa) = 81.10211 94.23789 61.80512
#
# Poissons Ratio (x) = 0.41176 0.03452
# Poissons Ratio (y) = 0.35437 0.24592
# Poissons Ratio (z) = 0.04530 0.37497
#
# Static dielectric constant tensor:
#      x y z
#    x 3.509130 0.000000 -0.200150 
#    y 0.000000 3.622700 0.000000 
#    z -0.200150 0.000000 3.879570 
# 
# 
# High freq. dielectric constant tensor:
#      x y z
#    x 1.764730 0.000000 -0.012010 
#    y 0.000000 1.768590 0.000000 
#    z -0.012010 0.000000 1.790470 
# 
# From -- ./inp_files/59230.got.cif
#   From: 2010.06.25/outbox.cif.g09.slc.cpg/sg12_30_cif.got.tgz:59230.got - 2010.06.28 00:19:55.
