data_PCOD8102499
_publ_section_title
;
Structure prediction by ZEFSAII (Michael W. Deem and Ramdas Pophale) SiO2 
 PCOD8102499
Probable space group: C 2/M
;
_chemical_formula_sum "Si O2"
_cell_formula_units_Z 52
_cell_length_a 19.203709
_cell_length_b 31.168177
_cell_length_c 4.982547
_cell_angle_alpha 90.000000
_cell_angle_beta 121.776551
_cell_angle_gamma 90.000000
_cell_volume 2535.258051
_symmetry_space_group_name_H-M "C 2/M"
_symmetry_group_IT_number 12
_symmetry_cell_setting 'monoclinic'
loop_
_space_group_symop_operation_xyz
x,y,z
-x,y,-z
-x,-y,-z
x,-y,z
1/2+x,1/2+y,z
1/2-x,1/2+y,-z
1/2-x,1/2-y,-z
1/2+x,1/2-y,z
loop_
_atom_site_type_symbol
_atom_site_label
_atom_site_fract_x
_atom_site_fract_y
_atom_site_fract_z
Si Si1 0.100629 0.452382 0.954000
Si Si2 0.906385 0.247052 0.323175
Si Si3 0.708177 0.047455 0.670056
Si Si4 0.500000 0.114137 0.500000
Si Si5 0.259175 0.632869 0.554762
Si Si6 0.906521 0.809252 0.825990
Si Si7 0.836966 0.662868 0.150454
O O1 0.069343 0.500000 0.811080
O O2 0.174602 0.439411 0.896104
O O3 0.027472 0.417893 0.795091
O O4 0.130250 0.452933 0.317969
O O5 0.887519 0.229311 0.581285
O O6 0.848575 0.286559 0.123773
O O7 0.000000 0.262866 0.500000
O O8 0.888991 0.208258 0.086054
O O9 0.769582 0.083355 0.674070
O O10 0.750376 0.000000 0.761050
O O11 0.422947 0.143089 0.429471
O O12 0.347977 0.650281 0.647745
O O13 0.227987 0.659765 0.744324
O O14 0.194326 0.638838 0.181059
O O15 0.000000 0.825635 0.000000
#
# Coordination Sequence:
#
# PCOD8102499 Si02
#       7
#     8   8   8   4   8   8   8
#     4  10  21  35  54  76 110 153 194 226 260 313
#     4  10  21  40  56  86 113 153 182 225 278 324
#     4  10  20  37  54  78 111 144 181 230 279 319
#     4  12  21  38  52  84 116 158 190 230 257 322
#     4  12  23  40  57  88 108 145 193 230 277 331
#     4  10  23  41  64  79 111 141 185 235 289 340
#     4  12  25  35  60  81 120 154 186 231 265 322
#
# _framework density 20.510733999999999
#
# number of rings (size 3 to 8) (size 9 to 14) (size 15 to 20)
#    0.000    1.231    3.846    2.077    0.000    6.154 
#    0.000    2.308    0.000    0.462    0.000    0.000 
#    0.000    9.846    0.000    0.000    0.000    1.538 
#
# Total GULP energy -322340.932641 kJ/mol
# GULP energy per Si atom -12397.728178 kJ/mol
# Density = 2.046405 g / cm^3
# Si number density = 20.510734 Si / 1000 Ang^3
#
#
#
# Elastic Constant Matrix: (Units=GPa)
#
#
# Indices 1 2 3 4 5 6 
#
# 1 74.7323 43.9301 26.8179 0.0000 1.9968 0.0000
# 2 43.9301 115.4290 23.7245 0.0000 22.0386 0.0000
# 3 26.8179 23.7245 60.1536 0.0000 -5.8983 0.0000
# 4 0.0000 0.0000 0.0000 21.8315 0.0000 8.9303
# 5 1.9968 22.0386 -5.8983 0.0000 32.0077 0.0000
# 6 0.0000 0.0000 0.0000 8.9303 0.0000 22.3831
#
#
#
# Elastic Compliance Matrix: (Units=1/GPa)
#
#
# Indices 1 2 3 4 5 6 
#
# 1 0.019256 -0.006574 -0.005770 0.000000 0.002262 0.000000
# 2 -0.006574 0.013715 -0.003426 0.000000 -0.009664 0.000000
# 3 -0.005770 -0.003426 0.021197 0.000000 0.006625 0.000000
# 4 0.000000 0.000000 0.000000 0.054739 0.000000 -0.021839
# 5 0.002262 -0.009664 0.006625 0.000000 0.038976 0.000000
# 6 0.000000 0.000000 0.000000 -0.021839 0.000000 0.053390
#
#
# Mechanical properties :
#
#
# Convention : Reuss Voigt Hill
#
# Bulk Modulus (GPa) = 44.19367 48.80665 46.50016
# Shear Modulus (GPa) = 20.80254 25.63396 23.21825
#
# Velocity S-wave (km/s) = 3.18815 3.53906 3.36818
# Velocity P-wave (km/s) = 5.92839 6.36767 6.15195
#
# Compressibility (1/GPa) = 0.02262767
#
# Stress axis : x y z
#
# Youngs Moduli (GPa) = 51.93222 72.91452 47.17616
#
# Poissons Ratio (x) = 0.47937 0.27220
# Poissons Ratio (y) = 0.34142 0.16161
# Poissons Ratio (z) = 0.29965 0.24978
#
# Static dielectric constant tensor:
#      x y z
#    x 3.490750 0.000000 -0.154590 
#    y 0.000000 3.869230 0.000000 
#    z -0.154590 0.000000 3.670360 
# 
# 
# High freq. dielectric constant tensor:
#      x y z
#    x 1.778020 0.000000 -0.028820 
#    y 0.000000 1.808750 0.000000 
#    z -0.028820 0.000000 1.793040 
# 
# From -- ./inp_files/22496.got.cif
#   From: 2010.06.25/outbox.cif.g09.slc.cpg/sg12_12_cif.got.tgz:22496.got - 2010.06.28 00:19:55.
