data_PCOD8102430
_publ_section_title
;
Structure prediction by ZEFSAII (Michael W. Deem and Ramdas Pophale) SiO2 
 PCOD8102430
Probable space group: C 2/M
;
_chemical_formula_sum "Si O2"
_cell_formula_units_Z 28
_cell_length_a 5.420926
_cell_length_b 17.859259
_cell_length_c 11.873862
_cell_angle_alpha 90.000000
_cell_angle_beta 57.135225
_cell_angle_gamma 90.000000
_cell_volume 965.571038
_symmetry_space_group_name_H-M "C 2/M"
_symmetry_group_IT_number 12
_symmetry_cell_setting 'monoclinic'
loop_
_space_group_symop_operation_xyz
x,y,z
-x,y,-z
-x,-y,-z
x,-y,z
1/2+x,1/2+y,z
1/2-x,1/2+y,-z
1/2-x,1/2-y,-z
1/2+x,1/2-y,z
loop_
_atom_site_type_symbol
_atom_site_label
_atom_site_fract_x
_atom_site_fract_y
_atom_site_fract_z
Si Si1 0.057914 0.583249 0.333283
Si Si2 0.334176 0.727568 0.244117
Si Si3 0.500000 0.670294 0.500000
Si Si4 0.682029 0.084320 0.055941
O O1 0.135159 0.500000 0.359138
O O2 0.333673 0.640140 0.281640
O O3 0.772042 0.616056 0.468090
O O4 0.986103 0.581886 0.217334
O O5 0.659943 0.764543 0.165395
O O6 0.086960 0.775601 0.375187
O O7 0.756731 0.000000 0.995020
O O8 0.500000 0.125133 0.000000
O O9 0.000000 0.124734 0.000000
#
# Coordination Sequence:
#
# PCOD8102430 Si02
#       4
#     8   8   4   8
#     4  10  20  36  63  94 120 153 205 254 290 351
#     4  10  21  39  59  82 119 164 194 230 301 364
#     4  10  21  40  61  88 126 166 192 238 311 368
#     4   9  19  36  57  83 117 154 192 242 301 348
#
# _framework density 28.998381999999999
#
# number of rings (size 3 to 8) (size 9 to 14) (size 15 to 20)
#    0.000    2.286    0.000    3.857    0.000    4.571 
#    0.000   17.857    0.000   20.571    0.000    0.000 
#    0.000    0.000    0.000    0.000    0.000    0.286 
#
# Total GULP energy -173449.173842 kJ/mol
# GULP energy per Si atom -12389.226703 kJ/mol
# Density = 2.893238 g / cm^3
# Si number density = 28.998382 Si / 1000 Ang^3
#
#
#
# Elastic Constant Matrix: (Units=GPa)
#
#
# Indices 1 2 3 4 5 6 
#
# 1 164.3645 40.6295 8.7274 0.0000 10.1033 0.0000
# 2 40.6295 214.6649 -21.3843 0.0000 -13.8767 0.0000
# 3 8.7274 -21.3843 65.5906 0.0000 5.5574 0.0000
# 4 0.0000 0.0000 0.0000 14.0062 0.0000 -0.4887
# 5 10.1033 -13.8767 5.5574 0.0000 29.2461 0.0000
# 6 0.0000 0.0000 0.0000 -0.4887 0.0000 32.0444
#
#
#
# Elastic Compliance Matrix: (Units=1/GPa)
#
#
# Indices 1 2 3 4 5 6 
#
# 1 0.006708 -0.001569 -0.001164 0.000000 -0.002841 0.000000
# 2 -0.001569 0.005302 0.001706 0.000000 0.002734 0.000000
# 3 -0.001164 0.001706 0.016114 0.000000 -0.001851 0.000000
# 4 0.000000 0.000000 0.000000 0.071435 0.000000 0.001090
# 5 -0.002841 0.002734 -0.001851 0.000000 0.036823 0.000000
# 6 0.000000 0.000000 0.000000 0.001090 0.000000 0.031223
#
#
# Mechanical properties :
#
#
# Convention : Reuss Voigt Hill
#
# Bulk Modulus (GPa) = 38.35772 55.61836 46.98804
# Shear Modulus (GPa) = 28.03487 42.83583 35.43535
#
# Velocity S-wave (km/s) = 3.11267 3.84758 3.49947
# Velocity P-wave (km/s) = 5.11611 6.24179 5.70677
#
# Compressibility (1/GPa) = 0.02607037
#
# Stress axis : x y z
#
# Youngs Moduli (GPa) = 149.06799 188.60542 62.05841
#
# Poissons Ratio (x) = 0.29597 0.07221
# Poissons Ratio (y) = 0.23392 -0.10586
# Poissons Ratio (z) = 0.17344 -0.32172
#
# Static dielectric constant tensor:
#      x y z
#    x 5.538790 0.000000 0.342620 
#    y 0.000000 5.590230 0.000000 
#    z 0.342620 0.000000 5.050700 
# 
# 
# High freq. dielectric constant tensor:
#      x y z
#    x 2.165580 0.000000 0.019460 
#    y 0.000000 2.185460 0.000000 
#    z 0.019460 0.000000 2.154950 
# 
# From -- ./inp_files/114490.got.cif
#   From: 2010.06.25/outbox.cif.g09.slc.cpg/sg12_58_cif.got.tgz:114490.got - 2010.06.28 00:19:55.
