data_PCOD8102635
_publ_section_title
;
Structure prediction by ZEFSAII (Michael W. Deem and Ramdas Pophale) SiO2 
 PCOD8102635
Probable space group: C 2/M
;
_chemical_formula_sum "Si O2"
_cell_formula_units_Z 64
_cell_length_a 29.667275
_cell_length_b 9.860371
_cell_length_c 21.749598
_cell_angle_alpha 90.000000
_cell_angle_beta 149.847512
_cell_angle_gamma 90.000000
_cell_volume 3195.861795
_symmetry_space_group_name_H-M "C 2/M"
_symmetry_group_IT_number 12
_symmetry_cell_setting 'monoclinic'
loop_
_space_group_symop_operation_xyz
x,y,z
-x,y,-z
-x,-y,-z
x,-y,z
1/2+x,1/2+y,z
1/2-x,1/2+y,-z
1/2-x,1/2-y,-z
1/2+x,1/2-y,z
loop_
_atom_site_type_symbol
_atom_site_label
_atom_site_fract_x
_atom_site_fract_y
_atom_site_fract_z
Si Si1 0.853851 0.648675 0.975674
Si Si2 0.756683 0.842778 0.948726
Si Si3 0.906899 0.156604 0.615199
Si Si4 0.781236 0.215289 0.286665
Si Si5 0.966108 0.146581 0.551428
Si Si6 0.106499 0.352777 0.676119
Si Si7 0.718744 0.158123 0.338815
Si Si8 0.445670 0.844612 0.773748
O O1 0.842647 0.500000 0.994964
O O2 0.957762 0.668159 0.079368
O O3 0.830790 0.773197 0.992920
O O4 0.791522 0.642388 0.842011
O O5 0.660380 0.835686 0.802894
O O6 0.783829 0.000000 0.994662
O O7 0.750000 0.750000 0.000000
O O8 0.957177 0.196800 0.611174
O O9 0.800479 0.180655 0.482405
O O10 0.945404 0.253637 0.712676
O O11 0.926308 0.000000 0.655053
O O12 0.867389 0.124160 0.405921
O O13 0.824309 0.340728 0.299714
O O14 0.731888 0.250675 0.292944
O O15 0.024926 0.247545 0.579822
O O16 0.014218 0.000000 0.606243
O O17 0.061818 0.500000 0.619779
O O18 0.628349 0.207944 0.265301
O O19 0.713325 0.000000 0.312288
O O20 0.424282 0.000000 0.729708
#
# Coordination Sequence:
#
# PCOD8102635 Si02
#       8
#     8   8   8   8   8   8   8   8
#     4  10  21  36  56  83 114 149 186 229 281 332
#     4  10  22  39  58  80 111 150 188 228 276 332
#     4   9  19  36  56  81 113 147 187 232 280 337
#     4  10  20  37  58  79 113 152 190 234 278 332
#     4  10  21  35  57  86 111 146 193 234 275 332
#     4  10  23  39  56  83 116 147 182 231 286 337
#     4   9  18  35  58  83 111 145 188 237 282 328
#     4  10  21  35  55  85 116 146 185 234 284 334
#
# _framework density 20.025897000000001
#
# number of rings (size 3 to 8) (size 9 to 14) (size 15 to 20)
#    0.000    2.250    0.000    3.000    1.750    6.500 
#    0.000    4.375    0.000    0.000    0.000    4.375 
#    0.000    0.000    0.000    0.000    0.000    0.000 
#
# Total GULP energy -396560.929090 kJ/mol
# GULP energy per Si atom -12392.529034 kJ/mol
# Density = 1.998032 g / cm^3
# Si number density = 20.025897 Si / 1000 Ang^3
#
#
#
# Elastic Constant Matrix: (Units=GPa)
#
#
# Indices 1 2 3 4 5 6 
#
# 1 117.6227 58.7565 59.6326 0.0000 -1.8641 0.0000
# 2 58.7565 110.2759 45.6330 0.0000 2.0769 0.0000
# 3 59.6326 45.6330 99.2889 0.0000 6.0901 0.0000
# 4 0.0000 0.0000 0.0000 16.0471 0.0000 4.5384
# 5 -1.8641 2.0769 6.0901 0.0000 31.5228 0.0000
# 6 0.0000 0.0000 0.0000 4.5384 0.0000 19.5869
#
#
#
# Elastic Compliance Matrix: (Units=1/GPa)
#
#
# Indices 1 2 3 4 5 6 
#
# 1 0.014304 -0.005002 -0.006440 0.000000 0.002420 0.000000
# 2 -0.005002 0.012949 -0.002911 0.000000 -0.000586 0.000000
# 3 -0.006440 -0.002911 0.015473 0.000000 -0.003178 0.000000
# 4 0.000000 0.000000 0.000000 0.066686 0.000000 -0.015452
# 5 0.002420 -0.000586 -0.003178 0.000000 0.032519 0.000000
# 6 0.000000 0.000000 0.000000 -0.015452 0.000000 0.054635
#
#
# Mechanical properties :
#
#
# Convention : Reuss Voigt Hill
#
# Bulk Modulus (GPa) = 71.33446 72.80353 72.06900
# Shear Modulus (GPa) = 21.74430 24.30907 23.02668
#
# Velocity S-wave (km/s) = 3.29874 3.48786 3.39462
# Velocity P-wave (km/s) = 7.08571 7.25630 7.17151
#
# Compressibility (1/GPa) = 0.01401847
#
# Stress axis : x y z
#
# Youngs Moduli (GPa) = 69.91124 77.22654 64.62988
#
# Poissons Ratio (x) = 0.38627 0.41625
# Poissons Ratio (y) = 0.34968 0.18816
# Poissons Ratio (z) = 0.45026 0.22483
#
# Static dielectric constant tensor:
#      x y z
#    x 3.668920 0.000000 0.014470 
#    y 0.000000 3.507010 0.000000 
#    z 0.014470 0.000000 3.677340 
# 
# 
# High freq. dielectric constant tensor:
#      x y z
#    x 1.777460 0.000000 -0.000510 
#    y 0.000000 1.763740 0.000000 
#    z -0.000510 0.000000 1.787290 
# 
# From -- ./inp_files/353520.got.cif
#   From: 2010.06.25/outbox.cif.g09.slc.cpg/sg12_177_cif.got.tgz:353520.got - 2010.06.28 00:19:55.
