data_PCOD8102854
_publ_section_title
;
Structure prediction by ZEFSAII (Michael W. Deem and Ramdas Pophale) SiO2 
 PCOD8102854
Probable space group: C 2/M
;
_chemical_formula_sum "Si O2"
_cell_formula_units_Z 52
_cell_length_a 10.072981
_cell_length_b 25.807815
_cell_length_c 12.920739
_cell_angle_alpha 90.000000
_cell_angle_beta 53.787752
_cell_angle_gamma 90.000000
_cell_volume 2710.071935
_symmetry_space_group_name_H-M "C 2/M"
_symmetry_group_IT_number 12
_symmetry_cell_setting 'monoclinic'
loop_
_space_group_symop_operation_xyz
x,y,z
-x,y,-z
-x,-y,-z
x,-y,z
1/2+x,1/2+y,z
1/2-x,1/2+y,-z
1/2-x,1/2-y,-z
1/2+x,1/2-y,z
loop_
_atom_site_type_symbol
_atom_site_label
_atom_site_fract_x
_atom_site_fract_y
_atom_site_fract_z
Si Si1 0.659918 0.864430 0.620759
Si Si2 0.697595 0.682397 0.249919
Si Si3 0.107146 0.707865 0.351602
Si Si4 0.128550 0.058626 0.860056
Si Si5 0.633893 0.635662 0.674578
Si Si6 0.540856 0.059007 0.167377
Si Si7 0.500000 0.868391 0.000000
O O1 0.774484 0.829412 0.641543
O O2 0.493524 0.833009 0.671018
O O3 0.757553 0.880360 0.473794
O O4 0.615909 0.917510 0.700269
O O5 0.650821 0.742741 0.261088
O O6 0.549422 0.648820 0.274124
O O7 0.860160 0.669166 0.109665
O O8 0.280198 0.683696 0.307350
O O9 0.000000 0.725204 0.500000
O O10 0.124501 0.086642 0.752744
O O11 0.308491 0.061272 0.824207
O O12 0.072759 0.000000 0.863139
O O13 0.000000 0.084269 0.000000
O O14 0.501512 0.000000 0.152030
O O15 0.578829 0.094180 0.050110
#
# Coordination Sequence:
#
# PCOD8102854 Si02
#       7
#     8   8   8   8   8   8   4
#     4  10  21  37  58  89 119 145 196 238 284 348
#     4  11  22  38  58  84 118 157 192 237 286 334
#     4  10  20  37  59  85 117 153 192 233 286 344
#     4  10  21  37  58  83 113 151 195 237 282 341
#     4  11  21  37  61  87 115 154 190 239 289 338
#     4  10  20  38  61  83 113 153 190 235 291 342
#     4  10  23  40  58  84 118 152 195 234 282 352
#
# _framework density 19.187681999999999
#
# number of rings (size 3 to 8) (size 9 to 14) (size 15 to 20)
#    0.000    1.692    1.538    3.462    0.000    3.077 
#    1.385    8.462    0.000    4.615    0.000    0.000 
#    0.000    0.000    0.000    0.000    0.000    0.000 
#
# Total GULP energy -322499.389892 kJ/mol
# GULP energy per Si atom -12403.822688 kJ/mol
# Density = 1.914401 g / cm^3
# Si number density = 19.187682 Si / 1000 Ang^3
#
#
#
# Elastic Constant Matrix: (Units=GPa)
#
#
# Indices 1 2 3 4 5 6 
#
# 1 94.5009 21.0777 34.0611 0.0000 2.0357 0.0000
# 2 21.0777 95.4118 59.7178 0.0000 1.7155 0.0000
# 3 34.0611 59.7178 117.3511 0.0000 8.1783 0.0000
# 4 0.0000 0.0000 0.0000 30.8373 0.0000 2.8771
# 5 2.0357 1.7155 8.1783 0.0000 29.8461 0.0000
# 6 0.0000 0.0000 0.0000 2.8771 0.0000 25.4463
#
#
#
# Elastic Compliance Matrix: (Units=1/GPa)
#
#
# Indices 1 2 3 4 5 6 
#
# 1 0.011849 -0.000679 -0.003099 0.000000 0.000080 0.000000
# 2 -0.000679 0.015467 -0.007763 0.000000 0.001285 0.000000
# 3 -0.003099 -0.007763 0.013585 0.000000 -0.003065 0.000000
# 4 0.000000 0.000000 0.000000 0.032774 0.000000 -0.003706
# 5 0.000080 0.001285 -0.003065 0.000000 0.034266 0.000000
# 6 0.000000 0.000000 0.000000 -0.003706 0.000000 0.039717
#
#
# Mechanical properties :
#
#
# Convention : Reuss Voigt Hill
#
# Bulk Modulus (GPa) = 56.12411 59.66412 57.89412
# Shear Modulus (GPa) = 28.29982 30.05309 29.17645
#
# Velocity S-wave (km/s) = 3.84460 3.96191 3.90370
# Velocity P-wave (km/s) = 7.00154 7.21744 7.11031
#
# Compressibility (1/GPa) = 0.01781766
#
# Stress axis : x y z
#
# Youngs Moduli (GPa) = 84.39770 64.65489 73.61065
#
# Poissons Ratio (x) = 0.04392 0.22812
# Poissons Ratio (y) = 0.05733 0.57145
# Poissons Ratio (z) = 0.26154 0.50192
#
# Static dielectric constant tensor:
#      x y z
#    x 3.599440 0.000000 0.037960 
#    y 0.000000 3.459960 0.000000 
#    z 0.037960 0.000000 3.514530 
# 
# 
# High freq. dielectric constant tensor:
#      x y z
#    x 1.757810 0.000000 0.002120 
#    y 0.000000 1.741690 0.000000 
#    z 0.002120 0.000000 1.746340 
# 
# From -- ./inp_files/125135.got.cif
#   From: 2010.06.25/outbox.cif.g09.slc.cpg/sg12_63_cif.got.tgz:125135.got - 2010.06.28 00:19:55.
