data_PCOD8102404
_publ_section_title
;
Structure prediction by ZEFSAII (Michael W. Deem and Ramdas Pophale) SiO2 
 PCOD8102404
Probable space group: C 2/M
;
_chemical_formula_sum "Si O2"
_cell_formula_units_Z 40
_cell_length_a 15.188709
_cell_length_b 15.424133
_cell_length_c 14.396855
_cell_angle_alpha 90.000000
_cell_angle_beta 148.727190
_cell_angle_gamma 90.000000
_cell_volume 1750.860850
_symmetry_space_group_name_H-M "C 2/M"
_symmetry_group_IT_number 12
_symmetry_cell_setting 'monoclinic'
loop_
_space_group_symop_operation_xyz
x,y,z
-x,y,-z
-x,-y,-z
x,-y,z
1/2+x,1/2+y,z
1/2-x,1/2+y,-z
1/2-x,1/2-y,-z
1/2+x,1/2-y,z
loop_
_atom_site_type_symbol
_atom_site_label
_atom_site_fract_x
_atom_site_fract_y
_atom_site_fract_z
Si Si1 0.700420 0.407138 0.673620
Si Si2 0.775371 0.170901 0.119336
Si Si3 0.739260 0.401197 0.288423
Si Si4 0.135811 0.851061 0.997564
Si Si5 0.855726 0.244087 0.502965
O O1 0.500000 0.411435 0.500000
O O2 0.769268 0.500000 0.697744
O O3 0.777406 0.393969 0.846295
O O4 0.748039 0.327619 0.650214
O O5 0.633372 0.246247 0.988470
O O6 0.953823 0.216808 0.304059
O O7 0.786227 0.118040 0.031544
O O8 0.797138 0.500000 0.360403
O O9 0.746004 0.384706 0.183704
O O10 0.863813 0.334869 0.453627
O O11 0.552588 0.386839 0.161464
O O12 0.750000 0.250000 0.500000
#
# Coordination Sequence:
#
# PCOD8102404 Si02
#       5
#     8   8   8   8   8
#     4   9  19  35  59  86 111 145 193 243 289 342
#     4  10  20  36  63  88 117 156 196 244 302 348
#     4  11  23  39  61  88 120 161 202 243 295 357
#     4  10  20  37  59  89 118 155 196 240 299 358
#     4  11  21  39  59  87 120 158 198 244 291 352
#
# _framework density 22.845904999999998
#
# number of rings (size 3 to 8) (size 9 to 14) (size 15 to 20)
#    0.000    1.800    4.000    1.200    0.000    2.400 
#    0.000    3.000    0.000    3.600    0.000    0.000 
#    0.000    0.000    0.000    0.000    0.000    0.000 
#
# Total GULP energy -247888.886506 kJ/mol
# GULP energy per Si atom -12394.444325 kJ/mol
# Density = 2.279391 g / cm^3
# Si number density = 22.845905 Si / 1000 Ang^3
#
#
#
# Elastic Constant Matrix: (Units=GPa)
#
#
# Indices 1 2 3 4 5 6 
#
# 1 112.6496 58.4077 25.8801 -0.0003 -43.0117 -0.0001
# 2 58.4077 158.3819 27.4436 -0.0001 -27.8449 -0.0001
# 3 25.8801 27.4436 45.1954 -0.0006 -23.1478 -0.0010
# 4 -0.0003 -0.0001 -0.0006 13.6334 -0.0002 0.8512
# 5 -43.0117 -27.8449 -23.1478 -0.0002 41.8165 -0.0005
# 6 -0.0001 -0.0001 -0.0010 0.8512 -0.0005 18.2931
#
#
#
# Elastic Compliance Matrix: (Units=1/GPa)
#
#
# Indices 1 2 3 4 5 6 
#
# 1 0.016112 -0.003451 0.000252 0.000001 0.014414 0.000000
# 2 -0.003451 0.008126 -0.002798 0.000000 0.000312 0.000000
# 3 0.000252 -0.002798 0.031905 0.000002 0.016057 0.000002
# 4 0.000001 0.000000 0.000002 0.073563 0.000002 -0.003423
# 5 0.014414 0.000312 0.016057 0.000002 0.047836 0.000002
# 6 0.000000 0.000000 0.000002 -0.003423 0.000002 0.054825
#
#
# Mechanical properties :
#
#
# Convention : Reuss Voigt Hill
#
# Bulk Modulus (GPa) = 22.65100 59.96550 41.30825
# Shear Modulus (GPa) = 19.29910 28.38163 23.84037
#
# Velocity S-wave (km/s) = 2.90961 3.52846 3.23387
# Velocity P-wave (km/s) = 4.60695 6.55018 5.66255
#
# Compressibility (1/GPa) = 0.04414817
#
# Stress axis : x y z
#
# Youngs Moduli (GPa) = 62.06450 123.05570 31.34302
#
# Poissons Ratio (x) = 0.42471 -0.00789
# Poissons Ratio (y) = 0.21421 0.08771
# Poissons Ratio (z) = -0.01563 0.34434
#
# Static dielectric constant tensor:
#      x y z
#    x 4.240830 0.000010 -0.403910 
#    y 0.000010 4.542430 0.000010 
#    z -0.403910 0.000010 4.163670 
# 
# 
# High freq. dielectric constant tensor:
#      x y z
#    x 1.899260 0.000000 -0.024590 
#    y 0.000000 1.891800 0.000000 
#    z -0.024590 0.000000 1.888610 
# 
# From -- ./inp_files/59212.got.cif
#   From: 2010.06.25/outbox.cif.g09.slc.cpg/sg12_30_cif.got.tgz:59212.got - 2010.06.28 00:19:55.
