data_PCOD8102988
_publ_section_title
;
Structure prediction by ZEFSAII (Michael W. Deem and Ramdas Pophale) SiO2 
 PCOD8102988
Probable space group: C 2/M
;
_chemical_formula_sum "Si O2"
_cell_formula_units_Z 44
_cell_length_a 8.143251
_cell_length_b 21.561452
_cell_length_c 12.931438
_cell_angle_alpha 90.000000
_cell_angle_beta 108.126899
_cell_angle_gamma 90.000000
_cell_volume 2157.820235
_symmetry_space_group_name_H-M "C 2/M"
_symmetry_group_IT_number 12
_symmetry_cell_setting 'monoclinic'
loop_
_space_group_symop_operation_xyz
x,y,z
-x,y,-z
-x,-y,-z
x,-y,z
1/2+x,1/2+y,z
1/2-x,1/2+y,-z
1/2-x,1/2-y,-z
1/2+x,1/2-y,z
loop_
_atom_site_type_symbol
_atom_site_label
_atom_site_fract_x
_atom_site_fract_y
_atom_site_fract_z
Si Si1 0.065982 0.070465 0.800644
Si Si2 0.000000 0.858824 0.000000
Si Si3 0.851663 0.747024 0.718719
Si Si4 0.333805 0.179988 0.155398
Si Si5 0.030083 0.569704 0.120591
Si Si6 0.540142 0.335056 0.622788
O O1 0.268795 0.071979 0.817773
O O2 0.987046 0.110545 0.691653
O O3 0.012015 0.098652 0.900387
O O4 0.996654 0.000000 0.782357
O O5 0.176428 0.817568 0.040815
O O6 0.745041 0.802896 0.749027
O O7 0.740539 0.685481 0.673418
O O8 0.007991 0.728824 0.830182
O O9 0.926008 0.774031 0.626058
O O10 0.416915 0.111280 0.176489
O O11 0.956435 0.500000 0.115036
O O12 0.000000 0.596590 0.000000
O O13 0.500000 0.358503 0.500000
#
# Coordination Sequence:
#
# PCOD8102988 Si02
#       6
#     8   4   8   8   8   8
#     4  11  23  40  62  93 124 158 204 250 305 362
#     4  12  23  38  62  94 126 164 199 244 298 372
#     4  10  23  41  60  90 122 159 204 255 299 363
#     4  11  22  39  59  88 126 159 201 243 306 355
#     4  10  20  37  60  84 119 163 203 244 298 364
#     4  11  22  42  66  89 117 160 209 257 306 355
#
# _framework density 20.390947000000001
#
# number of rings (size 3 to 8) (size 9 to 14) (size 15 to 20)
#    0.000    1.273    5.455    0.818    0.000    1.818 
#    1.636    0.000    0.000    0.000    0.000    3.818 
#    0.000    0.000    0.000    0.000    0.000    0.000 
#
# Total GULP energy -272623.213325 kJ/mol
# GULP energy per Si atom -12391.964242 kJ/mol
# Density = 2.034454 g / cm^3
# Si number density = 20.390947 Si / 1000 Ang^3
#
#
#
# Elastic Constant Matrix: (Units=GPa)
#
#
# Indices 1 2 3 4 5 6 
#
# 1 92.8093 39.0414 37.3700 0.0000 2.1439 0.0000
# 2 39.0414 86.1801 60.6991 0.0000 -8.9986 0.0000
# 3 37.3700 60.6991 125.4847 0.0000 -10.6907 0.0000
# 4 0.0000 0.0000 0.0000 19.0905 0.0000 0.0112
# 5 2.1439 -8.9986 -10.6907 0.0000 22.5494 0.0000
# 6 0.0000 0.0000 0.0000 0.0112 0.0000 28.4591
#
#
#
# Elastic Compliance Matrix: (Units=1/GPa)
#
#
# Indices 1 2 3 4 5 6 
#
# 1 0.013924 -0.005433 -0.001892 0.000000 -0.004389 0.000000
# 2 -0.005433 0.019932 -0.007609 0.000000 0.004863 0.000000
# 3 -0.001892 -0.007609 0.012474 0.000000 0.003057 0.000000
# 4 0.000000 0.000000 0.000000 0.052382 0.000000 -0.000021
# 5 -0.004389 0.004863 0.003057 0.000000 0.048154 0.000000
# 6 0.000000 0.000000 0.000000 -0.000021 0.000000 0.035138
#
#
# Mechanical properties :
#
#
# Convention : Reuss Voigt Hill
#
# Bulk Modulus (GPa) = 60.75263 64.29947 62.52605
# Shear Modulus (GPa) = 23.00328 25.17737 24.09032
#
# Velocity S-wave (km/s) = 3.36238 3.51769 3.44091
# Velocity P-wave (km/s) = 6.70319 6.93546 6.82032
#
# Compressibility (1/GPa) = 0.01646019
#
# Stress axis : x y z
#
# Youngs Moduli (GPa) = 71.82019 50.17038 80.16805
#
# Poissons Ratio (x) = 0.27258 0.15171
# Poissons Ratio (y) = 0.39021 0.61001
# Poissons Ratio (z) = 0.13591 0.38175
#
# Static dielectric constant tensor:
#      x y z
#    x 3.982650 0.000000 0.169350 
#    y 0.000000 3.778530 0.000000 
#    z 0.169350 0.000000 3.378390 
# 
# 
# High freq. dielectric constant tensor:
#      x y z
#    x 1.812900 0.000000 0.003610 
#    y 0.000000 1.791880 0.000000 
#    z 0.003610 0.000000 1.757220 
# 
# From -- ./inp_files/120824.got.cif
#   From: 2010.06.25/outbox.cif.g09.slc.cpg/sg12_61_cif.got.tgz:120824.got - 2010.06.28 00:19:55.
