data_PCOD8102561
_publ_section_title
;
Structure prediction by ZEFSAII (Michael W. Deem and Ramdas Pophale) SiO2 
 PCOD8102561
Probable space group: C 2/M
;
_chemical_formula_sum "Si O2"
_cell_formula_units_Z 64
_cell_length_a 25.105473
_cell_length_b 14.270647
_cell_length_c 9.828394
_cell_angle_alpha 90.000000
_cell_angle_beta 74.832884
_cell_angle_gamma 90.000000
_cell_volume 3398.576194
_symmetry_space_group_name_H-M "C 2/M"
_symmetry_group_IT_number 12
_symmetry_cell_setting 'monoclinic'
loop_
_space_group_symop_operation_xyz
x,y,z
-x,y,-z
-x,-y,-z
x,-y,z
1/2+x,1/2+y,z
1/2-x,1/2+y,-z
1/2-x,1/2-y,-z
1/2+x,1/2-y,z
loop_
_atom_site_type_symbol
_atom_site_label
_atom_site_fract_x
_atom_site_fract_y
_atom_site_fract_z
Si Si1 0.336194 0.603294 0.205155
Si Si2 0.537479 0.106304 0.359070
Si Si3 0.948871 0.696970 0.930853
Si Si4 0.831849 0.387098 0.102910
Si Si5 0.656123 0.107232 0.401395
Si Si6 0.233155 0.608991 0.115173
Si Si7 0.693468 0.225195 0.613296
Si Si8 0.441884 0.400543 0.968324
O O1 0.317610 0.500000 0.269493
O O2 0.297840 0.630932 0.098999
O O3 0.332172 0.674832 0.331960
O O4 0.398880 0.603417 0.119718
O O5 0.500000 0.156482 0.500000
O O6 0.528290 0.147781 0.217415
O O7 0.600629 0.115691 0.354674
O O8 0.517387 0.000000 0.360612
O O9 0.935361 0.803893 0.890126
O O10 0.894388 0.649079 0.032984
O O11 0.000000 0.694038 0.000000
O O12 0.833058 0.500000 0.116945
O O13 0.804015 0.340765 0.254540
O O14 0.791512 0.349866 0.008429
O O15 0.702992 0.148324 0.270143
O O16 0.653251 0.171438 0.536499
O O17 0.667610 0.000000 0.438436
O O18 0.219511 0.500000 0.115486
O O19 0.750000 0.250000 0.500000
O O20 0.432841 0.500000 0.891490
O O21 0.500000 0.404282 0.000000
#
# Coordination Sequence:
#
# PCOD8102561 Si02
#       8
#     8   8   8   8   8   8   8   8
#     4  10  20  37  60  85 113 150 202 249 296 356
#     4  10  22  38  57  85 122 165 198 232 294 364
#     4  11  22  37  61  93 121 152 202 252 290 344
#     4  11  23  39  59  89 124 156 197 248 302 355
#     4  10  20  37  57  79 117 160 196 234 291 365
#     4   9  18  36  59  81 113 156 193 237 294 356
#     4  12  24  37  55  88 115 157 199 244 299 351
#     4   9  19  37  60  86 114 147 193 248 296 343
#
# _framework density 18.831416000000001
#
# number of rings (size 3 to 8) (size 9 to 14) (size 15 to 20)
#    0.000    1.750    3.750    0.750    1.750    2.000 
#    2.250    0.000    0.000    1.125    0.000    0.000 
#    0.000    0.000    0.000    0.000    0.000    0.000 
#
# Total GULP energy -396460.960205 kJ/mol
# GULP energy per Si atom -12389.405006 kJ/mol
# Density = 1.878855 g / cm^3
# Si number density = 18.831416 Si / 1000 Ang^3
#
#
#
# Elastic Constant Matrix: (Units=GPa)
#
#
# Indices 1 2 3 4 5 6 
#
# 1 87.3822 36.0487 46.1361 0.0000 -13.0878 0.0000
# 2 36.0487 113.6597 52.9572 0.0000 7.5308 0.0000
# 3 46.1361 52.9572 122.6874 0.0000 5.5433 0.0000
# 4 0.0000 0.0000 0.0000 21.8082 0.0000 -10.6731
# 5 -13.0878 7.5308 5.5433 0.0000 29.7956 0.0000
# 6 0.0000 0.0000 0.0000 -10.6731 0.0000 11.6471
#
#
#
# Elastic Compliance Matrix: (Units=1/GPa)
#
#
# Indices 1 2 3 4 5 6 
#
# 1 0.017146 -0.003580 -0.005328 0.000000 0.009428 0.000000
# 2 -0.003580 0.011870 -0.003601 0.000000 -0.003903 0.000000
# 3 -0.005328 -0.003601 0.011873 0.000000 -0.003639 0.000000
# 4 0.000000 0.000000 0.000000 0.083143 0.000000 0.076190
# 5 0.009428 -0.003903 -0.003639 0.000000 0.039367 0.000000
# 6 0.000000 0.000000 0.000000 0.076190 0.000000 0.155678
#
#
# Mechanical properties :
#
#
# Convention : Reuss Voigt Hill
#
# Bulk Modulus (GPa) = 63.00990 66.00149 64.50569
# Shear Modulus (GPa) = 14.31082 25.22265 19.76674
#
# Velocity S-wave (km/s) = 2.75970 3.66374 3.24337
# Velocity P-wave (km/s) = 6.60963 7.28162 6.95375
#
# Compressibility (1/GPa) = 0.01587052
#
# Stress axis : x y z
#
# Youngs Moduli (GPa) = 58.32166 84.24543 84.22253
#
# Poissons Ratio (x) = 0.30161 0.44877
# Poissons Ratio (y) = 0.20880 0.30329
# Poissons Ratio (z) = 0.31076 0.30337
#
# Static dielectric constant tensor:
#      x y z
#    x 3.509690 0.000000 -0.142860 
#    y 0.000000 3.996710 0.000000 
#    z -0.142860 0.000000 3.507800 
# 
# 
# High freq. dielectric constant tensor:
#      x y z
#    x 1.737570 0.000000 -0.011480 
#    y 0.000000 1.739840 0.000000 
#    z -0.011480 0.000000 1.712710 
# 
# From -- ./inp_files/104553.got.cif
#   From: 2010.06.25/outbox.cif.g09.slc.cpg/sg12_53_cif.got.tgz:104553.got - 2010.06.28 00:19:55.
