data_PCOD8102872
_publ_section_title
;
Structure prediction by ZEFSAII (Michael W. Deem and Ramdas Pophale) SiO2 
 PCOD8102872
Probable space group: C 2/M
;
_chemical_formula_sum "Si O2"
_cell_formula_units_Z 56
_cell_length_a 19.580039
_cell_length_b 16.886075
_cell_length_c 19.571127
_cell_angle_alpha 90.000000
_cell_angle_beta 156.518781
_cell_angle_gamma 90.000000
_cell_volume 2578.280933
_symmetry_space_group_name_H-M "C 2/M"
_symmetry_group_IT_number 12
_symmetry_cell_setting 'monoclinic'
loop_
_space_group_symop_operation_xyz
x,y,z
-x,y,-z
-x,-y,-z
x,-y,z
1/2+x,1/2+y,z
1/2-x,1/2+y,-z
1/2-x,1/2-y,-z
1/2+x,1/2-y,z
loop_
_atom_site_type_symbol
_atom_site_label
_atom_site_fract_x
_atom_site_fract_y
_atom_site_fract_z
Si Si1 0.957365 0.905612 0.886593
Si Si2 0.689476 0.410986 0.978353
Si Si3 0.062784 0.142834 0.726466
Si Si4 0.924831 0.593161 0.004323
Si Si5 0.702833 0.907681 0.374001
Si Si6 0.504575 0.822245 0.300506
Si Si7 0.908501 0.409260 0.487546
O O1 0.779053 0.872134 0.694859
O O2 0.097566 0.877243 0.961353
O O3 0.945088 0.000000 0.880321
O O4 0.000000 0.869449 0.000000
O O5 0.752027 0.500000 0.049522
O O6 0.571843 0.410097 0.803321
O O7 0.850928 0.355354 0.112505
O O8 0.016205 0.229900 0.709511
O O9 0.901486 0.109219 0.534356
O O10 0.243101 0.137992 0.850679
O O11 0.884770 0.500000 0.970546
O O12 0.072231 0.616531 0.193834
O O13 0.000000 0.618606 0.000000
O O14 0.672091 0.851351 0.412397
O O15 0.678365 0.000000 0.370302
O O16 0.493092 0.860525 0.364832
O O17 0.903064 0.500000 0.506509
O O18 0.000000 0.399755 0.500000
#
# Coordination Sequence:
#
# PCOD8102872 Si02
#       7
#     8   8   8   8   8   8   8
#     4   9  18  33  56  87 118 157 212 269 320 373
#     4  11  21  37  64  90 122 169 221 270 323 396
#     4  12  25  43  65  98 140 171 218 281 345 399
#     4  10  23  46  73 100 128 170 230 286 335 397
#     4  11  23  42  72 100 129 175 225 274 329 400
#     4  12  24  40  62  96 136 172 214 269 337 400
#     4  10  20  37  59  86 124 169 222 272 316 388
#
# _framework density 21.719899000000002
#
# number of rings (size 3 to 8) (size 9 to 14) (size 15 to 20)
#    0.000    1.286    1.429    5.143    0.000    4.000 
#    2.571    2.857    0.000    0.000    0.000    0.000 
#    0.000    0.000    0.000    0.000    0.000    0.000 
#
# Total GULP energy -347162.161847 kJ/mol
# GULP energy per Si atom -12398.648637 kJ/mol
# Density = 2.167046 g / cm^3
# Si number density = 21.719899 Si / 1000 Ang^3
#
#
#
# Elastic Constant Matrix: (Units=GPa)
#
#
# Indices 1 2 3 4 5 6 
#
# 1 118.5268 29.5945 45.7481 -0.0165 5.9356 -0.0245
# 2 29.5945 75.1735 33.6233 0.0974 8.1462 0.1053
# 3 45.7481 33.6233 139.2497 0.0164 14.1435 0.0320
# 4 -0.0165 0.0974 0.0164 4.6565 0.0129 -26.5006
# 5 5.9356 8.1462 14.1435 0.0129 32.2850 0.0182
# 6 -0.0245 0.1053 0.0320 -26.5006 0.0182 -23.3932
#
#
#
# Elastic Compliance Matrix: (Units=1/GPa)
#
#
# Indices 1 2 3 4 5 6 
#
# 1 0.010166 -0.002812 -0.002661 -0.000007 0.000007 -0.000019
# 2 -0.002812 0.015854 -0.002669 0.000009 -0.002314 0.000059
# 3 -0.002661 -0.002669 0.008982 0.000004 -0.002772 -0.000003
# 4 -0.000007 0.000009 0.000004 0.028837 0.000004 -0.032668
# 5 0.000007 -0.002314 -0.002772 0.000004 0.032771 0.000006
# 6 -0.000019 0.000059 -0.000003 -0.032668 0.000006 -0.005740
#
#
# Mechanical properties :
#
#
# Convention : Reuss Voigt Hill
#
# Bulk Modulus (GPa) = 53.43041 61.20909 57.31975
# Shear Modulus (GPa) = 44.09347 17.64193 30.86770
#
# Velocity S-wave (km/s) = 4.51055 2.85309 3.77393
# Velocity P-wave (km/s) = 7.19582 6.25266 6.74076
#
# Compressibility (1/GPa) = 0.01871593
#
# Stress axis : x y z
#
# Youngs Moduli (GPa) = 98.36653 63.07435 111.33673
#
# Poissons Ratio (x) = 0.17739 0.29632
# Poissons Ratio (y) = 0.27665 0.29718
# Poissons Ratio (z) = 0.26180 0.16836
#
# Static dielectric constant tensor:
#      x y z
#    x 3.931540 -0.000100 0.118320 
#    y -0.000100 3.648150 -0.000290 
#    z 0.118320 -0.000290 4.238420 
# 
# 
# High freq. dielectric constant tensor:
#      x y z
#    x 1.851600 0.000000 0.004120 
#    y 0.000000 1.826240 -0.000010 
#    z 0.004120 -0.000010 1.869830 
# 
# From -- ./inp_files/322726.got.cif
#   From: 2010.06.25/outbox.cif.g09.slc.cpg/sg12_162_cif.got.tgz:322726.got - 2010.06.28 00:19:55.
