data_PCOD8102948
_publ_section_title
;
Structure prediction by ZEFSAII (Michael W. Deem and Ramdas Pophale) SiO2 
 PCOD8102948
Probable space group: C 2/M
;
_chemical_formula_sum "Si O2"
_cell_formula_units_Z 56
_cell_length_a 18.584293
_cell_length_b 9.219244
_cell_length_c 26.941892
_cell_angle_alpha 90.000000
_cell_angle_beta 38.920346
_cell_angle_gamma 90.000000
_cell_volume 2899.977291
_symmetry_space_group_name_H-M "C 2/M"
_symmetry_group_IT_number 12
_symmetry_cell_setting 'monoclinic'
loop_
_space_group_symop_operation_xyz
x,y,z
-x,y,-z
-x,-y,-z
x,-y,z
1/2+x,1/2+y,z
1/2-x,1/2+y,-z
1/2-x,1/2-y,-z
1/2+x,1/2-y,z
loop_
_atom_site_type_symbol
_atom_site_label
_atom_site_fract_x
_atom_site_fract_y
_atom_site_fract_z
Si Si1 0.093536 0.331971 0.796621
Si Si2 0.665971 0.831703 0.649231
Si Si3 0.852639 0.661588 0.966117
Si Si4 0.259596 0.827402 0.777825
Si Si5 0.128489 0.663166 0.930439
Si Si6 0.019472 0.328214 0.635024
Si Si7 0.400134 0.828272 0.515770
O O1 0.112582 0.500000 0.800432
O O2 0.089165 0.309979 0.739677
O O3 0.197437 0.239796 0.763429
O O4 0.975807 0.272529 0.884296
O O5 0.595655 0.767681 0.639898
O O6 0.782910 0.745859 0.594922
O O7 0.695690 0.000000 0.624802
O O8 0.847885 0.500000 0.946533
O O9 0.750000 0.750000 0.000000
O O10 0.827586 0.661814 0.037556
O O11 0.204189 0.772794 0.858377
O O12 0.390020 0.771115 0.708381
O O13 0.251562 0.000000 0.778900
O O14 0.132029 0.500000 0.905450
O O15 0.000000 0.722974 0.000000
O O16 0.018589 0.500000 0.637996
O O17 0.070908 0.274093 0.555280
O O18 0.500000 0.779486 0.500000
O O19 0.383531 0.000000 0.526871
#
# Coordination Sequence:
#
# PCOD8102948 Si02
#       7
#     8   8   8   8   8   8   8
#     4  10  21  39  58  78 112 155 187 226 288 342
#     4  10  21  37  59  83 111 147 189 230 271 331
#     4  10  22  38  58  81 111 151 190 233 283 338
#     4  11  22  36  60  87 112 144 191 240 277 329
#     4  10  20  39  60  79 112 153 189 229 286 342
#     4   9  20  37  56  83 115 148 182 226 285 336
#     4  10  20  37  60  83 114 150 181 223 283 336
#
# _framework density 19.310497000000002
#
# number of rings (size 3 to 8) (size 9 to 14) (size 15 to 20)
#    0.000    2.000    1.429    1.714    2.000    3.429 
#    0.000    2.857    0.000    0.000    0.000    0.000 
#    0.000    0.000    0.000    0.000    0.000    0.000 
#
# Total GULP energy -347235.334609 kJ/mol
# GULP energy per Si atom -12401.261950 kJ/mol
# Density = 1.926655 g / cm^3
# Si number density = 19.310497 Si / 1000 Ang^3
#
#
#
# Elastic Constant Matrix: (Units=GPa)
#
#
# Indices 1 2 3 4 5 6 
#
# 1 138.2246 36.2909 47.2929 0.0000 -1.5696 -0.0001
# 2 36.2909 49.3129 29.4783 0.0000 -5.8443 -0.0003
# 3 47.2929 29.4783 98.2056 0.0000 3.2826 0.0000
# 4 0.0000 0.0000 0.0000 27.7388 0.0000 -3.8305
# 5 -1.5696 -5.8443 3.2826 0.0000 40.3543 0.0000
# 6 -0.0001 -0.0003 0.0000 -3.8305 0.0000 28.6795
#
#
#
# Elastic Compliance Matrix: (Units=1/GPa)
#
#
# Indices 1 2 3 4 5 6 
#
# 1 0.009673 -0.005306 -0.003061 0.000000 -0.000143 0.000000
# 2 -0.005306 0.028352 -0.006102 0.000000 0.004396 0.000000
# 3 -0.003061 -0.006102 0.013559 0.000000 -0.002106 0.000000
# 4 0.000000 0.000000 0.000000 0.036728 0.000000 0.004905
# 5 -0.000143 0.004396 -0.002106 0.000000 0.025583 0.000000
# 6 0.000000 0.000000 0.000000 0.004905 0.000000 0.035523
#
#
# Mechanical properties :
#
#
# Convention : Reuss Voigt Hill
#
# Bulk Modulus (GPa) = 44.15759 56.87414 50.51586
# Shear Modulus (GPa) = 26.89533 30.86659 28.88096
#
# Velocity S-wave (km/s) = 3.73605 4.00238 3.87151
# Velocity P-wave (km/s) = 6.44419 7.13268 6.79716
#
# Compressibility (1/GPa) = 0.02264616
#
# Stress axis : x y z
#
# Youngs Moduli (GPa) = 103.37655 35.27039 73.75274
#
# Poissons Ratio (x) = 0.18715 0.22575
# Poissons Ratio (y) = 0.54853 0.45005
# Poissons Ratio (z) = 0.31642 0.21523
#
# Static dielectric constant tensor:
#      x y z
#    x 3.515790 0.000000 -0.177330 
#    y 0.000000 3.314530 0.000000 
#    z -0.177330 0.000000 3.243340 
# 
# 
# High freq. dielectric constant tensor:
#      x y z
#    x 1.764030 0.000000 0.005650 
#    y 0.000000 1.726870 0.000000 
#    z 0.005650 0.000000 1.762180 
# 
# From -- ./inp_files/362920.got.cif
#   From: 2010.06.25/outbox.cif.g09.slc.cpg/sg12_182_cif.got.tgz:362920.got - 2010.06.28 00:19:55.
