data_PCOD8102310
_publ_section_title
;
Structure prediction by ZEFSAII (Michael W. Deem and Ramdas Pophale) SiO2 
 PCOD8102310
Probable space group: C 2/M
;
_chemical_formula_sum "Si O2"
_cell_formula_units_Z 48
_cell_length_a 18.813072
_cell_length_b 19.122614
_cell_length_c 11.522534
_cell_angle_alpha 90.000000
_cell_angle_beta 145.137799
_cell_angle_gamma 90.000000
_cell_volume 2369.467472
_symmetry_space_group_name_H-M "C 2/M"
_symmetry_group_IT_number 12
_symmetry_cell_setting 'monoclinic'
loop_
_space_group_symop_operation_xyz
x,y,z
-x,y,-z
-x,-y,-z
x,-y,z
1/2+x,1/2+y,z
1/2-x,1/2+y,-z
1/2-x,1/2-y,-z
1/2+x,1/2-y,z
loop_
_atom_site_type_symbol
_atom_site_label
_atom_site_fract_x
_atom_site_fract_y
_atom_site_fract_z
Si Si1 0.857212 0.324310 0.318472
Si Si2 0.477550 0.789253 0.099771
Si Si3 0.199259 0.171993 0.749314
Si Si4 0.937740 0.149711 0.676200
Si Si5 0.216382 0.675509 0.514171
Si Si6 0.674851 0.419472 0.931035
O O1 0.844928 0.245529 0.253519
O O2 0.795796 0.323408 0.364032
O O3 0.000000 0.348255 0.500000
O O4 0.782833 0.378399 0.141196
O O5 0.488702 0.721826 0.197839
O O6 0.583054 0.845958 0.280401
O O7 0.500000 0.762277 0.000000
O O8 0.347473 0.828197 0.934564
O O9 0.131436 0.159089 0.537974
O O10 0.160424 0.109648 0.781830
O O11 0.832942 0.127235 0.631639
O O12 0.040651 0.089044 0.812678
O O13 0.250000 0.750000 0.500000
O O14 0.712731 0.500000 0.979059
#
# Coordination Sequence:
#
# PCOD8102310 Si02
#       6
#     8   8   8   8   8   8
#     4  12  23  42  70 102 130 165 223 281 330 387
#     4  11  19  35  64 105 131 156 203 277 340 382
#     4  12  22  40  67  99 133 166 220 278 326 385
#     4  11  22  38  64  97 134 164 213 271 331 383
#     4  10  20  36  62 104 135 159 202 277 339 379
#     4  12  29  44  62  91 136 188 221 260 327 402
#
# _framework density 20.257717
#
# number of rings (size 3 to 8) (size 9 to 14) (size 15 to 20)
#    0.000    0.667    6.667    4.000    0.000    1.667 
#    0.000    1.667    0.000    1.500    0.000    0.000 
#    0.000    0.000    0.000    0.000    0.000    0.000 
#
# Total GULP energy -297529.459203 kJ/mol
# GULP energy per Si atom -12397.060800 kJ/mol
# Density = 2.021161 g / cm^3
# Si number density = 20.257717 Si / 1000 Ang^3
#
#
#
# Elastic Constant Matrix: (Units=GPa)
#
#
# Indices 1 2 3 4 5 6 
#
# 1 115.1747 27.4757 26.0592 0.0000 3.3084 0.0000
# 2 27.4757 77.4728 20.5731 0.0000 1.9234 0.0000
# 3 26.0592 20.5731 86.1590 0.0000 15.7885 0.0000
# 4 0.0000 0.0000 0.0000 4.5074 0.0000 7.0854
# 5 3.3084 1.9234 15.7885 0.0000 46.4123 0.0000
# 6 0.0000 0.0000 0.0000 7.0854 0.0000 14.4104
#
#
#
# Elastic Compliance Matrix: (Units=1/GPa)
#
#
# Indices 1 2 3 4 5 6 
#
# 1 0.009896 -0.002893 -0.002341 0.000000 0.000211 0.000000
# 2 -0.002893 0.014642 -0.002717 0.000000 0.000524 0.000000
# 3 -0.002341 -0.002717 0.013771 0.000000 -0.004405 0.000000
# 4 0.000000 0.000000 0.000000 0.976904 0.000000 -0.480326
# 5 0.000211 0.000524 -0.004405 0.000000 0.023008 0.000000
# 6 0.000000 0.000000 0.000000 -0.480326 0.000000 0.305561
#
#
# Mechanical properties :
#
#
# Convention : Reuss Voigt Hill
#
# Bulk Modulus (GPa) = 44.63034 47.44695 46.03864
# Shear Modulus (GPa) = 3.65723 26.71258 15.18491
#
# Velocity S-wave (km/s) = 1.34509 3.63524 2.74083
# Velocity P-wave (km/s) = 4.94889 6.41034 5.72643
#
# Compressibility (1/GPa) = 0.02240628
#
# Stress axis : x y z
#
# Youngs Moduli (GPa) = 101.04800 68.29471 72.61899
#
# Poissons Ratio (x) = 0.19760 0.17000
# Poissons Ratio (y) = 0.29236 0.19732
# Poissons Ratio (z) = 0.23655 0.18557
#
# Static dielectric constant tensor:
#      x y z
#    x 4.241280 0.000000 0.344120 
#    y 0.000000 3.162840 0.000000 
#    z 0.344120 0.000000 4.250360 
# 
# 
# High freq. dielectric constant tensor:
#      x y z
#    x 1.813200 0.000000 0.009590 
#    y 0.000000 1.713650 0.000000 
#    z 0.009590 0.000000 1.824800 
# 
# From -- ./inp_files/169720.got.cif
#   From: 2010.06.25/outbox.cif.g09.slc.cpg/sg12_85_cif.got.tgz:169720.got - 2010.06.28 00:19:55.
