data_PCOD8102725
_publ_section_title
;
Structure prediction by ZEFSAII (Michael W. Deem and Ramdas Pophale) SiO2 
 PCOD8102725
Probable space group: C 2/M
;
_chemical_formula_sum "Si O2"
_cell_formula_units_Z 56
_cell_length_a 14.896952
_cell_length_b 22.032147
_cell_length_c 9.275171
_cell_angle_alpha 90.000000
_cell_angle_beta 67.240119
_cell_angle_gamma 90.000000
_cell_volume 2807.180415
_symmetry_space_group_name_H-M "C 2/M"
_symmetry_group_IT_number 12
_symmetry_cell_setting 'monoclinic'
loop_
_space_group_symop_operation_xyz
x,y,z
-x,y,-z
-x,-y,-z
x,-y,z
1/2+x,1/2+y,z
1/2-x,1/2+y,-z
1/2-x,1/2-y,-z
1/2+x,1/2-y,z
loop_
_atom_site_type_symbol
_atom_site_label
_atom_site_fract_x
_atom_site_fract_y
_atom_site_fract_z
Si Si1 0.892041 0.742133 0.807596
Si Si2 0.712009 0.428822 0.105866
Si Si3 0.610659 0.645933 0.392324
Si Si4 0.192236 0.823334 0.912316
Si Si5 0.235669 0.184059 0.568502
Si Si6 0.907306 0.429012 0.145956
Si Si7 0.946503 0.649489 0.394457
O O1 0.871570 0.788607 0.690558
O O2 0.802125 0.696953 0.876871
O O3 0.993533 0.706004 0.715160
O O4 0.890097 0.781659 0.957572
O O5 0.708191 0.500000 0.073046
O O6 0.632738 0.410434 0.274018
O O7 0.814783 0.407739 0.110952
O O8 0.689047 0.392573 0.972889
O O9 0.500000 0.638136 0.500000
O O10 0.680092 0.641571 0.488561
O O11 0.171781 0.820190 0.754477
O O12 0.250000 0.250000 0.500000
O O13 0.345861 0.166413 0.532683
O O14 0.903554 0.500000 0.175666
O O15 0.917275 0.399403 0.295050
O O16 0.000000 0.407579 0.000000
O O17 0.000000 0.620633 0.500000
#
# Coordination Sequence:
#
# PCOD8102725 Si02
#       7
#     8   8   8   8   8   8   8
#     4  10  20  37  58  86 126 163 201 248 309 388
#     4  10  22  43  64  88 125 171 219 262 301 371
#     4  11  22  41  64  91 122 162 212 263 319 377
#     4  10  21  37  61  88 123 163 207 253 313 365
#     4  12  22  37  61  91 128 160 197 261 324 377
#     4  10  22  39  60  87 123 169 215 249 302 374
#     4  12  22  36  59  93 127 163 201 253 316 377
#
# _framework density 19.948841999999999
#
# number of rings (size 3 to 8) (size 9 to 14) (size 15 to 20)
#    0.000    1.286    4.286    2.143    0.000    1.714 
#    0.000    8.571    0.000    0.857    0.000    0.000 
#    0.000    0.000    0.000    0.000    0.000    0.000 
#
# Total GULP energy -347041.794238 kJ/mol
# GULP energy per Si atom -12394.349794 kJ/mol
# Density = 1.990344 g / cm^3
# Si number density = 19.948842 Si / 1000 Ang^3
#
#
#
# Elastic Constant Matrix: (Units=GPa)
#
#
# Indices 1 2 3 4 5 6 
#
# 1 59.4283 10.7764 27.9792 0.0000 -1.6667 0.0000
# 2 10.7764 61.2970 39.3579 0.0000 5.6372 0.0000
# 3 27.9792 39.3579 134.7845 0.0000 11.8800 0.0000
# 4 0.0000 0.0000 0.0000 13.8135 0.0000 12.1337
# 5 -1.6667 5.6372 11.8800 0.0000 35.0735 0.0000
# 6 0.0000 0.0000 0.0000 12.1337 0.0000 -1.0857
#
#
#
# Elastic Compliance Matrix: (Units=1/GPa)
#
#
# Indices 1 2 3 4 5 6 
#
# 1 0.018885 -0.001091 -0.003810 0.000000 0.002363 0.000000
# 2 -0.001091 0.020198 -0.005546 0.000000 -0.001420 0.000000
# 3 -0.003810 -0.005546 0.010068 0.000000 -0.002700 0.000000
# 4 0.000000 0.000000 0.000000 0.006693 0.000000 0.074796
# 5 0.002363 -0.001420 -0.002700 0.000000 0.029766 0.000000
# 6 0.000000 0.000000 0.000000 0.074796 0.000000 -0.085151
#
#
# Mechanical properties :
#
#
# Convention : Reuss Voigt Hill
#
# Bulk Modulus (GPa) = 35.39127 45.74853 40.56990
# Shear Modulus (GPa) = 162.49055 21.38668 91.93862
#
# Velocity S-wave (km/s) = 9.03496 3.27781 6.79612
# Velocity P-wave (km/s) = 11.25256 6.10804 9.05340
#
# Compressibility (1/GPa) = 0.02825555
#
# Stress axis : x y z
#
# Youngs Moduli (GPa) = 52.95247 49.51105 99.32856
#
# Poissons Ratio (x) = 0.05402 0.37843
# Poissons Ratio (y) = 0.05778 0.55089
# Poissons Ratio (z) = 0.20174 0.27460
#
# Static dielectric constant tensor:
#      x y z
#    x 3.395190 0.000000 -0.014130 
#    y 0.000000 3.366290 0.000000 
#    z -0.014130 0.000000 3.896490 
# 
# 
# High freq. dielectric constant tensor:
#      x y z
#    x 1.771230 0.000000 -0.004090 
#    y 0.000000 1.756240 0.000000 
#    z -0.004090 0.000000 1.797900 
# 
# From -- ./inp_files/65306.got.cif
#   From: 2010.06.25/outbox.cif.g09.slc.cpg/sg12_33_cif.got.tgz:65306.got - 2010.06.28 00:19:55.
