data_PCOD8102407
_publ_section_title
;
Structure prediction by ZEFSAII (Michael W. Deem and Ramdas Pophale) SiO2 
 PCOD8102407
Probable space group: C 2/M
;
_chemical_formula_sum "Si O2"
_cell_formula_units_Z 32
_cell_length_a 16.402391
_cell_length_b 11.767113
_cell_length_c 8.853106
_cell_angle_alpha 90.000000
_cell_angle_beta 123.203522
_cell_angle_gamma 90.000000
_cell_volume 1429.744478
_symmetry_space_group_name_H-M "C 2/M"
_symmetry_group_IT_number 12
_symmetry_cell_setting 'monoclinic'
loop_
_space_group_symop_operation_xyz
x,y,z
-x,y,-z
-x,-y,-z
x,-y,z
1/2+x,1/2+y,z
1/2-x,1/2+y,-z
1/2-x,1/2-y,-z
1/2+x,1/2-y,z
loop_
_atom_site_type_symbol
_atom_site_label
_atom_site_fract_x
_atom_site_fract_y
_atom_site_fract_z
Si Si1 0.083801 0.500000 0.860103
Si Si2 0.983665 0.868282 0.818412
Si Si3 0.131100 0.500000 0.259394
Si Si4 0.688808 0.626013 0.564923
Si Si5 0.908861 0.721176 0.305139
O O1 0.127939 0.608661 0.818308
O O2 0.965053 0.500000 0.735982
O O3 0.113708 0.500000 0.063326
O O4 0.873997 0.844021 0.647946
O O5 0.061673 0.814447 0.786379
O O6 0.008662 0.000000 0.852528
O O7 0.000000 0.812024 0.000000
O O8 0.196356 0.613196 0.364118
O O9 0.653948 0.500000 0.589639
O O10 0.676044 0.722323 0.679749
O O11 0.000000 0.686289 0.500000
#
# Coordination Sequence:
#
# PCOD8102407 Si02
#       5
#     4   8   4   8   8
#     4  11  23  38  62  84 121 170 200 230 297 372
#     4   9  17  31  61  94 118 148 198 250 301 347
#     4   9  22  40  60  86 120 163 198 246 296 350
#     4   8  17  38  63  89 118 150 201 252 296 338
#     4  10  20  36  63  89 115 160 198 244 295 363
#
# _framework density 22.381622
#
# number of rings (size 3 to 8) (size 9 to 14) (size 15 to 20)
#    0.750    2.000    0.000    1.125    3.500    4.000 
#    0.000    5.000   11.000    0.000    3.250    0.000 
#    0.000    0.000    0.000    0.000    0.000    0.000 
#
# Total GULP energy -198259.528890 kJ/mol
# GULP energy per Si atom -12391.220556 kJ/mol
# Density = 2.233068 g / cm^3
# Si number density = 22.381622 Si / 1000 Ang^3
#
#
#
# Elastic Constant Matrix: (Units=GPa)
#
#
# Indices 1 2 3 4 5 6 
#
# 1 69.4613 29.6166 36.1451 0.0000 6.8418 0.0000
# 2 29.6166 84.5302 35.7741 0.0000 -8.1029 0.0000
# 3 36.1451 35.7741 108.7565 0.0000 -13.9267 0.0000
# 4 0.0000 0.0000 0.0000 49.4851 0.0000 -1.4063
# 5 6.8418 -8.1029 -13.9267 0.0000 30.3440 0.0000
# 6 0.0000 0.0000 0.0000 -1.4063 0.0000 26.5029
#
#
#
# Elastic Compliance Matrix: (Units=1/GPa)
#
#
# Indices 1 2 3 4 5 6 
#
# 1 0.020931 -0.005539 -0.006298 0.000000 -0.009089 0.000000
# 2 -0.005539 0.015292 -0.002663 0.000000 0.004110 0.000000
# 3 -0.006298 -0.002663 0.013020 0.000000 0.006685 0.000000
# 4 0.000000 0.000000 0.000000 0.020239 0.000000 0.001074
# 5 -0.009089 0.004110 0.006685 0.000000 0.039170 0.000000
# 6 0.000000 0.000000 0.000000 0.001074 0.000000 0.037789
#
#
# Mechanical properties :
#
#
# Convention : Reuss Voigt Hill
#
# Bulk Modulus (GPa) = 49.40175 51.75772 50.57973
# Shear Modulus (GPa) = 27.44413 32.01387 29.72900
#
# Velocity S-wave (km/s) = 3.50550 3.78612 3.64851
# Velocity P-wave (km/s) = 6.20525 6.50294 6.35584
#
# Compressibility (1/GPa) = 0.02024220
#
# Stress axis : x y z
#
# Youngs Moduli (GPa) = 47.77613 65.39456 76.80536
#
# Poissons Ratio (x) = 0.36224 0.48374
# Poissons Ratio (y) = 0.26465 0.20451
# Poissons Ratio (z) = 0.30090 0.17413
#
# Static dielectric constant tensor:
#      x y z
#    x 3.668080 0.000000 -0.037460 
#    y 0.000000 3.920190 0.000000 
#    z -0.037460 0.000000 4.229110 
# 
# 
# High freq. dielectric constant tensor:
#      x y z
#    x 1.845690 0.000000 -0.006990 
#    y 0.000000 1.883790 0.000000 
#    z -0.006990 0.000000 1.886190 
# 
# From -- ./inp_files/71033.got.cif
#   From: 2010.06.25/outbox.cif.g09.slc.cpg/sg12_36_cif.got.tgz:71033.got - 2010.06.28 00:19:55.
