data_PCOD8102949
_publ_section_title
;
Structure prediction by ZEFSAII (Michael W. Deem and Ramdas Pophale) SiO2 
 PCOD8102949
Probable space group: C 2/M
;
_chemical_formula_sum "Si O2"
_cell_formula_units_Z 56
_cell_length_a 15.359892
_cell_length_b 7.977207
_cell_length_c 25.575810
_cell_angle_alpha 90.000000
_cell_angle_beta 116.529362
_cell_angle_gamma 90.000000
_cell_volume 2803.809924
_symmetry_space_group_name_H-M "C 2/M"
_symmetry_group_IT_number 12
_symmetry_cell_setting 'monoclinic'
loop_
_space_group_symop_operation_xyz
x,y,z
-x,y,-z
-x,-y,-z
x,-y,z
1/2+x,1/2+y,z
1/2-x,1/2+y,-z
1/2-x,1/2-y,-z
1/2+x,1/2-y,z
loop_
_atom_site_type_symbol
_atom_site_label
_atom_site_fract_x
_atom_site_fract_y
_atom_site_fract_z
Si Si1 0.047866 0.500000 0.931938
Si Si2 0.970109 0.683294 0.172222
Si Si3 0.219580 0.809299 0.637895
Si Si4 0.844954 0.500000 0.936216
Si Si5 0.323309 0.312077 0.764473
Si Si6 0.676672 0.197755 0.435598
Si Si7 0.241167 0.699057 0.854648
Si Si8 0.989020 0.693929 0.439275
O O1 0.055352 0.665540 0.896780
O O2 0.945136 0.500000 0.932461
O O3 0.136073 0.500000 0.996532
O O4 0.003331 0.500000 0.202356
O O5 0.873817 0.741438 0.177183
O O6 0.059264 0.808181 0.205639
O O7 0.276019 0.802550 0.707661
O O8 0.286195 0.727633 0.609904
O O9 0.117072 0.714859 0.613923
O O10 0.195310 0.000000 0.617796
O O11 0.788817 0.326583 0.908830
O O12 0.288787 0.500000 0.744293
O O13 0.285173 0.251932 0.810444
O O14 0.750000 0.250000 0.500000
O O15 0.570169 0.272240 0.421838
O O16 0.671335 0.000000 0.428590
O O17 0.258868 0.500000 0.873395
O O18 0.014206 0.500000 0.451904
O O19 0.000000 0.777412 0.500000
#
# Coordination Sequence:
#
# PCOD8102949 Si02
#       8
#     4   8   8   4   8   8   8   8
#     4   9  20  38  64  91 125 165 201 248 311 355
#     4   9  19  40  60  85 123 160 196 250 303 351
#     4  11  24  38  58  87 116 152 193 249 298 352
#     4  11  20  38  66  93 125 167 207 249 305 372
#     4  11  23  40  61  85 117 158 210 250 297 362
#     4  10  21  37  58  84 114 150 185 231 297 354
#     4  10  22  39  62  90 124 166 205 254 310 360
#     4  10  20  37  60  83 114 151 186 232 292 358
#
# _framework density 19.972823000000002
#
# number of rings (size 3 to 8) (size 9 to 14) (size 15 to 20)
#    0.429    1.429    2.857    0.857    2.000    3.143 
#    0.000    7.857    0.000    0.000    0.000    0.000 
#    0.000    0.000    0.000    0.000    0.000    0.000 
#
# Total GULP energy -347053.696495 kJ/mol
# GULP energy per Si atom -12394.774875 kJ/mol
# Density = 1.992736 g / cm^3
# Si number density = 19.972823 Si / 1000 Ang^3
#
#
#
# Elastic Constant Matrix: (Units=GPa)
#
#
# Indices 1 2 3 4 5 6 
#
# 1 156.0422 18.5441 46.9783 0.0000 18.6643 0.0000
# 2 18.5441 39.3151 21.3994 0.0000 2.1286 0.0000
# 3 46.9783 21.3994 112.0094 0.0000 12.6284 0.0000
# 4 0.0000 0.0000 0.0000 27.1725 0.0000 5.2870
# 5 18.6643 2.1286 12.6284 0.0000 18.0871 0.0000
# 6 0.0000 0.0000 0.0000 5.2870 0.0000 23.7526
#
#
#
# Elastic Compliance Matrix: (Units=1/GPa)
#
#
# Indices 1 2 3 4 5 6 
#
# 1 0.008137 -0.002263 -0.002240 0.000000 -0.006567 0.000000
# 2 -0.002263 0.029021 -0.004856 0.000000 0.002310 0.000000
# 3 -0.002240 -0.004856 0.011365 0.000000 -0.005052 0.000000
# 4 0.000000 0.000000 0.000000 0.038468 0.000000 -0.008562
# 5 -0.006567 0.002310 -0.005052 0.000000 0.065319 0.000000
# 6 0.000000 0.000000 0.000000 -0.008562 0.000000 0.044007
#
#
# Mechanical properties :
#
#
# Convention : Reuss Voigt Hill
#
# Bulk Modulus (GPa) = 33.55188 53.46782 43.50985
# Shear Modulus (GPa) = 22.22518 28.49876 25.36197
#
# Velocity S-wave (km/s) = 3.33944 3.78150 3.56732
# Velocity P-wave (km/s) = 5.63067 6.77457 6.22893
#
# Compressibility (1/GPa) = 0.02980459
#
# Stress axis : x y z
#
# Youngs Moduli (GPa) = 122.88999 34.45781 87.99253
#
# Poissons Ratio (x) = 0.07799 0.19712
# Poissons Ratio (y) = 0.27814 0.42726
# Poissons Ratio (z) = 0.27529 0.16732
#
# Static dielectric constant tensor:
#      x y z
#    x 3.966780 0.000000 -0.169980 
#    y 0.000000 3.400890 0.000000 
#    z -0.169980 0.000000 3.421790 
# 
# 
# High freq. dielectric constant tensor:
#      x y z
#    x 1.798470 0.000000 -0.002070 
#    y 0.000000 1.760470 0.000000 
#    z -0.002070 0.000000 1.762050 
# 
# From -- ./inp_files/360046.got.cif
#   From: 2010.06.25/outbox.cif.g09.slc.cpg/sg12_181_cif.got.tgz:360046.got - 2010.06.28 00:19:55.
