data_PCOD8102210
_publ_section_title
;
Structure prediction by ZEFSAII (Michael W. Deem and Ramdas Pophale) SiO2 
 PCOD8102210
Probable space group: C 2/M
;
_chemical_formula_sum "Si O2"
_cell_formula_units_Z 64
_cell_length_a 18.919115
_cell_length_b 13.819602
_cell_length_c 16.188610
_cell_angle_alpha 90.000000
_cell_angle_beta 48.720627
_cell_angle_gamma 90.000000
_cell_volume 3180.796433
_symmetry_space_group_name_H-M "C 2/M"
_symmetry_group_IT_number 12
_symmetry_cell_setting 'monoclinic'
loop_
_space_group_symop_operation_xyz
x,y,z
-x,y,-z
-x,-y,-z
x,-y,z
1/2+x,1/2+y,z
1/2-x,1/2+y,-z
1/2-x,1/2-y,-z
1/2+x,1/2-y,z
loop_
_atom_site_type_symbol
_atom_site_label
_atom_site_fract_x
_atom_site_fract_y
_atom_site_fract_z
Si Si1 0.858117 0.274169 0.428587
Si Si2 0.817565 0.891486 0.832325
Si Si3 0.891617 0.391965 0.564186
Si Si4 0.969232 0.387232 0.210435
Si Si5 0.182435 0.610021 0.085891
Si Si6 0.065428 0.784250 0.873640
Si Si7 0.269840 0.791261 0.788498
Si Si8 0.523255 0.388577 0.738358
O O1 0.750000 0.250000 0.500000
O O2 0.869277 0.314423 0.511508
O O3 0.892756 0.355383 0.337322
O O4 0.917655 0.175766 0.371809
O O5 0.806027 0.819980 0.763107
O O6 0.913257 0.871578 0.808018
O O7 0.816078 0.000000 0.797613
O O8 0.730235 0.873298 0.960744
O O9 0.857385 0.500000 0.565190
O O10 0.842269 0.359929 0.686276
O O11 0.000000 0.394030 0.500000
O O12 0.957585 0.500000 0.198487
O O13 0.952365 0.326749 0.139740
O O14 0.072633 0.362271 0.165070
O O15 0.194221 0.500000 0.105533
O O16 0.235197 0.675351 0.112399
O O17 0.171804 0.798646 0.818342
O O18 0.045456 0.857288 0.814411
O O19 0.000000 0.812900 0.000000
O O20 0.552384 0.500000 0.703365
#
# Coordination Sequence:
#
# PCOD8102210 Si02
#       8
#     8   8   8   8   8   8   8   8
#     4  11  23  40  59  82 112 151 196 238 284 336
#     4  10  21  38  60  84 114 154 192 225 270 338
#     4  11  23  39  61  87 113 141 181 241 300 337
#     4  10  21  39  61  83 112 150 193 236 278 336
#     4  10  20  36  61  88 112 147 191 232 280 337
#     4  11  23  36  55  87 122 153 182 223 283 338
#     4  12  22  35  57  85 118 147 182 235 284 335
#     4  10  22  41  61  82 113 154 197 232 270 336
#
# _framework density 20.120747999999999
#
# number of rings (size 3 to 8) (size 9 to 14) (size 15 to 20)
#    0.000    1.375    0.000    7.125    0.000    6.000 
#    0.000    0.625    0.000    2.250    0.000    0.000 
#    0.000    0.000    0.000    0.000    0.000    0.000 
#
# Total GULP energy -396921.556630 kJ/mol
# GULP energy per Si atom -12403.798645 kJ/mol
# Density = 2.007495 g / cm^3
# Si number density = 20.120748 Si / 1000 Ang^3
#
#
#
# Elastic Constant Matrix: (Units=GPa)
#
#
# Indices 1 2 3 4 5 6 
#
# 1 87.2184 32.6114 43.3914 0.0000 -17.0263 0.0000
# 2 32.6114 121.1647 52.9180 0.0000 -11.5395 0.0000
# 3 43.3914 52.9180 73.3122 0.0000 -10.8102 0.0000
# 4 0.0000 0.0000 0.0000 29.1893 0.0000 -2.6648
# 5 -17.0263 -11.5395 -10.8102 0.0000 29.8248 0.0000
# 6 0.0000 0.0000 0.0000 -2.6648 0.0000 28.7146
#
#
#
# Elastic Compliance Matrix: (Units=1/GPa)
#
#
# Indices 1 2 3 4 5 6 
#
# 1 0.017381 0.000024 -0.009340 0.000000 0.006547 0.000000
# 2 0.000024 0.012125 -0.008529 0.000000 0.001614 0.000000
# 3 -0.009340 -0.008529 0.025409 0.000000 0.000578 0.000000
# 4 0.000000 0.000000 0.000000 0.034552 0.000000 0.003207
# 5 0.006547 0.001614 0.000578 0.000000 0.038100 0.000000
# 6 0.000000 0.000000 0.000000 0.003207 0.000000 0.035123
#
#
# Mechanical properties :
#
#
# Convention : Reuss Voigt Hill
#
# Bulk Modulus (GPa) = 52.00744 59.94855 55.97799
# Shear Modulus (GPa) = 24.41554 27.73072 26.07313
#
# Velocity S-wave (km/s) = 3.48724 3.71646 3.60367
# Velocity P-wave (km/s) = 6.48986 6.94803 6.72285
#
# Compressibility (1/GPa) = 0.01922802
#
# Stress axis : x y z
#
# Youngs Moduli (GPa) = 57.53493 82.47274 39.35538
#
# Poissons Ratio (x) = -0.00202 0.36756
# Poissons Ratio (y) = -0.00141 0.33565
# Poissons Ratio (z) = 0.53735 0.70338
#
# Static dielectric constant tensor:
#      x y z
#    x 3.617480 0.000000 -0.221230 
#    y 0.000000 4.076900 0.000000 
#    z -0.221230 0.000000 3.798920 
# 
# 
# High freq. dielectric constant tensor:
#      x y z
#    x 1.786950 0.000000 -0.011520 
#    y 0.000000 1.802250 0.000000 
#    z -0.011520 0.000000 1.783520 
# 
# From -- ./inp_files/225658.got.cif
#   From: 2010.06.25/outbox.cif.g09.slc.cpg/sg12_113_cif.got.tgz:225658.got - 2010.06.28 00:19:55.
