data_PCOD8102967
_publ_section_title
;
Structure prediction by ZEFSAII (Michael W. Deem and Ramdas Pophale) SiO2 
 PCOD8102967
Probable space group: C 2/M
;
_chemical_formula_sum "Si O2"
_cell_formula_units_Z 56
_cell_length_a 25.787482
_cell_length_b 8.835497
_cell_length_c 12.730528
_cell_angle_alpha 90.000000
_cell_angle_beta 67.488541
_cell_angle_gamma 90.000000
_cell_volume 2679.573636
_symmetry_space_group_name_H-M "C 2/M"
_symmetry_group_IT_number 12
_symmetry_cell_setting 'monoclinic'
loop_
_space_group_symop_operation_xyz
x,y,z
-x,y,-z
-x,-y,-z
x,-y,z
1/2+x,1/2+y,z
1/2-x,1/2+y,-z
1/2-x,1/2-y,-z
1/2+x,1/2-y,z
loop_
_atom_site_type_symbol
_atom_site_label
_atom_site_fract_x
_atom_site_fract_y
_atom_site_fract_z
Si Si1 0.440609 0.178777 0.389811
Si Si2 0.876190 0.325458 0.238750
Si Si3 0.206048 0.174733 0.961578
Si Si4 0.256566 0.827443 0.264028
Si Si5 0.372630 0.326884 0.621792
Si Si6 0.052349 0.824310 0.244233
Si Si7 0.905413 0.677849 0.985875
O O1 0.406839 0.247116 0.315305
O O2 0.406424 0.215556 0.520837
O O3 0.500994 0.256593 0.350367
O O4 0.448336 0.000000 0.376106
O O5 0.891852 0.500000 0.221893
O O6 0.808197 0.307088 0.306682
O O7 0.901738 0.256842 0.108820
O O8 0.230011 0.194736 0.827209
O O9 0.151829 0.275090 0.025448
O O10 0.193736 0.000000 0.997107
O O11 0.250000 0.250000 0.000000
O O12 0.193414 0.798084 0.351837
O O13 0.260380 0.000000 0.214512
O O14 0.387835 0.500000 0.582555
O O15 0.391203 0.294062 0.728912
O O16 0.043112 0.000000 0.233516
O O17 0.049622 0.750378 0.129034
O O18 0.915226 0.500000 0.979222
#
# Coordination Sequence:
#
# PCOD8102967 Si02
#       7
#     8   8   8   8   8   8   8
#     4  11  23  39  59  82 112 152 196 237 279 338
#     4   8  18  37  59  85 116 149 185 229 285 345
#     4  11  20  31  50  80 116 151 189 232 281 337
#     4   9  18  36  59  81 110 148 186 230 289 347
#     4  10  22  39  59  83 113 148 187 237 293 339
#     4  11  23  39  58  84 117 150 190 239 290 339
#     4  10  20  37  60  84 113 148 187 233 288 345
#
# _framework density 20.898845999999999
#
# number of rings (size 3 to 8) (size 9 to 14) (size 15 to 20)
#    0.000    2.000    0.000    4.714    0.000    5.714 
#    0.000   10.000    0.000    0.000    0.000    0.000 
#    0.000    0.000    0.000    0.000    0.000    0.000 
#
# Total GULP energy -346869.288708 kJ/mol
# GULP energy per Si atom -12388.188882 kJ/mol
# Density = 2.085128 g / cm^3
# Si number density = 20.898846 Si / 1000 Ang^3
#
#
#
# Elastic Constant Matrix: (Units=GPa)
#
#
# Indices 1 2 3 4 5 6 
#
# 1 78.3451 22.8892 24.9159 0.0000 1.2822 0.0000
# 2 22.8892 67.0603 29.3571 0.0000 -1.2795 0.0000
# 3 24.9159 29.3571 83.6806 0.0000 -4.7814 0.0000
# 4 0.0000 0.0000 0.0000 32.4061 0.0000 -6.2877
# 5 1.2822 -1.2795 -4.7814 0.0000 33.9393 0.0000
# 6 0.0000 0.0000 0.0000 -6.2877 0.0000 25.4136
#
#
#
# Elastic Compliance Matrix: (Units=1/GPa)
#
#
# Indices 1 2 3 4 5 6 
#
# 1 0.014881 -0.003701 -0.003198 0.000000 -0.001152 0.000000
# 2 -0.003701 0.018540 -0.005398 0.000000 0.000078 0.000000
# 3 -0.003198 -0.005398 0.014911 0.000000 0.002018 0.000000
# 4 0.000000 0.000000 0.000000 0.032414 0.000000 0.008020
# 5 -0.001152 0.000078 0.002018 0.000000 0.029795 0.000000
# 6 0.000000 0.000000 0.000000 0.008020 0.000000 0.041333
#
#
# Mechanical properties :
#
#
# Convention : Reuss Voigt Hill
#
# Bulk Modulus (GPa) = 42.12621 42.60115 42.36368
# Shear Modulus (GPa) = 27.11755 28.48005 27.79880
#
# Velocity S-wave (km/s) = 3.60608 3.69556 3.65109
# Velocity P-wave (km/s) = 6.12694 6.21597 6.17161
#
# Compressibility (1/GPa) = 0.02373819
#
# Stress axis : x y z
#
# Youngs Moduli (GPa) = 67.19801 53.93832 67.06269
#
# Poissons Ratio (x) = 0.19964 0.21449
# Poissons Ratio (y) = 0.24871 0.36198
# Poissons Ratio (z) = 0.21492 0.29114
#
# Static dielectric constant tensor:
#      x y z
#    x 3.979390 0.000000 0.063730 
#    y 0.000000 3.654190 0.000000 
#    z 0.063730 0.000000 3.700080 
# 
# 
# High freq. dielectric constant tensor:
#      x y z
#    x 1.826310 0.000000 -0.001750 
#    y 0.000000 1.801460 0.000000 
#    z -0.001750 0.000000 1.808890 
# 
# From -- ./inp_files/180760.got.cif
#   From: 2010.06.25/outbox.cif.g09.slc.cpg/sg12_91_cif.got.tgz:180760.got - 2010.06.28 00:19:55.
