data_PCOD8102676
_publ_section_title
;
Structure prediction by ZEFSAII (Michael W. Deem and Ramdas Pophale) SiO2 
 PCOD8102676
Probable space group: C 2/M
;
_chemical_formula_sum "Si O2"
_cell_formula_units_Z 56
_cell_length_a 14.886446
_cell_length_b 8.885976
_cell_length_c 24.345811
_cell_angle_alpha 90.000000
_cell_angle_beta 62.371183
_cell_angle_gamma 90.000000
_cell_volume 2853.248820
_symmetry_space_group_name_H-M "C 2/M"
_symmetry_group_IT_number 12
_symmetry_cell_setting 'monoclinic'
loop_
_space_group_symop_operation_xyz
x,y,z
-x,y,-z
-x,-y,-z
x,-y,z
1/2+x,1/2+y,z
1/2-x,1/2+y,-z
1/2-x,1/2-y,-z
1/2+x,1/2-y,z
loop_
_atom_site_type_symbol
_atom_site_label
_atom_site_fract_x
_atom_site_fract_y
_atom_site_fract_z
Si Si1 0.255375 0.826572 0.657745
Si Si2 0.987471 0.673721 0.565763
Si Si3 0.645713 0.176296 0.012410
Si Si4 0.224225 0.324633 0.877306
Si Si5 0.172786 0.176647 0.563902
Si Si6 0.436549 0.321290 0.865301
Si Si7 0.859472 0.678111 0.213278
O O1 0.374538 0.800441 0.618407
O O2 0.200958 0.775004 0.617417
O O3 0.217128 0.719619 0.716773
O O4 0.230637 0.000000 0.678422
O O5 0.020629 0.500000 0.559455
O O6 0.000000 0.732169 0.500000
O O7 0.058881 0.769910 0.585143
O O8 0.558764 0.256481 0.073297
O O9 0.645227 0.000000 0.025924
O O10 0.750000 0.250000 0.000000
O O11 0.637822 0.203945 0.948780
O O12 0.240364 0.500000 0.863869
O O13 0.334557 0.260185 0.864042
O O14 0.186488 0.254897 0.830627
O O15 0.250000 0.250000 0.500000
O O16 0.182372 0.000000 0.553842
O O17 0.440168 0.500000 0.866503
O O18 0.532893 0.257217 0.805326
O O19 0.875229 0.500000 0.206146
#
# Coordination Sequence:
#
# PCOD8102676 Si02
#       7
#     8   8   8   8   8   8   8
#     4  10  23  42  59  81 119 156 186 232 292 344
#     4  10  20  39  63  88 119 152 185 231 290 342
#     4   9  16  31  55  83 112 147 191 239 291 342
#     4   8  18  36  57  79 111 151 188 233 288 342
#     4  11  22  38  62  90 119 151 189 231 285 343
#     4  10  20  37  58  82 115 152 189 236 295 347
#     4  11  23  39  58  82 111 150 199 240 277 339
#
# _framework density 19.626749
#
# number of rings (size 3 to 8) (size 9 to 14) (size 15 to 20)
#    0.000    2.143    1.429    2.571    0.000    3.714 
#    0.000   15.714    0.000    0.000    0.000    0.000 
#    0.000    0.000    0.000    0.000    0.000    0.000 
#
# Total GULP energy -347167.339013 kJ/mol
# GULP energy per Si atom -12398.833536 kJ/mol
# Density = 1.958208 g / cm^3
# Si number density = 19.626749 Si / 1000 Ang^3
#
#
#
# Elastic Constant Matrix: (Units=GPa)
#
#
# Indices 1 2 3 4 5 6 
#
# 1 90.9170 27.7553 38.0521 0.0000 9.0404 0.0000
# 2 27.7553 69.3978 39.5916 0.0000 5.9318 0.0000
# 3 38.0521 39.5916 112.7894 0.0000 3.3332 0.0000
# 4 0.0000 0.0000 0.0000 37.5554 0.0000 -4.1129
# 5 9.0404 5.9318 3.3332 0.0000 30.8382 0.0000
# 6 0.0000 0.0000 0.0000 -4.1129 0.0000 27.0363
#
#
#
# Elastic Compliance Matrix: (Units=1/GPa)
#
#
# Indices 1 2 3 4 5 6 
#
# 1 0.013723 -0.003301 -0.003382 0.000000 -0.003022 0.000000
# 2 -0.003301 0.019055 -0.005513 0.000000 -0.002102 0.000000
# 3 -0.003382 -0.005513 0.011920 0.000000 0.000763 0.000000
# 4 0.000000 0.000000 0.000000 0.027078 0.000000 0.004119
# 5 -0.003022 -0.002102 0.000763 0.000000 0.033635 0.000000
# 6 0.000000 0.000000 0.000000 0.004119 0.000000 0.037614
#
#
# Mechanical properties :
#
#
# Convention : Reuss Voigt Hill
#
# Bulk Modulus (GPa) = 49.24618 53.76692 51.50655
# Shear Modulus (GPa) = 28.70536 30.26632 29.48584
#
# Velocity S-wave (km/s) = 3.82850 3.93121 3.88019
# Velocity P-wave (km/s) = 6.68498 6.93254 6.80989
#
# Compressibility (1/GPa) = 0.02030614
#
# Stress axis : x y z
#
# Youngs Moduli (GPa) = 72.87260 52.48092 83.89562
#
# Poissons Ratio (x) = 0.17322 0.28371
# Poissons Ratio (y) = 0.24053 0.46251
# Poissons Ratio (z) = 0.24643 0.28932
#
# Static dielectric constant tensor:
#      x y z
#    x 3.726800 0.000000 0.124790 
#    y 0.000000 3.497790 0.000000 
#    z 0.124790 0.000000 3.723610 
# 
# 
# High freq. dielectric constant tensor:
#      x y z
#    x 1.764710 0.000000 -0.002260 
#    y 0.000000 1.754290 0.000000 
#    z -0.002260 0.000000 1.768130 
# 
# From -- ./inp_files/338549.got.cif
#   From: 2010.06.25/outbox.cif.g09.slc.cpg/sg12_170_cif.got.tgz:338549.got - 2010.06.28 00:19:55.
