data_PCOD8102973
_publ_section_title
;
Structure prediction by ZEFSAII (Michael W. Deem and Ramdas Pophale) SiO2 
 PCOD8102973
Probable space group: C 2/M
;
_chemical_formula_sum "Si O2"
_cell_formula_units_Z 48
_cell_length_a 29.961218
_cell_length_b 8.988716
_cell_length_c 18.985564
_cell_angle_alpha 90.000000
_cell_angle_beta 150.962435
_cell_angle_gamma 90.000000
_cell_volume 2481.790624
_symmetry_space_group_name_H-M "C 2/M"
_symmetry_group_IT_number 12
_symmetry_cell_setting 'monoclinic'
loop_
_space_group_symop_operation_xyz
x,y,z
-x,y,-z
-x,-y,-z
x,-y,z
1/2+x,1/2+y,z
1/2-x,1/2+y,-z
1/2-x,1/2-y,-z
1/2+x,1/2-y,z
loop_
_atom_site_type_symbol
_atom_site_label
_atom_site_fract_x
_atom_site_fract_y
_atom_site_fract_z
Si Si1 0.971713 0.833429 0.388938
Si Si2 0.255896 0.677107 0.431882
Si Si3 0.383464 0.675215 0.019223
Si Si4 0.258110 0.665169 0.082878
Si Si5 0.603988 0.673942 0.125392
Si Si6 0.543774 0.323424 0.341693
O O1 0.863812 0.841542 0.245729
O O2 0.000000 0.747363 0.500000
O O3 0.009521 0.755150 0.369587
O O4 0.014189 0.000000 0.448371
O O5 0.250964 0.500000 0.432833
O O6 0.250000 0.750000 0.500000
O O7 0.172989 0.732332 0.268717
O O8 0.352494 0.728510 0.530657
O O9 0.375058 0.500000 0.017701
O O10 0.475504 0.734217 0.185763
O O11 0.293341 0.749631 0.926299
O O12 0.384043 0.720666 0.938795
O O13 0.216408 0.500000 0.017863
O O14 0.250000 0.750000 0.000000
O O15 0.623237 0.500000 0.165274
O O16 0.500000 0.715904 0.000000
O O17 0.536722 0.500000 0.334519
#
# Coordination Sequence:
#
# PCOD8102973 Si02
#       6
#     8   8   8   8   8   8
#     4   9  18  32  54  81 110 147 193 235 272 333
#     4  11  23  39  63  89 119 153 195 244 294 353
#     4  10  20  37  60  84 114 151 194 240 289 350
#     4  11  21  35  58  84 114 151 195 240 287 343
#     4  10  22  41  64  87 117 157 198 240 296 360
#     4   9  18  35  57  81 111 154 196 232 284 349
#
# _framework density 19.340873999999999
#
# number of rings (size 3 to 8) (size 9 to 14) (size 15 to 20)
#    0.000    2.000    1.667    2.000    2.333    3.667 
#    0.000    3.333    0.000    2.000    0.000    0.000 
#    0.000    0.000    0.000    0.000    0.000    0.000 
#
# Total GULP energy -297521.395908 kJ/mol
# GULP energy per Si atom -12396.724829 kJ/mol
# Density = 1.929685 g / cm^3
# Si number density = 19.340874 Si / 1000 Ang^3
#
#
#
# Elastic Constant Matrix: (Units=GPa)
#
#
# Indices 1 2 3 4 5 6 
#
# 1 187.1077 52.7719 86.0383 0.0000 -6.9143 0.0000
# 2 52.7719 44.9758 41.4530 0.0000 -11.7060 0.0000
# 3 86.0383 41.4530 136.2328 0.0000 -16.3865 0.0000
# 4 0.0000 0.0000 0.0000 26.7035 0.0000 2.8688
# 5 -6.9143 -11.7060 -16.3865 0.0000 38.3842 0.0000
# 6 0.0000 0.0000 0.0000 2.8688 0.0000 26.8661
#
#
#
# Elastic Compliance Matrix: (Units=1/GPa)
#
#
# Indices 1 2 3 4 5 6 
#
# 1 0.009206 -0.008053 -0.003647 0.000000 -0.002355 0.000000
# 2 -0.008053 0.039176 -0.005874 0.000000 0.007989 0.000000
# 3 -0.003647 -0.005874 0.011739 0.000000 0.002563 0.000000
# 4 0.000000 0.000000 0.000000 0.037883 0.000000 -0.004045
# 5 -0.002355 0.007989 0.002563 0.000000 0.029159 0.000000
# 6 0.000000 0.000000 0.000000 -0.004045 0.000000 0.037654
#
#
# Mechanical properties :
#
#
# Convention : Reuss Voigt Hill
#
# Bulk Modulus (GPa) = 40.04144 80.98253 60.51198
# Shear Modulus (GPa) = 24.00521 30.92763 27.46642
#
# Velocity S-wave (km/s) = 3.52684 4.00319 3.77254
# Velocity P-wave (km/s) = 6.11005 7.95798 7.09444
#
# Compressibility (1/GPa) = 0.02497412
#
# Stress axis : x y z
#
# Youngs Moduli (GPa) = 108.62852 25.52560 85.18627
#
# Poissons Ratio (x) = 0.20556 0.31065
# Poissons Ratio (y) = 0.87481 0.50035
# Poissons Ratio (z) = 0.39613 0.14993
#
# Static dielectric constant tensor:
#      x y z
#    x 3.830510 0.000000 -0.082870 
#    y 0.000000 3.300760 0.000000 
#    z -0.082870 0.000000 3.614570 
# 
# 
# High freq. dielectric constant tensor:
#      x y z
#    x 1.773360 0.000000 -0.003950 
#    y 0.000000 1.716780 0.000000 
#    z -0.003950 0.000000 1.764620 
# 
# From -- ./inp_files/274606.got.cif
#   From: 2010.06.25/outbox.cif.g09.slc.cpg/sg12_138_cif.got.tgz:274606.got - 2010.06.28 00:19:55.
