data_PCOD8102367
_publ_section_title
;
Structure prediction by ZEFSAII (Michael W. Deem and Ramdas Pophale) SiO2 
 PCOD8102367
Probable space group: C 2/M
;
_chemical_formula_sum "Si O2"
_cell_formula_units_Z 56
_cell_length_a 9.246870
_cell_length_b 21.727370
_cell_length_c 15.530753
_cell_angle_alpha 90.000000
_cell_angle_beta 120.871226
_cell_angle_gamma 90.000000
_cell_volume 2678.212437
_symmetry_space_group_name_H-M "C 2/M"
_symmetry_group_IT_number 12
_symmetry_cell_setting 'monoclinic'
loop_
_space_group_symop_operation_xyz
x,y,z
-x,y,-z
-x,-y,-z
x,-y,z
1/2+x,1/2+y,z
1/2-x,1/2+y,-z
1/2-x,1/2-y,-z
1/2+x,1/2-y,z
loop_
_atom_site_type_symbol
_atom_site_label
_atom_site_fract_x
_atom_site_fract_y
_atom_site_fract_z
Si Si1 0.842686 0.272745 0.270285
Si Si2 0.813421 0.428607 0.977971
Si Si3 0.426918 0.568555 0.254760
Si Si4 0.328135 0.430054 0.412149
Si Si5 0.200296 0.808158 0.044966
Si Si6 0.389015 0.848530 0.545623
Si Si7 0.391226 0.317227 0.661612
O O1 0.796808 0.299143 0.163769
O O2 0.682447 0.276554 0.283052
O O3 0.004681 0.305446 0.360330
O O4 0.912752 0.202896 0.289796
O O5 0.798195 0.500000 0.009132
O O6 0.688043 0.418156 0.861430
O O7 0.763177 0.375211 0.030507
O O8 0.000000 0.416681 0.000000
O O9 0.500965 0.500000 0.275715
O O10 0.313645 0.578872 0.305384
O O11 0.593253 0.611402 0.305337
O O12 0.500000 0.398023 0.500000
O O13 0.331721 0.500000 0.441864
O O14 0.166170 0.403498 0.410064
O O15 0.250000 0.750000 0.000000
O O16 0.000000 0.809147 0.000000
O O17 0.500000 0.873734 0.500000
O O18 0.227042 0.811643 0.458415
#
# Coordination Sequence:
#
# PCOD8102367 Si02
#       7
#     8   8   8   8   8   8   8
#     4  11  25  40  63  93 123 164 204 253 314 370
#     4  10  23  42  65  94 128 166 214 269 318 371
#     4  10  21  39  66  91 121 165 210 252 307 368
#     4  10  20  36  62  92 122 163 208 249 299 367
#     4  12  25  44  67  94 126 166 216 267 319 376
#     4  10  23  40  58  90 130 159 200 249 308 370
#     4  11  23  42  63  92 126 162 203 252 307 375
#
# _framework density 20.909469000000001
#
# number of rings (size 3 to 8) (size 9 to 14) (size 15 to 20)
#    0.000    1.429    1.429    3.429    4.000    0.571 
#    0.000    2.857    0.000    0.000    0.000    0.000 
#    0.000    0.000    0.000    0.000    0.000    0.000 
#
# Total GULP energy -347015.536914 kJ/mol
# GULP energy per Si atom -12393.412033 kJ/mol
# Density = 2.086188 g / cm^3
# Si number density = 20.909469 Si / 1000 Ang^3
#
#
#
# Elastic Constant Matrix: (Units=GPa)
#
#
# Indices 1 2 3 4 5 6 
#
# 1 91.8077 53.4677 20.4745 0.0000 6.2201 0.0000
# 2 53.4677 102.5125 33.1050 0.0000 5.8071 0.0000
# 3 20.4745 33.1050 117.3378 0.0000 5.9821 0.0000
# 4 0.0000 0.0000 0.0000 8.9793 0.0000 7.4154
# 5 6.2201 5.8071 5.9821 0.0000 30.0193 0.0000
# 6 0.0000 0.0000 0.0000 7.4154 0.0000 40.1704
#
#
#
# Elastic Compliance Matrix: (Units=1/GPa)
#
#
# Indices 1 2 3 4 5 6 
#
# 1 0.015747 -0.007988 -0.000411 0.000000 -0.001636 0.000000
# 2 -0.007988 0.014851 -0.002762 0.000000 -0.000667 0.000000
# 3 -0.000411 -0.002762 0.009438 0.000000 -0.001261 0.000000
# 4 0.000000 0.000000 0.000000 0.131399 0.000000 -0.024256
# 5 -0.001636 -0.000667 -0.001261 0.000000 0.034031 0.000000
# 6 0.000000 0.000000 0.000000 -0.024256 0.000000 0.029372
#
#
# Mechanical properties :
#
#
# Convention : Reuss Voigt Hill
#
# Bulk Modulus (GPa) = 56.45201 58.41691 57.43446
# Shear Modulus (GPa) = 19.00688 29.47453 24.24070
#
# Velocity S-wave (km/s) = 3.01825 3.75857 3.40857
# Velocity P-wave (km/s) = 6.26126 6.84357 6.55888
#
# Compressibility (1/GPa) = 0.01771416
#
# Stress axis : x y z
#
# Youngs Moduli (GPa) = 63.50524 67.33592 105.95862
#
# Poissons Ratio (x) = 0.53787 0.04351
# Poissons Ratio (y) = 0.50727 0.29267
# Poissons Ratio (z) = 0.02608 0.18599
#
# Static dielectric constant tensor:
#      x y z
#    x 9.610020 0.000000 3.791530 
#    y 0.000000 3.999360 0.000000 
#    z 3.791530 0.000000 6.455170 
# 
# 
# High freq. dielectric constant tensor:
#      x y z
#    x 1.811500 0.000000 0.001610 
#    y 0.000000 1.825180 0.000000 
#    z 0.001610 0.000000 1.832490 
# 
# From -- ./inp_files/198980.got.cif
#   From: 2010.06.25/outbox.cif.g09.slc.cpg/sg12_100_cif.got.tgz:198980.got - 2010.06.28 00:19:55.
