data_PCOD8102625
_publ_section_title
;
Structure prediction by ZEFSAII (Michael W. Deem and Ramdas Pophale) SiO2 
 PCOD8102625
Probable space group: C 2/M
;
_chemical_formula_sum "Si O2"
_cell_formula_units_Z 64
_cell_length_a 19.841173
_cell_length_b 9.088246
_cell_length_c 23.672271
_cell_angle_alpha 90.000000
_cell_angle_beta 125.685159
_cell_angle_gamma 90.000000
_cell_volume 3467.119854
_symmetry_space_group_name_H-M "C 2/M"
_symmetry_group_IT_number 12
_symmetry_cell_setting 'monoclinic'
loop_
_space_group_symop_operation_xyz
x,y,z
-x,y,-z
-x,-y,-z
x,-y,z
1/2+x,1/2+y,z
1/2-x,1/2+y,-z
1/2-x,1/2-y,-z
1/2+x,1/2-y,z
loop_
_atom_site_type_symbol
_atom_site_label
_atom_site_fract_x
_atom_site_fract_y
_atom_site_fract_z
Si Si1 0.080560 0.173952 0.138347
Si Si2 0.491502 0.828971 0.703045
Si Si3 0.328474 0.828989 0.914535
Si Si4 0.852103 0.667853 0.726728
Si Si5 0.340055 0.171803 0.158826
Si Si6 0.246648 0.831581 0.575615
Si Si7 0.910676 0.668736 0.072693
Si Si8 0.618619 0.331868 0.428604
O O1 0.103870 0.246028 0.090180
O O2 0.145504 0.226151 0.218076
O O3 0.988996 0.224374 0.110589
O O4 0.083910 0.000000 0.134121
O O5 0.426400 0.789254 0.720425
O O6 0.581869 0.773028 0.765975
O O7 0.463858 0.756449 0.629852
O O8 0.493748 0.000000 0.693023
O O9 0.237901 0.764568 0.858197
O O10 0.329382 0.000000 0.899199
O O11 0.352121 0.800902 0.990889
O O12 0.862834 0.500000 0.752729
O O13 0.763503 0.689870 0.651018
O O14 0.356705 0.204545 0.101302
O O15 0.321984 0.000000 0.159779
O O16 0.303708 0.715529 0.571388
O O17 0.150096 0.806787 0.509319
O O18 0.273303 0.000000 0.572612
O O19 0.942675 0.500000 0.089667
O O20 0.597549 0.500000 0.406594
#
# Coordination Sequence:
#
# PCOD8102625 Si02
#       8
#     8   8   8   8   8   8   8   8
#     4  12  24  36  54  80 108 138 176 220 264 309
#     4   9  17  30  49  71 101 140 171 204 257 311
#     4  11  24  39  57  79 105 137 176 217 263 317
#     4   9  16  31  51  70  99 138 177 211 256 312
#     4  10  20  37  58  79 107 139 173 215 264 312
#     4   8  15  26  40  62  96 136 168 204 258 306
#     4  10  21  40  61  79 103 138 173 213 266 319
#     4   9  15  23  39  66  99 131 168 211 250 297
#
# _framework density 18.459125
#
# number of rings (size 3 to 8) (size 9 to 14) (size 15 to 20)
#    0.000    2.250    1.250    3.375    0.000    6.000 
#    0.000    0.000    0.000    0.000    0.000    0.875 
#    0.000    7.000    0.000    0.000    0.000    0.000 
#
# Total GULP energy -396656.455966 kJ/mol
# GULP energy per Si atom -12395.514249 kJ/mol
# Density = 1.841711 g / cm^3
# Si number density = 18.459125 Si / 1000 Ang^3
#
#
#
# Elastic Constant Matrix: (Units=GPa)
#
#
# Indices 1 2 3 4 5 6 
#
# 1 31.3307 18.1532 10.8600 0.0000 2.2111 0.0000
# 2 18.1532 74.3617 34.3650 0.0000 4.9452 0.0000
# 3 10.8600 34.3650 99.9555 0.0000 23.1633 0.0000
# 4 0.0000 0.0000 0.0000 29.8545 0.0000 3.7074
# 5 2.2111 4.9452 23.1633 0.0000 13.2566 0.0000
# 6 0.0000 0.0000 0.0000 3.7074 0.0000 25.9731
#
#
#
# Elastic Compliance Matrix: (Units=1/GPa)
#
#
# Indices 1 2 3 4 5 6 
#
# 1 0.037304 -0.008691 -0.000629 0.000000 -0.001880 0.000000
# 2 -0.008691 0.018313 -0.006898 0.000000 0.006671 0.000000
# 3 -0.000629 -0.006898 0.019869 0.000000 -0.032039 0.000000
# 4 0.000000 0.000000 0.000000 0.034100 0.000000 -0.004868
# 5 -0.001880 0.006671 -0.032039 0.000000 0.129241 0.000000
# 6 0.000000 0.000000 0.000000 -0.004868 0.000000 0.039196
#
#
# Mechanical properties :
#
#
# Convention : Reuss Voigt Hill
#
# Bulk Modulus (GPa) = 23.22851 36.93380 30.08115
# Shear Modulus (GPa) = 15.39361 23.30148 19.34754
#
# Velocity S-wave (km/s) = 2.89092 3.55678 3.24099
# Velocity P-wave (km/s) = 4.87384 6.07614 5.50789
#
# Compressibility (1/GPa) = 0.04305055
#
# Stress axis : x y z
#
# Youngs Moduli (GPa) = 26.80679 54.60458 50.32992
#
# Poissons Ratio (x) = 0.47456 0.03167
# Poissons Ratio (y) = 0.23297 0.34717
# Poissons Ratio (z) = 0.01687 0.37665
#
# Static dielectric constant tensor:
#      x y z
#    x 2.928500 0.000000 0.144950 
#    y 0.000000 3.359740 0.000000 
#    z 0.144950 0.000000 3.954660 
# 
# 
# High freq. dielectric constant tensor:
#      x y z
#    x 1.658080 0.000000 0.015750 
#    y 0.000000 1.714990 0.000000 
#    z 0.015750 0.000000 1.740240 
# 
# From -- ./inp_files/345624.got.cif
#   From: 2010.06.25/outbox.cif.g09.slc.cpg/sg12_173_cif.got.tgz:345624.got - 2010.06.28 00:19:55.
