data_PCOD8102540
_publ_section_title
;
Structure prediction by ZEFSAII (Michael W. Deem and Ramdas Pophale) SiO2 
 PCOD8102540
Probable space group: C 2/M
;
_chemical_formula_sum "Si O2"
_cell_formula_units_Z 48
_cell_length_a 12.993819
_cell_length_b 13.529002
_cell_length_c 28.890071
_cell_angle_alpha 90.000000
_cell_angle_beta 150.719612
_cell_angle_gamma 90.000000
_cell_volume 2483.902626
_symmetry_space_group_name_H-M "C 2/M"
_symmetry_group_IT_number 12
_symmetry_cell_setting 'monoclinic'
loop_
_space_group_symop_operation_xyz
x,y,z
-x,y,-z
-x,-y,-z
x,-y,z
1/2+x,1/2+y,z
1/2-x,1/2+y,-z
1/2-x,1/2-y,-z
1/2+x,1/2-y,z
loop_
_atom_site_type_symbol
_atom_site_label
_atom_site_fract_x
_atom_site_fract_y
_atom_site_fract_z
Si Si1 0.154558 0.110078 0.675493
Si Si2 0.731140 0.820351 0.535938
Si Si3 0.864109 0.887633 0.172155
Si Si4 0.577147 0.195753 0.135985
Si Si5 0.649931 0.389020 0.939617
Si Si6 0.277367 0.785795 0.364236
O O1 0.292880 0.159972 0.769299
O O2 0.176776 0.177269 0.638595
O O3 0.912520 0.098334 0.598648
O O4 0.236090 0.000000 0.696009
O O5 0.750000 0.750000 0.500000
O O6 0.487132 0.855558 0.441797
O O7 0.781986 0.768228 0.605296
O O8 0.702787 0.823591 0.138397
O O9 0.786398 0.882789 0.089156
O O10 0.096363 0.842422 0.265972
O O11 0.866807 0.000000 0.191971
O O12 0.539237 0.313784 0.123305
O O13 0.355623 0.138351 0.049906
O O14 0.575644 0.500000 0.923344
#
# Coordination Sequence:
#
# PCOD8102540 Si02
#       6
#     8   8   8   8   8   8
#     4  11  21  36  59  86 115 153 195 236 288 342
#     4   9  20  37  58  78 114 152 186 234 288 342
#     4  11  21  36  60  86 114 152 195 237 286 338
#     4  11  21  36  62  86 119 150 194 240 281 335
#     4  10  22  39  59  85 118 155 193 234 286 339
#     4  10  20  37  56  85 116 147 188 240 288 336
#
# _framework density 19.324428999999999
#
# number of rings (size 3 to 8) (size 9 to 14) (size 15 to 20)
#    0.000    1.667    3.333    2.000    0.000    2.000 
#    0.000    9.167    0.000    3.000    0.000    0.000 
#    0.000    0.000    0.000    0.000    0.000    0.000 
#
# Total GULP energy -297470.955818 kJ/mol
# GULP energy per Si atom -12394.623159 kJ/mol
# Density = 1.928045 g / cm^3
# Si number density = 19.324429 Si / 1000 Ang^3
#
#
#
# Elastic Constant Matrix: (Units=GPa)
#
#
# Indices 1 2 3 4 5 6 
#
# 1 77.8113 43.1230 7.1431 0.0000 2.6355 0.0000
# 2 43.1230 141.0896 33.6782 0.0000 10.4347 0.0000
# 3 7.1431 33.6782 80.2406 -0.0002 6.2987 0.0000
# 4 0.0000 0.0000 -0.0002 16.5463 0.0000 1.8120
# 5 2.6355 10.4347 6.2987 0.0000 27.6729 0.0000
# 6 0.0000 0.0000 0.0000 1.8120 0.0000 26.5388
#
#
#
# Elastic Compliance Matrix: (Units=1/GPa)
#
#
# Indices 1 2 3 4 5 6 
#
# 1 0.015507 -0.004915 0.000665 0.000000 0.000225 0.000000
# 2 -0.004915 0.009576 -0.003395 0.000000 -0.002370 0.000000
# 3 0.000665 -0.003395 0.013983 0.000000 -0.001966 0.000000
# 4 0.000000 0.000000 0.000000 0.060892 0.000000 -0.004158
# 5 0.000225 -0.002370 -0.001966 0.000000 0.037456 0.000000
# 6 0.000000 0.000000 0.000000 -0.004158 0.000000 0.037965
#
#
# Mechanical properties :
#
#
# Convention : Reuss Voigt Hill
#
# Bulk Modulus (GPa) = 42.06280 51.89223 46.97751
# Shear Modulus (GPa) = 25.17705 28.49807 26.83756
#
# Velocity S-wave (km/s) = 3.61343 3.84437 3.73069
# Velocity P-wave (km/s) = 6.26283 6.82767 6.55134
#
# Compressibility (1/GPa) = 0.02377398
#
# Stress axis : x y z
#
# Youngs Moduli (GPa) = 64.48798 104.43152 71.51651
#
# Poissons Ratio (x) = 0.51327 -0.04754
# Poissons Ratio (y) = 0.31695 0.24283
# Poissons Ratio (z) = -0.04287 0.35460
#
# Static dielectric constant tensor:
#      x y z
#    x 3.620260 0.000000 0.105410 
#    y 0.000000 3.432300 0.000000 
#    z 0.105410 0.000000 3.902290 
# 
# 
# High freq. dielectric constant tensor:
#      x y z
#    x 1.747680 0.000000 -0.004690 
#    y 0.000000 1.731290 0.000000 
#    z -0.004690 0.000000 1.773940 
# 
# From -- ./inp_files/358495.got.cif
#   From: 2010.06.25/outbox.cif.g09.slc.cpg/sg12_180_cif.got.tgz:358495.got - 2010.06.28 00:19:55.
