data_PCOD8102656
_publ_section_title
;
Structure prediction by ZEFSAII (Michael W. Deem and Ramdas Pophale) SiO2 
 PCOD8102656
Probable space group: C 2/M
;
_chemical_formula_sum "Si O2"
_cell_formula_units_Z 64
_cell_length_a 9.131026
_cell_length_b 10.371553
_cell_length_c 34.460352
_cell_angle_alpha 90.000000
_cell_angle_beta 99.860323
_cell_angle_gamma 90.000000
_cell_volume 3215.288089
_symmetry_space_group_name_H-M "C 2/M"
_symmetry_group_IT_number 12
_symmetry_cell_setting 'monoclinic'
loop_
_space_group_symop_operation_xyz
x,y,z
-x,y,-z
-x,-y,-z
x,-y,z
1/2+x,1/2+y,z
1/2-x,1/2+y,-z
1/2-x,1/2-y,-z
1/2+x,1/2-y,z
loop_
_atom_site_type_symbol
_atom_site_label
_atom_site_fract_x
_atom_site_fract_y
_atom_site_fract_z
Si Si1 0.807102 0.641454 0.634894
Si Si2 0.145887 0.646109 0.276939
Si Si3 0.317259 0.144319 0.238109
Si Si4 0.466154 0.773362 0.415259
Si Si5 0.140563 0.856366 0.979113
Si Si6 0.704198 0.144961 0.851274
Si Si7 0.235375 0.856050 0.466197
Si Si8 0.968442 0.853663 0.110953
O O1 0.742851 0.500000 0.636669
O O2 0.877540 0.686364 0.679025
O O3 0.662699 0.722282 0.618138
O O4 0.932019 0.636980 0.607058
O O5 0.209460 0.500000 0.276247
O O6 0.258328 0.747632 0.264074
O O7 0.994179 0.655777 0.246446
O O8 0.259699 0.170285 0.192132
O O9 0.268617 0.000000 0.249532
O O10 0.382267 0.849028 0.445870
O O11 0.578511 0.664592 0.437010
O O12 0.093833 0.816551 0.933815
O O13 0.213532 0.000000 0.982518
O O14 0.250000 0.750000 0.000000
O O15 0.000000 0.857793 0.000000
O O16 0.589653 0.252110 0.860361
O O17 0.854204 0.158347 0.882782
O O18 0.637583 0.000000 0.853598
O O19 0.250000 0.750000 0.500000
O O20 0.231571 0.000000 0.484044
O O21 0.922604 0.000000 0.120719
#
# Coordination Sequence:
#
# PCOD8102656 Si02
#       8
#     8   8   8   8   8   8   8   8
#     4  10  20  37  58  81 112 147 183 226 273 322
#     4  10  21  36  57  85 114 146 185 227 273 325
#     4  10  21  37  56  82 114 147 185 227 273 326
#     4  10  22  38  59  83 112 147 186 227 273 326
#     4  10  21  37  56  79 109 143 180 225 275 329
#     4  10  21  37  57  80 110 147 184 226 275 325
#     4  11  24  40  60  86 114 147 187 229 276 329
#     4  10  21  36  55  81 109 141 184 228 273 327
#
# _framework density 19.904904999999999
#
# number of rings (size 3 to 8) (size 9 to 14) (size 15 to 20)
#    0.000    1.875    0.000    3.375    0.000    7.250 
#    0.000    3.125    0.000    0.000    0.000    0.000 
#    0.000    0.000    0.000    0.000    0.000    0.000 
#
# Total GULP energy -396691.834081 kJ/mol
# GULP energy per Si atom -12396.619815 kJ/mol
# Density = 1.985960 g / cm^3
# Si number density = 19.904905 Si / 1000 Ang^3
#
#
#
# Elastic Constant Matrix: (Units=GPa)
#
#
# Indices 1 2 3 4 5 6 
#
# 1 72.9227 37.9686 20.1762 0.0000 2.6396 0.0000
# 2 37.9686 127.0563 49.9268 0.0000 -7.6925 0.0000
# 3 20.1762 49.9268 86.8696 0.0000 2.3754 0.0000
# 4 0.0000 0.0000 0.0000 33.2716 0.0000 -5.2990
# 5 2.6396 -7.6925 2.3754 0.0000 34.1395 0.0000
# 6 0.0000 0.0000 0.0000 -5.2990 0.0000 14.0571
#
#
#
# Elastic Compliance Matrix: (Units=1/GPa)
#
#
# Indices 1 2 3 4 5 6 
#
# 1 0.016515 -0.004635 -0.001111 0.000000 -0.002244 0.000000
# 2 -0.004635 0.011722 -0.005754 0.000000 0.003400 0.000000
# 3 -0.001111 -0.005754 0.015138 0.000000 -0.002264 0.000000
# 4 0.000000 0.000000 0.000000 0.031975 0.000000 0.012054
# 5 -0.002244 0.003400 -0.002264 0.000000 0.030389 0.000000
# 6 0.000000 0.000000 0.000000 0.012054 0.000000 0.075682
#
#
# Mechanical properties :
#
#
# Convention : Reuss Voigt Hill
#
# Bulk Modulus (GPa) = 49.07425 55.88798 52.48112
# Shear Modulus (GPa) = 23.67292 28.21211 25.94251
#
# Velocity S-wave (km/s) = 3.45237 3.76885 3.61407
# Velocity P-wave (km/s) = 6.37178 6.86130 6.62107
#
# Compressibility (1/GPa) = 0.02037728
#
# Stress axis : x y z
#
# Youngs Moduli (GPa) = 60.55190 85.30781 66.05798
#
# Poissons Ratio (x) = 0.39536 0.07337
# Poissons Ratio (y) = 0.28063 0.38008
# Poissons Ratio (z) = 0.06726 0.49084
#
# Static dielectric constant tensor:
#      x y z
#    x 3.510330 0.000000 0.139290 
#    y 0.000000 3.761290 0.000000 
#    z 0.139290 0.000000 3.736140 
# 
# 
# High freq. dielectric constant tensor:
#      x y z
#    x 1.768980 0.000000 0.012800 
#    y 0.000000 1.780890 0.000000 
#    z 0.012800 0.000000 1.786610 
# 
# From -- ./inp_files/372162.got.cif
#   From: 2010.06.25/outbox.cif.g09.slc.cpg/sg12_187_cif.got.tgz:372162.got - 2010.06.28 00:19:55.
