data_PCOD8102320
_publ_section_title
;
Structure prediction by ZEFSAII (Michael W. Deem and Ramdas Pophale) SiO2 
 PCOD8102320
Probable space group: C 2/M
;
_chemical_formula_sum "Si O2"
_cell_formula_units_Z 44
_cell_length_a 16.357263
_cell_length_b 16.683300
_cell_length_c 25.248131
_cell_angle_alpha 90.000000
_cell_angle_beta 160.105548
_cell_angle_gamma 90.000000
_cell_volume 2344.601847
_symmetry_space_group_name_H-M "C 2/M"
_symmetry_group_IT_number 12
_symmetry_cell_setting 'monoclinic'
loop_
_space_group_symop_operation_xyz
x,y,z
-x,y,-z
-x,-y,-z
x,-y,z
1/2+x,1/2+y,z
1/2-x,1/2+y,-z
1/2-x,1/2-y,-z
1/2+x,1/2-y,z
loop_
_atom_site_type_symbol
_atom_site_label
_atom_site_fract_x
_atom_site_fract_y
_atom_site_fract_z
Si Si1 0.042234 0.822094 0.587610
Si Si2 0.571525 0.093109 0.335470
Si Si3 0.813420 0.091895 0.988103
Si Si4 0.022516 0.592833 0.914338
Si Si5 0.778295 0.685542 0.236629
Si Si6 0.000000 0.304237 0.000000
O O1 0.268266 0.877954 0.737610
O O2 0.082753 0.731084 0.631816
O O3 0.000000 0.821165 0.500000
O O4 0.814311 0.857132 0.479192
O O5 0.399906 0.113841 0.181821
O O6 0.442763 0.116276 0.312103
O O7 0.637032 0.000000 0.376741
O O8 0.726061 0.107737 0.994412
O O9 0.892943 0.000000 0.028122
O O10 0.036420 0.148884 0.113045
O O11 0.999976 0.500000 0.915071
O O12 0.103638 0.640839 0.015922
O O13 0.717597 0.749589 0.153586
#
# Coordination Sequence:
#
# PCOD8102320 Si02
#       6
#     8   8   8   8   8   4
#     4  11  23  37  57  84 117 154 190 234 285 341
#     4  11  21  37  60  85 117 150 193 237 280 339
#     4  10  20  36  62  87 112 149 193 241 281 330
#     4  10  21  37  58  83 114 151 192 235 281 338
#     4  11  22  38  57  86 120 149 188 237 287 339
#     4  10  21  34  55  84 118 148 180 234 291 342
#
# _framework density 18.766513
#
# number of rings (size 3 to 8) (size 9 to 14) (size 15 to 20)
#    0.000    1.455    3.636    1.909    0.000    6.545 
#    0.000    0.000    0.000    6.545    0.000    0.000 
#    0.000    0.000    0.000    0.000    0.000    0.000 
#
# Total GULP energy -272888.307018 kJ/mol
# GULP energy per Si atom -12404.013955 kJ/mol
# Density = 1.872380 g / cm^3
# Si number density = 18.766513 Si / 1000 Ang^3
#
#
#
# Elastic Constant Matrix: (Units=GPa)
#
#
# Indices 1 2 3 4 5 6 
#
# 1 99.2870 46.9684 46.4597 0.0377 8.6771 -0.0199
# 2 46.9684 94.7278 50.7695 0.0482 7.2696 -0.0170
# 3 46.4597 50.7695 91.7908 0.0347 10.3548 -0.0007
# 4 0.0377 0.0482 0.0347 33.6945 -0.0312 -0.9918
# 5 8.6771 7.2696 10.3548 -0.0312 14.0690 0.0087
# 6 -0.0199 -0.0170 -0.0007 -0.9918 0.0087 32.2426
#
#
#
# Elastic Compliance Matrix: (Units=1/GPa)
#
#
# Indices 1 2 3 4 5 6 
#
# 1 0.014639 -0.004595 -0.004490 -0.000008 -0.003350 0.000007
# 2 -0.004595 0.016488 -0.006710 -0.000012 -0.000748 0.000006
# 3 -0.004490 -0.006710 0.017639 -0.000010 -0.006746 -0.000004
# 4 -0.000008 -0.000012 -0.000010 0.029705 0.000084 0.000914
# 5 -0.003350 -0.000748 -0.006746 0.000084 0.078496 -0.000021
# 6 0.000007 0.000006 -0.000004 0.000914 -0.000021 0.031043
#
#
# Mechanical properties :
#
#
# Convention : Reuss Voigt Hill
#
# Bulk Modulus (GPa) = 58.21702 63.80009 61.00856
# Shear Modulus (GPa) = 22.19001 25.44175 23.81588
#
# Velocity S-wave (km/s) = 3.44237 3.68598 3.56626
# Velocity P-wave (km/s) = 6.84755 7.22397 7.03828
#
# Compressibility (1/GPa) = 0.01717711
#
# Stress axis : x y z
#
# Youngs Moduli (GPa) = 68.30880 60.64933 56.69174
#
# Poissons Ratio (x) = 0.27868 0.25457
# Poissons Ratio (y) = 0.31387 0.38038
# Poissons Ratio (z) = 0.30673 0.40693
#
# Static dielectric constant tensor:
#      x y z
#    x 3.551470 0.000020 -0.029240 
#    y 0.000020 3.610260 -0.000070 
#    z -0.029240 -0.000070 3.341050 
# 
# 
# High freq. dielectric constant tensor:
#      x y z
#    x 1.737630 0.000000 0.006320 
#    y 0.000000 1.739720 -0.000010 
#    z 0.006320 -0.000010 1.715580 
# 
# From -- ./inp_files/145334.got.cif
#   From: 2010.06.25/outbox.cif.g09.slc.cpg/sg12_73_cif.got.tgz:145334.got - 2010.06.28 00:19:55.
