data_PCOD8102357
_publ_section_title
;
Structure prediction by ZEFSAII (Michael W. Deem and Ramdas Pophale) SiO2 
 PCOD8102357
Probable space group: C 2/M
;
_chemical_formula_sum "Si O2"
_cell_formula_units_Z 40
_cell_length_a 9.392344
_cell_length_b 17.500690
_cell_length_c 12.297441
_cell_angle_alpha 90.000000
_cell_angle_beta 102.052984
_cell_angle_gamma 90.000000
_cell_volume 1976.800056
_symmetry_space_group_name_H-M "C 2/M"
_symmetry_group_IT_number 12
_symmetry_cell_setting 'monoclinic'
loop_
_space_group_symop_operation_xyz
x,y,z
-x,y,-z
-x,-y,-z
x,-y,z
1/2+x,1/2+y,z
1/2-x,1/2+y,-z
1/2-x,1/2-y,-z
1/2+x,1/2-y,z
loop_
_atom_site_type_symbol
_atom_site_label
_atom_site_fract_x
_atom_site_fract_y
_atom_site_fract_z
Si Si1 0.776236 0.909174 0.297739
Si Si2 0.104758 0.909951 0.329676
Si Si3 0.653415 0.910853 0.049345
Si Si4 0.832847 0.329834 0.514479
Si Si5 0.623500 0.589273 0.093592
O O1 0.735260 0.879318 0.169715
O O2 0.670522 0.865472 0.364919
O O3 0.944785 0.885851 0.348390
O O4 0.754512 0.000000 0.307132
O O5 0.238725 0.885298 0.424464
O O6 0.128646 0.873253 0.213740
O O7 0.111635 0.000000 0.323941
O O8 0.633844 0.000000 0.068845
O O9 0.500000 0.870485 0.000000
O O10 0.729923 0.895422 0.947279
O O11 0.750000 0.250000 0.500000
O O12 0.000000 0.323238 0.500000
O O13 0.586460 0.500000 0.102159
O O14 0.500000 0.628296 0.000000
#
# Coordination Sequence:
#
# PCOD8102357 Si02
#       5
#     8   8   8   8   8
#     4  10  20  37  61  90 122 154 190 235 287 340
#     4  10  20  36  62  91 121 153 190 237 284 340
#     4   9  17  28  49  84 124 155 182 227 280 333
#     4  12  27  44  61  80 110 153 199 246 295 347
#     4   9  15  28  51  84 120 153 185 220 277 341
#
# _framework density 20.234721
#
# number of rings (size 3 to 8) (size 9 to 14) (size 15 to 20)
#    0.000    2.000    2.000    2.400    2.800    3.200 
#    0.000    0.000    0.000    2.400    0.000    0.000 
#    0.000    0.000    0.000    0.000    0.000    0.000 
#
# Total GULP energy -247827.526551 kJ/mol
# GULP energy per Si atom -12391.376328 kJ/mol
# Density = 2.018867 g / cm^3
# Si number density = 20.234721 Si / 1000 Ang^3
#
#
#
# Elastic Constant Matrix: (Units=GPa)
#
#
# Indices 1 2 3 4 5 6 
#
# 1 126.0881 31.2539 41.3319 0.0000 15.1636 0.0000
# 2 31.2539 29.6405 16.7806 0.0000 -12.2616 0.0000
# 3 41.3319 16.7806 103.1232 0.0000 -14.3866 0.0000
# 4 0.0000 0.0000 0.0000 0.5732 0.0000 -3.1878
# 5 15.1636 -12.2616 -14.3866 0.0000 28.6774 0.0000
# 6 0.0000 0.0000 0.0000 -3.1878 0.0000 21.0872
#
#
#
# Elastic Compliance Matrix: (Units=1/GPa)
#
#
# Indices 1 2 3 4 5 6 
#
# 1 0.020778 -0.028915 -0.007398 0.000000 -0.027061 0.000000
# 2 -0.028915 0.083306 0.005522 0.000000 0.053679 0.000000
# 3 -0.007398 0.005522 0.013590 0.000000 0.013090 0.000000
# 4 0.000000 0.000000 0.000000 10.951669 0.000000 1.655581
# 5 -0.027061 0.053679 0.013090 0.000000 0.078698 0.000000
# 6 0.000000 0.000000 0.000000 1.655581 0.000000 0.297699
#
#
# Mechanical properties :
#
#
# Convention : Reuss Voigt Hill
#
# Bulk Modulus (GPa) = 17.82789 48.62051 33.22420
# Shear Modulus (GPa) = 0.43380 21.36659 10.90019
#
# Velocity S-wave (km/s) = 0.46352 3.25304 2.32348
# Velocity P-wave (km/s) = 3.01929 6.17982 4.86345
#
# Compressibility (1/GPa) = 0.05609189
#
# Stress axis : x y z
#
# Youngs Moduli (GPa) = 48.12874 12.00394 73.58432
#
# Poissons Ratio (x) = 0.34709 0.54436
# Poissons Ratio (y) = 1.39164 -0.40633
# Poissons Ratio (z) = 0.35605 -0.06629
#
# Static dielectric constant tensor:
#      x y z
#    x 2.434590 0.000000 -1.528790 
#    y 0.000000 3.173600 0.000000 
#    z -1.528790 0.000000 2.527370 
# 
# 
# High freq. dielectric constant tensor:
#      x y z
#    x 1.800400 0.000000 -0.003040 
#    y 0.000000 1.729140 0.000000 
#    z -0.003040 0.000000 1.811270 
# 
# From -- ./inp_files/118880.got.cif
#   From: 2010.06.25/outbox.cif.g09.slc.cpg/sg12_60_cif.got.tgz:118880.got - 2010.06.28 00:19:55.
