data_PCOD8102701
_publ_section_title
;
Structure prediction by ZEFSAII (Michael W. Deem and Ramdas Pophale) SiO2 
 PCOD8102701
Probable space group: C 2/M
;
_chemical_formula_sum "Si O2"
_cell_formula_units_Z 52
_cell_length_a 17.070692
_cell_length_b 8.502910
_cell_length_c 21.572628
_cell_angle_alpha 90.000000
_cell_angle_beta 54.303599
_cell_angle_gamma 90.000000
_cell_volume 2542.974854
_symmetry_space_group_name_H-M "C 2/M"
_symmetry_group_IT_number 12
_symmetry_cell_setting 'monoclinic'
loop_
_space_group_symop_operation_xyz
x,y,z
-x,y,-z
-x,-y,-z
x,-y,z
1/2+x,1/2+y,z
1/2-x,1/2+y,-z
1/2-x,1/2-y,-z
1/2+x,1/2-y,z
loop_
_atom_site_type_symbol
_atom_site_label
_atom_site_fract_x
_atom_site_fract_y
_atom_site_fract_z
Si Si1 0.572168 0.815616 0.016740
Si Si2 0.946606 0.323526 0.839438
Si Si3 0.722824 0.500000 0.431666
Si Si4 0.752692 0.319360 0.872077
Si Si5 0.589498 0.500000 0.605186
Si Si6 0.863478 0.245693 0.317397
Si Si7 0.386995 0.500000 0.636811
Si Si8 0.720106 0.175419 0.279572
O O1 0.550498 0.738611 0.094531
O O2 0.552033 0.000000 0.028304
O O3 0.500000 0.736492 0.000000
O O4 0.681442 0.784444 0.946034
O O5 0.915191 0.500000 0.867861
O O6 0.861229 0.253686 0.835700
O O7 0.049031 0.328582 0.758102
O O8 0.686002 0.500000 0.519090
O O9 0.790643 0.353476 0.388413
O O10 0.629963 0.500000 0.429148
O O11 0.739371 0.500000 0.897744
O O12 0.730317 0.297638 0.809695
O O13 0.586866 0.645570 0.652263
O O14 0.498824 0.500000 0.601359
O O15 0.801987 0.155334 0.293924
O O16 0.343344 0.333418 0.681278
O O17 0.666288 0.000000 0.304017
#
# Coordination Sequence:
#
# PCOD8102701 Si02
#       8
#     8   8   4   8   4   8   4   8
#     4  10  21  36  55  81 116 154 206 253 300 367
#     4  10  20  37  58  84 117 160 206 250 306 370
#     4  10  23  42  68  88 124 171 196 254 325 384
#     4  10  21  36  56  84 122 159 202 257 306 359
#     4  12  23  40  62 101 125 149 215 261 311 382
#     4  11  21  40  65  89 125 160 207 258 312 375
#     4  10  23  40  68  91 128 174 202 259 321 374
#     4  10  21  40  62  93 128 167 215 257 309 377
#
# _framework density 20.448492000000002
#
# number of rings (size 3 to 8) (size 9 to 14) (size 15 to 20)
#    0.000    1.692    1.538    3.000    1.077    0.308 
#    4.154    0.000    0.000    1.846    0.000    0.000 
#    0.000    0.000    0.000    0.000    0.000    0.000 
#
# Total GULP energy -322093.082322 kJ/mol
# GULP energy per Si atom -12388.195474 kJ/mol
# Density = 2.040195 g / cm^3
# Si number density = 20.448492 Si / 1000 Ang^3
#
#
#
# Elastic Constant Matrix: (Units=GPa)
#
#
# Indices 1 2 3 4 5 6 
#
# 1 105.0753 20.0557 35.2681 -0.0001 -3.3595 0.0002
# 2 20.0557 74.4399 18.5898 -0.0001 2.8984 0.0007
# 3 35.2681 18.5898 114.4719 0.0000 4.1180 0.0000
# 4 -0.0001 -0.0001 0.0000 18.7217 0.0000 16.1417
# 5 -3.3595 2.8984 4.1180 0.0000 32.8759 0.0000
# 6 0.0002 0.0007 0.0000 16.1417 0.0000 20.6738
#
#
#
# Elastic Compliance Matrix: (Units=1/GPa)
#
#
# Indices 1 2 3 4 5 6 
#
# 1 0.011044 -0.002269 -0.003096 0.000000 0.001716 0.000000
# 2 -0.002269 0.014498 -0.001608 0.000001 -0.001309 -0.000002
# 3 -0.003096 -0.001608 0.010002 0.000000 -0.001427 0.000000
# 4 0.000000 0.000001 0.000000 0.163436 0.000000 -0.127607
# 5 0.001716 -0.001309 -0.001427 0.000000 0.030887 0.000000
# 6 0.000000 -0.000002 0.000000 -0.127607 0.000000 0.148003
#
#
# Mechanical properties :
#
#
# Convention : Reuss Voigt Hill
#
# Bulk Modulus (GPa) = 46.30201 49.09047 47.69624
# Shear Modulus (GPa) = 12.53084 29.12583 20.82834
#
# Velocity S-wave (km/s) = 2.47817 3.77815 3.19498
# Velocity P-wave (km/s) = 5.55705 6.56442 6.08163
#
# Compressibility (1/GPa) = 0.02159733
#
# Stress axis : x y z
#
# Youngs Moduli (GPa) = 90.54604 68.97705 99.97906
#
# Poissons Ratio (x) = 0.15652 0.30952
# Poissons Ratio (y) = 0.20547 0.16078
# Poissons Ratio (z) = 0.28032 0.11092
#
# Static dielectric constant tensor:
#      x y z
#    x 3.954870 0.000000 0.286930 
#    y 0.000000 3.405510 0.000000 
#    z 0.286930 0.000000 3.530170 
# 
# 
# High freq. dielectric constant tensor:
#      x y z
#    x 1.810670 0.000000 0.016570 
#    y 0.000000 1.786300 0.000000 
#    z 0.016570 0.000000 1.795920 
# 
# From -- ./inp_files/314708.got.cif
#   From: 2010.06.25/outbox.cif.g09.slc.cpg/sg12_158_cif.got.tgz:314708.got - 2010.06.28 00:19:55.
