data_PCOD8102363
_publ_section_title
;
Structure prediction by ZEFSAII (Michael W. Deem and Ramdas Pophale) SiO2 
 PCOD8102363
Probable space group: C 2/M
;
_chemical_formula_sum "Si O2"
_cell_formula_units_Z 48
_cell_length_a 27.161810
_cell_length_b 14.300438
_cell_length_c 8.891917
_cell_angle_alpha 90.000000
_cell_angle_beta 138.867672
_cell_angle_gamma 90.000000
_cell_volume 2271.943515
_symmetry_space_group_name_H-M "C 2/M"
_symmetry_group_IT_number 12
_symmetry_cell_setting 'monoclinic'
loop_
_space_group_symop_operation_xyz
x,y,z
-x,y,-z
-x,-y,-z
x,-y,z
1/2+x,1/2+y,z
1/2-x,1/2+y,-z
1/2-x,1/2-y,-z
1/2+x,1/2-y,z
loop_
_atom_site_type_symbol
_atom_site_label
_atom_site_fract_x
_atom_site_fract_y
_atom_site_fract_z
Si Si1 0.268800 0.393267 0.274320
Si Si2 0.850003 0.283871 0.510678
Si Si3 0.502012 0.210383 0.325519
Si Si4 0.441845 0.398478 0.232421
Si Si5 0.774231 0.107094 0.943088
Si Si6 0.120788 0.393450 0.124268
O O1 0.297557 0.500000 0.354001
O O2 0.332846 0.326629 0.491662
O O3 0.192017 0.377073 0.183992
O O4 0.255013 0.364991 0.069564
O O5 0.773313 0.331694 0.281465
O O6 0.876810 0.324658 0.729587
O O7 0.913151 0.300986 0.531832
O O8 0.500000 0.202221 0.500000
O O9 0.468679 0.311157 0.192152
O O10 0.453267 0.127825 0.141914
O O11 0.500000 0.408054 0.500000
O O12 0.439330 0.500000 0.141131
O O13 0.361222 0.373330 0.114707
O O14 0.753018 0.000000 0.863553
O O15 0.116559 0.500000 0.171612
#
# Coordination Sequence:
#
# PCOD8102363 Si02
#       6
#     8   8   8   8   8   8
#     4  10  21  38  61  88 117 151 195 244 291 344
#     4  12  23  38  61  87 121 157 194 243 295 351
#     4  11  23  39  62  89 117 155 198 240 291 350
#     4   9  18  35  60  90 122 151 186 236 290 346
#     4  10  20  36  62  92 119 153 197 242 289 343
#     4  11  25  43  60  82 117 158 199 245 297 351
#
# _framework density 21.127285000000001
#
# number of rings (size 3 to 8) (size 9 to 14) (size 15 to 20)
#    0.000    1.500    0.000    6.000    0.000    4.333 
#    0.000    2.500    0.000    2.000    0.000    0.000 
#    0.000    0.000    0.000    0.000    0.000    0.000 
#
# Total GULP energy -297634.246722 kJ/mol
# GULP energy per Si atom -12401.426947 kJ/mol
# Density = 2.107920 g / cm^3
# Si number density = 21.127285 Si / 1000 Ang^3
#
#
#
# Elastic Constant Matrix: (Units=GPa)
#
#
# Indices 1 2 3 4 5 6 
#
# 1 75.7257 25.2576 53.6789 0.0000 21.9459 0.0000
# 2 25.2576 95.3004 52.1549 0.0000 -1.6160 0.0000
# 3 53.6789 52.1549 104.2731 0.0000 9.8012 0.0000
# 4 0.0000 0.0000 0.0000 34.2442 0.0000 -0.2946
# 5 21.9459 -1.6160 9.8012 0.0000 29.1971 0.0000
# 6 0.0000 0.0000 0.0000 -0.2946 0.0000 28.4221
#
#
#
# Elastic Compliance Matrix: (Units=1/GPa)
#
#
# Indices 1 2 3 4 5 6 
#
# 1 0.026377 -0.000898 -0.011628 0.000000 -0.015972 0.000000
# 2 -0.000898 0.014799 -0.007311 0.000000 0.003948 0.000000
# 3 -0.011628 -0.007311 0.019051 0.000000 0.001940 0.000000
# 4 0.000000 0.000000 0.000000 0.029205 0.000000 0.000303
# 5 -0.015972 0.003948 0.001940 0.000000 0.045823 0.000000
# 6 0.000000 0.000000 0.000000 0.000303 0.000000 0.035187
#
#
# Mechanical properties :
#
#
# Convention : Reuss Voigt Hill
#
# Bulk Modulus (GPa) = 48.65605 59.72025 54.18815
# Shear Modulus (GPa) = 23.04515 27.98651 25.51583
#
# Velocity S-wave (km/s) = 3.30627 3.64354 3.47900
# Velocity P-wave (km/s) = 6.13638 6.78445 6.46854
#
# Compressibility (1/GPa) = 0.02055243
#
# Stress axis : x y z
#
# Youngs Moduli (GPa) = 37.91253 67.57132 52.49153
#
# Poissons Ratio (x) = 0.06066 0.61037
# Poissons Ratio (y) = 0.03404 0.38377
# Poissons Ratio (z) = 0.44085 0.49402
#
# Static dielectric constant tensor:
#      x y z
#    x 3.764320 0.000000 0.138180 
#    y 0.000000 4.444730 0.000000 
#    z 0.138180 0.000000 3.584200 
# 
# 
# High freq. dielectric constant tensor:
#      x y z
#    x 1.824980 0.000000 0.018190 
#    y 0.000000 1.848520 0.000000 
#    z 0.018190 0.000000 1.814580 
# 
# From -- ./inp_files/104927.got.cif
#   From: 2010.06.25/outbox.cif.g09.slc.cpg/sg12_53_cif.got.tgz:104927.got - 2010.06.28 00:19:55.
