data_PCOD8102154
_publ_section_title
;
Structure prediction by ZEFSAII (Michael W. Deem and Ramdas Pophale) SiO2 
 PCOD8102154
Probable space group: C 2/M
;
_chemical_formula_sum "Si O2"
_cell_formula_units_Z 56
_cell_length_a 15.029726
_cell_length_b 8.611463
_cell_length_c 21.908542
_cell_angle_alpha 90.000000
_cell_angle_beta 107.561041
_cell_angle_gamma 90.000000
_cell_volume 2703.428120
_symmetry_space_group_name_H-M "C 2/M"
_symmetry_group_IT_number 12
_symmetry_cell_setting 'monoclinic'
loop_
_space_group_symop_operation_xyz
x,y,z
-x,y,-z
-x,-y,-z
x,-y,z
1/2+x,1/2+y,z
1/2-x,1/2+y,-z
1/2-x,1/2-y,-z
1/2+x,1/2-y,z
loop_
_atom_site_type_symbol
_atom_site_label
_atom_site_fract_x
_atom_site_fract_y
_atom_site_fract_z
Si Si1 0.348353 0.680482 0.704828
Si Si2 0.344861 0.681054 0.353899
Si Si3 0.535847 0.817927 0.378048
Si Si4 0.880921 0.319836 0.059974
Si Si5 0.575715 0.819461 0.159549
Si Si6 0.154384 0.817608 0.504492
Si Si7 0.315449 0.320738 0.925460
O O1 0.357013 0.500000 0.691226
O O2 0.240942 0.726524 0.693563
O O3 0.385918 0.777792 0.655421
O O4 0.407105 0.718535 0.777013
O O5 0.328010 0.500000 0.339595
O O6 0.439061 0.735041 0.339597
O O7 0.355416 0.724211 0.426922
O O8 0.568521 0.759564 0.451108
O O9 0.519699 0.000000 0.376645
O O10 0.881976 0.500000 0.041082
O O11 0.793006 0.282370 0.084966
O O12 0.973751 0.271601 0.114690
O O13 0.876455 0.219941 0.997496
O O14 0.653016 0.783081 0.124697
O O15 0.580864 0.000000 0.177776
O O16 0.250000 0.750000 0.500000
O O17 0.151669 0.000000 0.492133
O O18 0.330853 0.500000 0.912168
#
# Coordination Sequence:
#
# PCOD8102154 Si02
#       7
#     8   8   8   8   8   8   8
#     4  12  26  44  64  88 122 163 210 260 310 368
#     4  11  24  43  66  93 124 161 206 255 310 371
#     4  12  25  42  65  93 126 164 206 254 310 371
#     4   9  20  38  60  87 121 160 197 241 300 362
#     4  11  23  40  61  85 120 162 204 247 302 368
#     4  11  22  38  65  95 127 161 203 256 311 368
#     4  10  20  36  60  91 123 154 198 251 301 356
#
# _framework density 20.714441000000001
#
# number of rings (size 3 to 8) (size 9 to 14) (size 15 to 20)
#    0.000    1.143    1.429    5.143    0.000    8.000 
#    0.000    4.286    0.000    0.000    0.000    0.000 
#    0.000    0.000    0.000    0.000    0.000    0.000 
#
# Total GULP energy -347430.704272 kJ/mol
# GULP energy per Si atom -12408.239438 kJ/mol
# Density = 2.066729 g / cm^3
# Si number density = 20.714441 Si / 1000 Ang^3
#
#
#
# Elastic Constant Matrix: (Units=GPa)
#
#
# Indices 1 2 3 4 5 6 
#
# 1 78.2173 22.5237 20.5458 0.0000 11.1249 0.0000
# 2 22.5237 81.1416 29.8717 0.0000 3.6070 0.0000
# 3 20.5458 29.8717 81.5486 0.0000 8.7814 0.0000
# 4 0.0000 0.0000 0.0000 36.8847 0.0000 1.6990
# 5 11.1249 3.6070 8.7814 0.0000 20.4772 0.0000
# 6 0.0000 0.0000 0.0000 1.6990 0.0000 36.5325
#
#
#
# Elastic Compliance Matrix: (Units=1/GPa)
#
#
# Indices 1 2 3 4 5 6 
#
# 1 0.015187 -0.003206 -0.001912 0.000000 -0.006866 0.000000
# 2 -0.003206 0.014924 -0.004784 0.000000 0.001165 0.000000
# 3 -0.001912 -0.004784 0.014986 0.000000 -0.004545 0.000000
# 4 0.000000 0.000000 0.000000 0.027170 0.000000 -0.001264
# 5 -0.006866 0.001165 -0.004545 0.000000 0.054309 0.000000
# 6 0.000000 0.000000 0.000000 -0.001264 0.000000 0.027432
#
#
# Mechanical properties :
#
#
# Convention : Reuss Voigt Hill
#
# Bulk Modulus (GPa) = 39.53985 42.97668 41.25827
# Shear Modulus (GPa) = 27.43576 29.97663 28.70620
#
# Velocity S-wave (km/s) = 3.64328 3.80825 3.72668
# Velocity P-wave (km/s) = 6.06857 6.33477 6.20310
#
# Compressibility (1/GPa) = 0.02529094
#
# Stress axis : x y z
#
# Youngs Moduli (GPa) = 65.84522 67.00756 66.72733
#
# Poissons Ratio (x) = 0.21486 0.12761
# Poissons Ratio (y) = 0.21113 0.31924
# Poissons Ratio (z) = 0.12592 0.32058
#
# Static dielectric constant tensor:
#      x y z
#    x 3.882140 0.000000 0.054290 
#    y 0.000000 3.749410 0.000000 
#    z 0.054290 0.000000 3.723230 
# 
# 
# High freq. dielectric constant tensor:
#      x y z
#    x 1.823030 0.000000 0.006990 
#    y 0.000000 1.818800 0.000000 
#    z 0.006990 0.000000 1.803810 
# 
# From -- ./inp_files/338157.got.cif
#   From: 2010.06.25/outbox.cif.g09.slc.cpg/sg12_170_cif.got.tgz:338157.got - 2010.06.28 00:19:55.
