data_PCOD8102201
_publ_section_title
;
Structure prediction by ZEFSAII (Michael W. Deem and Ramdas Pophale) SiO2 
 PCOD8102201
Probable space group: C 2/M
;
_chemical_formula_sum "Si O2"
_cell_formula_units_Z 64
_cell_length_a 19.479794
_cell_length_b 8.972680
_cell_length_c 30.198321
_cell_angle_alpha 90.000000
_cell_angle_beta 38.134900
_cell_angle_gamma 90.000000
_cell_volume 3259.394416
_symmetry_space_group_name_H-M "C 2/M"
_symmetry_group_IT_number 12
_symmetry_cell_setting 'monoclinic'
loop_
_space_group_symop_operation_xyz
x,y,z
-x,y,-z
-x,-y,-z
x,-y,z
1/2+x,1/2+y,z
1/2-x,1/2+y,-z
1/2-x,1/2-y,-z
1/2+x,1/2-y,z
loop_
_atom_site_type_symbol
_atom_site_label
_atom_site_fract_x
_atom_site_fract_y
_atom_site_fract_z
Si Si1 0.166717 0.175771 0.127856
Si Si2 0.788613 0.673615 0.380127
Si Si3 0.582504 0.176508 0.995390
Si Si4 0.543863 0.174538 0.113654
Si Si5 0.564970 0.826451 0.510419
Si Si6 0.102599 0.326869 0.325943
Si Si7 0.199187 0.327708 0.729052
Si Si8 0.485534 0.323714 0.714456
O O1 0.290867 0.224014 0.079433
O O2 0.138240 0.247767 0.095154
O O3 0.080845 0.232878 0.208613
O O4 0.159770 0.000000 0.125507
O O5 0.798620 0.500000 0.385119
O O6 0.678198 0.735784 0.459098
O O7 0.785008 0.709395 0.330227
O O8 0.893318 0.752379 0.349212
O O9 0.569550 0.000000 0.001500
O O10 0.500000 0.245818 0.000000
O O11 0.548797 0.236753 0.061069
O O12 0.424882 0.213869 0.194320
O O13 0.568623 0.000000 0.102145
O O14 0.500000 0.768686 0.500000
O O15 0.491609 0.791816 0.590336
O O16 0.593738 0.000000 0.490695
O O17 0.103960 0.500000 0.312462
O O18 0.221694 0.281285 0.284233
O O19 0.082886 0.227449 0.293201
O O20 0.227037 0.500000 0.725389
O O21 0.496677 0.500000 0.708732
#
# Coordination Sequence:
#
# PCOD8102201 Si02
#       8
#     8   8   8   8   8   8   8   8
#     4  10  21  37  60  87 115 154 198 241 288 345
#     4  11  22  38  62  89 119 153 197 245 291 351
#     4   9  19  35  58  87 118 154 196 239 286 341
#     4  10  20  36  61  87 117 157 195 241 288 339
#     4  10  21  39  61  86 117 153 195 242 296 353
#     4  11  24  40  61  87 118 155 195 243 297 353
#     4  10  21  36  58  89 119 151 197 244 291 347
#     4  11  24  40  60  86 121 157 196 246 296 349
#
# _framework density 19.635549000000001
#
# number of rings (size 3 to 8) (size 9 to 14) (size 15 to 20)
#    0.000    1.750    2.500    1.500    1.750    3.250 
#    0.000    0.000    0.000    0.750    0.000    0.000 
#    0.000    0.000    0.000    0.000    0.000    0.000 
#
# Total GULP energy -396951.229640 kJ/mol
# GULP energy per Si atom -12404.725926 kJ/mol
# Density = 1.959086 g / cm^3
# Si number density = 19.635549 Si / 1000 Ang^3
#
#
#
# Elastic Constant Matrix: (Units=GPa)
#
#
# Indices 1 2 3 4 5 6 
#
# 1 122.6428 38.9678 44.2160 0.0004 -6.2559 0.0026
# 2 38.9678 45.9049 27.1142 0.0002 -3.1947 0.0033
# 3 44.2160 27.1142 81.0930 0.0011 -6.7204 -0.0007
# 4 0.0004 0.0002 0.0011 12.1287 -0.0009 0.2629
# 5 -6.2559 -3.1947 -6.7204 -0.0009 34.0199 0.0003
# 6 0.0026 0.0033 -0.0007 0.2629 0.0003 35.7748
#
#
#
# Elastic Compliance Matrix: (Units=1/GPa)
#
#
# Indices 1 2 3 4 5 6 
#
# 1 0.012115 -0.007935 -0.003894 0.000000 0.000714 0.000000
# 2 -0.007935 0.032362 -0.006469 0.000000 0.000302 -0.000003
# 3 -0.003894 -0.006469 0.016782 -0.000001 0.001992 0.000001
# 4 0.000000 0.000000 -0.000001 0.082462 0.000002 -0.000606
# 5 0.000714 0.000302 0.001992 0.000002 0.029948 0.000000
# 6 0.000000 -0.000003 0.000001 -0.000606 0.000000 0.027957
#
#
# Mechanical properties :
#
#
# Convention : Reuss Voigt Hill
#
# Bulk Modulus (GPa) = 40.54370 52.24852 46.39611
# Shear Modulus (GPa) = 20.28872 25.67421 22.98146
#
# Velocity S-wave (km/s) = 3.21793 3.61991 3.42482
# Velocity P-wave (km/s) = 5.87364 6.64369 6.27050
#
# Compressibility (1/GPa) = 0.02466474
#
# Stress axis : x y z
#
# Youngs Moduli (GPa) = 82.54212 30.90057 59.58593
#
# Poissons Ratio (x) = 0.24519 0.23200
# Poissons Ratio (y) = 0.65496 0.38546
# Poissons Ratio (z) = 0.32138 0.19990
#
# Static dielectric constant tensor:
#      x y z
#    x 3.656350 -0.000010 0.007860 
#    y -0.000010 3.365620 0.000000 
#    z 0.007860 0.000000 3.724550 
# 
# 
# High freq. dielectric constant tensor:
#      x y z
#    x 1.772980 0.000000 -0.003490 
#    y 0.000000 1.747860 0.000000 
#    z -0.003490 0.000000 1.776410 
# 
# From -- ./inp_files/345944.got.cif
#   From: 2010.06.25/outbox.cif.g09.slc.cpg/sg12_173_cif.got.tgz:345944.got - 2010.06.28 00:19:55.
