data_PCOD8102124
_publ_section_title
;
Structure prediction by ZEFSAII (Michael W. Deem and Ramdas Pophale) SiO2 
 PCOD8102124
Probable space group: C 2/M
;
_chemical_formula_sum "Si O2"
_cell_formula_units_Z 56
_cell_length_a 9.286829
_cell_length_b 19.269467
_cell_length_c 27.687171
_cell_angle_alpha 90.000000
_cell_angle_beta 144.746915
_cell_angle_gamma 90.000000
_cell_volume 2859.788399
_symmetry_space_group_name_H-M "C 2/M"
_symmetry_group_IT_number 12
_symmetry_cell_setting 'monoclinic'
loop_
_space_group_symop_operation_xyz
x,y,z
-x,y,-z
-x,-y,-z
x,-y,z
1/2+x,1/2+y,z
1/2-x,1/2+y,-z
1/2-x,1/2-y,-z
1/2+x,1/2-y,z
loop_
_atom_site_type_symbol
_atom_site_label
_atom_site_fract_x
_atom_site_fract_y
_atom_site_fract_z
Si Si1 0.712337 0.080761 0.775162
Si Si2 0.127811 0.704575 0.102341
Si Si3 0.973320 0.809374 0.284725
Si Si4 0.769304 0.673390 0.680786
Si Si5 0.895344 0.077212 0.524579
Si Si6 0.132984 0.831828 0.927729
Si Si7 0.170133 0.419772 0.651784
O O1 0.497686 0.119741 0.746158
O O2 0.699788 0.103810 0.715688
O O3 0.981232 0.098705 0.872368
O O4 0.661572 0.000000 0.766651
O O5 0.278385 0.676316 0.188722
O O6 0.306598 0.709103 0.105066
O O7 0.038664 0.783028 0.086474
O O8 0.891891 0.652937 0.027122
O O9 0.813082 0.801890 0.289108
O O10 0.140449 0.740652 0.324001
O O11 0.151284 0.876279 0.334446
O O12 0.531173 0.637002 0.591553
O O13 0.605486 0.095713 0.442726
O O14 0.000000 0.076287 0.500000
O O15 0.935591 0.000000 0.558438
O O16 0.242511 0.500000 0.666290
#
# Coordination Sequence:
#
# PCOD8102124 Si02
#       7
#     8   8   8   8   8   8   8
#     4  11  21  39  63  90 121 162 207 249 302 365
#     4  10  20  36  60  90 121 154 200 250 300 357
#     4  12  24  41  62  92 126 158 204 255 305 362
#     4  12  25  39  63  91 123 161 207 255 304 360
#     4  10  21  41  66  90 120 162 207 248 302 371
#     4  10  20  36  61  91 117 158 202 247 303 362
#     4  10  22  41  65  88 123 164 201 249 306 365
#
# _framework density 19.581868
#
# number of rings (size 3 to 8) (size 9 to 14) (size 15 to 20)
#    0.000    1.286    4.286    2.143    0.000    2.286 
#    0.000    3.571    0.000    0.857    0.000    0.000 
#    0.000    0.000    0.000    0.000    0.000    0.000 
#
# Total GULP energy -347203.470257 kJ/mol
# GULP energy per Si atom -12400.123938 kJ/mol
# Density = 1.953730 g / cm^3
# Si number density = 19.581868 Si / 1000 Ang^3
#
#
#
# Elastic Constant Matrix: (Units=GPa)
#
#
# Indices 1 2 3 4 5 6 
#
# 1 94.5542 43.4656 9.9625 -0.0003 0.2033 -0.0005
# 2 43.4656 95.9053 45.7337 -0.0001 8.3214 -0.0002
# 3 9.9625 45.7337 112.6524 -0.0015 3.7233 -0.0007
# 4 -0.0003 -0.0001 -0.0015 36.5884 -0.0007 5.0890
# 5 0.2033 8.3214 3.7233 -0.0007 24.0686 -0.0005
# 6 -0.0005 -0.0002 -0.0007 5.0890 -0.0005 32.1162
#
#
#
# Elastic Compliance Matrix: (Units=1/GPa)
#
#
# Indices 1 2 3 4 5 6 
#
# 1 0.013694 -0.007166 0.001628 0.000000 0.002110 0.000000
# 2 -0.007166 0.017012 -0.006112 0.000000 -0.004876 0.000000
# 3 0.001628 -0.006112 0.011202 0.000000 0.000366 0.000000
# 4 0.000000 0.000000 0.000000 0.027947 0.000001 -0.004428
# 5 0.002110 -0.004876 0.000366 0.000001 0.043159 0.000001
# 6 0.000000 0.000000 0.000000 -0.004428 0.000001 0.031839
#
#
# Mechanical properties :
#
#
# Convention : Reuss Voigt Hill
#
# Bulk Modulus (GPa) = 53.73522 55.71503 54.72513
# Shear Modulus (GPa) = 28.67732 32.15132 30.41432
#
# Velocity S-wave (km/s) = 3.83101 4.05642 3.94533
# Velocity P-wave (km/s) = 6.86074 7.10307 6.98295
#
# Compressibility (1/GPa) = 0.01860977
#
# Stress axis : x y z
#
# Youngs Moduli (GPa) = 73.02522 58.78195 89.27085
#
# Poissons Ratio (x) = 0.42122 -0.14537
# Poissons Ratio (y) = 0.52329 0.54558
# Poissons Ratio (z) = -0.11891 0.35925
#
# Static dielectric constant tensor:
#      x y z
#    x 3.608220 0.000000 0.129930 
#    y 0.000000 3.457270 0.000000 
#    z 0.129930 0.000000 3.699270 
# 
# 
# High freq. dielectric constant tensor:
#      x y z
#    x 1.766000 0.000000 0.014020 
#    y 0.000000 1.746710 0.000000 
#    z 0.014020 0.000000 1.772670 
# 
# From -- ./inp_files/356652.got.cif
#   From: 2010.06.25/outbox.cif.g09.slc.cpg/sg12_179_cif.got.tgz:356652.got - 2010.06.28 00:19:55.
