data_PCOD8102902
_publ_section_title
;
Structure prediction by ZEFSAII (Michael W. Deem and Ramdas Pophale) SiO2 
 PCOD8102902
Probable space group: C 2/M
;
_chemical_formula_sum "Si O2"
_cell_formula_units_Z 64
_cell_length_a 20.381844
_cell_length_b 9.152808
_cell_length_c 21.471994
_cell_angle_alpha 90.000000
_cell_angle_beta 61.602870
_cell_angle_gamma 90.000000
_cell_volume 3523.637041
_symmetry_space_group_name_H-M "C 2/M"
_symmetry_group_IT_number 12
_symmetry_cell_setting 'monoclinic'
loop_
_space_group_symop_operation_xyz
x,y,z
-x,y,-z
-x,-y,-z
x,-y,z
1/2+x,1/2+y,z
1/2-x,1/2+y,-z
1/2-x,1/2-y,-z
1/2+x,1/2-y,z
loop_
_atom_site_type_symbol
_atom_site_label
_atom_site_fract_x
_atom_site_fract_y
_atom_site_fract_z
Si Si1 0.021383 0.828725 0.560161
Si Si2 0.916468 0.168055 0.290701
Si Si3 0.324751 0.332284 0.449723
Si Si4 0.838751 0.669855 0.080916
Si Si5 0.400160 0.330560 0.934371
Si Si6 0.452276 0.173608 0.703961
Si Si7 0.333590 0.669991 0.832875
Si Si8 0.925916 0.832856 0.146849
O O1 0.107191 0.784832 0.535724
O O2 0.000000 0.786069 0.500000
O O3 0.966862 0.737164 0.628826
O O4 0.009444 0.000000 0.579050
O O5 0.847289 0.200914 0.367838
O O6 0.891663 0.196200 0.230966
O O7 0.985282 0.271905 0.275945
O O8 0.943538 0.000000 0.286949
O O9 0.306174 0.500000 0.468202
O O10 0.250000 0.250000 0.500000
O O11 0.854371 0.500000 0.066972
O O12 0.753236 0.704269 0.133437
O O13 0.886533 0.727691 0.116587
O O14 0.862197 0.742501 0.006332
O O15 0.385589 0.500000 0.953792
O O16 0.362217 0.280279 0.887533
O O17 0.487176 0.294589 0.891486
O O18 0.372545 0.232495 0.762567
O O19 0.451938 0.000000 0.701463
O O20 0.352021 0.500000 0.813099
O O21 0.912930 0.000000 0.132116
#
# Coordination Sequence:
#
# PCOD8102902 Si02
#       8
#     8   8   8   8   8   8   8   8
#     4   9  19  38  61  81 109 151 191 221 264 331
#     4   9  18  37  60  79 106 151 194 222 264 332
#     4   9  18  33  56  83 110 143 180 222 270 319
#     4  11  24  37  53  82 117 145 175 233 288 325
#     4  10  20  37  62  81 100 144 194 228 268 334
#     4  11  21  33  57  89 114 140 181 238 282 314
#     4  10  21  40  59  77 109 152 190 221 271 338
#     4  10  20  37  60  80 106 147 190 227 270 331
#
# _framework density 18.163049999999998
#
# number of rings (size 3 to 8) (size 9 to 14) (size 15 to 20)
#    0.000    2.125    1.250    3.000    0.000    6.250 
#    2.250    0.000    0.000    0.000    0.000    0.000 
#    0.000    0.000    0.000    0.000    0.000    0.000 
#
# Total GULP energy -396871.150863 kJ/mol
# GULP energy per Si atom -12402.223464 kJ/mol
# Density = 1.812171 g / cm^3
# Si number density = 18.163050 Si / 1000 Ang^3
#
#
#
# Elastic Constant Matrix: (Units=GPa)
#
#
# Indices 1 2 3 4 5 6 
#
# 1 -272.0218 -25.5177 -261.6134 0.0005 -2.8561 -0.0012
# 2 -25.5177 71.9691 4.8355 -0.0001 -5.3969 -0.0014
# 3 -261.6134 4.8355 -144.6559 0.0005 -6.8056 -0.0003
# 4 0.0005 -0.0001 0.0005 18.1092 0.0001 -15.2400
# 5 -2.8561 -5.3969 -6.8056 0.0001 26.4538 0.0001
# 6 -0.0012 -0.0014 -0.0003 -15.2400 0.0001 20.3622
#
#
#
# Elastic Compliance Matrix: (Units=1/GPa)
#
#
# Indices 1 2 3 4 5 6 
#
# 1 0.005462 0.002485 -0.009728 0.000001 -0.001406 0.000001
# 2 0.002485 0.015225 -0.004094 0.000003 0.002321 0.000003
# 3 -0.009728 -0.004094 0.010506 -0.000002 0.000817 -0.000002
# 4 0.000001 0.000003 -0.000002 0.149189 -0.000001 0.111659
# 5 -0.001406 0.002321 0.000817 -0.000001 0.038334 -0.000001
# 6 0.000001 0.000003 -0.000002 0.111659 -0.000001 0.132681
#
#
# Mechanical properties :
#
#
# Convention : Reuss Voigt Hill
#
# Bulk Modulus (GPa) = 117.40925 -101.03332 8.18796
# Shear Modulus (GPa) = 13.26573 8.82418 11.04495
#
# Velocity S-wave (km/s) = 2.70547 2.20655 2.46864
# Velocity P-wave (km/s) = 8.63374 7.01817 3.55576
#
# Compressibility (1/GPa) = 0.00851722
#
# Stress axis : x y z
#
# Youngs Moduli (GPa) = 183.09128 65.68158 95.18415
#
# Poissons Ratio (x) = -0.16320 0.92600
# Poissons Ratio (y) = -0.45493 0.38968
# Poissons Ratio (z) = 1.78120 0.26890
#
# Static dielectric constant tensor:
#      x y z
#    x 3.241930 0.000000 -0.000300 
#    y 0.000000 3.280410 0.000000 
#    z -0.000300 0.000000 3.478420 
# 
# 
# High freq. dielectric constant tensor:
#      x y z
#    x 1.695690 0.000000 0.000720 
#    y 0.000000 1.698300 0.000000 
#    z 0.000720 0.000000 1.715970 
# 
# From -- ./inp_files/319824.got.cif
#   From: 2010.06.25/outbox.cif.g09.slc.cpg/sg12_160_cif.got.tgz:319824.got - 2010.06.28 00:19:55.
