data_PCOD8102549
_publ_section_title
;
Structure prediction by ZEFSAII (Michael W. Deem and Ramdas Pophale) SiO2 
 PCOD8102549
Probable space group: C 2/M
;
_chemical_formula_sum "Si O2"
_cell_formula_units_Z 64
_cell_length_a 18.428287
_cell_length_b 9.262083
_cell_length_c 32.085325
_cell_angle_alpha 90.000000
_cell_angle_beta 37.963727
_cell_angle_gamma 90.000000
_cell_volume 3368.913921
_symmetry_space_group_name_H-M "C 2/M"
_symmetry_group_IT_number 12
_symmetry_cell_setting 'monoclinic'
loop_
_space_group_symop_operation_xyz
x,y,z
-x,y,-z
-x,-y,-z
x,-y,z
1/2+x,1/2+y,z
1/2-x,1/2+y,-z
1/2-x,1/2-y,-z
1/2+x,1/2-y,z
loop_
_atom_site_type_symbol
_atom_site_label
_atom_site_fract_x
_atom_site_fract_y
_atom_site_fract_z
Si Si1 0.361952 0.663278 0.569490
Si Si2 0.643910 0.330097 0.186029
Si Si3 0.289386 0.828893 0.683320
Si Si4 0.525653 0.670798 0.810241
Si Si5 0.621791 0.158515 0.967462
Si Si6 0.868349 0.829788 0.957266
Si Si7 0.708583 0.830407 0.559926
Si Si8 0.938356 0.669980 0.695543
O O1 0.500000 0.671568 0.500000
O O2 0.322306 0.500000 0.598052
O O3 0.335069 0.767094 0.619585
O O4 0.292043 0.717891 0.560306
O O5 0.630316 0.500000 0.200113
O O6 0.548325 0.271767 0.195837
O O7 0.774159 0.290045 0.110434
O O8 0.624287 0.248787 0.237988
O O9 0.157851 0.767169 0.750108
O O10 0.373618 0.778112 0.682704
O O11 0.289460 0.000000 0.679518
O O12 0.527320 0.500000 0.807605
O O13 0.466306 0.722091 0.880001
O O14 0.658772 0.000000 0.969359
O O15 0.500000 0.139010 0.000000
O O16 0.594845 0.279006 0.013865
O O17 0.849752 0.000000 0.964732
O O18 0.750000 0.750000 0.000000
O O19 0.750000 0.750000 0.500000
O O20 0.575020 0.784947 0.631120
O O21 0.718525 0.000000 0.546769
O O22 0.923340 0.500000 0.709000
#
# Coordination Sequence:
#
# PCOD8102549 Si02
#       8
#     8   8   8   8   8   8   8   8
#     4  10  21  37  57  82 113 145 181 226 269 317
#     4  10  20  37  57  77 107 147 185 224 276 335
#     4  10  21  37  57  81 109 144 182 225 273 324
#     4   9  19  36  56  78 108 142 181 229 276 327
#     4  10  22  39  57  81 116 150 189 241 290 341
#     4  11  21  37  60  84 113 149 191 239 290 345
#     4  10  21  37  57  83 114 146 180 224 272 321
#     4  10  22  37  54  81 115 142 178 230 277 324
#
# _framework density 18.997219000000001
#
# number of rings (size 3 to 8) (size 9 to 14) (size 15 to 20)
#    0.000    2.000    1.250    1.875    1.750    2.500 
#    0.000    1.250    0.000    0.000    0.000    0.000 
#    0.000    0.000    0.000    0.000    0.000    0.000 
#
# Total GULP energy -396826.870657 kJ/mol
# GULP energy per Si atom -12400.839708 kJ/mol
# Density = 1.895398 g / cm^3
# Si number density = 18.997219 Si / 1000 Ang^3
#
#
#
# Elastic Constant Matrix: (Units=GPa)
#
#
# Indices 1 2 3 4 5 6 
#
# 1 151.7264 37.4626 75.0983 -0.0030 2.0647 -0.0192
# 2 37.4626 45.7726 40.7527 -0.0093 12.1008 -0.0103
# 3 75.0983 40.7527 130.1927 0.0008 10.8682 0.0001
# 4 -0.0030 -0.0093 0.0008 27.4352 -0.0003 16.9552
# 5 2.0647 12.1008 10.8682 -0.0003 41.2277 -0.0034
# 6 -0.0192 -0.0103 0.0001 16.9552 -0.0034 13.6509
#
#
#
# Elastic Compliance Matrix: (Units=1/GPa)
#
#
# Indices 1 2 3 4 5 6 
#
# 1 0.009913 -0.004731 -0.004409 -0.000031 0.002054 0.000049
# 2 -0.004731 0.034372 -0.007370 0.000002 -0.007909 0.000015
# 3 -0.004409 -0.007370 0.012609 0.000018 -0.000940 -0.000034
# 4 -0.000031 0.000002 0.000018 0.156842 -0.000019 -0.194807
# 5 0.002054 -0.007909 -0.000940 -0.000019 0.026722 0.000027
# 6 0.000049 0.000015 -0.000034 -0.194807 0.000027 0.315218
#
#
# Mechanical properties :
#
#
# Convention : Reuss Voigt Hill
#
# Bulk Modulus (GPa) = 41.88504 70.47985 56.18245
# Shear Modulus (GPa) = 8.38007 28.08797 18.23402
#
# Velocity S-wave (km/s) = 2.10257 3.84934 3.10147
# Velocity P-wave (km/s) = 5.29058 7.54567 6.51642
#
# Compressibility (1/GPa) = 0.02387487
#
# Stress axis : x y z
#
# Youngs Moduli (GPa) = 100.87570 29.09368 79.30704
#
# Poissons Ratio (x) = 0.13765 0.34964
# Poissons Ratio (y) = 0.47729 0.58446
# Poissons Ratio (z) = 0.44473 0.21441
#
# Static dielectric constant tensor:
#      x y z
#    x 3.257270 -0.000140 0.561240 
#    y -0.000140 3.396130 0.000240 
#    z 0.561240 0.000240 2.550020 
# 
# 
# High freq. dielectric constant tensor:
#      x y z
#    x 1.752420 0.000000 -0.005240 
#    y 0.000000 1.720420 0.000000 
#    z -0.005240 0.000000 1.750680 
# 
# From -- ./inp_files/378188.got.cif
#   From: 2010.06.25/outbox.cif.g09.slc.cpg/sg12_190_cif.got.tgz:378188.got - 2010.06.28 00:19:55.
