data_PCOD8102600
_publ_section_title
;
Structure prediction by ZEFSAII (Michael W. Deem and Ramdas Pophale) SiO2 
 PCOD8102600
Probable space group: C 2/M
;
_chemical_formula_sum "Si O2"
_cell_formula_units_Z 44
_cell_length_a 10.035197
_cell_length_b 20.722733
_cell_length_c 14.796626
_cell_angle_alpha 90.000000
_cell_angle_beta 127.269216
_cell_angle_gamma 90.000000
_cell_volume 2448.719242
_symmetry_space_group_name_H-M "C 2/M"
_symmetry_group_IT_number 12
_symmetry_cell_setting 'monoclinic'
loop_
_space_group_symop_operation_xyz
x,y,z
-x,y,-z
-x,-y,-z
x,-y,z
1/2+x,1/2+y,z
1/2-x,1/2+y,-z
1/2-x,1/2-y,-z
1/2+x,1/2-y,z
loop_
_atom_site_type_symbol
_atom_site_label
_atom_site_fract_x
_atom_site_fract_y
_atom_site_fract_z
Si Si1 0.155022 0.500000 0.800927
Si Si2 0.134041 0.124069 0.130859
Si Si3 0.555084 0.429235 0.427862
Si Si4 0.886284 0.878048 0.185000
Si Si5 0.380260 0.000000 0.540644
Si Si6 0.304596 0.246060 0.920743
Si Si7 0.821231 0.500000 0.973215
O O1 0.249069 0.563161 0.803890
O O2 0.979266 0.500000 0.676225
O O3 0.142507 0.500000 0.904410
O O4 0.244509 0.186751 0.148983
O O5 0.036264 0.141709 0.181137
O O6 0.000000 0.104916 0.000000
O O7 0.500000 0.395704 0.500000
O O8 0.469926 0.500000 0.392722
O O9 0.469059 0.390012 0.314266
O O10 0.756939 0.436813 0.492890
O O11 0.772065 0.816252 0.158265
O O12 0.781789 0.936963 0.098895
O O13 0.500000 0.000000 0.500000
O O14 0.500000 0.237431 0.000000
O O15 0.250000 0.250000 0.000000
O O16 0.000000 0.500000 0.000000
#
# Coordination Sequence:
#
# PCOD8102600 Si02
#       7
#     4   8   8   8   4   8   4
#     4  12  22  35  62  89 127 146 197 272 290 372
#     4  11  21  37  57  91 124 159 195 235 320 374
#     4   9  21  40  60  84 117 162 205 247 304 354
#     4  12  21  39  64  83 126 161 201 250 305 377
#     4  10  20  37  57  86 119 158 200 241 306 352
#     4  11  21  39  57  89 128 163 196 236 306 385
#     4  12  24  31  53 100 118 149 196 252 318 352
#
# _framework density 17.968577
#
# number of rings (size 3 to 8) (size 9 to 14) (size 15 to 20)
#    0.545    0.545    6.364    2.455    2.545    0.000 
#    0.000    0.000    0.000    5.455    0.000    0.000 
#    0.000    0.000    0.000    0.000    0.000    0.000 
#
# Total GULP energy -272654.851784 kJ/mol
# GULP energy per Si atom -12393.402354 kJ/mol
# Density = 1.792768 g / cm^3
# Si number density = 17.968577 Si / 1000 Ang^3
#
#
#
# Elastic Constant Matrix: (Units=GPa)
#
#
# Indices 1 2 3 4 5 6 
#
# 1 128.5898 38.7863 43.1470 0.0000 -12.2112 0.0000
# 2 38.7863 134.0481 45.8130 0.0000 9.7753 0.0000
# 3 43.1470 45.8130 129.0021 0.0000 -5.9402 0.0000
# 4 0.0000 0.0000 0.0000 -108.2872 0.0000 -2.1847
# 5 -12.2112 9.7753 -5.9402 0.0000 29.7471 0.0000
# 6 0.0000 0.0000 0.0000 -2.1847 0.0000 29.5094
#
#
#
# Elastic Compliance Matrix: (Units=1/GPa)
#
#
# Indices 1 2 3 4 5 6 
#
# 1 0.009627 -0.002350 -0.002188 0.000000 0.004287 0.000000
# 2 -0.002350 0.009425 -0.002773 0.000000 -0.004616 0.000000
# 3 -0.002188 -0.002773 0.009557 0.000000 0.001922 0.000000
# 4 0.000000 0.000000 0.000000 -0.009221 0.000000 -0.000683
# 5 0.004287 -0.004616 0.001922 0.000000 0.037277 0.000000
# 6 0.000000 0.000000 0.000000 -0.000683 0.000000 0.033837
#
#
# Mechanical properties :
#
#
# Convention : Reuss Voigt Hill
#
# Bulk Modulus (GPa) = 71.50395 71.90365 71.70380
# Shear Modulus (GPa) = 45.54301 7.78678 26.66490
#
# Velocity S-wave (km/s) = 5.03993 2.08398 3.85642
# Velocity P-wave (km/s) = 8.58768 6.77450 7.73440
#
# Compressibility (1/GPa) = 0.01398524
#
# Stress axis : x y z
#
# Youngs Moduli (GPa) = 103.87631 106.10600 104.63603
#
# Poissons Ratio (x) = 0.24940 0.22891
# Poissons Ratio (y) = 0.24416 0.29019
# Poissons Ratio (z) = 0.22725 0.29427
#
# Static dielectric constant tensor:
#      x y z
#    x 3.863690 0.000000 -0.348350 
#    y 0.000000 3.527590 0.000000 
#    z -0.348350 0.000000 3.433460 
# 
# 
# High freq. dielectric constant tensor:
#      x y z
#    x 1.710420 0.000000 -0.010040 
#    y 0.000000 1.684010 0.000000 
#    z -0.010040 0.000000 1.684910 
# 
# From -- ./inp_files/197294.got.cif
#   From: 2010.06.25/outbox.cif.g09.slc.cpg/sg12_99_cif.got.tgz:197294.got - 2010.06.28 00:19:55.
