data_PCOD8102468
_publ_section_title
;
Structure prediction by ZEFSAII (Michael W. Deem and Ramdas Pophale) SiO2 
 PCOD8102468
Probable space group: C 2/M
;
_chemical_formula_sum "Si O2"
_cell_formula_units_Z 24
_cell_length_a 8.646166
_cell_length_b 15.655461
_cell_length_c 9.831361
_cell_angle_alpha 90.000000
_cell_angle_beta 109.572592
_cell_angle_gamma 90.000000
_cell_volume 1253.875404
_symmetry_space_group_name_H-M "C 2/M"
_symmetry_group_IT_number 12
_symmetry_cell_setting 'monoclinic'
loop_
_space_group_symop_operation_xyz
x,y,z
-x,y,-z
-x,-y,-z
x,-y,z
1/2+x,1/2+y,z
1/2-x,1/2+y,-z
1/2-x,1/2-y,-z
1/2+x,1/2-y,z
loop_
_atom_site_type_symbol
_atom_site_label
_atom_site_fract_x
_atom_site_fract_y
_atom_site_fract_z
Si Si1 0.854433 0.666703 0.059963
Si Si2 0.650956 0.500000 0.943942
Si Si3 0.332712 0.500000 0.367150
Si Si4 0.526037 0.094767 0.355473
O O1 0.932089 0.663332 0.233910
O O2 0.750000 0.750000 0.000000
O O3 0.749430 0.583850 0.006013
O O4 0.000000 0.664772 0.000000
O O5 0.608444 0.500000 0.771658
O O6 0.500000 0.500000 0.000000
O O7 0.500000 0.500000 0.500000
O O8 0.219713 0.583742 0.370360
O O9 0.500000 0.129719 0.500000
O O10 0.442922 0.000000 0.318379
#
# Coordination Sequence:
#
# PCOD8102468 Si02
#       4
#     8   4   4   8
#     4  12  23  44  64  96 131 172 220 273 326 388
#     4  12  24  39  66  96 131 173 220 270 323 391
#     4  10  20  36  64  96 129 162 223 261 335 383
#     4   9  19  39  66  92 127 169 211 267 333 380
#
# _framework density 19.140658999999999
#
# number of rings (size 3 to 8) (size 9 to 14) (size 15 to 20)
#    1.000    0.333    5.000    1.500    4.667    0.000 
#    0.000    3.333    0.000    0.000    0.000    0.000 
#    0.000    0.000    0.000    0.000    0.000    0.000 
#
# Total GULP energy -148689.181340 kJ/mol
# GULP energy per Si atom -12390.765112 kJ/mol
# Density = 1.909709 g / cm^3
# Si number density = 19.140659 Si / 1000 Ang^3
#
#
#
# Elastic Constant Matrix: (Units=GPa)
#
#
# Indices 1 2 3 4 5 6 
#
# 1 165.6285 68.7074 94.3523 0.0000 -11.2443 0.0000
# 2 68.7074 122.3983 60.7247 0.0000 13.3668 0.0000
# 3 94.3523 60.7247 207.7171 0.0000 -8.3846 0.0000
# 4 0.0000 0.0000 0.0000 36.0644 0.0000 7.5933
# 5 -11.2443 13.3668 -8.3846 0.0000 46.3620 0.0000
# 6 0.0000 0.0000 0.0000 7.5933 0.0000 47.7149
#
#
#
# Elastic Compliance Matrix: (Units=1/GPa)
#
#
# Indices 1 2 3 4 5 6 
#
# 1 0.009772 -0.004302 -0.003057 0.000000 0.003057 0.000000
# 2 -0.004302 0.011974 -0.001740 0.000000 -0.004810 0.000000
# 3 -0.003057 -0.001740 0.006751 0.000000 0.000981 0.000000
# 4 0.000000 0.000000 0.000000 0.028689 0.000000 -0.004566
# 5 0.003057 -0.004810 0.000981 0.000000 0.023875 0.000000
# 6 0.000000 0.000000 0.000000 -0.004566 0.000000 0.021684
#
#
# Mechanical properties :
#
#
# Convention : Reuss Voigt Hill
#
# Bulk Modulus (GPa) = 97.11861 104.81251 100.96556
# Shear Modulus (GPa) = 40.19989 44.15889 42.17939
#
# Velocity S-wave (km/s) = 4.58780 4.80841 4.69940
# Velocity P-wave (km/s) = 8.88333 9.25774 9.07246
#
# Compressibility (1/GPa) = 0.01029669
#
# Stress axis : x y z
#
# Youngs Moduli (GPa) = 102.33781 83.51519 148.11618
#
# Poissons Ratio (x) = 0.35930 0.45286
# Poissons Ratio (y) = 0.44028 0.25779
# Poissons Ratio (z) = 0.31289 0.14535
#
# Static dielectric constant tensor:
#      x y z
#    x 3.493570 0.000000 -0.175290 
#    y 0.000000 2.965270 0.000000 
#    z -0.175290 0.000000 3.796110 
# 
# 
# High freq. dielectric constant tensor:
#      x y z
#    x 1.750780 0.000000 -0.010830 
#    y 0.000000 1.712940 0.000000 
#    z -0.010830 0.000000 1.761250 
# 
# From -- ./inp_files/36447.got.cif
#   From: 2010.06.25/outbox.cif.g09.slc.cpg/sg12_19_cif.got.tgz:36447.got - 2010.06.28 00:19:55.
