data_PCOD8102249
_publ_section_title
;
Structure prediction by ZEFSAII (Michael W. Deem and Ramdas Pophale) SiO2 
 PCOD8102249
Probable space group: C 2/M
;
_chemical_formula_sum "Si O2"
_cell_formula_units_Z 48
_cell_length_a 28.066402
_cell_length_b 8.567837
_cell_length_c 10.177672
_cell_angle_alpha 90.000000
_cell_angle_beta 88.831518
_cell_angle_gamma 90.000000
_cell_volume 2446.899137
_symmetry_space_group_name_H-M "C 2/M"
_symmetry_group_IT_number 12
_symmetry_cell_setting 'monoclinic'
loop_
_space_group_symop_operation_xyz
x,y,z
-x,y,-z
-x,-y,-z
x,-y,z
1/2+x,1/2+y,z
1/2-x,1/2+y,-z
1/2-x,1/2-y,-z
1/2+x,1/2-y,z
loop_
_atom_site_type_symbol
_atom_site_label
_atom_site_fract_x
_atom_site_fract_y
_atom_site_fract_z
Si Si1 0.024720 0.314401 0.365789
Si Si2 0.223078 0.683094 0.376392
Si Si3 0.272171 0.821281 0.127296
Si Si4 0.126166 0.816470 0.280597
Si Si5 0.531391 0.814711 0.879841
Si Si6 0.627385 0.821358 0.993332
O O1 0.027758 0.500000 0.363082
O O2 0.078081 0.252246 0.345188
O O3 0.000000 0.253530 0.500000
O O4 0.990455 0.247392 0.253161
O O5 0.216595 0.500000 0.393288
O O6 0.250000 0.750000 0.500000
O O7 0.256087 0.718568 0.250119
O O8 0.170719 0.756190 0.363188
O O9 0.255416 0.000000 0.147964
O O10 0.250000 0.750000 0.000000
O O11 0.328577 0.808994 0.107509
O O12 0.133723 0.773067 0.127530
O O13 0.123895 0.000000 0.292968
O O14 0.530150 0.000000 0.872810
O O15 0.500000 0.749594 0.000000
O O16 0.584588 0.754549 0.906330
O O17 0.617729 0.000000 0.037179
#
# Coordination Sequence:
#
# PCOD8102249 Si02
#       6
#     8   8   8   8   8   8
#     4  10  21  38  62  90 121 161 207 255 311 377
#     4  12  26  45  67  92 127 166 211 265 321 386
#     4  11  22  37  62  95 129 166 211 260 313 372
#     4  12  24  39  62  90 124 163 206 256 319 383
#     4   9  16  31  58  87 116 151 200 251 294 353
#     4  10  20  36  61  90 122 164 212 259 306 366
#
# _framework density 19.616664
#
# number of rings (size 3 to 8) (size 9 to 14) (size 15 to 20)
#    0.000    1.333    3.333    3.500    0.000    2.333 
#    0.000    5.000    0.000    0.000    0.000    0.000 
#    0.000    0.000    0.000    0.000    0.000    0.000 
#
# Total GULP energy -297600.499702 kJ/mol
# GULP energy per Si atom -12400.020821 kJ/mol
# Density = 1.957202 g / cm^3
# Si number density = 19.616664 Si / 1000 Ang^3
#
#
#
# Elastic Constant Matrix: (Units=GPa)
#
#
# Indices 1 2 3 4 5 6 
#
# 1 144.2570 22.5423 63.0979 0.0000 21.8542 0.0000
# 2 22.5423 59.1393 23.5529 0.0000 4.2654 0.0000
# 3 63.0979 23.5529 147.7727 0.0000 16.8483 0.0000
# 4 0.0000 0.0000 0.0000 26.5360 0.0000 -2.2033
# 5 21.8542 4.2654 16.8483 0.0000 38.6700 0.0000
# 6 0.0000 0.0000 0.0000 -2.2033 0.0000 27.7077
#
#
#
# Elastic Compliance Matrix: (Units=1/GPa)
#
#
# Indices 1 2 3 4 5 6 
#
# 1 0.009181 -0.001967 -0.003199 0.000000 -0.003578 0.000000
# 2 -0.001967 0.018499 -0.002107 0.000000 -0.000010 0.000000
# 3 -0.003199 -0.002107 0.008667 0.000000 -0.001736 0.000000
# 4 0.000000 0.000000 0.000000 0.037935 0.000000 0.003017
# 5 -0.003578 -0.000010 -0.001736 0.000000 0.028639 0.000000
# 6 0.000000 0.000000 0.000000 0.003017 0.000000 0.036331
#
#
# Mechanical properties :
#
#
# Convention : Reuss Voigt Hill
#
# Bulk Modulus (GPa) = 45.87163 63.28390 54.57777
# Shear Modulus (GPa) = 31.04340 34.71447 32.87893
#
# Velocity S-wave (km/s) = 3.98238 4.21127 4.09843
# Velocity P-wave (km/s) = 6.67687 7.48176 7.09075
#
# Compressibility (1/GPa) = 0.02179997
#
# Stress axis : x y z
#
# Youngs Moduli (GPa) = 108.92571 54.05651 115.38434
#
# Poissons Ratio (x) = 0.10636 0.36906
# Poissons Ratio (y) = 0.21431 0.24314
# Poissons Ratio (z) = 0.34840 0.11391
#
# Static dielectric constant tensor:
#      x y z
#    x 3.599990 0.000000 0.186400 
#    y 0.000000 3.463710 0.000000 
#    z 0.186400 0.000000 3.569180 
# 
# 
# High freq. dielectric constant tensor:
#      x y z
#    x 1.785610 0.000000 0.003630 
#    y 0.000000 1.748590 0.000000 
#    z 0.003630 0.000000 1.764380 
# 
# From -- ./inp_files/108630.got.cif
#   From: 2010.06.25/outbox.cif.g09.slc.cpg/sg12_55_cif.got.tgz:108630.got - 2010.06.28 00:19:55.
