data_PCOD8102999
_publ_section_title
;
Structure prediction by ZEFSAII (Michael W. Deem and Ramdas Pophale) SiO2 
 PCOD8102999
Probable space group: C 2/M
;
_chemical_formula_sum "Si O2"
_cell_formula_units_Z 40
_cell_length_a 13.553706
_cell_length_b 10.307842
_cell_length_c 13.731988
_cell_angle_alpha 90.000000
_cell_angle_beta 72.382866
_cell_angle_gamma 90.000000
_cell_volume 1828.511901
_symmetry_space_group_name_H-M "C 2/M"
_symmetry_group_IT_number 12
_symmetry_cell_setting 'monoclinic'
loop_
_space_group_symop_operation_xyz
x,y,z
-x,y,-z
-x,-y,-z
x,-y,z
1/2+x,1/2+y,z
1/2-x,1/2+y,-z
1/2-x,1/2-y,-z
1/2+x,1/2-y,z
loop_
_atom_site_type_symbol
_atom_site_label
_atom_site_fract_x
_atom_site_fract_y
_atom_site_fract_z
Si Si1 0.304614 0.254814 0.261206
Si Si2 0.779029 0.149737 0.907830
Si Si3 0.578760 0.853667 0.384166
Si Si4 0.010258 0.855242 0.256580
Si Si5 0.825606 0.639506 0.449245
O O1 0.292572 0.180429 0.163545
O O2 0.199960 0.328419 0.324264
O O3 0.401985 0.353267 0.229375
O O4 0.343178 0.147928 0.328677
O O5 0.898465 0.175900 0.846341
O O6 0.760861 0.000000 0.945943
O O7 0.750000 0.250000 0.000000
O O8 0.511154 0.745599 0.346882
O O9 0.573332 0.846439 0.508306
O O10 0.550784 0.000000 0.355933
O O11 0.026636 0.000000 0.295054
O O12 0.775191 0.500000 0.487874
O O13 0.750000 0.750000 0.500000
#
# Coordination Sequence:
#
# PCOD8102999 Si02
#       5
#     8   8   8   8   8
#     4  10  20  37  60  85 113 150 191 235 280 334
#     4  10  23  42  62  84 112 146 186 237 293 346
#     4   9  19  35  56  84 118 154 190 230 274 324
#     4  10  22  39  60  86 115 150 190 232 282 340
#     4   9  18  33  55  83 117 156 194 231 275 328
#
# _framework density 21.875710999999999
#
# number of rings (size 3 to 8) (size 9 to 14) (size 15 to 20)
#    0.000    2.400    0.000    1.200    0.000   12.800 
#    0.000    6.000    0.000    0.000    0.000    0.000 
#    0.000    0.000    0.000    0.000    0.000    0.000 
#
# Total GULP energy -247842.630949 kJ/mol
# GULP energy per Si atom -12392.131547 kJ/mol
# Density = 2.182592 g / cm^3
# Si number density = 21.875711 Si / 1000 Ang^3
#
#
#
# Elastic Constant Matrix: (Units=GPa)
#
#
# Indices 1 2 3 4 5 6 
#
# 1 156.9552 61.2530 51.9299 0.0000 7.6632 0.0000
# 2 61.2530 176.2586 81.9272 0.0000 2.1267 0.0000
# 3 51.9299 81.9272 132.3070 0.0000 12.3528 0.0000
# 4 0.0000 0.0000 0.0000 35.7488 0.0000 4.5332
# 5 7.6632 2.1267 12.3528 0.0000 29.7110 0.0000
# 6 0.0000 0.0000 0.0000 4.5332 0.0000 29.2533
#
#
#
# Elastic Compliance Matrix: (Units=1/GPa)
#
#
# Indices 1 2 3 4 5 6 
#
# 1 0.007738 -0.001843 -0.001791 0.000000 -0.001119 0.000000
# 2 -0.001843 0.008474 -0.004694 0.000000 0.001820 0.000000
# 3 -0.001791 -0.004694 0.011541 0.000000 -0.004000 0.000000
# 4 0.000000 0.000000 0.000000 0.028534 0.000000 -0.004422
# 5 -0.001119 0.001820 -0.004000 0.000000 0.035479 0.000000
# 6 0.000000 0.000000 0.000000 -0.004422 0.000000 0.034869
#
#
# Mechanical properties :
#
#
# Convention : Reuss Voigt Hill
#
# Bulk Modulus (GPa) = 90.11674 95.08232 92.59953
# Shear Modulus (GPa) = 34.01601 36.97000 35.49300
#
# Velocity S-wave (km/s) = 3.94758 4.11542 4.03238
# Velocity P-wave (km/s) = 7.87796 8.13274 8.00636
#
# Compressibility (1/GPa) = 0.01109672
#
# Stress axis : x y z
#
# Youngs Moduli (GPa) = 129.23615 118.01332 86.64578
#
# Poissons Ratio (x) = 0.21748 0.15522
# Poissons Ratio (y) = 0.23816 0.40669
# Poissons Ratio (z) = 0.23152 0.55392
#
# Static dielectric constant tensor:
#      x y z
#    x 4.758360 0.000000 0.263290 
#    y 0.000000 4.106860 0.000000 
#    z 0.263290 0.000000 4.179540 
# 
# 
# High freq. dielectric constant tensor:
#      x y z
#    x 1.895360 0.000000 -0.005270 
#    y 0.000000 1.868180 0.000000 
#    z -0.005270 0.000000 1.844970 
# 
# From -- ./inp_files/211210.got.cif
#   From: 2010.06.25/outbox.cif.g09.slc.cpg/sg12_106_cif.got.tgz:211210.got - 2010.06.28 00:19:55.
