data_PCOD8102607
_publ_section_title
;
Structure prediction by ZEFSAII (Michael W. Deem and Ramdas Pophale) SiO2 
 PCOD8102607
Probable space group: C 2/M
;
_chemical_formula_sum "Si O2"
_cell_formula_units_Z 56
_cell_length_a 20.276270
_cell_length_b 9.016495
_cell_length_c 22.460176
_cell_angle_alpha 90.000000
_cell_angle_beta 48.263959
_cell_angle_gamma 90.000000
_cell_volume 3064.118863
_symmetry_space_group_name_H-M "C 2/M"
_symmetry_group_IT_number 12
_symmetry_cell_setting 'monoclinic'
loop_
_space_group_symop_operation_xyz
x,y,z
-x,y,-z
-x,-y,-z
x,-y,z
1/2+x,1/2+y,z
1/2-x,1/2+y,-z
1/2-x,1/2-y,-z
1/2+x,1/2-y,z
loop_
_atom_site_type_symbol
_atom_site_label
_atom_site_fract_x
_atom_site_fract_y
_atom_site_fract_z
Si Si1 0.897337 0.828458 0.829374
Si Si2 0.365977 0.676411 0.168351
Si Si3 0.557084 0.671524 0.655291
Si Si4 0.176713 0.326525 0.503859
Si Si5 0.546229 0.826152 0.085939
Si Si6 0.295314 0.827343 0.097004
Si Si7 0.305136 0.673045 0.330696
O O1 0.936397 0.728766 0.858066
O O2 0.797896 0.780351 0.875314
O O3 0.955515 0.801785 0.734757
O O4 0.903611 0.000000 0.845522
O O5 0.372734 0.500000 0.162535
O O6 0.463874 0.743339 0.105730
O O7 0.308296 0.731538 0.148053
O O8 0.316986 0.738508 0.257372
O O9 0.577577 0.500000 0.631322
O O10 0.581275 0.757621 0.579055
O O11 0.618914 0.736313 0.671175
O O12 0.175138 0.500000 0.517836
O O13 0.250000 0.250000 0.500000
O O14 0.206848 0.295022 0.417046
O O15 0.526211 0.000000 0.098856
O O16 0.630903 0.787195 0.995458
O O17 0.296752 0.000000 0.113348
O O18 0.322955 0.500000 0.314967
#
# Coordination Sequence:
#
# PCOD8102607 Si02
#       7
#     8   8   8   8   8   8   8
#     4  10  20  37  58  76 105 144 178 214 266 322
#     4  11  21  36  57  78 104 142 182 216 260 319
#     4   9  16  30  50  74 102 132 169 213 258 309
#     4   9  16  27  45  72 104 133 165 209 259 308
#     4  11  22  36  55  80 108 134 175 228 270 311
#     4  10  23  39  53  76 109 142 174 221 273 312
#     4   8  15  29  48  72 101 131 168 211 252 300
#
# _framework density 18.276053999999998
#
# number of rings (size 3 to 8) (size 9 to 14) (size 15 to 20)
#    0.000    2.286    1.429    3.000    0.000    4.000 
#    0.000    2.143    0.000    0.857    0.000    6.000 
#    0.000    0.000    0.000    0.000    0.000    0.000 
#
# Total GULP energy -347084.674753 kJ/mol
# GULP energy per Si atom -12395.881241 kJ/mol
# Density = 1.823446 g / cm^3
# Si number density = 18.276054 Si / 1000 Ang^3
#
#
#
# Elastic Constant Matrix: (Units=GPa)
#
#
# Indices 1 2 3 4 5 6 
#
# 1 42.3374 15.2627 12.4138 0.0000 5.3690 0.0000
# 2 15.2627 60.4600 34.0539 0.0002 2.9359 -0.0001
# 3 12.4138 34.0539 109.2338 0.0001 -4.7905 -0.0001
# 4 0.0000 0.0002 0.0001 31.0968 0.0000 1.4475
# 5 5.3690 2.9359 -4.7905 0.0000 7.0023 0.0000
# 6 0.0000 -0.0001 -0.0001 1.4475 0.0000 25.1083
#
#
#
# Elastic Compliance Matrix: (Units=1/GPa)
#
#
# Indices 1 2 3 4 5 6 
#
# 1 0.028928 -0.004643 -0.002812 0.000000 -0.022157 0.000000
# 2 -0.004643 0.022042 -0.006797 0.000000 -0.010332 0.000000
# 3 -0.002812 -0.006797 0.012178 0.000000 0.013337 0.000000
# 4 0.000000 0.000000 0.000000 0.032244 0.000000 -0.001859
# 5 -0.022157 -0.010332 0.013337 0.000000 0.173254 0.000000
# 6 0.000000 0.000000 0.000000 -0.001859 0.000000 0.039935
#
#
# Mechanical properties :
#
#
# Convention : Reuss Voigt Hill
#
# Bulk Modulus (GPa) = 28.86474 37.27688 33.07081
# Shear Modulus (GPa) = 14.34174 22.66156 18.50165
#
# Velocity S-wave (km/s) = 2.80434 3.52513 3.18519
# Velocity P-wave (km/s) = 5.12970 6.08355 5.62687
#
# Compressibility (1/GPa) = 0.03464435
#
# Stress axis : x y z
#
# Youngs Moduli (GPa) = 34.56880 45.36766 82.11439
#
# Poissons Ratio (x) = 0.21064 0.23088
# Poissons Ratio (y) = 0.16050 0.55814
# Poissons Ratio (z) = 0.09720 0.30837
#
# Static dielectric constant tensor:
#      x y z
#    x 3.087200 0.000000 -0.117140 
#    y 0.000000 3.339800 0.000000 
#    z -0.117140 0.000000 3.988770 
# 
# 
# High freq. dielectric constant tensor:
#      x y z
#    x 1.666230 0.000000 -0.007850 
#    y 0.000000 1.699890 0.000000 
#    z -0.007850 0.000000 1.732310 
# 
# From -- ./inp_files/319670.got.cif
#   From: 2010.06.25/outbox.cif.g09.slc.cpg/sg12_160_cif.got.tgz:319670.got - 2010.06.28 00:19:55.
