data_PCOD8102837
_publ_section_title
;
Structure prediction by ZEFSAII (Michael W. Deem and Ramdas Pophale) SiO2 
 PCOD8102837
Probable space group: C 2/M
;
_chemical_formula_sum "Si O2"
_cell_formula_units_Z 56
_cell_length_a 7.575973
_cell_length_b 27.742634
_cell_length_c 14.204642
_cell_angle_alpha 90.000000
_cell_angle_beta 63.782422
_cell_angle_gamma 90.000000
_cell_volume 2678.356201
_symmetry_space_group_name_H-M "C 2/M"
_symmetry_group_IT_number 12
_symmetry_cell_setting 'monoclinic'
loop_
_space_group_symop_operation_xyz
x,y,z
-x,y,-z
-x,-y,-z
x,-y,z
1/2+x,1/2+y,z
1/2-x,1/2+y,-z
1/2-x,1/2-y,-z
1/2+x,1/2-y,z
loop_
_atom_site_type_symbol
_atom_site_label
_atom_site_fract_x
_atom_site_fract_y
_atom_site_fract_z
Si Si1 0.074852 0.617943 0.628959
Si Si2 0.838392 0.055223 0.683891
Si Si3 0.957964 0.201496 0.220292
Si Si4 0.929641 0.689580 0.804990
Si Si5 0.690933 0.627430 0.607189
Si Si6 0.683809 0.652216 0.019941
Si Si7 0.226248 0.447081 0.922731
O O1 0.174782 0.569305 0.644355
O O2 0.204837 0.641351 0.515132
O O3 0.079139 0.654445 0.716156
O O4 0.853772 0.607806 0.643591
O O5 0.750393 0.064384 0.807496
O O6 0.037469 0.085144 0.624229
O O7 0.893551 0.000000 0.653684
O O8 0.775317 0.188252 0.199427
O O9 0.921260 0.175434 0.329229
O O10 0.970830 0.258556 0.224229
O O11 0.157939 0.180462 0.125466
O O12 0.886044 0.670373 0.921950
O O13 0.500000 0.666811 0.000000
O O14 0.675042 0.594766 0.038640
O O15 0.318301 0.500000 0.925431
O O16 0.000000 0.447582 0.000000
#
# Coordination Sequence:
#
# PCOD8102837 Si02
#       7
#     8   8   8   8   8   8   8
#     4  10  23  41  61  91 125 163 205 259 307 362
#     4  11  23  41  66  94 124 163 210 255 311 374
#     4  10  21  37  57  87 120 157 206 253 305 369
#     4  10  22  36  58  88 119 160 205 250 310 364
#     4  10  22  42  63  87 128 163 205 258 306 363
#     4  10  20  37  59  84 120 156 198 250 305 366
#     4  10  21  37  58  88 122 156 200 252 308 369
#
# _framework density 20.908345000000001
#
# number of rings (size 3 to 8) (size 9 to 14) (size 15 to 20)
#    0.000    1.857    1.429    1.714    2.000    3.714 
#    0.000    1.429    0.000    0.000    0.000    0.000 
#    0.000    0.000    0.000    0.000    0.000    0.000 
#
# Total GULP energy -347127.952791 kJ/mol
# GULP energy per Si atom -12397.426885 kJ/mol
# Density = 2.086076 g / cm^3
# Si number density = 20.908345 Si / 1000 Ang^3
#
#
#
# Elastic Constant Matrix: (Units=GPa)
#
#
# Indices 1 2 3 4 5 6 
#
# 1 45.8611 20.2246 23.2072 0.0000 -6.6562 0.0000
# 2 20.2246 121.1009 40.8419 0.0000 2.9780 0.0000
# 3 23.2072 40.8419 132.2333 0.0000 -10.5827 0.0000
# 4 0.0000 0.0000 0.0000 27.3304 0.0000 -0.1258
# 5 -6.6562 2.9780 -10.5827 0.0000 18.1819 0.0000
# 6 0.0000 0.0000 0.0000 -0.1258 0.0000 30.9151
#
#
#
# Elastic Compliance Matrix: (Units=1/GPa)
#
#
# Indices 1 2 3 4 5 6 
#
# 1 0.026040 -0.003624 -0.002769 0.000000 0.008515 0.000000
# 2 -0.003624 0.009917 -0.002793 0.000000 -0.004577 0.000000
# 3 -0.002769 -0.002793 0.009300 0.000000 0.004857 0.000000
# 4 0.000000 0.000000 0.000000 0.036590 0.000000 0.000149
# 5 0.008515 -0.004577 0.004857 0.000000 0.061693 0.000000
# 6 0.000000 0.000000 0.000000 0.000149 0.000000 0.032347
#
#
# Mechanical properties :
#
#
# Convention : Reuss Voigt Hill
#
# Bulk Modulus (GPa) = 37.19708 51.97140 44.58424
# Shear Modulus (GPa) = 24.60343 29.61360 27.10851
#
# Velocity S-wave (km/s) = 3.43407 3.76753 3.60466
# Velocity P-wave (km/s) = 5.79249 6.62091 6.22051
#
# Compressibility (1/GPa) = 0.02688383
#
# Stress axis : x y z
#
# Youngs Moduli (GPa) = 38.40179 100.83191 107.52865
#
# Poissons Ratio (x) = 0.36545 0.29778
# Poissons Ratio (y) = 0.13918 0.30037
# Poissons Ratio (z) = 0.10634 0.28166
#
# Static dielectric constant tensor:
#      x y z
#    x 3.605700 0.000000 -0.037380 
#    y 0.000000 4.183990 0.000000 
#    z -0.037380 0.000000 4.353770 
# 
# 
# High freq. dielectric constant tensor:
#      x y z
#    x 1.805110 0.000000 -0.007990 
#    y 0.000000 1.812920 0.000000 
#    z -0.007990 0.000000 1.838400 
# 
# From -- ./inp_files/198759.got.cif
#   From: 2010.06.25/outbox.cif.g09.slc.cpg/sg12_100_cif.got.tgz:198759.got - 2010.06.28 00:19:55.
