data_PCOD8102638
_publ_section_title
;
Structure prediction by ZEFSAII (Michael W. Deem and Ramdas Pophale) SiO2 
 PCOD8102638
Probable space group: C 2/M
;
_chemical_formula_sum "Si O2"
_cell_formula_units_Z 56
_cell_length_a 19.305705
_cell_length_b 8.617402
_cell_length_c 25.980096
_cell_angle_alpha 90.000000
_cell_angle_beta 138.025023
_cell_angle_gamma 90.000000
_cell_volume 2890.699331
_symmetry_space_group_name_H-M "C 2/M"
_symmetry_group_IT_number 12
_symmetry_cell_setting 'monoclinic'
loop_
_space_group_symop_operation_xyz
x,y,z
-x,y,-z
-x,-y,-z
x,-y,z
1/2+x,1/2+y,z
1/2-x,1/2+y,-z
1/2-x,1/2-y,-z
1/2+x,1/2-y,z
loop_
_atom_site_type_symbol
_atom_site_label
_atom_site_fract_x
_atom_site_fract_y
_atom_site_fract_z
Si Si1 0.887621 0.819378 0.695031
Si Si2 0.708596 0.820043 0.884006
Si Si3 0.151443 0.318392 0.567689
Si Si4 0.973937 0.820082 0.411180
Si Si5 0.951295 0.819838 0.129886
Si Si6 0.042633 0.321520 0.705973
Si Si7 0.931206 0.318072 0.010080
O O1 0.769913 0.764234 0.634836
O O2 0.936912 0.719190 0.676734
O O3 0.945184 0.783695 0.780552
O O4 0.897168 0.000000 0.685948
O O5 0.647109 0.771253 0.901411
O O6 0.639429 0.784636 0.795978
O O7 0.811906 0.721545 0.934119
O O8 0.737612 0.000000 0.904993
O O9 0.141677 0.500000 0.551463
O O10 0.102122 0.279836 0.595408
O O11 0.092367 0.227845 0.489305
O O12 0.945981 0.786549 0.337104
O O13 0.957538 0.000000 0.414223
O O14 0.922797 0.000000 0.115508
O O15 0.973273 0.767143 0.084066
O O16 0.039697 0.500000 0.687314
O O17 0.944242 0.500000 0.025516
O O18 0.000000 0.260000 0.000000
#
# Coordination Sequence:
#
# PCOD8102638 Si02
#       7
#     8   8   8   8   8   8   8
#     4   9  20  37  58  84 110 140 179 225 274 322
#     4  10  21  38  60  83 108 142 183 224 270 324
#     4  10  20  37  58  80 110 145 184 227 272 323
#     4  11  22  36  55  80 111 147 186 224 270 326
#     4  10  20  37  60  83 110 143 180 222 270 325
#     4  10  21  37  58  83 110 142 181 225 272 322
#     4  11  24  39  55  80 113 146 182 224 270 319
#
# _framework density 19.372474
#
# number of rings (size 3 to 8) (size 9 to 14) (size 15 to 20)
#    0.000    1.857    0.000    4.714    0.000    6.286 
#    0.000    4.286    0.000    0.000    0.000    0.000 
#    0.000    0.000    0.000    0.000    0.000    0.000 
#
# Total GULP energy -347337.117292 kJ/mol
# GULP energy per Si atom -12404.897046 kJ/mol
# Density = 1.932838 g / cm^3
# Si number density = 19.372474 Si / 1000 Ang^3
#
#
#
# Elastic Constant Matrix: (Units=GPa)
#
#
# Indices 1 2 3 4 5 6 
#
# 1 52.0576 2.2632 17.7701 0.0000 -11.0003 0.0000
# 2 2.2632 43.0956 10.8489 -0.0002 -5.7526 0.0003
# 3 17.7701 10.8489 54.7773 0.0000 -14.2100 0.0000
# 4 0.0000 -0.0002 0.0000 29.2107 0.0000 -3.5811
# 5 -11.0003 -5.7526 -14.2100 0.0000 37.6371 0.0000
# 6 0.0000 0.0003 0.0000 -3.5811 0.0000 32.2564
#
#
#
# Elastic Compliance Matrix: (Units=1/GPa)
#
#
# Indices 1 2 3 4 5 6 
#
# 1 0.022217 0.000988 -0.006296 0.000000 0.004267 0.000000
# 2 0.000988 0.024618 -0.004595 0.000000 0.002317 0.000000
# 3 -0.006296 -0.004595 0.022780 0.000000 0.006058 0.000000
# 4 0.000000 0.000000 0.000000 0.034706 0.000000 0.003853
# 5 0.004267 0.002317 0.006058 0.000000 0.030458 0.000000
# 6 0.000000 0.000000 0.000000 0.003853 0.000000 0.031429
#
#
# Mechanical properties :
#
#
# Convention : Reuss Voigt Hill
#
# Bulk Modulus (GPa) = 20.07684 23.52167 21.79925
# Shear Modulus (GPa) = 24.67678 27.75739 26.21708
#
# Velocity S-wave (km/s) = 3.57291 3.78938 3.68274
# Velocity P-wave (km/s) = 5.23517 5.59589 5.41853
#
# Compressibility (1/GPa) = 0.04980863
#
# Stress axis : x y z
#
# Youngs Moduli (GPa) = 45.00960 40.62006 43.89839
#
# Poissons Ratio (x) = -0.04013 0.27639
# Poissons Ratio (y) = -0.04446 0.20173
# Poissons Ratio (z) = 0.28338 0.18666
#
# Static dielectric constant tensor:
#      x y z
#    x 3.482790 0.000000 0.016640 
#    y 0.000000 3.559110 0.000000 
#    z 0.016640 0.000000 3.636680 
# 
# 
# High freq. dielectric constant tensor:
#      x y z
#    x 1.747820 0.000000 -0.001210 
#    y 0.000000 1.763870 0.000000 
#    z -0.001210 0.000000 1.763040 
# 
# From -- ./inp_files/342544.got.cif
#   From: 2010.06.25/outbox.cif.g09.slc.cpg/sg12_172_cif.got.tgz:342544.got - 2010.06.28 00:19:55.
