data_PCOD8102212
_publ_section_title
;
Structure prediction by ZEFSAII (Michael W. Deem and Ramdas Pophale) SiO2 
 PCOD8102212
Probable space group: C 2/M
;
_chemical_formula_sum "Si O2"
_cell_formula_units_Z 64
_cell_length_a 23.247312
_cell_length_b 13.824851
_cell_length_c 9.997325
_cell_angle_alpha 90.000000
_cell_angle_beta 94.592543
_cell_angle_gamma 90.000000
_cell_volume 3202.730422
_symmetry_space_group_name_H-M "C 2/M"
_symmetry_group_IT_number 12
_symmetry_cell_setting 'monoclinic'
loop_
_space_group_symop_operation_xyz
x,y,z
-x,y,-z
-x,-y,-z
x,-y,z
1/2+x,1/2+y,z
1/2-x,1/2+y,-z
1/2-x,1/2-y,-z
1/2+x,1/2-y,z
loop_
_atom_site_type_symbol
_atom_site_label
_atom_site_fract_x
_atom_site_fract_y
_atom_site_fract_z
Si Si1 0.340062 0.385262 0.451118
Si Si2 0.192521 0.611310 0.664448
Si Si3 0.129814 0.293395 0.148112
Si Si4 0.105414 0.615214 0.866136
Si Si5 0.038641 0.113493 0.635022
Si Si6 0.322584 0.389947 0.748276
Si Si7 0.786006 0.384599 0.623204
Si Si8 0.002536 0.258581 0.153210
O O1 0.338542 0.500000 0.455193
O O2 0.396086 0.349417 0.380643
O O3 0.343099 0.352541 0.606326
O O4 0.280637 0.348513 0.369873
O O5 0.177820 0.500000 0.641850
O O6 0.143510 0.656159 0.750269
O O7 0.254104 0.622642 0.747051
O O8 0.191481 0.658218 0.515566
O O9 0.146889 0.179891 0.138214
O O10 0.175300 0.346180 0.251012
O O11 0.065688 0.300862 0.197997
O O12 0.133686 0.342231 0.005010
O O13 0.105111 0.500000 0.876034
O O14 0.040626 0.652055 0.832476
O O15 0.013238 0.168199 0.757582
O O16 0.000000 0.138480 0.500000
O O17 0.036891 0.000000 0.667072
O O18 0.341664 0.500000 0.781461
O O19 0.787814 0.500000 0.621603
O O20 0.000000 0.221189 0.000000
#
# Coordination Sequence:
#
# PCOD8102212 Si02
#       8
#     8   8   8   8   8   8   8   8
#     4   8  16  32  55  84 115 147 176 212 274 330
#     4   8  17  35  57  80 109 147 177 209 274 335
#     4  11  22  34  56  84 103 141 192 226 274 322
#     4  10  22  41  59  76 106 144 184 232 279 325
#     4  10  20  36  61  88 114 146 183 225 267 313
#     4   9  18  34  54  80 116 145 172 215 266 331
#     4   9  18  34  56  84 115 139 175 228 269 322
#     4  10  24  40  54  78 108 147 192 226 272 330
#
# _framework density 19.982949000000001
#
# number of rings (size 3 to 8) (size 9 to 14) (size 15 to 20)
#    0.000    2.625    0.000    2.625    0.000   10.000 
#    0.000    3.125    0.000    8.625    0.000    0.875 
#    0.000    0.000    0.000    0.000    0.000    0.000 
#
# Total GULP energy -396717.123306 kJ/mol
# GULP energy per Si atom -12397.410103 kJ/mol
# Density = 1.993747 g / cm^3
# Si number density = 19.982949 Si / 1000 Ang^3
#
#
#
# Elastic Constant Matrix: (Units=GPa)
#
#
# Indices 1 2 3 4 5 6 
#
# 1 130.6526 28.7864 61.5252 0.0000 -2.4491 0.0000
# 2 28.7864 67.1734 37.6599 0.0000 4.2309 0.0000
# 3 61.5252 37.6599 80.1047 0.0000 -5.4022 0.0000
# 4 0.0000 0.0000 0.0000 28.9873 0.0000 3.4724
# 5 -2.4491 4.2309 -5.4022 0.0000 34.3271 0.0000
# 6 0.0000 0.0000 0.0000 3.4724 0.0000 30.8331
#
#
#
# Elastic Compliance Matrix: (Units=1/GPa)
#
#
# Indices 1 2 3 4 5 6 
#
# 1 0.012004 0.000119 -0.009318 0.000000 -0.000625 0.000000
# 2 0.000119 0.020783 -0.010142 0.000000 -0.004149 0.000000
# 3 -0.009318 -0.010142 0.024710 0.000000 0.004474 0.000000
# 4 0.000000 0.000000 0.000000 0.034970 0.000000 -0.003938
# 5 -0.000625 -0.004149 0.004474 0.000000 0.030302 0.000000
# 6 0.000000 0.000000 0.000000 -0.003938 0.000000 0.032876
#
#
# Mechanical properties :
#
#
# Convention : Reuss Voigt Hill
#
# Bulk Modulus (GPa) = 53.14765 59.31932 56.23349
# Shear Modulus (GPa) = 24.92539 28.82679 26.87609
#
# Velocity S-wave (km/s) = 3.53559 3.80224 3.67134
# Velocity P-wave (km/s) = 6.58190 7.00182 6.79510
#
# Compressibility (1/GPa) = 0.01881551
#
# Stress axis : x y z
#
# Youngs Moduli (GPa) = 83.30769 48.11570 40.46920
#
# Poissons Ratio (x) = -0.00573 0.37708
# Poissons Ratio (y) = -0.00993 0.41045
# Poissons Ratio (z) = 0.77624 0.48800
#
# Static dielectric constant tensor:
#      x y z
#    x 3.975930 0.000000 -0.197280 
#    y 0.000000 3.576620 0.000000 
#    z -0.197280 0.000000 3.580460 
# 
# 
# High freq. dielectric constant tensor:
#      x y z
#    x 1.790570 0.000000 -0.005290 
#    y 0.000000 1.782170 0.000000 
#    z -0.005290 0.000000 1.760770 
# 
# From -- ./inp_files/96873.got.cif
#   From: 2010.06.25/outbox.cif.g09.slc.cpg/sg12_49_cif.got.tgz:96873.got - 2010.06.28 00:19:55.
