data_PCOD8102655
_publ_section_title
;
Structure prediction by ZEFSAII (Michael W. Deem and Ramdas Pophale) SiO2 
 PCOD8102655
Probable space group: C 2/M
;
_chemical_formula_sum "Si O2"
_cell_formula_units_Z 40
_cell_length_a 8.959034
_cell_length_b 10.534890
_cell_length_c 27.145221
_cell_angle_alpha 90.000000
_cell_angle_beta 50.931922
_cell_angle_gamma 90.000000
_cell_volume 1989.155760
_symmetry_space_group_name_H-M "C 2/M"
_symmetry_group_IT_number 12
_symmetry_cell_setting 'monoclinic'
loop_
_space_group_symop_operation_xyz
x,y,z
-x,y,-z
-x,-y,-z
x,-y,z
1/2+x,1/2+y,z
1/2-x,1/2+y,-z
1/2-x,1/2-y,-z
1/2+x,1/2-y,z
loop_
_atom_site_type_symbol
_atom_site_label
_atom_site_fract_x
_atom_site_fract_y
_atom_site_fract_z
Si Si1 0.369419 0.641369 0.573357
Si Si2 0.571967 0.857699 0.359800
Si Si3 0.868785 0.139813 0.217049
Si Si4 0.261930 0.725994 0.136004
Si Si5 0.346755 0.142533 0.946661
O O1 0.500000 0.678434 0.500000
O O2 0.427895 0.500000 0.581132
O O3 0.390375 0.751203 0.608226
O O4 0.151099 0.638713 0.603316
O O5 0.685325 0.814933 0.286882
O O6 0.637414 0.000000 0.363429
O O7 0.820241 0.136481 0.169107
O O8 0.051978 0.222995 0.192204
O O9 0.927366 0.000000 0.220870
O O10 0.423319 0.836507 0.099927
O O11 0.248051 0.649455 0.087801
O O12 0.306652 0.000000 0.975346
O O13 0.250000 0.250000 0.000000
#
# Coordination Sequence:
#
# PCOD8102655 Si02
#       5
#     8   8   8   8   8
#     4  10  21  37  56  81 115 152 190 233 280 331
#     4  10  21  36  57  85 113 146 189 233 280 333
#     4  10  20  37  58  81 112 146 183 230 279 330
#     4  10  22  38  59  83 112 147 185 227 277 333
#     4  11  24  40  60  86 114 147 187 229 277 332
#
# _framework density 20.109033
#
# number of rings (size 3 to 8) (size 9 to 14) (size 15 to 20)
#    0.000    1.800    0.000    3.600    0.000    7.600 
#    0.000    5.000    0.000    0.000    0.000    0.000 
#    0.000    0.000    0.000    0.000    0.000    0.000 
#
# Total GULP energy -247890.229752 kJ/mol
# GULP energy per Si atom -12394.511488 kJ/mol
# Density = 2.006326 g / cm^3
# Si number density = 20.109033 Si / 1000 Ang^3
#
#
#
# Elastic Constant Matrix: (Units=GPa)
#
#
# Indices 1 2 3 4 5 6 
#
# 1 82.3666 38.3804 33.8804 0.0000 -2.3884 0.0000
# 2 38.3804 143.7690 63.4836 0.0000 12.0749 0.0000
# 3 33.8804 63.4836 133.9821 0.0000 -4.5865 0.0000
# 4 0.0000 0.0000 0.0000 98.4228 0.0000 -15.7723
# 5 -2.3884 12.0749 -4.5865 0.0000 32.9451 0.0000
# 6 0.0000 0.0000 0.0000 -15.7723 0.0000 28.9769
#
#
#
# Elastic Compliance Matrix: (Units=1/GPa)
#
#
# Indices 1 2 3 4 5 6 
#
# 1 0.014516 -0.003087 -0.002143 0.000000 0.001885 0.000000
# 2 -0.003087 0.009959 -0.004090 0.000000 -0.004443 0.000000
# 3 -0.002143 -0.004090 0.010038 0.000000 0.002741 0.000000
# 4 0.000000 0.000000 0.000000 0.011131 0.000000 0.006059
# 5 0.001885 -0.004443 0.002741 0.000000 0.032500 0.000000
# 6 0.000000 0.000000 0.000000 0.006059 0.000000 0.037808
#
#
# Mechanical properties :
#
#
# Convention : Reuss Voigt Hill
#
# Bulk Modulus (GPa) = 63.00835 70.17852 66.59344
# Shear Modulus (GPa) = 35.74402 47.02718 41.38560
#
# Velocity S-wave (km/s) = 4.22063 4.84116 4.54151
# Velocity P-wave (km/s) = 7.42650 8.13781 7.79028
#
# Compressibility (1/GPa) = 0.01587091
#
# Stress axis : x y z
#
# Youngs Moduli (GPa) = 68.89142 100.41138 99.62543
#
# Poissons Ratio (x) = 0.30997 0.21354
# Poissons Ratio (y) = 0.21267 0.40750
# Poissons Ratio (z) = 0.14766 0.41071
#
# Static dielectric constant tensor:
#      x y z
#    x 3.640850 0.000000 -0.143430 
#    y 0.000000 3.907550 0.000000 
#    z -0.143430 0.000000 3.886710 
# 
# 
# High freq. dielectric constant tensor:
#      x y z
#    x 1.782340 0.000000 -0.014100 
#    y 0.000000 1.787430 0.000000 
#    z -0.014100 0.000000 1.798440 
# 
# From -- ./inp_files/254685.got.cif
#   From: 2010.06.25/outbox.cif.g09.slc.cpg/sg12_128_cif.got.tgz:254685.got - 2010.06.28 00:19:55.
