data_PCOD8102152
_publ_section_title
;
Structure prediction by ZEFSAII (Michael W. Deem and Ramdas Pophale) SiO2 
 PCOD8102152
Probable space group: C 2/M
;
_chemical_formula_sum "Si O2"
_cell_formula_units_Z 56
_cell_length_a 19.690504
_cell_length_b 24.606229
_cell_length_c 10.224035
_cell_angle_alpha 90.000000
_cell_angle_beta 31.439575
_cell_angle_gamma 90.000000
_cell_volume 2583.812694
_symmetry_space_group_name_H-M "C 2/M"
_symmetry_group_IT_number 12
_symmetry_cell_setting 'monoclinic'
loop_
_space_group_symop_operation_xyz
x,y,z
-x,y,-z
-x,-y,-z
x,-y,z
1/2+x,1/2+y,z
1/2-x,1/2+y,-z
1/2-x,1/2-y,-z
1/2+x,1/2-y,z
loop_
_atom_site_type_symbol
_atom_site_label
_atom_site_fract_x
_atom_site_fract_y
_atom_site_fract_z
Si Si1 0.505790 0.255568 0.725814
Si Si2 0.593366 0.849333 0.453149
Si Si3 0.191488 0.174063 0.086239
Si Si4 0.152901 0.059256 0.254383
Si Si5 0.678407 0.089528 0.792328
Si Si6 0.099874 0.560481 0.644364
Si Si7 0.280316 0.790033 0.222569
O O1 0.500549 0.195026 0.674107
O O2 0.451016 0.302631 0.718296
O O3 0.656882 0.268600 0.511358
O O4 0.406645 0.250554 0.013771
O O5 0.500000 0.878561 0.500000
O O6 0.648084 0.895110 0.460859
O O7 0.711437 0.815078 0.194657
O O8 0.199578 0.108638 0.087093
O O9 0.236223 0.204313 0.143508
O O10 0.196345 0.069477 0.332956
O O11 0.000000 0.058749 0.500000
O O12 0.205998 0.000000 0.119296
O O13 0.684939 0.065615 0.636251
O O14 0.674606 0.154327 0.785830
O O15 0.551651 0.069095 0.076869
O O16 0.120959 0.500000 0.552672
#
# Coordination Sequence:
#
# PCOD8102152 Si02
#       7
#     8   8   8   8   8   8   8
#     4  12  21  36  59  94 126 166 207 254 315 380
#     4  12  22  36  57  89 129 160 204 266 314 373
#     4  11  21  33  57  88 125 165 203 251 318 375
#     4  10  20  36  60  91 122 157 207 263 309 367
#     4  10  20  40  62  88 123 162 212 264 315 380
#     4  11  23  39  64  89 121 170 213 260 322 378
#     4  11  21  35  62  89 125 166 206 256 313 376
#
# _framework density 21.673399
#
# number of rings (size 3 to 8) (size 9 to 14) (size 15 to 20)
#    0.000    1.000    4.286    6.000    0.000    0.857 
#    0.000    0.714    3.143    2.571    0.000    6.000 
#    0.000    0.000    0.000    0.000    0.000    0.000 
#
# Total GULP energy -347091.731277 kJ/mol
# GULP energy per Si atom -12396.133260 kJ/mol
# Density = 2.162407 g / cm^3
# Si number density = 21.673399 Si / 1000 Ang^3
#
#
#
# Elastic Constant Matrix: (Units=GPa)
#
#
# Indices 1 2 3 4 5 6 
#
# 1 78.2589 30.4965 19.4704 -0.0015 -13.8905 -0.0007
# 2 30.4965 141.4573 27.5288 -0.0017 -3.9602 0.0006
# 3 19.4704 27.5288 87.2465 -0.0015 -22.3384 0.0001
# 4 -0.0015 -0.0017 -0.0015 -0.9669 0.0007 0.3231
# 5 -13.8905 -3.9602 -22.3384 0.0007 19.8079 0.0003
# 6 -0.0007 0.0006 0.0001 0.3231 0.0003 25.8322
#
#
#
# Elastic Compliance Matrix: (Units=1/GPa)
#
#
# Indices 1 2 3 4 5 6 
#
# 1 0.015861 -0.003159 0.000201 -0.000012 0.010718 0.000001
# 2 -0.003159 0.008199 -0.002854 -0.000008 -0.003794 0.000000
# 3 0.000201 -0.002854 0.017163 -0.000008 0.018926 0.000000
# 4 -0.000012 -0.000008 -0.000008 -1.029952 0.000018 0.012883
# 5 0.010718 -0.003794 0.018926 0.000018 0.078587 -0.000001
# 6 0.000001 0.000000 0.000000 0.012883 -0.000001 0.038550
#
#
# Mechanical properties :
#
#
# Convention : Reuss Voigt Hill
#
# Bulk Modulus (GPa) = 33.78168 51.32821 42.55494
# Shear Modulus (GPa) = -5.88165 24.23245 9.17540
#
# Velocity S-wave (km/s) = -1.64914 3.34739 2.05978
# Velocity P-wave (km/s) = 3.46328 6.21884 5.03331
#
# Compressibility (1/GPa) = 0.02960185
#
# Stress axis : x y z
#
# Youngs Moduli (GPa) = 63.04631 121.96080 58.26452
#
# Poissons Ratio (x) = 0.38523 -0.01173
# Poissons Ratio (y) = 0.19914 0.16626
# Poissons Ratio (z) = -0.01269 0.34803
#
# Static dielectric constant tensor:
#      x y z
#    x 3.725040 0.000000 -0.180530 
#    y 0.000000 4.314930 0.000000 
#    z -0.180530 0.000000 3.903190 
# 
# 
# High freq. dielectric constant tensor:
#      x y z
#    x 1.829210 0.000000 -0.020660 
#    y 0.000000 1.863590 0.000000 
#    z -0.020660 0.000000 1.830010 
# 
# From -- ./inp_files/80020.got.cif
#   From: 2010.06.25/outbox.cif.g09.slc.cpg/sg12_41_cif.got.tgz:80020.got - 2010.06.28 00:19:55.
