data_PCOD8102056
_publ_section_title
;
Structure prediction by ZEFSAII (Michael W. Deem and Ramdas Pophale) SiO2 
 PCOD8102056
Probable space group: C 2/M
;
_chemical_formula_sum "Si O2"
_cell_formula_units_Z 64
_cell_length_a 28.032196
_cell_length_b 8.949657
_cell_length_c 14.263905
_cell_angle_alpha 90.000000
_cell_angle_beta 72.613089
_cell_angle_gamma 90.000000
_cell_volume 3415.000690
_symmetry_space_group_name_H-M "C 2/M"
_symmetry_group_IT_number 12
_symmetry_cell_setting 'monoclinic'
loop_
_space_group_symop_operation_xyz
x,y,z
-x,y,-z
-x,-y,-z
x,-y,z
1/2+x,1/2+y,z
1/2-x,1/2+y,-z
1/2-x,1/2-y,-z
1/2+x,1/2-y,z
loop_
_atom_site_type_symbol
_atom_site_label
_atom_site_fract_x
_atom_site_fract_y
_atom_site_fract_z
Si Si1 0.249514 0.675802 0.400168
Si Si2 0.660782 0.827744 0.752836
Si Si3 0.004684 0.670229 0.604692
Si Si4 0.893718 0.329666 0.694663
Si Si5 0.185289 0.173421 0.126688
Si Si6 0.651430 0.328895 0.439569
Si Si7 0.092808 0.171827 0.658435
Si Si8 0.201394 0.329791 0.928342
O O1 0.249617 0.500000 0.411909
O O2 0.250000 0.750000 0.500000
O O3 0.296198 0.724019 0.312335
O O4 0.199265 0.732643 0.380010
O O5 0.608224 0.767050 0.741689
O O6 0.663627 0.810333 0.863280
O O7 0.668241 0.000000 0.718651
O O8 0.024849 0.500000 0.591501
O O9 0.951738 0.680156 0.690494
O O10 0.000000 0.727480 0.500000
O O11 0.041799 0.771216 0.643190
O O12 0.878065 0.500000 0.684738
O O13 0.856914 0.263608 0.793740
O O14 0.892546 0.235965 0.598682
O O15 0.241040 0.208998 0.133476
O O16 0.172361 0.000000 0.143831
O O17 0.182202 0.219669 0.019813
O O18 0.662003 0.500000 0.407644
O O19 0.637656 0.310987 0.556741
O O20 0.085531 0.000000 0.691637
O O21 0.199865 0.500000 0.966749
#
# Coordination Sequence:
#
# PCOD8102056 Si02
#       8
#     8   8   8   8   8   8   8   8
#     4  12  23  34  50  74 108 149 189 228 272 327
#     4  11  22  37  58  80 112 153 191 234 281 337
#     4  10  21  38  58  80 110 148 194 238 284 338
#     4  11  22  36  58  84 112 148 188 237 287 340
#     4  10  20  36  60  88 118 148 183 234 285 338
#     4  11  22  35  51  76 111 148 187 231 278 333
#     4  11  23  36  54  79 111 149 190 234 280 335
#     4   9  20  38  59  85 115 150 189 228 278 339
#
# _framework density 18.740846000000001
#
# number of rings (size 3 to 8) (size 9 to 14) (size 15 to 20)
#    0.000    1.375    2.500    3.750    0.000    4.750 
#    0.000    0.000    0.000    0.750    0.000    5.250 
#    0.000    0.000    0.000    0.000    0.000    0.000 
#
# Total GULP energy -396825.908555 kJ/mol
# GULP energy per Si atom -12400.809642 kJ/mol
# Density = 1.869819 g / cm^3
# Si number density = 18.740846 Si / 1000 Ang^3
#
#
#
# Elastic Constant Matrix: (Units=GPa)
#
#
# Indices 1 2 3 4 5 6 
#
# 1 94.6031 49.0589 33.0827 0.0000 14.1963 0.0000
# 2 49.0589 131.2275 37.1231 0.0000 8.1655 0.0000
# 3 33.0827 37.1231 65.9895 0.0000 8.6258 0.0000
# 4 0.0000 0.0000 0.0000 30.6092 0.0000 1.1016
# 5 14.1963 8.1655 8.6258 0.0000 29.7925 0.0000
# 6 0.0000 0.0000 0.0000 1.1016 0.0000 31.7211
#
#
#
# Elastic Compliance Matrix: (Units=1/GPa)
#
#
# Indices 1 2 3 4 5 6 
#
# 1 0.014969 -0.003989 -0.004646 0.000000 -0.004694 0.000000
# 2 -0.003989 0.010157 -0.003740 0.000000 0.000200 0.000000
# 3 -0.004646 -0.003740 0.019918 0.000000 -0.002528 0.000000
# 4 0.000000 0.000000 0.000000 0.032711 0.000000 -0.001136
# 5 -0.004694 0.000200 -0.002528 0.000000 0.036479 0.000000
# 6 0.000000 0.000000 0.000000 -0.001136 0.000000 0.031564
#
#
# Mechanical properties :
#
#
# Convention : Reuss Voigt Hill
#
# Bulk Modulus (GPa) = 49.28133 58.92771 54.10452
# Shear Modulus (GPa) = 28.19856 29.92824 29.06340
#
# Velocity S-wave (km/s) = 3.88320 4.00052 3.94230
# Velocity P-wave (km/s) = 6.81608 7.26985 7.04662
#
# Compressibility (1/GPa) = 0.02029166
#
# Stress axis : x y z
#
# Youngs Moduli (GPa) = 66.80690 98.45003 50.20626
#
# Poissons Ratio (x) = 0.39276 0.23328
# Poissons Ratio (y) = 0.26652 0.18779
# Poissons Ratio (z) = 0.31041 0.36823
#
# Static dielectric constant tensor:
#      x y z
#    x 3.521280 0.000000 0.103760 
#    y 0.000000 3.605760 0.000000 
#    z 0.103760 0.000000 3.253830 
# 
# 
# High freq. dielectric constant tensor:
#      x y z
#    x 1.723750 0.000000 0.011310 
#    y 0.000000 1.741710 0.000000 
#    z 0.011310 0.000000 1.702860 
# 
# From -- ./inp_files/243960.got.cif
#   From: 2010.06.25/outbox.cif.g09.slc.cpg/sg12_122_cif.got.tgz:243960.got - 2010.06.28 00:19:55.
