data_PCOD8102451
_publ_section_title
;
Structure prediction by ZEFSAII (Michael W. Deem and Ramdas Pophale) SiO2 
 PCOD8102451
Probable space group: C 2/M
;
_chemical_formula_sum "Si O2"
_cell_formula_units_Z 40
_cell_length_a 8.814802
_cell_length_b 22.922502
_cell_length_c 9.935845
_cell_angle_alpha 90.000000
_cell_angle_beta 77.248965
_cell_angle_gamma 90.000000
_cell_volume 1958.099165
_symmetry_space_group_name_H-M "C 2/M"
_symmetry_group_IT_number 12
_symmetry_cell_setting 'monoclinic'
loop_
_space_group_symop_operation_xyz
x,y,z
-x,y,-z
-x,-y,-z
x,-y,z
1/2+x,1/2+y,z
1/2-x,1/2+y,-z
1/2-x,1/2-y,-z
1/2+x,1/2-y,z
loop_
_atom_site_type_symbol
_atom_site_label
_atom_site_fract_x
_atom_site_fract_y
_atom_site_fract_z
Si Si1 0.501056 0.620132 0.156576
Si Si2 0.839359 0.651697 0.768805
Si Si3 0.000000 0.663117 0.000000
Si Si4 0.441383 0.500000 0.727589
Si Si5 0.249561 0.000000 0.493177
Si Si6 0.227665 0.776178 0.151428
Si Si7 0.000000 0.594537 0.500000
O O1 0.322861 0.621397 0.240977
O O2 0.575153 0.557726 0.178301
O O3 0.601160 0.673030 0.200309
O O4 0.500000 0.630937 0.000000
O O5 0.815358 0.721126 0.748661
O O6 0.971662 0.632802 0.638514
O O7 0.882719 0.630930 0.916958
O O8 0.097419 0.698291 0.864803
O O9 0.602817 0.500000 0.618459
O O10 0.298525 0.500000 0.652928
O O11 0.347963 0.942794 0.501611
O O12 0.250000 0.750000 0.000000
#
# Coordination Sequence:
#
# PCOD8102451 Si02
#       7
#     8   8   4   4   4   8   4
#     4  12  22  41  66  97 134 167 213 271 323 383
#     4  11  22  38  64  99 126 173 214 261 323 388
#     4  10  20  36  64  91 134 169 204 254 324 392
#     4  11  25  44  67  93 120 171 229 269 310 392
#     4  10  24  48  65  81 124 187 216 253 340 382
#     4  10  20  37  63  94 133 174 203 256 333 396
#     4  11  24  44  68  90 132 171 220 272 312 393
#
# _framework density 20.427973000000001
#
# number of rings (size 3 to 8) (size 9 to 14) (size 15 to 20)
#    0.000    1.200    6.000    2.700    4.200    0.000 
#    0.000    6.000    0.000    3.600    0.000    0.000 
#    0.000    0.000    0.000    0.000    0.000    0.000 
#
# Total GULP energy -247761.808413 kJ/mol
# GULP energy per Si atom -12388.090421 kJ/mol
# Density = 2.038148 g / cm^3
# Si number density = 20.427973 Si / 1000 Ang^3
#
#
#
# Elastic Constant Matrix: (Units=GPa)
#
#
# Indices 1 2 3 4 5 6 
#
# 1 92.4604 25.7637 17.0614 0.0000 4.8765 0.0000
# 2 25.7637 118.9791 30.0002 0.0000 6.7216 0.0000
# 3 17.0614 30.0002 64.3462 0.0000 -5.6166 0.0000
# 4 0.0000 0.0000 0.0000 28.7872 0.0000 -9.6128
# 5 4.8765 6.7216 -5.6166 0.0000 24.5426 0.0000
# 6 0.0000 0.0000 0.0000 -9.6128 0.0000 38.7306
#
#
#
# Elastic Compliance Matrix: (Units=1/GPa)
#
#
# Indices 1 2 3 4 5 6 
#
# 1 0.011915 -0.001803 -0.002533 0.000000 -0.002453 0.000000
# 2 -0.001803 0.010138 -0.004551 0.000000 -0.003460 0.000000
# 3 -0.002533 -0.004551 0.018864 0.000000 0.006067 0.000000
# 4 0.000000 0.000000 0.000000 0.037877 0.000000 0.009401
# 5 -0.002453 -0.003460 0.006067 0.000000 0.043569 0.000000
# 6 0.000000 0.000000 0.000000 0.009401 0.000000 0.028153
#
#
# Mechanical properties :
#
#
# Convention : Reuss Voigt Hill
#
# Bulk Modulus (GPa) = 43.20794 46.82624 45.01709
# Shear Modulus (GPa) = 28.40881 31.94277 30.17579
#
# Velocity S-wave (km/s) = 3.73323 3.95863 3.84758
# Velocity P-wave (km/s) = 6.30714 6.62319 6.46709
#
# Compressibility (1/GPa) = 0.02314389
#
# Stress axis : x y z
#
# Youngs Moduli (GPa) = 83.93116 98.63782 53.01189
#
# Poissons Ratio (x) = 0.17782 0.13427
# Poissons Ratio (y) = 0.15131 0.24124
# Poissons Ratio (z) = 0.21258 0.44887
#
# Static dielectric constant tensor:
#      x y z
#    x -2.222190 0.000000 1.668200 
#    y 0.000000 4.098590 0.000000 
#    z 1.668200 0.000000 2.889380 
# 
# 
# High freq. dielectric constant tensor:
#      x y z
#    x 1.823460 0.000000 -0.008700 
#    y 0.000000 1.790680 0.000000 
#    z -0.008700 0.000000 1.765450 
# 
# From -- ./inp_files/120213.got.cif
#   From: 2010.06.25/outbox.cif.g09.slc.cpg/sg12_61_cif.got.tgz:120213.got - 2010.06.28 00:19:55.
