data_PCOD8102386
_publ_section_title
;
Structure prediction by ZEFSAII (Michael W. Deem and Ramdas Pophale) SiO2 
 PCOD8102386
Probable space group: C 2/M
;
_chemical_formula_sum "Si O2"
_cell_formula_units_Z 56
_cell_length_a 29.816433
_cell_length_b 13.777612
_cell_length_c 11.381726
_cell_angle_alpha 90.000000
_cell_angle_beta 37.068135
_cell_angle_gamma 90.000000
_cell_volume 2818.287531
_symmetry_space_group_name_H-M "C 2/M"
_symmetry_group_IT_number 12
_symmetry_cell_setting 'monoclinic'
loop_
_space_group_symop_operation_xyz
x,y,z
-x,y,-z
-x,-y,-z
x,-y,z
1/2+x,1/2+y,z
1/2-x,1/2+y,-z
1/2-x,1/2-y,-z
1/2+x,1/2-y,z
loop_
_atom_site_type_symbol
_atom_site_label
_atom_site_fract_x
_atom_site_fract_y
_atom_site_fract_z
Si Si1 0.577942 0.108981 0.692656
Si Si2 0.934118 0.267365 0.939855
Si Si3 0.835673 0.114233 0.583735
Si Si4 0.673784 0.888407 0.998601
Si Si5 0.835300 0.241863 0.357270
Si Si6 0.971543 0.809433 0.440702
Si Si7 0.592654 0.108271 0.401453
O O1 0.501019 0.169254 0.855298
O O2 0.636828 0.152127 0.661338
O O3 0.620998 0.111968 0.476973
O O4 0.558746 0.000000 0.771284
O O5 0.883531 0.333609 0.963609
O O6 0.968228 0.180237 0.789399
O O7 0.885204 0.213438 0.140606
O O8 0.850805 0.164375 0.427150
O O9 0.893881 0.146468 0.561445
O O10 0.840771 0.000000 0.553053
O O11 0.756616 0.148829 0.799270
O O12 0.657865 0.871814 0.170685
O O13 0.666460 0.000000 0.979264
O O14 0.750000 0.250000 0.500000
O O15 0.967679 0.693925 0.479983
O O16 0.000000 0.863025 0.500000
O O17 0.557345 0.000000 0.452745
#
# Coordination Sequence:
#
# PCOD8102386 Si02
#       7
#     8   8   8   8   8   8   8
#     4  10  22  38  62  95 128 155 191 254 319 376
#     4  11  21  36  63  94 124 153 204 249 311 379
#     4  11  25  45  63  85 125 172 217 259 303 356
#     4  10  20  36  62  95 125 164 202 245 314 381
#     4  12  24  41  61  88 123 166 211 251 302 369
#     4  11  22  40  63  96 121 165 206 256 314 367
#     4   9  18  34  60  95 130 155 188 246 319 385
#
# _framework density 19.870221999999998
#
# number of rings (size 3 to 8) (size 9 to 14) (size 15 to 20)
#    0.000    1.429    5.714    0.857    0.000    4.000 
#    2.571    1.429    0.000    0.000    0.000    0.000 
#    0.000    0.000    0.000    0.000    0.000    0.000 
#
# Total GULP energy -347044.137693 kJ/mol
# GULP energy per Si atom -12394.433489 kJ/mol
# Density = 1.982500 g / cm^3
# Si number density = 19.870222 Si / 1000 Ang^3
#
#
#
# Elastic Constant Matrix: (Units=GPa)
#
#
# Indices 1 2 3 4 5 6 
#
# 1 115.0427 21.2417 53.2125 0.0000 -19.4008 0.0000
# 2 21.2417 45.6222 25.4177 0.0000 -3.1582 0.0000
# 3 53.2125 25.4177 142.7293 0.0000 4.2821 0.0000
# 4 0.0000 0.0000 0.0000 21.7451 0.0000 4.0022
# 5 -19.4008 -3.1582 4.2821 0.0000 35.9036 0.0000
# 6 0.0000 0.0000 0.0000 4.0022 0.0000 13.4348
#
#
#
# Elastic Compliance Matrix: (Units=1/GPa)
#
#
# Indices 1 2 3 4 5 6 
#
# 1 0.012395 -0.002885 -0.004316 0.000000 0.006959 0.000000
# 2 -0.002885 0.025262 -0.003456 0.000000 0.001075 0.000000
# 3 -0.004316 -0.003456 0.009343 0.000000 -0.003751 0.000000
# 4 0.000000 0.000000 0.000000 0.048655 0.000000 -0.014494
# 5 0.006959 0.001075 -0.003751 0.000000 0.032155 0.000000
# 6 0.000000 0.000000 0.000000 -0.014494 0.000000 0.078751
#
#
# Mechanical properties :
#
#
# Convention : Reuss Voigt Hill
#
# Bulk Modulus (GPa) = 38.92954 55.90425 47.41689
# Shear Modulus (GPa) = 21.14735 27.78487 24.46611
#
# Velocity S-wave (km/s) = 3.26586 3.74346 3.51279
# Velocity P-wave (km/s) = 5.81855 6.84693 6.35358
#
# Compressibility (1/GPa) = 0.02568744
#
# Stress axis : x y z
#
# Youngs Moduli (GPa) = 80.67747 39.58531 107.02823
#
# Poissons Ratio (x) = 0.11419 0.46195
# Poissons Ratio (y) = 0.23273 0.36984
# Poissons Ratio (z) = 0.34822 0.13679
#
# Static dielectric constant tensor:
#      x y z
#    x 3.690870 0.000000 0.266080 
#    y 0.000000 3.461870 0.000000 
#    z 0.266080 0.000000 3.924440 
# 
# 
# High freq. dielectric constant tensor:
#      x y z
#    x 1.784210 0.000000 0.016010 
#    y 0.000000 1.747230 0.000000 
#    z 0.016010 0.000000 1.781370 
# 
# From -- ./inp_files/189592.got.cif
#   From: 2010.06.25/outbox.cif.g09.slc.cpg/sg12_95_cif.got.tgz:189592.got - 2010.06.28 00:19:55.
