data_PCOD8102172
_publ_section_title
;
Structure prediction by ZEFSAII (Michael W. Deem and Ramdas Pophale) SiO2 
 PCOD8102172
Probable space group: C 2/M
;
_chemical_formula_sum "Si O2"
_cell_formula_units_Z 40
_cell_length_a 10.703121
_cell_length_b 20.615556
_cell_length_c 9.167892
_cell_angle_alpha 90.000000
_cell_angle_beta 116.750128
_cell_angle_gamma 90.000000
_cell_volume 1806.407406
_symmetry_space_group_name_H-M "C 2/M"
_symmetry_group_IT_number 12
_symmetry_cell_setting 'monoclinic'
loop_
_space_group_symop_operation_xyz
x,y,z
-x,y,-z
-x,-y,-z
x,-y,z
1/2+x,1/2+y,z
1/2-x,1/2+y,-z
1/2-x,1/2-y,-z
1/2+x,1/2-y,z
loop_
_atom_site_type_symbol
_atom_site_label
_atom_site_fract_x
_atom_site_fract_y
_atom_site_fract_z
Si Si1 0.761260 0.291953 0.708248
Si Si2 0.631416 0.113411 0.995073
Si Si3 0.130981 0.168407 0.359329
Si Si4 0.562956 0.427750 0.876553
Si Si5 0.113070 0.668828 0.678850
O O1 0.834220 0.326753 0.880778
O O2 0.876881 0.246466 0.682351
O O3 0.690100 0.340960 0.554531
O O4 0.635211 0.246837 0.703528
O O5 0.768163 0.070461 0.038179
O O6 0.500000 0.074721 0.000000
O O7 0.570545 0.139901 0.811253
O O8 0.240833 0.137228 0.301261
O O9 0.987742 0.127509 0.264718
O O10 0.511851 0.500000 0.805432
O O11 0.500000 0.408646 0.000000
O O12 0.000000 0.649899 0.500000
#
# Coordination Sequence:
#
# PCOD8102172 Si02
#       5
#     8   8   8   8   8
#     4   9  21  37  63  98 140 169 206 273 332 397
#     4  12  25  38  62 100 132 169 218 267 341 386
#     4   9  20  38  64  96 124 174 220 263 325 382
#     4  11  24  46  70  91 126 178 232 275 307 384
#     4  10  20  36  60  94 133 173 206 261 325 396
#
# _framework density 22.1434
#
# number of rings (size 3 to 8) (size 9 to 14) (size 15 to 20)
#    1.200    0.600    2.000    1.800    2.800    2.800 
#    0.000    2.000    0.000    4.800    0.000    0.000 
#    0.000    0.000    0.000    0.000    0.000    0.000 
#
# Total GULP energy -247815.848361 kJ/mol
# GULP energy per Si atom -12390.792418 kJ/mol
# Density = 2.209300 g / cm^3
# Si number density = 22.143400 Si / 1000 Ang^3
#
#
#
# Elastic Constant Matrix: (Units=GPa)
#
#
# Indices 1 2 3 4 5 6 
#
# 1 120.9397 7.2880 27.7029 0.0000 1.3197 0.0000
# 2 7.2880 70.7765 44.1944 0.0000 7.3182 0.0000
# 3 27.7029 44.1944 153.1812 0.0000 -0.5451 0.0000
# 4 0.0000 0.0000 0.0000 18.3399 0.0000 5.3149
# 5 1.3197 7.3182 -0.5451 0.0000 34.5790 0.0000
# 6 0.0000 0.0000 0.0000 5.3149 0.0000 2.1174
#
#
#
# Elastic Compliance Matrix: (Units=1/GPa)
#
#
# Indices 1 2 3 4 5 6 
#
# 1 0.008632 0.000155 -0.001607 0.000000 -0.000387 0.000000
# 2 0.000155 0.017730 -0.005157 0.000000 -0.003840 0.000000
# 3 -0.001607 -0.005157 0.008311 0.000000 0.001284 0.000000
# 4 0.000000 0.000000 0.000000 0.200054 0.000000 -0.502168
# 5 -0.000387 -0.003840 0.001284 0.000000 0.029767 0.000000
# 6 0.000000 0.000000 0.000000 -0.502168 0.000000 1.732810
#
#
# Mechanical properties :
#
#
# Convention : Reuss Voigt Hill
#
# Bulk Modulus (GPa) = 46.61038 55.91865 51.26452
# Shear Modulus (GPa) = 2.47810 28.72141 15.59975
#
# Velocity S-wave (km/s) = 1.05903 3.60538 2.65710
# Velocity P-wave (km/s) = 4.75294 6.52989 5.71095
#
# Compressibility (1/GPa) = 0.02145445
#
# Stress axis : x y z
#
# Youngs Moduli (GPa) = 115.85338 56.40090 120.31853
#
# Poissons Ratio (x) = -0.00873 0.19336
# Poissons Ratio (y) = -0.01793 0.62048
# Poissons Ratio (z) = 0.18618 0.29086
#
# Static dielectric constant tensor:
#      x y z
#    x 4.323450 0.000000 -0.073300 
#    y 0.000000 3.331930 0.000000 
#    z -0.073300 0.000000 3.720740 
# 
# 
# High freq. dielectric constant tensor:
#      x y z
#    x 1.897090 0.000000 -0.004750 
#    y 0.000000 1.809180 0.000000 
#    z -0.004750 0.000000 1.871300 
# 
# From -- ./inp_files/50964.got.cif
#   From: 2010.06.25/outbox.cif.g09.slc.cpg/sg12_26_cif.got.tgz:50964.got - 2010.06.28 00:19:55.
