data_PCOD8102514
_publ_section_title
;
Structure prediction by ZEFSAII (Michael W. Deem and Ramdas Pophale) SiO2 
 PCOD8102514
Probable space group: C 2/M
;
_chemical_formula_sum "Si O2"
_cell_formula_units_Z 64
_cell_length_a 15.390244
_cell_length_b 31.274110
_cell_length_c 8.769686
_cell_angle_alpha 90.000000
_cell_angle_beta 57.695714
_cell_angle_gamma 90.000000
_cell_volume 3567.674534
_symmetry_space_group_name_H-M "C 2/M"
_symmetry_group_IT_number 12
_symmetry_cell_setting 'monoclinic'
loop_
_space_group_symop_operation_xyz
x,y,z
-x,y,-z
-x,-y,-z
x,-y,z
1/2+x,1/2+y,z
1/2-x,1/2+y,-z
1/2-x,1/2-y,-z
1/2+x,1/2-y,z
loop_
_atom_site_type_symbol
_atom_site_label
_atom_site_fract_x
_atom_site_fract_y
_atom_site_fract_z
Si Si1 0.849360 0.369713 0.478234
Si Si2 0.202248 0.629192 0.130621
Si Si3 0.113885 0.452214 0.708826
Si Si4 0.607836 0.319325 0.985734
Si Si5 0.876715 0.452290 0.944811
Si Si6 0.001131 0.233006 0.320914
Si Si7 0.974987 0.675862 0.846221
Si Si8 0.701683 0.706180 0.600375
O O1 0.854539 0.368011 0.654383
O O2 0.820452 0.417622 0.449365
O O3 0.768650 0.334782 0.490749
O O4 0.960306 0.359675 0.303976
O O5 0.324377 0.639300 0.031856
O O6 0.195474 0.581233 0.074009
O O7 0.144227 0.663596 0.074782
O O8 0.153212 0.500000 0.631183
O O9 0.993855 0.448414 0.779058
O O10 0.130275 0.442399 0.870265
O O11 0.679522 0.291775 0.803108
O O12 0.500000 0.331112 0.000000
O O13 0.595478 0.292100 0.153473
O O14 0.835536 0.500000 0.948189
O O15 0.991467 0.277849 0.244194
O O16 0.000000 0.242541 0.500000
O O17 0.905591 0.201527 0.385291
O O18 0.000000 0.673100 0.000000
O O19 0.750000 0.750000 0.500000
#
# Coordination Sequence:
#
# PCOD8102514 Si02
#       8
#     8   8   8   8   8   8   8   8
#     4  11  21  33  53  80 110 145 187 227 266 322
#     4  11  22  35  56  82 107 142 187 226 271 332
#     4   9  18  33  51  77 116 153 179 215 269 329
#     4   9  22  42  56  75 107 146 182 231 286 319
#     4   9  18  33  52  77 112 148 181 218 271 332
#     4  11  23  38  55  77 106 142 191 238 269 319
#     4  12  23  34  51  77 115 148 181 223 273 330
#     4  10  20  37  56  74 110 150 181 223 275 325
#
# _framework density 17.938855
#
# number of rings (size 3 to 8) (size 9 to 14) (size 15 to 20)
#    0.000    1.750    2.500    3.750    1.750    3.000 
#    0.000    1.250    0.000    0.375    0.000    2.625 
#    0.000   19.000    0.000    0.000    0.000    0.000 
#
# Total GULP energy -396610.880994 kJ/mol
# GULP energy per Si atom -12394.090031 kJ/mol
# Density = 1.789803 g / cm^3
# Si number density = 17.938855 Si / 1000 Ang^3
#
#
#
# Elastic Constant Matrix: (Units=GPa)
#
#
# Indices 1 2 3 4 5 6 
#
# 1 78.2620 55.4030 35.5922 0.0000 6.1740 0.0000
# 2 55.4030 132.3703 47.1825 0.0000 5.6943 0.0000
# 3 35.5922 47.1825 88.9789 0.0000 7.9807 0.0000
# 4 0.0000 0.0000 0.0000 27.1737 0.0000 5.8046
# 5 6.1740 5.6943 7.9807 0.0000 22.0619 0.0000
# 6 0.0000 0.0000 0.0000 5.8046 0.0000 29.7719
#
#
#
# Elastic Compliance Matrix: (Units=1/GPa)
#
#
# Indices 1 2 3 4 5 6 
#
# 1 0.019491 -0.006602 -0.004092 0.000000 -0.002270 0.000000
# 2 -0.006602 0.011560 -0.003501 0.000000 0.000130 0.000000
# 3 -0.004092 -0.003501 0.015036 0.000000 -0.003390 0.000000
# 4 0.000000 0.000000 0.000000 0.038400 0.000000 -0.007487
# 5 -0.002270 0.000130 -0.003390 0.000000 0.047155 0.000000
# 6 0.000000 0.000000 0.000000 -0.007487 0.000000 0.035048
#
#
# Mechanical properties :
#
#
# Convention : Reuss Voigt Hill
#
# Bulk Modulus (GPa) = 56.50494 63.99628 60.25061
# Shear Modulus (GPa) = 24.87821 26.56373 25.72097
#
# Velocity S-wave (km/s) = 3.72806 3.85228 3.79068
# Velocity P-wave (km/s) = 7.07801 7.45244 7.26764
#
# Compressibility (1/GPa) = 0.01769757
#
# Stress axis : x y z
#
# Youngs Moduli (GPa) = 51.30514 86.50624 66.50690
#
# Poissons Ratio (x) = 0.57108 0.27217
# Poissons Ratio (y) = 0.33870 0.23283
# Poissons Ratio (z) = 0.20996 0.30284
#
# Static dielectric constant tensor:
#      x y z
#    x 3.283080 0.000000 -0.002040 
#    y 0.000000 3.413750 0.000000 
#    z -0.002040 0.000000 3.489390 
# 
# 
# High freq. dielectric constant tensor:
#      x y z
#    x 1.673350 0.000000 0.014980 
#    y 0.000000 1.692420 0.000000 
#    z 0.014980 0.000000 1.693560 
# 
# From -- ./inp_files/68238.got.cif
#   From: 2010.06.25/outbox.cif.g09.slc.cpg/sg12_35_cif.got.tgz:68238.got - 2010.06.28 00:19:55.
