data_PCOD8102037
_publ_section_title
;
Structure prediction by ZEFSAII (Michael W. Deem and Ramdas Pophale) SiO2 
 PCOD8102037
Probable space group: C 2/M
;
_chemical_formula_sum "Si O2"
_cell_formula_units_Z 48
_cell_length_a 15.104639
_cell_length_b 8.705741
_cell_length_c 26.701095
_cell_angle_alpha 90.000000
_cell_angle_beta 134.947074
_cell_angle_gamma 90.000000
_cell_volume 2485.026181
_symmetry_space_group_name_H-M "C 2/M"
_symmetry_group_IT_number 12
_symmetry_cell_setting 'monoclinic'
loop_
_space_group_symop_operation_xyz
x,y,z
-x,y,-z
-x,-y,-z
x,-y,z
1/2+x,1/2+y,z
1/2-x,1/2+y,-z
1/2-x,1/2-y,-z
1/2+x,1/2-y,z
loop_
_atom_site_type_symbol
_atom_site_label
_atom_site_fract_x
_atom_site_fract_y
_atom_site_fract_z
Si Si1 0.413589 0.819255 0.826791
Si Si2 0.712861 0.821278 0.675128
Si Si3 0.681171 0.681335 0.924773
Si Si4 0.730423 0.177489 0.566784
Si Si5 0.622018 0.181955 0.076130
Si Si6 0.549531 0.322731 0.418733
O O1 0.307185 0.779049 0.744988
O O2 0.541439 0.739296 0.861948
O O3 0.371506 0.756849 0.864483
O O4 0.436295 0.000000 0.836862
O O5 0.737133 0.776781 0.627284
O O6 0.572469 0.781400 0.635311
O O7 0.737944 0.000000 0.694856
O O8 0.682534 0.500000 0.931270
O O9 0.754771 0.734923 0.904365
O O10 0.750000 0.750000 0.000000
O O11 0.623817 0.280334 0.498818
O O12 0.864630 0.211167 0.595370
O O13 0.692320 0.000000 0.544262
O O14 0.611459 0.000000 0.072184
O O15 0.500000 0.252045 0.000000
O O16 0.509687 0.500000 0.405540
#
# Coordination Sequence:
#
# PCOD8102037 Si02
#       6
#     8   8   8   8   8   8
#     4  11  23  40  59  83 114 150 193 236 283 338
#     4  11  23  39  57  81 118 156 190 230 286 345
#     4  11  21  37  61  86 112 144 185 231 282 338
#     4   9  20  38  59  83 116 156 191 228 284 345
#     4   9  18  36  60  82 109 147 183 221 281 346
#     4  10  20  36  60  88 114 147 195 240 278 328
#
# _framework density 19.315691000000001
#
# number of rings (size 3 to 8) (size 9 to 14) (size 15 to 20)
#    0.000    1.833    1.667    2.500    0.000    5.333 
#    0.000   10.833    0.000    0.000    0.000    0.000 
#    0.000    0.000    0.000    0.000    0.000    0.000 
#
# Total GULP energy -297687.595137 kJ/mol
# GULP energy per Si atom -12403.649797 kJ/mol
# Density = 1.927173 g / cm^3
# Si number density = 19.315691 Si / 1000 Ang^3
#
#
#
# Elastic Constant Matrix: (Units=GPa)
#
#
# Indices 1 2 3 4 5 6 
#
# 1 148.6757 38.4422 70.5241 0.0000 11.0553 0.0000
# 2 38.4422 49.1768 17.9793 0.0000 -0.8759 0.0000
# 3 70.5241 17.9793 105.0012 0.0000 1.7124 0.0000
# 4 0.0000 0.0000 0.0000 36.2291 0.0000 3.9011
# 5 11.0553 -0.8759 1.7124 0.0000 18.7159 0.0000
# 6 0.0000 0.0000 0.0000 3.9011 0.0000 29.9951
#
#
#
# Elastic Compliance Matrix: (Units=1/GPa)
#
#
# Indices 1 2 3 4 5 6 
#
# 1 0.012463 -0.007308 -0.007005 0.000000 -0.007063 0.000000
# 2 -0.007308 0.026012 0.000364 0.000000 0.005501 0.000000
# 3 -0.007005 0.000364 0.014119 0.000000 0.002863 0.000000
# 4 0.000000 0.000000 0.000000 0.027994 0.000000 -0.003641
# 5 -0.007063 0.005501 0.002863 0.000000 0.057598 0.000000
# 6 0.000000 0.000000 0.000000 -0.003641 0.000000 0.033812
#
#
# Mechanical properties :
#
#
# Convention : Reuss Voigt Hill
#
# Bulk Modulus (GPa) = 40.48729 61.86053 51.17391
# Shear Modulus (GPa) = 24.02374 28.71524 26.36949
#
# Velocity S-wave (km/s) = 3.53050 3.85986 3.69885
# Velocity P-wave (km/s) = 6.13397 7.20835 6.69275
#
# Compressibility (1/GPa) = 0.02469911
#
# Stress axis : x y z
#
# Youngs Moduli (GPa) = 80.23529 38.44377 70.82554
#
# Poissons Ratio (x) = 0.28093 0.49610
# Poissons Ratio (y) = 0.58633 -0.02581
# Poissons Ratio (z) = 0.56201 -0.01401
#
# Static dielectric constant tensor:
#      x y z
#    x 3.962270 0.000000 0.022420 
#    y 0.000000 3.462780 0.000000 
#    z 0.022420 0.000000 3.538160 
# 
# 
# High freq. dielectric constant tensor:
#      x y z
#    x 1.768880 0.000000 0.001390 
#    y 0.000000 1.744410 0.000000 
#    z 0.001390 0.000000 1.747720 
# 
# From -- ./inp_files/360319.got.cif
#   From: 2010.06.25/outbox.cif.g09.slc.cpg/sg12_181_cif.got.tgz:360319.got - 2010.06.28 00:19:55.
