data_PCOD8102300
_publ_section_title
;
Structure prediction by ZEFSAII (Michael W. Deem and Ramdas Pophale) SiO2 
 PCOD8102300
Probable space group: C 2/M
;
_chemical_formula_sum "Si O2"
_cell_formula_units_Z 56
_cell_length_a 23.047104
_cell_length_b 14.321528
_cell_length_c 14.807376
_cell_angle_alpha 90.000000
_cell_angle_beta 36.084946
_cell_angle_gamma 90.000000
_cell_volume 2878.639976
_symmetry_space_group_name_H-M "C 2/M"
_symmetry_group_IT_number 12
_symmetry_cell_setting 'monoclinic'
loop_
_space_group_symop_operation_xyz
x,y,z
-x,y,-z
-x,-y,-z
x,-y,z
1/2+x,1/2+y,z
1/2-x,1/2+y,-z
1/2-x,1/2-y,-z
1/2+x,1/2-y,z
loop_
_atom_site_type_symbol
_atom_site_label
_atom_site_fract_x
_atom_site_fract_y
_atom_site_fract_z
Si Si1 0.566945 0.605452 0.283944
Si Si2 0.928100 0.731065 0.173329
Si Si3 0.711064 0.303752 0.381104
Si Si4 0.528748 0.888699 0.189604
Si Si5 0.566220 0.395534 0.706632
Si Si6 0.262001 0.892518 0.131797
Si Si7 0.467915 0.206937 0.446022
O O1 0.546383 0.500000 0.349019
O O2 0.539141 0.605848 0.212800
O O3 0.680352 0.634246 0.159161
O O4 0.499405 0.683973 0.414611
O O5 0.815308 0.728932 0.286490
O O6 0.944888 0.653944 0.230252
O O7 0.948202 0.834128 0.186185
O O8 0.000000 0.709258 0.000000
O O9 0.652811 0.356820 0.533486
O O10 0.725361 0.370638 0.277869
O O11 0.649833 0.211999 0.424335
O O12 0.518814 0.851788 0.303637
O O13 0.518668 0.000000 0.200833
O O14 0.633198 0.846129 0.024147
O O15 0.594381 0.500000 0.701175
O O16 0.285503 0.000000 0.097124
O O17 0.500000 0.158348 0.500000
#
# Coordination Sequence:
#
# PCOD8102300 Si02
#       7
#     8   8   8   8   8   8   8
#     4   9  18  34  61  92 120 146 189 249 307 357
#     4  12  24  42  62  87 122 163 208 246 291 359
#     4  11  21  37  62  92 120 154 201 248 296 359
#     4  11  25  43  61  85 124 164 205 248 291 351
#     4  10  22  39  62  91 122 156 195 251 308 356
#     4  10  20  36  61  94 119 151 198 252 308 351
#     4  11  22  40  62  94 120 159 195 242 309 361
#
# _framework density 19.453631000000001
#
# number of rings (size 3 to 8) (size 9 to 14) (size 15 to 20)
#    0.000    1.429    5.714    0.857    0.000    3.429 
#    2.571    0.000    0.000    0.000    0.000    0.000 
#    0.000    0.000    0.000    0.000    0.000    0.000 
#
# Total GULP energy -347034.028035 kJ/mol
# GULP energy per Si atom -12394.072430 kJ/mol
# Density = 1.940935 g / cm^3
# Si number density = 19.453631 Si / 1000 Ang^3
#
#
#
# Elastic Constant Matrix: (Units=GPa)
#
#
# Indices 1 2 3 4 5 6 
#
# 1 119.3480 43.5078 46.4874 0.0000 -6.9054 0.0000
# 2 43.5078 73.7790 15.8094 0.0000 3.7974 0.0000
# 3 46.4874 15.8094 68.4874 0.0000 -3.4149 0.0000
# 4 0.0000 0.0000 0.0000 20.2787 0.0000 4.3755
# 5 -6.9054 3.7974 -3.4149 0.0000 37.4727 0.0000
# 6 0.0000 0.0000 0.0000 4.3755 0.0000 18.5627
#
#
#
# Elastic Compliance Matrix: (Units=1/GPa)
#
#
# Indices 1 2 3 4 5 6 
#
# 1 0.014035 -0.006727 -0.007847 0.000000 0.002553 0.000000
# 2 -0.006727 0.017599 0.000354 0.000000 -0.002991 0.000000
# 3 -0.007847 0.000354 0.019862 0.000000 0.000328 0.000000
# 4 0.000000 0.000000 0.000000 0.051955 0.000000 -0.012247
# 5 0.002553 -0.002991 0.000328 0.000000 0.027489 0.000000
# 6 0.000000 0.000000 0.000000 -0.012247 0.000000 0.056758
#
#
# Mechanical properties :
#
#
# Convention : Reuss Voigt Hill
#
# Bulk Modulus (GPa) = 43.36919 52.58042 47.97480
# Shear Modulus (GPa) = 22.33915 25.65014 23.99464
#
# Velocity S-wave (km/s) = 3.39237 3.63509 3.51583
# Velocity P-wave (km/s) = 6.13892 6.68624 6.41841
#
# Compressibility (1/GPa) = 0.02305784
#
# Stress axis : x y z
#
# Youngs Moduli (GPa) = 71.25024 56.82237 50.34777
#
# Poissons Ratio (x) = 0.38222 0.39506
# Poissons Ratio (y) = 0.47927 -0.01784
# Poissons Ratio (z) = 0.55907 -0.02013
#
# Static dielectric constant tensor:
#      x y z
#    x 3.905750 0.000000 -0.210650 
#    y 0.000000 3.422600 0.000000 
#    z -0.210650 0.000000 3.497590 
# 
# 
# High freq. dielectric constant tensor:
#      x y z
#    x 1.775560 0.000000 -0.009590 
#    y 0.000000 1.739310 0.000000 
#    z -0.009590 0.000000 1.743790 
# 
# From -- ./inp_files/240862.got.cif
#   From: 2010.06.25/outbox.cif.g09.slc.cpg/sg12_121_cif.got.tgz:240862.got - 2010.06.28 00:19:55.
