data_PCOD8102065
_publ_section_title
;
Structure prediction by ZEFSAII (Michael W. Deem and Ramdas Pophale) SiO2 
 PCOD8102065
Probable space group: C 2/M
;
_chemical_formula_sum "Si O2"
_cell_formula_units_Z 48
_cell_length_a 14.445123
_cell_length_b 13.951430
_cell_length_c 14.443629
_cell_angle_alpha 90.000000
_cell_angle_beta 123.835315
_cell_angle_gamma 90.000000
_cell_volume 2417.852941
_symmetry_space_group_name_H-M "C 2/M"
_symmetry_group_IT_number 12
_symmetry_cell_setting 'monoclinic'
loop_
_space_group_symop_operation_xyz
x,y,z
-x,y,-z
-x,-y,-z
x,-y,z
1/2+x,1/2+y,z
1/2-x,1/2+y,-z
1/2-x,1/2-y,-z
1/2+x,1/2-y,z
loop_
_atom_site_type_symbol
_atom_site_label
_atom_site_fract_x
_atom_site_fract_y
_atom_site_fract_z
Si Si1 0.089847 0.888277 0.982536
Si Si2 0.271250 0.244185 0.619405
Si Si3 0.337876 0.893228 0.157375
Si Si4 0.887357 0.394281 0.396419
Si Si5 0.528623 0.716797 0.773056
Si Si6 0.102509 0.888813 0.626909
O O1 0.056957 0.868452 0.858607
O O2 0.085567 0.000000 0.995976
O O3 0.212070 0.854220 0.081533
O O4 0.000000 0.837425 0.000000
O O5 0.250000 0.250000 0.500000
O O6 0.222636 0.340276 0.635290
O O7 0.402299 0.248579 0.706609
O O8 0.213129 0.152360 0.636986
O O9 0.389663 0.898878 0.288054
O O10 0.408607 0.809718 0.149270
O O11 0.349342 0.000000 0.117856
O O12 0.879510 0.500000 0.436102
O O13 0.000000 0.344241 0.500000
O O14 0.571536 0.679787 0.696643
O O15 0.000000 0.884587 0.500000
O O16 0.124726 0.000000 0.668723
#
# Coordination Sequence:
#
# PCOD8102065 Si02
#       6
#     8   8   8   8   8   8
#     4  10  22  40  63  94 121 155 210 262 310 368
#     4  12  23  37  60  91 127 164 207 256 310 377
#     4  10  21  39  61  86 122 157 198 259 308 362
#     4  10  20  36  60  88 119 155 200 251 308 367
#     4  12  23  39  68  90 124 169 214 252 317 380
#     4  11  24  43  62  90 131 171 210 260 317 378
#
# _framework density 19.852323999999999
#
# number of rings (size 3 to 8) (size 9 to 14) (size 15 to 20)
#    0.000    1.167    3.333    3.500    0.000    4.000 
#    0.000    0.000    0.000    0.500    0.000    0.000 
#    0.000    0.000    0.000    0.000    0.000    0.000 
#
# Total GULP energy -297429.329806 kJ/mol
# GULP energy per Si atom -12392.888742 kJ/mol
# Density = 1.980714 g / cm^3
# Si number density = 19.852324 Si / 1000 Ang^3
#
#
#
# Elastic Constant Matrix: (Units=GPa)
#
#
# Indices 1 2 3 4 5 6 
#
# 1 119.5492 43.8976 38.3550 0.0000 25.0717 0.0000
# 2 43.8976 83.5615 4.6143 0.0000 19.4623 0.0000
# 3 38.3550 4.6143 100.3131 0.0000 22.4777 0.0000
# 4 0.0000 0.0000 0.0000 26.4437 0.0000 5.0227
# 5 25.0717 19.4623 22.4777 0.0000 43.2254 0.0000
# 6 0.0000 0.0000 0.0000 5.0227 0.0000 16.1695
#
#
#
# Elastic Compliance Matrix: (Units=1/GPa)
#
#
# Indices 1 2 3 4 5 6 
#
# 1 0.012183 -0.005593 -0.003828 0.000000 -0.002558 0.000000
# 2 -0.005593 0.015998 0.002592 0.000000 -0.005307 0.000000
# 3 -0.003828 0.002592 0.012538 0.000000 -0.005467 0.000000
# 4 0.000000 0.000000 0.000000 0.040187 0.000000 -0.012483
# 5 -0.002558 -0.005307 -0.005467 0.000000 0.029850 0.000000
# 6 0.000000 0.000000 0.000000 -0.012483 0.000000 0.065723
#
#
# Mechanical properties :
#
#
# Convention : Reuss Voigt Hill
#
# Bulk Modulus (GPa) = 36.95326 53.01751 44.98539
# Shear Modulus (GPa) = 25.10570 31.60484 28.35527
#
# Velocity S-wave (km/s) = 3.56001 3.99431 3.78340
# Velocity P-wave (km/s) = 5.96261 6.93085 6.46488
#
# Compressibility (1/GPa) = 0.02706121
#
# Stress axis : x y z
#
# Youngs Moduli (GPa) = 82.08209 62.50647 79.75688
#
# Poissons Ratio (x) = 0.34960 0.30529
# Poissons Ratio (y) = 0.45909 -0.20671
# Poissons Ratio (z) = 0.31419 -0.16200
#
# Static dielectric constant tensor:
#      x y z
#    x 3.755370 0.000000 0.206280 
#    y 0.000000 4.025480 0.000000 
#    z 0.206280 0.000000 3.656850 
# 
# 
# High freq. dielectric constant tensor:
#      x y z
#    x 1.767060 0.000000 0.013360 
#    y 0.000000 1.781920 0.000000 
#    z 0.013360 0.000000 1.778840 
# 
# From -- ./inp_files/143577.got.cif
#   From: 2010.06.25/outbox.cif.g09.slc.cpg/sg12_72_cif.got.tgz:143577.got - 2010.06.28 00:19:55.
