data_PCOD8102023
_publ_section_title
;
Structure prediction by ZEFSAII (Michael W. Deem and Ramdas Pophale) SiO2 
 PCOD8102023
Probable space group: C 2/M
;
_chemical_formula_sum "Si O2"
_cell_formula_units_Z 48
_cell_length_a 11.457171
_cell_length_b 15.958499
_cell_length_c 20.731213
_cell_angle_alpha 90.000000
_cell_angle_beta 138.841173
_cell_angle_gamma 90.000000
_cell_volume 2494.698766
_symmetry_space_group_name_H-M "C 2/M"
_symmetry_group_IT_number 12
_symmetry_cell_setting 'monoclinic'
loop_
_space_group_symop_operation_xyz
x,y,z
-x,y,-z
-x,-y,-z
x,-y,z
1/2+x,1/2+y,z
1/2-x,1/2+y,-z
1/2-x,1/2-y,-z
1/2+x,1/2-y,z
loop_
_atom_site_type_symbol
_atom_site_label
_atom_site_fract_x
_atom_site_fract_y
_atom_site_fract_z
Si Si1 0.693180 0.155275 0.722114
Si Si2 0.686695 0.500000 0.998465
Si Si3 0.667378 0.832022 0.995440
Si Si4 0.111089 0.591808 0.482060
Si Si5 0.722258 0.821067 0.165689
Si Si6 0.727978 0.500000 0.159227
Si Si7 0.913694 0.097590 0.695014
O O1 0.494696 0.154815 0.608919
O O2 0.715244 0.240009 0.770045
O O3 0.845835 0.146919 0.730584
O O4 0.697431 0.081674 0.775551
O O5 0.789464 0.500000 0.109741
O O6 0.726039 0.417084 0.973299
O O7 0.481111 0.500000 0.925468
O O8 0.677758 0.804784 0.073456
O O9 0.750000 0.750000 0.000000
O O10 0.467996 0.850603 0.885351
O O11 0.130327 0.500000 0.456647
O O12 0.303575 0.626308 0.585154
O O13 0.000000 0.579714 0.500000
O O14 0.879790 0.888769 0.235187
O O15 0.878752 0.000000 0.694556
#
# Coordination Sequence:
#
# PCOD8102023 Si02
#       7
#     8   4   8   8   8   4   8
#     4  11  19  35  59  87 117 148 194 246 281 338
#     4  11  24  37  60  77 113 158 191 243 294 348
#     4  11  24  42  54  82 121 151 195 247 294 347
#     4   8  15  31  55  86 117 148 183 238 289 336
#     4  11  24  34  59  83 114 154 192 238 292 339
#     4  11  20  34  59  87 101 145 204 235 284 343
#     4  10  20  36  60  87 120 152 191 237 288 348
#
# _framework density 19.2408
#
# number of rings (size 3 to 8) (size 9 to 14) (size 15 to 20)
#    0.000    1.667    1.667    5.000    2.333    4.000 
#    0.000    0.000    0.000    0.000    0.000    1.167 
#    0.000    0.000    0.000    0.000    0.000    0.000 
#
# Total GULP energy -297375.458777 kJ/mol
# GULP energy per Si atom -12390.644116 kJ/mol
# Density = 1.919701 g / cm^3
# Si number density = 19.240800 Si / 1000 Ang^3
#
#
#
# Elastic Constant Matrix: (Units=GPa)
#
#
# Indices 1 2 3 4 5 6 
#
# 1 63.1630 27.5132 37.9174 0.0000 7.2967 0.0000
# 2 27.5132 88.8813 31.0827 0.0000 -10.0483 0.0000
# 3 37.9174 31.0827 130.1774 0.0001 8.2055 0.0000
# 4 0.0000 0.0000 0.0001 23.4914 0.0000 -7.8429
# 5 7.2967 -10.0483 8.2055 0.0000 34.5272 0.0000
# 6 0.0000 0.0000 0.0000 -7.8429 0.0000 25.2976
#
#
#
# Elastic Compliance Matrix: (Units=1/GPa)
#
#
# Indices 1 2 3 4 5 6 
#
# 1 0.021677 -0.005668 -0.004637 0.000000 -0.005129 0.000000
# 2 -0.005668 0.014432 -0.002168 0.000000 0.005913 0.000000
# 3 -0.004637 -0.002168 0.009673 0.000000 -0.001950 0.000000
# 4 0.000000 0.000000 0.000000 0.047484 0.000000 0.014721
# 5 -0.005129 0.005913 -0.001950 0.000000 0.032231 0.000000
# 6 0.000000 0.000000 0.000000 0.014721 0.000000 0.044093
#
#
# Mechanical properties :
#
#
# Convention : Reuss Voigt Hill
#
# Bulk Modulus (GPa) = 47.99413 52.80538 50.39975
# Shear Modulus (GPa) = 24.81606 29.04381 26.92994
#
# Velocity S-wave (km/s) = 3.59522 3.88943 3.74522
# Velocity P-wave (km/s) = 6.49863 6.90466 6.70472
#
# Compressibility (1/GPa) = 0.02083588
#
# Stress axis : x y z
#
# Youngs Moduli (GPa) = 46.13083 69.28968 103.38005
#
# Poissons Ratio (x) = 0.39276 0.47941
# Poissons Ratio (y) = 0.26149 0.22409
# Poissons Ratio (z) = 0.21393 0.15020
#
# Static dielectric constant tensor:
#      x y z
#    x 3.558980 0.000000 0.141410 
#    y 0.000000 3.158180 0.000000 
#    z 0.141410 0.000000 4.414620 
# 
# 
# High freq. dielectric constant tensor:
#      x y z
#    x 1.723180 0.000000 0.006030 
#    y 0.000000 1.733070 0.000000 
#    z 0.006030 0.000000 1.773540 
# 
# From -- ./inp_files/204419.got.cif
#   From: 2010.06.25/outbox.cif.g09.slc.cpg/sg12_103_cif.got.tgz:204419.got - 2010.06.28 00:19:55.
