data_PCOD8102454
_publ_section_title
;
Structure prediction by ZEFSAII (Michael W. Deem and Ramdas Pophale) SiO2 
 PCOD8102454
Probable space group: C 2/M
;
_chemical_formula_sum "Si O2"
_cell_formula_units_Z 48
_cell_length_a 18.643689
_cell_length_b 13.841473
_cell_length_c 24.200775
_cell_angle_alpha 90.000000
_cell_angle_beta 22.055640
_cell_angle_gamma 90.000000
_cell_volume 2345.099351
_symmetry_space_group_name_H-M "C 2/M"
_symmetry_group_IT_number 12
_symmetry_cell_setting 'monoclinic'
loop_
_space_group_symop_operation_xyz
x,y,z
-x,y,-z
-x,-y,-z
x,-y,z
1/2+x,1/2+y,z
1/2-x,1/2+y,-z
1/2-x,1/2-y,-z
1/2+x,1/2-y,z
loop_
_atom_site_type_symbol
_atom_site_label
_atom_site_fract_x
_atom_site_fract_y
_atom_site_fract_z
Si Si1 0.467539 0.775655 0.163739
Si Si2 0.967395 0.109052 0.712911
Si Si3 0.159663 0.889052 0.316260
Si Si4 0.897997 0.716519 0.522294
Si Si5 0.657889 0.207388 0.136415
Si Si6 0.599496 0.889630 0.592026
O O1 0.356582 0.848375 0.202065
O O2 0.324480 0.713869 0.304259
O O3 0.598266 0.827566 0.117217
O O4 0.609387 0.706485 0.026739
O O5 0.187337 0.133757 0.537885
O O6 0.830071 0.118531 0.757688
O O7 0.903281 0.182187 0.806146
O O8 0.957257 0.000000 0.744039
O O9 0.977814 0.826857 0.465818
O O10 0.129918 0.000000 0.355883
O O11 0.947549 0.670066 0.428960
O O12 0.000000 0.659470 0.500000
O O13 0.560931 0.135114 0.248611
O O14 0.578398 0.000000 0.590918
#
# Coordination Sequence:
#
# PCOD8102454 Si02
#       6
#     8   8   8   8   8   8
#     4  10  23  36  59  88 128 167 190 244 310 371
#     4  10  20  36  64  93 118 158 205 252 302 366
#     4  10  21  38  63  96 126 157 200 250 309 373
#     4  10  20  39  62  89 121 159 205 256 309 359
#     4  11  21  40  60  88 127 164 203 246 306 362
#     4  11  22  39  65  88 115 164 220 257 297 364
#
# _framework density 20.468216000000002
#
# number of rings (size 3 to 8) (size 9 to 14) (size 15 to 20)
#    0.000    1.667    3.333    1.500    0.000    5.333 
#    0.000    5.000    0.000    5.000    0.000    0.000 
#    0.000    0.000    0.000    0.000    0.000    0.000 
#
# Total GULP energy -297396.688208 kJ/mol
# GULP energy per Si atom -12391.528675 kJ/mol
# Density = 2.042163 g / cm^3
# Si number density = 20.468216 Si / 1000 Ang^3
#
#
#
# Elastic Constant Matrix: (Units=GPa)
#
#
# Indices 1 2 3 4 5 6 
#
# 1 127.6699 40.6087 31.2119 0.0354 -10.7199 0.0151
# 2 40.6087 78.7332 32.9019 0.0367 -9.4165 -0.0065
# 3 31.2119 32.9019 132.6110 0.0955 -9.2051 0.0155
# 4 0.0354 0.0367 0.0955 13.9068 -0.0461 -12.3032
# 5 -10.7199 -9.4165 -9.2051 -0.0461 27.6906 -0.0294
# 6 0.0151 -0.0065 0.0155 -12.3032 -0.0294 18.7284
#
#
#
# Elastic Compliance Matrix: (Units=1/GPa)
#
#
# Indices 1 2 3 4 5 6 
#
# 1 0.009617 -0.004286 -0.001068 -0.000010 0.001911 -0.000012
# 2 -0.004286 0.016468 -0.002870 0.000027 0.002987 0.000034
# 3 -0.001068 -0.002870 0.008606 -0.000115 0.001472 -0.000081
# 4 -0.000010 0.000027 -0.000115 0.171694 0.000372 0.112791
# 5 0.001911 0.002987 0.001472 0.000372 0.038359 0.000303
# 6 -0.000012 0.000034 -0.000081 0.112791 0.000303 0.127491
#
#
# Mechanical properties :
#
#
# Convention : Reuss Voigt Hill
#
# Bulk Modulus (GPa) = 54.80801 60.93992 57.87397
# Shear Modulus (GPa) = 12.66579 27.68459 20.17519
#
# Velocity S-wave (km/s) = 2.49027 3.68171 3.14297
# Velocity P-wave (km/s) = 5.92485 6.92177 6.44262
#
# Compressibility (1/GPa) = 0.01824551
#
# Stress axis : x y z
#
# Youngs Moduli (GPa) = 103.97894 60.72342 116.19264
#
# Poissons Ratio (x) = 0.26024 0.12405
# Poissons Ratio (y) = 0.44562 0.33346
# Poissons Ratio (z) = 0.11101 0.17427
#
# Static dielectric constant tensor:
#      x y z
#    x 3.930020 0.000010 -0.127680 
#    y 0.000010 3.498660 0.000150 
#    z -0.127680 0.000150 3.766280 
# 
# 
# High freq. dielectric constant tensor:
#      x y z
#    x 1.816900 0.000000 0.001720 
#    y 0.000000 1.768380 0.000010 
#    z 0.001720 0.000010 1.797700 
# 
# From -- ./inp_files/366368.got.cif
#   From: 2010.06.25/outbox.cif.g09.slc.cpg/sg12_184_cif.got.tgz:366368.got - 2010.06.28 00:19:55.
