data_PCOD8102035
_publ_section_title
;
Structure prediction by ZEFSAII (Michael W. Deem and Ramdas Pophale) SiO2 
 PCOD8102035
Probable space group: C 2/M
;
_chemical_formula_sum "Si O2"
_cell_formula_units_Z 44
_cell_length_a 13.876149
_cell_length_b 17.415196
_cell_length_c 9.728978
_cell_angle_alpha 90.000000
_cell_angle_beta 65.046190
_cell_angle_gamma 90.000000
_cell_volume 2131.588375
_symmetry_space_group_name_H-M "C 2/M"
_symmetry_group_IT_number 12
_symmetry_cell_setting 'monoclinic'
loop_
_space_group_symop_operation_xyz
x,y,z
-x,y,-z
-x,-y,-z
x,-y,z
1/2+x,1/2+y,z
1/2-x,1/2+y,-z
1/2-x,1/2-y,-z
1/2+x,1/2-y,z
loop_
_atom_site_type_symbol
_atom_site_label
_atom_site_fract_x
_atom_site_fract_y
_atom_site_fract_z
Si Si1 0.744136 0.708170 0.780599
Si Si2 0.881040 0.588730 0.535679
Si Si3 0.000000 0.669095 0.000000
Si Si4 0.689814 0.136347 0.718951
Si Si5 0.921631 0.912249 0.665880
Si Si6 0.599305 0.291600 0.108971
O O1 0.798801 0.636617 0.676045
O O2 0.703710 0.771103 0.693484
O O3 0.817330 0.758352 0.834644
O O4 0.649197 0.677710 0.935051
O O5 0.866536 0.500000 0.584548
O O6 0.856985 0.600325 0.390679
O O7 0.000000 0.616554 0.500000
O O8 0.896202 0.619472 0.105402
O O9 0.019089 0.722623 0.122620
O O10 0.799346 0.095008 0.692511
O O11 0.953491 0.864004 0.782743
O O12 0.000000 0.882091 0.500000
O O13 0.946702 0.000000 0.686301
#
# Coordination Sequence:
#
# PCOD8102035 Si02
#       6
#     8   8   4   8   8   8
#     4   9  19  36  56  79 110 149 191 232 274 332
#     4  11  23  36  54  86 123 153 185 233 295 351
#     4  10  20  36  60  88 114 140 190 246 292 340
#     4  10  21  39  62  85 112 152 196 238 283 339
#     4  10  22  39  58  83 117 156 196 235 278 336
#     4   9  19  35  56  82 109 144 190 234 280 333
#
# _framework density 20.641884000000001
#
# number of rings (size 3 to 8) (size 9 to 14) (size 15 to 20)
#    0.000    2.182    0.000    3.273    0.000    9.455 
#    0.000    4.091    0.000    0.000    0.000    0.000 
#    0.000    0.000    0.000    0.000    0.000    0.000 
#
# Total GULP energy -272681.029539 kJ/mol
# GULP energy per Si atom -12394.592252 kJ/mol
# Density = 2.059490 g / cm^3
# Si number density = 20.641884 Si / 1000 Ang^3
#
#
#
# Elastic Constant Matrix: (Units=GPa)
#
#
# Indices 1 2 3 4 5 6 
#
# 1 56.4897 -10.0219 10.0728 0.0000 -15.3261 0.0000
# 2 -10.0219 65.0410 34.7657 0.0000 -13.3002 0.0000
# 3 10.0728 34.7657 85.7661 0.0000 -17.8831 0.0000
# 4 0.0000 0.0000 0.0000 27.1239 0.0000 2.3978
# 5 -15.3261 -13.3002 -17.8831 0.0000 38.6459 0.0000
# 6 0.0000 0.0000 0.0000 2.3978 0.0000 -0.4326
#
#
#
# Elastic Compliance Matrix: (Units=1/GPa)
#
#
# Indices 1 2 3 4 5 6 
#
# 1 0.022267 0.007317 -0.003558 0.000000 0.009702 0.000000
# 2 0.007317 0.022445 -0.008568 0.000000 0.006661 0.000000
# 3 -0.003558 -0.008568 0.016205 0.000000 0.003139 0.000000
# 4 0.000000 0.000000 0.000000 0.024743 0.000000 0.137153
# 5 0.009702 0.006661 0.003139 0.000000 0.033469 0.000000
# 6 0.000000 0.000000 0.000000 0.137153 0.000000 -1.551481
#
#
# Mechanical properties :
#
#
# Convention : Reuss Voigt Hill
#
# Bulk Modulus (GPa) = 19.49397 30.77002 25.13199
# Shear Modulus (GPa) = -3.55711 24.56612 10.50450
#
# Velocity S-wave (km/s) = -1.31415 3.45354 2.25831
# Velocity P-wave (km/s) = 2.67614 5.55352 4.35909
#
# Compressibility (1/GPa) = 0.05129792
#
# Stress axis : x y z
#
# Youngs Moduli (GPa) = 44.90905 44.55428 61.70835
#
# Poissons Ratio (x) = -0.32600 0.21957
# Poissons Ratio (y) = -0.32860 0.52874
# Poissons Ratio (z) = 0.15979 0.38176
#
# Static dielectric constant tensor:
#      x y z
#    x 3.959970 0.000000 -0.067330 
#    y 0.000000 3.592840 0.000000 
#    z -0.067330 0.000000 3.853430 
# 
# 
# High freq. dielectric constant tensor:
#      x y z
#    x 1.815370 0.000000 -0.006600 
#    y 0.000000 1.788950 0.000000 
#    z -0.006600 0.000000 1.808540 
# 
# From -- ./inp_files/60989.got.cif
#   From: 2010.06.25/outbox.cif.g09.slc.cpg/sg12_31_cif.got.tgz:60989.got - 2010.06.28 00:19:55.
