data_PCOD8102831
_publ_section_title
;
Structure prediction by ZEFSAII (Michael W. Deem and Ramdas Pophale) SiO2 
 PCOD8102831
Probable space group: C 2/M
;
_chemical_formula_sum "Si O2"
_cell_formula_units_Z 32
_cell_length_a 25.896283
_cell_length_b 8.694839
_cell_length_c 15.257686
_cell_angle_alpha 90.000000
_cell_angle_beta 29.857793
_cell_angle_gamma 90.000000
_cell_volume 1710.351185
_symmetry_space_group_name_H-M "C 2/M"
_symmetry_group_IT_number 12
_symmetry_cell_setting 'monoclinic'
loop_
_space_group_symop_operation_xyz
x,y,z
-x,y,-z
-x,-y,-z
x,-y,z
1/2+x,1/2+y,z
1/2-x,1/2+y,-z
1/2-x,1/2-y,-z
1/2+x,1/2-y,z
loop_
_atom_site_type_symbol
_atom_site_label
_atom_site_fract_x
_atom_site_fract_y
_atom_site_fract_z
Si Si1 0.230124 0.173540 0.936969
Si Si2 0.666033 0.819035 0.558892
Si Si3 0.452055 0.325905 0.911871
Si Si4 0.755038 0.681634 0.258898
O O1 0.288533 0.267456 0.772951
O O2 0.273304 0.000000 0.875018
O O3 0.250000 0.250000 0.000000
O O4 0.106510 0.174971 0.096735
O O5 0.750000 0.750000 0.500000
O O6 0.552602 0.779683 0.761644
O O7 0.677992 0.746082 0.445416
O O8 0.680443 0.000000 0.532458
O O9 0.481470 0.500000 0.896083
O O10 0.370670 0.254411 0.102456
O O11 0.761395 0.500000 0.256987
#
# Coordination Sequence:
#
# PCOD8102831 Si02
#       4
#     8   8   8   8
#     4   9  18  34  59  85 115 149 187 231 281 334
#     4  12  24  39  59  84 114 150 191 235 283 337
#     4   9  20  38  58  84 116 148 188 235 280 333
#     4  10  20  37  59  84 116 150 188 233 281 335
#
# _framework density 18.709609
#
# number of rings (size 3 to 8) (size 9 to 14) (size 15 to 20)
#    1.500    0.500    0.000    5.250    0.000    1.000 
#    0.000    6.250    0.000    7.500    0.000    0.000 
#    0.000    0.000    0.000    0.000    0.000    0.000 
#
# Total GULP energy -198280.121943 kJ/mol
# GULP energy per Si atom -12392.507621 kJ/mol
# Density = 1.866702 g / cm^3
# Si number density = 18.709609 Si / 1000 Ang^3
#
#
#
# Elastic Constant Matrix: (Units=GPa)
#
#
# Indices 1 2 3 4 5 6 
#
# 1 36.5509 19.1001 -10.3418 -0.0004 5.4127 -0.0003
# 2 19.1001 164.6306 19.0625 -0.0014 7.2234 0.0014
# 3 -10.3418 19.0625 47.0605 -0.0002 -0.4265 -0.0003
# 4 -0.0004 -0.0014 -0.0002 36.0075 0.0011 2.0487
# 5 5.4127 7.2234 -0.4265 0.0011 27.8037 -0.0011
# 6 -0.0003 0.0014 -0.0003 2.0487 -0.0011 33.8796
#
#
#
# Elastic Compliance Matrix: (Units=1/GPa)
#
#
# Indices 1 2 3 4 5 6 
#
# 1 0.033143 -0.004679 0.009132 0.000000 -0.005096 0.000000
# 2 -0.004679 0.007115 -0.003919 0.000000 -0.000998 0.000000
# 3 0.009132 -0.003919 0.024840 0.000000 -0.000379 0.000000
# 4 0.000000 0.000000 0.000000 0.027868 -0.000001 -0.001685
# 5 -0.005096 -0.000998 -0.000379 -0.000001 0.037212 0.000001
# 6 0.000000 0.000000 0.000000 -0.001685 0.000001 0.029618
#
#
# Mechanical properties :
#
#
# Convention : Reuss Voigt Hill
#
# Bulk Modulus (GPa) = 15.11346 33.76485 24.43915
# Shear Modulus (GPa) = 27.65755 34.23291 30.94523
#
# Velocity S-wave (km/s) = 3.84898 4.28214 4.07132
# Velocity P-wave (km/s) = 5.27715 6.52188 5.93225
#
# Compressibility (1/GPa) = 0.06616619
#
# Stress axis : x y z
#
# Youngs Moduli (GPa) = 30.17247 140.55568 40.25732
#
# Poissons Ratio (x) = 0.65766 -0.36765
# Poissons Ratio (y) = 0.14118 0.15777
# Poissons Ratio (z) = -0.27555 0.55086
#
# Static dielectric constant tensor:
#      x y z
#    x 3.243390 0.000000 0.055120 
#    y 0.000000 3.612930 0.000000 
#    z 0.055120 0.000000 3.349320 
# 
# 
# High freq. dielectric constant tensor:
#      x y z
#    x 1.706470 0.000000 0.009990 
#    y 0.000000 1.749400 0.000000 
#    z 0.009990 0.000000 1.710450 
# 
# From -- ./inp_files/210542.got.cif
#   From: 2010.06.25/outbox.cif.g09.slc.cpg/sg12_106_cif.got.tgz:210542.got - 2010.06.28 00:19:55.
