data_PCOD8102555
_publ_section_title
;
Structure prediction by ZEFSAII (Michael W. Deem and Ramdas Pophale) SiO2 
 PCOD8102555
Probable space group: C 2/M
;
_chemical_formula_sum "Si O2"
_cell_formula_units_Z 64
_cell_length_a 30.322386
_cell_length_b 9.615712
_cell_length_c 17.088334
_cell_angle_alpha 90.000000
_cell_angle_beta 43.611171
_cell_angle_gamma 90.000000
_cell_volume 3436.710928
_symmetry_space_group_name_H-M "C 2/M"
_symmetry_group_IT_number 12
_symmetry_cell_setting 'monoclinic'
loop_
_space_group_symop_operation_xyz
x,y,z
-x,y,-z
-x,-y,-z
x,-y,z
1/2+x,1/2+y,z
1/2-x,1/2+y,-z
1/2-x,1/2-y,-z
1/2+x,1/2-y,z
loop_
_atom_site_type_symbol
_atom_site_label
_atom_site_fract_x
_atom_site_fract_y
_atom_site_fract_z
Si Si1 0.872916 0.840630 0.339590
Si Si2 0.708611 0.847716 0.963078
Si Si3 0.177707 0.338367 0.174612
Si Si4 0.619092 0.155416 0.933580
Si Si5 0.703790 0.339614 0.710977
Si Si6 0.070343 0.664713 0.428078
Si Si7 0.004107 0.153148 0.086932
Si Si8 0.148460 0.663655 0.480043
O O1 0.812390 0.813948 0.359907
O O2 0.871590 0.742284 0.416064
O O3 0.936247 0.803722 0.209587
O O4 0.872834 0.000000 0.368633
O O5 0.673996 0.799777 0.087844
O O6 0.740049 0.000000 0.936296
O O7 0.762010 0.740465 0.865682
O O8 0.655813 0.857002 0.966438
O O9 0.188335 0.500000 0.178135
O O10 0.113699 0.286558 0.299499
O O11 0.658352 0.242297 0.820097
O O12 0.605631 0.000000 0.917384
O O13 0.554432 0.229202 0.044187
O O14 0.688807 0.500000 0.752062
O O15 0.777459 0.302079 0.633948
O O16 0.065321 0.500000 0.439015
O O17 0.102934 0.716629 0.467407
O O18 0.000000 0.728339 0.500000
O O19 0.024799 0.000000 0.091751
O O20 0.000000 0.147411 0.000000
O O21 0.139890 0.500000 0.505542
#
# Coordination Sequence:
#
# PCOD8102555 Si02
#       8
#     8   8   8   8   8   8   8   8
#     4  10  21  37  57  78 107 146 181 222 274 320
#     4   9  19  33  50  79 112 137 168 220 277 315
#     4   9  17  33  56  76 100 140 183 217 258 319
#     4  11  22  33  52  84 115 142 176 224 277 319
#     4  10  20  37  57  78 109 148 188 222 263 325
#     4   9  18  33  54  79 106 139 178 219 266 317
#     4  10  20  38  57  73 102 146 184 214 257 318
#     4  10  21  35  56  84 108 138 185 232 268 316
#
# _framework density 18.622457000000001
#
# number of rings (size 3 to 8) (size 9 to 14) (size 15 to 20)
#    0.000    2.250    1.250    1.500    0.000    4.750 
#    0.000    3.125    0.000    1.500    0.000    0.000 
#    0.000    0.000    0.000    0.000    0.000    0.000 
#
# Total GULP energy -396696.835034 kJ/mol
# GULP energy per Si atom -12396.776095 kJ/mol
# Density = 1.858007 g / cm^3
# Si number density = 18.622457 Si / 1000 Ang^3
#
#
#
# Elastic Constant Matrix: (Units=GPa)
#
#
# Indices 1 2 3 4 5 6 
#
# 1 100.1177 38.7951 56.4846 0.0005 -9.6846 -0.0006
# 2 38.7951 72.3055 48.9794 0.0044 -5.8047 -0.0022
# 3 56.4846 48.9794 108.8073 0.0009 -10.9336 -0.0002
# 4 0.0005 0.0044 0.0009 25.5044 0.0004 7.8219
# 5 -9.6846 -5.8047 -10.9336 0.0004 25.7760 0.0002
# 6 -0.0006 -0.0022 -0.0002 7.8219 0.0002 20.3429
#
#
#
# Elastic Compliance Matrix: (Units=1/GPa)
#
#
# Indices 1 2 3 4 5 6 
#
# 1 0.015001 -0.003950 -0.005779 0.000001 0.002296 0.000000
# 2 -0.003950 0.020950 -0.007369 -0.000004 0.000108 0.000004
# 3 -0.005779 -0.007369 0.015796 0.000001 0.002870 -0.000001
# 4 0.000001 -0.000004 0.000001 0.044451 -0.000001 -0.017091
# 5 0.002296 0.000108 0.002870 -0.000001 0.040900 0.000000
# 6 0.000000 0.000004 -0.000001 -0.017091 0.000000 0.055729
#
#
# Mechanical properties :
#
#
# Convention : Reuss Voigt Hill
#
# Bulk Modulus (GPa) = 56.97569 63.30541 60.14055
# Shear Modulus (GPa) = 21.47092 23.45609 22.46351
#
# Velocity S-wave (km/s) = 3.39921 3.55288 3.47689
# Velocity P-wave (km/s) = 6.78732 7.13432 6.96298
#
# Compressibility (1/GPa) = 0.01755135
#
# Stress axis : x y z
#
# Youngs Moduli (GPa) = 66.66155 47.73246 63.30705
#
# Poissons Ratio (x) = 0.18854 0.36583
# Poissons Ratio (y) = 0.26331 0.46652
# Poissons Ratio (z) = 0.38522 0.35175
#
# Static dielectric constant tensor:
#      x y z
#    x 3.601070 0.000000 -0.240750 
#    y 0.000000 3.624170 0.000000 
#    z -0.240750 0.000000 3.661190 
# 
# 
# High freq. dielectric constant tensor:
#      x y z
#    x 1.722500 0.000000 0.000100 
#    y 0.000000 1.710550 0.000000 
#    z 0.000100 0.000000 1.724250 
# 
# From -- ./inp_files/295589.got.cif
#   From: 2010.06.25/outbox.cif.g09.slc.cpg/sg12_148_cif.got.tgz:295589.got - 2010.06.28 00:19:55.
