data_PCOD8102457
_publ_section_title
;
Structure prediction by ZEFSAII (Michael W. Deem and Ramdas Pophale) SiO2 
 PCOD8102457
Probable space group: C 2/M
;
_chemical_formula_sum "Si O2"
_cell_formula_units_Z 48
_cell_length_a 12.473861
_cell_length_b 18.300012
_cell_length_c 11.260188
_cell_angle_alpha 90.000000
_cell_angle_beta 69.420358
_cell_angle_gamma 90.000000
_cell_volume 2406.353122
_symmetry_space_group_name_H-M "C 2/M"
_symmetry_group_IT_number 12
_symmetry_cell_setting 'monoclinic'
loop_
_space_group_symop_operation_xyz
x,y,z
-x,y,-z
-x,-y,-z
x,-y,z
1/2+x,1/2+y,z
1/2-x,1/2+y,-z
1/2-x,1/2-y,-z
1/2+x,1/2-y,z
loop_
_atom_site_type_symbol
_atom_site_label
_atom_site_fract_x
_atom_site_fract_y
_atom_site_fract_z
Si Si1 0.411740 0.000000 0.352386
Si Si2 0.236293 0.352049 0.223778
Si Si3 0.406060 0.714216 0.637414
Si Si4 0.663598 0.000000 0.351353
Si Si5 0.958189 0.229310 0.195533
Si Si6 0.341601 0.187555 0.984817
Si Si7 0.182483 0.641034 0.736937
O O1 0.372876 0.932060 0.289011
O O2 0.547225 0.000000 0.320460
O O3 0.351793 0.000000 0.502179
O O4 0.157692 0.291816 0.320527
O O5 0.236171 0.427774 0.294477
O O6 0.368552 0.324373 0.163599
O O7 0.182542 0.368402 0.114403
O O8 0.500000 0.721364 0.500000
O O9 0.466557 0.687921 0.735826
O O10 0.314781 0.650018 0.644625
O O11 0.885732 0.291269 0.294302
O O12 0.035212 0.273165 0.070605
O O13 0.250000 0.250000 0.000000
O O14 0.327316 0.146339 0.115305
#
# Coordination Sequence:
#
# PCOD8102457 Si02
#       7
#     4   8   8   4   8   8   8
#     4  11  26  43  63  88 134 173 214 260 312 383
#     4  10  23  38  64  92 125 171 208 261 323 371
#     4  10  22  36  61  95 125 159 222 266 308 376
#     4  11  26  45  60  90 134 172 218 257 312 388
#     4  10  20  36  64  93 122 163 208 269 320 362
#     4  11  19  39  64  98 126 153 214 270 315 377
#     4  11  23  39  63  96 125 172 206 260 326 373
#
# _framework density 19.947196000000002
#
# number of rings (size 3 to 8) (size 9 to 14) (size 15 to 20)
#    0.000    1.500    5.000    2.500    7.000    2.000 
#    0.000    3.750    0.000    1.000    0.000    0.000 
#    0.000    0.000    0.000    0.000    0.000    0.000 
#
# Total GULP energy -297394.934908 kJ/mol
# GULP energy per Si atom -12391.455621 kJ/mol
# Density = 1.990180 g / cm^3
# Si number density = 19.947196 Si / 1000 Ang^3
#
#
#
# Elastic Constant Matrix: (Units=GPa)
#
#
# Indices 1 2 3 4 5 6 
#
# 1 124.0245 48.6598 42.4634 0.0000 -4.3371 0.0000
# 2 48.6598 98.1251 33.7793 0.0000 7.4490 0.0000
# 3 42.4634 33.7793 95.8957 0.0000 -2.0077 0.0000
# 4 0.0000 0.0000 0.0000 24.2886 0.0000 6.0500
# 5 -4.3371 7.4490 -2.0077 0.0000 36.1472 0.0000
# 6 0.0000 0.0000 0.0000 6.0500 0.0000 26.1419
#
#
#
# Elastic Compliance Matrix: (Units=1/GPa)
#
#
# Indices 1 2 3 4 5 6 
#
# 1 0.011013 -0.004500 -0.003248 0.000000 0.002068 0.000000
# 2 -0.004500 0.013689 -0.002903 0.000000 -0.003522 0.000000
# 3 -0.003248 -0.002903 0.012908 0.000000 0.000926 0.000000
# 4 0.000000 0.000000 0.000000 0.043690 0.000000 -0.010111
# 5 0.002068 -0.003522 0.000926 0.000000 0.028690 0.000000
# 6 0.000000 0.000000 0.000000 -0.010111 0.000000 0.040593
#
#
# Mechanical properties :
#
#
# Convention : Reuss Voigt Hill
#
# Bulk Modulus (GPa) = 61.32018 63.09447 62.20732
# Shear Modulus (GPa) = 28.19720 30.19172 29.19446
#
# Velocity S-wave (km/s) = 3.76386 3.89470 3.82984
# Velocity P-wave (km/s) = 7.04960 7.20585 7.12815
#
# Compressibility (1/GPa) = 0.01630785
#
# Stress axis : x y z
#
# Youngs Moduli (GPa) = 90.80249 73.04895 77.46939
#
# Poissons Ratio (x) = 0.32873 0.25163
# Poissons Ratio (y) = 0.40862 0.22491
# Poissons Ratio (z) = 0.29494 0.21207
#
# Static dielectric constant tensor:
#      x y z
#    x 4.542640 0.000000 0.396030 
#    y 0.000000 3.304120 0.000000 
#    z 0.396030 0.000000 5.402800 
# 
# 
# High freq. dielectric constant tensor:
#      x y z
#    x 1.806260 0.000000 0.005140 
#    y 0.000000 1.733460 0.000000 
#    z 0.005140 0.000000 1.783410 
# 
# From -- ./inp_files/131698.got.cif
#   From: 2010.06.25/outbox.cif.g09.slc.cpg/sg12_66_cif.got.tgz:131698.got - 2010.06.28 00:19:55.
