data_PCOD8102106
_publ_section_title
;
Structure prediction by ZEFSAII (Michael W. Deem and Ramdas Pophale) SiO2 
 PCOD8102106
Probable space group: C 2/M
;
_chemical_formula_sum "Si O2"
_cell_formula_units_Z 64
_cell_length_a 15.298880
_cell_length_b 8.914545
_cell_length_c 28.563898
_cell_angle_alpha 90.000000
_cell_angle_beta 123.476124
_cell_angle_gamma 90.000000
_cell_volume 3249.395802
_symmetry_space_group_name_H-M "C 2/M"
_symmetry_group_IT_number 12
_symmetry_cell_setting 'monoclinic'
loop_
_space_group_symop_operation_xyz
x,y,z
-x,y,-z
-x,-y,-z
x,-y,z
1/2+x,1/2+y,z
1/2-x,1/2+y,-z
1/2-x,1/2-y,-z
1/2+x,1/2-y,z
loop_
_atom_site_type_symbol
_atom_site_label
_atom_site_fract_x
_atom_site_fract_y
_atom_site_fract_z
Si Si1 0.709713 0.828482 0.858323
Si Si2 0.026379 0.328280 0.868125
Si Si3 0.036365 0.828407 0.629914
Si Si4 0.948150 0.822571 0.936912
Si Si5 0.317783 0.823983 0.560026
Si Si6 0.857747 0.822897 0.757884
Si Si7 0.673768 0.673106 0.756916
Si Si8 0.251126 0.675895 0.357648
O O1 0.648341 0.815344 0.889359
O O2 0.827644 0.769561 0.900539
O O3 0.649789 0.725283 0.802455
O O4 0.709396 0.000000 0.840420
O O5 0.990172 0.500000 0.862243
O O6 0.011780 0.247461 0.913002
O O7 0.963532 0.250897 0.807534
O O8 0.072166 0.804137 0.694220
O O9 0.130504 0.782087 0.622615
O O10 0.938109 0.723938 0.590603
O O11 0.003235 0.000000 0.611226
O O12 0.957196 0.000000 0.935415
O O13 0.000000 0.763680 0.000000
O O14 0.250000 0.750000 0.500000
O O15 0.268260 0.774128 0.594901
O O16 0.311478 0.000000 0.551914
O O17 0.766981 0.778432 0.766990
O O18 0.832499 0.764164 0.698520
O O19 0.871457 0.000000 0.760592
O O20 0.709564 0.500000 0.765587
O O21 0.231831 0.500000 0.343944
#
# Coordination Sequence:
#
# PCOD8102106 Si02
#       8
#     8   8   8   8   8   8   8   8
#     4  10  22  38  58  87 122 160 198 245 300 357
#     4  11  23  38  58  88 122 158 202 247 298 357
#     4   9  20  39  60  85 118 154 197 242 295 353
#     4  10  22  42  64  86 118 161 206 253 303 355
#     4  11  24  41  62  87 119 158 203 247 297 353
#     4  11  21  35  59  89 122 157 197 246 303 357
#     4  10  20  36  60  89 123 159 196 243 300 362
#     4   9  21  41  61  85 118 160 198 240 299 360
#
# _framework density 19.695969999999999
#
# number of rings (size 3 to 8) (size 9 to 14) (size 15 to 20)
#    0.000    1.875    1.250    3.000    1.750    5.750 
#    0.000    2.500    0.000    0.000    0.000    0.000 
#    0.000    0.000    0.000    0.000    0.000    0.000 
#
# Total GULP energy -396883.050919 kJ/mol
# GULP energy per Si atom -12402.595341 kJ/mol
# Density = 1.965114 g / cm^3
# Si number density = 19.695970 Si / 1000 Ang^3
#
#
#
# Elastic Constant Matrix: (Units=GPa)
#
#
# Indices 1 2 3 4 5 6 
#
# 1 100.4448 26.5088 57.4185 0.0000 -17.9730 0.0000
# 2 26.5088 53.8550 42.8139 0.0000 -8.5289 0.0000
# 3 57.4185 42.8139 127.8757 0.0000 -18.7696 0.0000
# 4 0.0000 0.0000 0.0000 32.8642 0.0000 -3.8122
# 5 -17.9730 -8.5289 -18.7696 0.0000 25.5240 0.0000
# 6 0.0000 0.0000 0.0000 -3.8122 0.0000 30.9765
#
#
#
# Elastic Compliance Matrix: (Units=1/GPa)
#
#
# Indices 1 2 3 4 5 6 
#
# 1 0.014360 -0.002318 -0.004822 0.000000 0.005791 0.000000
# 2 -0.002318 0.025820 -0.007373 0.000000 0.001574 0.000000
# 3 -0.004822 -0.007373 0.012997 0.000000 0.003698 0.000000
# 4 0.000000 0.000000 0.000000 0.030869 0.000000 0.003799
# 5 0.005791 0.001574 0.003698 0.000000 0.046502 0.000000
# 6 0.000000 0.000000 0.000000 0.003799 0.000000 0.032750
#
#
# Mechanical properties :
#
#
# Convention : Reuss Voigt Hill
#
# Bulk Modulus (GPa) = 41.40590 59.51753 50.46171
# Shear Modulus (GPa) = 24.95336 28.23522 26.59429
#
# Velocity S-wave (km/s) = 3.56325 3.79034 3.67855
# Velocity P-wave (km/s) = 6.16419 7.03131 6.61198
#
# Compressibility (1/GPa) = 0.02415115
#
# Stress axis : x y z
#
# Youngs Moduli (GPa) = 69.63744 38.72969 76.94357
#
# Poissons Ratio (x) = 0.08977 0.37101
# Poissons Ratio (y) = 0.16142 0.56730
# Poissons Ratio (z) = 0.33578 0.28555
#
# Static dielectric constant tensor:
#      x y z
#    x 3.597800 0.000000 -0.046400 
#    y 0.000000 3.542340 0.000000 
#    z -0.046400 0.000000 3.614200 
# 
# 
# High freq. dielectric constant tensor:
#      x y z
#    x 1.772410 0.000000 -0.002650 
#    y 0.000000 1.767570 0.000000 
#    z -0.002650 0.000000 1.762920 
# 
# From -- ./inp_files/375562.got.cif
#   From: 2010.06.25/outbox.cif.g09.slc.cpg/sg12_188_cif.got.tgz:375562.got - 2010.06.28 00:19:55.
