data_PCOD8102202
_publ_section_title
;
Structure prediction by ZEFSAII (Michael W. Deem and Ramdas Pophale) SiO2 
 PCOD8102202
Probable space group: C 2/M
;
_chemical_formula_sum "Si O2"
_cell_formula_units_Z 64
_cell_length_a 27.815496
_cell_length_b 9.001879
_cell_length_c 18.337137
_cell_angle_alpha 90.000000
_cell_angle_beta 135.781571
_cell_angle_gamma 90.000000
_cell_volume 3202.069463
_symmetry_space_group_name_H-M "C 2/M"
_symmetry_group_IT_number 12
_symmetry_cell_setting 'monoclinic'
loop_
_space_group_symop_operation_xyz
x,y,z
-x,y,-z
-x,-y,-z
x,-y,z
1/2+x,1/2+y,z
1/2-x,1/2+y,-z
1/2-x,1/2-y,-z
1/2+x,1/2-y,z
loop_
_atom_site_type_symbol
_atom_site_label
_atom_site_fract_x
_atom_site_fract_y
_atom_site_fract_z
Si Si1 0.907140 0.169277 0.519122
Si Si2 0.649360 0.674707 0.699825
Si Si3 0.164840 0.171314 0.235963
Si Si4 0.952926 0.326629 0.301863
Si Si5 0.408698 0.826910 0.090308
Si Si6 0.026997 0.673091 0.109350
Si Si7 0.294048 0.671743 0.880719
Si Si8 0.730658 0.330130 0.552757
O O1 0.872666 0.218213 0.405655
O O2 0.850823 0.183087 0.521862
O O3 0.967644 0.281236 0.605183
O O4 0.934832 0.000000 0.543596
O O5 0.659162 0.500000 0.719071
O O6 0.589968 0.730146 0.688460
O O7 0.720467 0.751109 0.798317
O O8 0.096474 0.235856 0.198784
O O9 0.163683 0.195795 0.147960
O O10 0.231041 0.256153 0.337778
O O11 0.170993 0.000000 0.264297
O O12 0.945469 0.500000 0.312095
O O13 0.926374 0.290272 0.192417
O O14 0.471728 0.771916 0.108465
O O15 0.395327 0.000000 0.061956
O O16 0.339094 0.740286 0.994718
O O17 0.043915 0.500000 0.136827
O O18 0.000000 0.710791 0.000000
O O19 0.281161 0.500000 0.883483
O O20 0.754193 0.500000 0.573017
O O21 0.750000 0.250000 0.500000
#
# Coordination Sequence:
#
# PCOD8102202 Si02
#       8
#     8   8   8   8   8   8   8   8
#     4  10  23  43  66  92 123 163 208 253 307 373
#     4  11  23  43  69  92 119 161 210 258 313 376
#     4  11  23  38  59  91 126 162 204 255 311 367
#     4  11  25  42  63  93 127 162 204 259 317 370
#     4  10  23  42  61  89 127 167 208 251 310 375
#     4  10  20  36  61  87 117 162 208 247 293 359
#     4  11  23  39  64  95 126 161 208 261 312 365
#     4  11  24  42  63  92 128 166 206 250 306 367
#
# _framework density 19.987072999999999
#
# number of rings (size 3 to 8) (size 9 to 14) (size 15 to 20)
#    0.000    1.375    2.500    2.250    1.750    6.750 
#    0.000    0.000    0.000    0.000    0.000    0.000 
#    0.000    0.000    0.000    0.000    0.000    0.000 
#
# Total GULP energy -397006.791138 kJ/mol
# GULP energy per Si atom -12406.462223 kJ/mol
# Density = 1.994158 g / cm^3
# Si number density = 19.987073 Si / 1000 Ang^3
#
#
#
# Elastic Constant Matrix: (Units=GPa)
#
#
# Indices 1 2 3 4 5 6 
#
# 1 92.8278 41.3156 41.0618 0.0000 -1.4878 0.0000
# 2 41.3156 97.8296 61.8373 0.0000 5.6478 0.0000
# 3 41.0618 61.8373 116.0558 0.0000 12.4121 0.0000
# 4 0.0000 0.0000 0.0000 35.4965 0.0000 7.3573
# 5 -1.4878 5.6478 12.4121 0.0000 33.4584 0.0000
# 6 0.0000 0.0000 0.0000 7.3573 0.0000 29.4352
#
#
#
# Elastic Compliance Matrix: (Units=1/GPa)
#
#
# Indices 1 2 3 4 5 6 
#
# 1 0.013985 -0.004153 -0.002995 0.000000 0.002434 0.000000
# 2 -0.004153 0.016653 -0.007376 0.000000 -0.000260 0.000000
# 3 -0.002995 -0.007376 0.014045 0.000000 -0.004098 0.000000
# 4 0.000000 0.000000 0.000000 0.029711 0.000000 -0.007426
# 5 0.002434 -0.000260 -0.004098 0.000000 0.031560 0.000000
# 6 0.000000 0.000000 0.000000 -0.007426 0.000000 0.035829
#
#
# Mechanical properties :
#
#
# Convention : Reuss Voigt Hill
#
# Bulk Modulus (GPa) = 63.96473 66.12695 65.04584
# Shear Modulus (GPa) = 28.40193 30.51126 29.45660
#
# Velocity S-wave (km/s) = 3.77373 3.91135 3.84315
# Velocity P-wave (km/s) = 7.14566 7.31812 7.23241
#
# Compressibility (1/GPa) = 0.01563362
#
# Stress axis : x y z
#
# Youngs Moduli (GPa) = 71.50389 60.04849 71.20097
#
# Poissons Ratio (x) = 0.24941 0.21328
# Poissons Ratio (y) = 0.29699 0.52517
# Poissons Ratio (z) = 0.21418 0.44291
#
# Static dielectric constant tensor:
#      x y z
#    x 3.646840 0.000000 0.159390 
#    y 0.000000 3.652090 0.000000 
#    z 0.159390 0.000000 2.801730 
# 
# 
# High freq. dielectric constant tensor:
#      x y z
#    x 1.787380 0.000000 0.003990 
#    y 0.000000 1.785440 0.000000 
#    z 0.003990 0.000000 1.784610 
# 
# From -- ./inp_files/295693.got.cif
#   From: 2010.06.25/outbox.cif.g09.slc.cpg/sg12_148_cif.got.tgz:295693.got - 2010.06.28 00:19:55.
