data_PCOD8102101
_publ_section_title
;
Structure prediction by ZEFSAII (Michael W. Deem and Ramdas Pophale) SiO2 
 PCOD8102101
Probable space group: C 2/M
;
_chemical_formula_sum "Si O2"
_cell_formula_units_Z 64
_cell_length_a 15.327441
_cell_length_b 8.950740
_cell_length_c 35.754823
_cell_angle_alpha 90.000000
_cell_angle_beta 41.368220
_cell_angle_gamma 90.000000
_cell_volume 3241.874181
_symmetry_space_group_name_H-M "C 2/M"
_symmetry_group_IT_number 12
_symmetry_cell_setting 'monoclinic'
loop_
_space_group_symop_operation_xyz
x,y,z
-x,y,-z
-x,-y,-z
x,-y,z
1/2+x,1/2+y,z
1/2-x,1/2+y,-z
1/2-x,1/2-y,-z
1/2+x,1/2-y,z
loop_
_atom_site_type_symbol
_atom_site_label
_atom_site_fract_x
_atom_site_fract_y
_atom_site_fract_z
Si Si1 0.579191 0.325956 0.833974
Si Si2 0.353250 0.829356 0.058919
Si Si3 0.231075 0.175011 0.564673
Si Si4 0.233596 0.170298 0.175884
Si Si5 0.753877 0.824184 0.635217
Si Si6 0.059054 0.825917 0.753979
Si Si7 0.822440 0.675646 0.942164
Si Si8 0.446528 0.325576 0.447180
O O1 0.552757 0.500000 0.848607
O O2 0.720705 0.277584 0.805164
O O3 0.576609 0.283843 0.791472
O O4 0.471268 0.233438 0.891736
O O5 0.335027 0.810179 0.108912
O O6 0.252208 0.718198 0.071734
O O7 0.321480 0.000000 0.056977
O O8 0.500000 0.783497 0.000000
O O9 0.203148 0.249553 0.613431
O O10 0.367337 0.236129 0.504112
O O11 0.109288 0.213636 0.576114
O O12 0.245507 0.000000 0.566101
O O13 0.087888 0.219257 0.210695
O O14 0.233383 0.000000 0.190182
O O15 0.661414 0.773009 0.698436
O O16 0.902122 0.775066 0.598408
O O17 0.744234 0.000000 0.633222
O O18 0.087300 0.000000 0.737663
O O19 0.824458 0.500000 0.947547
O O20 0.750000 0.750000 0.000000
O O21 0.428126 0.500000 0.461769
#
# Coordination Sequence:
#
# PCOD8102101 Si02
#       8
#     8   8   8   8   8   8   8   8
#     4  11  23  42  65  90 120 155 199 249 303 361
#     4  10  20  37  61  88 121 156 193 240 301 364
#     4  10  20  36  60  89 121 158 200 246 303 362
#     4  10  21  40  63  88 120 158 195 241 306 363
#     4  11  23  38  59  86 119 158 205 252 297 353
#     4  10  23  43  62  83 120 163 201 248 303 359
#     4  12  24  38  60  89 122 157 197 244 298 361
#     4   9  20  38  58  85 123 162 198 245 302 356
#
# _framework density 19.741665999999999
#
# number of rings (size 3 to 8) (size 9 to 14) (size 15 to 20)
#    0.000    1.625    1.250    3.375    0.000    7.250 
#    0.000    3.750    0.000    0.000    0.000    0.000 
#    0.000    0.000    0.000    0.000    0.000    0.000 
#
# Total GULP energy -396970.937524 kJ/mol
# GULP energy per Si atom -12405.341798 kJ/mol
# Density = 1.969673 g / cm^3
# Si number density = 19.741666 Si / 1000 Ang^3
#
#
#
# Elastic Constant Matrix: (Units=GPa)
#
#
# Indices 1 2 3 4 5 6 
#
# 1 120.6567 45.3243 47.8720 0.0027 8.7906 0.0040
# 2 45.3243 86.6740 46.7686 -0.0050 9.0204 0.0015
# 3 47.8720 46.7686 102.3069 -0.0044 2.3158 -0.0012
# 4 0.0027 -0.0050 -0.0044 34.8131 -0.0020 -0.4049
# 5 8.7906 9.0204 2.3158 -0.0020 25.9536 -0.0010
# 6 0.0040 0.0015 -0.0012 -0.4049 -0.0010 33.7563
#
#
#
# Elastic Compliance Matrix: (Units=1/GPa)
#
#
# Indices 1 2 3 4 5 6 
#
# 1 0.011249 -0.003771 -0.003490 -0.000002 -0.002188 -0.000001
# 2 -0.003771 0.017176 -0.005993 0.000002 -0.004158 -0.000001
# 3 -0.003490 -0.005993 0.014102 0.000001 0.002007 0.000001
# 4 -0.000002 0.000002 0.000001 0.028729 0.000002 0.000345
# 5 -0.002188 -0.004158 0.002007 0.000002 0.040537 0.000002
# 6 -0.000001 -0.000001 0.000001 0.000345 0.000002 0.029628
#
#
# Mechanical properties :
#
#
# Convention : Reuss Voigt Hill
#
# Bulk Modulus (GPa) = 62.43060 65.50750 63.96905
# Shear Modulus (GPa) = 28.85679 30.21610 29.53645
#
# Velocity S-wave (km/s) = 3.82739 3.91650 3.87220
# Velocity P-wave (km/s) = 7.15712 7.32846 7.24330
#
# Compressibility (1/GPa) = 0.01601778
#
# Stress axis : x y z
#
# Youngs Moduli (GPa) = 88.89834 58.22019 70.91289
#
# Poissons Ratio (x) = 0.21958 0.24749
# Poissons Ratio (y) = 0.33528 0.42498
# Poissons Ratio (z) = 0.31025 0.34892
#
# Static dielectric constant tensor:
#      x y z
#    x 3.382930 0.000170 -0.009200 
#    y 0.000170 3.625630 0.000010 
#    z -0.009200 0.000010 3.519400 
# 
# 
# High freq. dielectric constant tensor:
#      x y z
#    x 1.782950 0.000000 0.003030 
#    y 0.000000 1.768640 0.000000 
#    z 0.003030 0.000000 1.766220 
# 
# From -- ./inp_files/375394.got.cif
#   From: 2010.06.25/outbox.cif.g09.slc.cpg/sg12_188_cif.got.tgz:375394.got - 2010.06.28 00:19:55.
