data_PCOD8102180
_publ_section_title
;
Structure prediction by ZEFSAII (Michael W. Deem and Ramdas Pophale) SiO2 
 PCOD8102180
Probable space group: C 2/M
;
_chemical_formula_sum "Si O2"
_cell_formula_units_Z 48
_cell_length_a 18.372926
_cell_length_b 15.673145
_cell_length_c 14.435901
_cell_angle_alpha 90.000000
_cell_angle_beta 38.462558
_cell_angle_gamma 90.000000
_cell_volume 2585.656968
_symmetry_space_group_name_H-M "C 2/M"
_symmetry_group_IT_number 12
_symmetry_cell_setting 'monoclinic'
loop_
_space_group_symop_operation_xyz
x,y,z
-x,y,-z
-x,-y,-z
x,-y,z
1/2+x,1/2+y,z
1/2-x,1/2+y,-z
1/2-x,1/2-y,-z
1/2+x,1/2-y,z
loop_
_atom_site_type_symbol
_atom_site_label
_atom_site_fract_x
_atom_site_fract_y
_atom_site_fract_z
Si Si1 0.545727 0.000000 0.095160
Si Si2 0.908594 0.315650 0.879452
Si Si3 0.368262 0.900582 0.595191
Si Si4 0.725890 0.776522 0.171451
Si Si5 0.310405 0.000000 0.234943
Si Si6 0.121498 0.143399 0.409179
Si Si7 0.634764 0.771321 0.559469
O O1 0.585011 0.083509 0.110574
O O2 0.404484 0.000000 0.224357
O O3 0.614472 0.000000 0.931530
O O4 0.829978 0.306807 0.867759
O O5 0.036164 0.277099 0.736288
O O6 0.853949 0.263002 0.020877
O O7 0.500000 0.883748 0.500000
O O8 0.273055 0.857034 0.759215
O O9 0.354544 0.860587 0.506688
O O10 0.338816 0.000000 0.618079
O O11 0.649241 0.703364 0.294774
O O12 0.228045 0.918576 0.323326
O O13 0.101436 0.196947 0.521853
O O14 0.000000 0.096642 0.500000
O O15 0.750000 0.750000 0.500000
#
# Coordination Sequence:
#
# PCOD8102180 Si02
#       7
#     4   8   8   8   4   8   8
#     4  11  24  36  58  87 124 144 194 251 300 338
#     4  11  21  37  59  89 118 148 195 247 289 345
#     4  10  20  38  62  89 116 153 197 244 288 342
#     4  10  20  36  61  85 117 153 196 238 290 347
#     4  11  23  40  56  86 113 161 194 238 294 355
#     4  11  20  41  58  82 119 157 198 233 292 359
#     4  11  22  37  59  88 120 154 193 241 295 348
#
# _framework density 18.563946999999999
#
# number of rings (size 3 to 8) (size 9 to 14) (size 15 to 20)
#    0.000    1.333    5.000    2.250    2.333    0.000 
#    1.500    0.000    1.833    1.000    0.000    0.000 
#    0.000    0.000    0.000    0.000    0.000    0.000 
#
# Total GULP energy -297541.336174 kJ/mol
# GULP energy per Si atom -12397.555674 kJ/mol
# Density = 1.852169 g / cm^3
# Si number density = 18.563947 Si / 1000 Ang^3
#
#
#
# Elastic Constant Matrix: (Units=GPa)
#
#
# Indices 1 2 3 4 5 6 
#
# 1 75.3352 45.0717 42.6463 0.0000 -4.3844 0.0000
# 2 45.0717 133.4222 55.2202 0.0000 -8.1686 0.0000
# 3 42.6463 55.2202 125.6988 0.0000 -6.1703 0.0000
# 4 0.0000 0.0000 0.0000 27.1547 0.0000 -4.7571
# 5 -4.3844 -8.1686 -6.1703 0.0000 24.3645 0.0000
# 6 0.0000 0.0000 0.0000 -4.7571 0.0000 16.0006
#
#
#
# Elastic Compliance Matrix: (Units=1/GPa)
#
#
# Indices 1 2 3 4 5 6 
#
# 1 0.018358 -0.004391 -0.004262 0.000000 0.000752 0.000000
# 2 -0.004391 0.010316 -0.002948 0.000000 0.001922 0.000000
# 3 -0.004262 -0.002948 0.010744 0.000000 0.000966 0.000000
# 4 0.000000 0.000000 0.000000 0.038849 0.000000 0.011550
# 5 0.000752 0.001922 0.000966 0.000000 0.042068 0.000000
# 6 0.000000 0.000000 0.000000 0.011550 0.000000 0.065932
#
#
# Mechanical properties :
#
#
# Convention : Reuss Voigt Hill
#
# Bulk Modulus (GPa) = 61.67067 68.92584 65.29825
# Shear Modulus (GPa) = 23.26939 26.27182 24.77060
#
# Velocity S-wave (km/s) = 3.54428 3.76600 3.65682
# Velocity P-wave (km/s) = 7.07404 7.49132 7.28567
#
# Compressibility (1/GPa) = 0.01621516
#
# Stress axis : x y z
#
# Youngs Moduli (GPa) = 54.47244 96.93544 93.07578
#
# Poissons Ratio (x) = 0.42569 0.39671
# Poissons Ratio (y) = 0.23921 0.27436
# Poissons Ratio (z) = 0.23218 0.28573
#
# Static dielectric constant tensor:
#      x y z
#    x 3.476760 0.000000 0.172680 
#    y 0.000000 3.528230 0.000000 
#    z 0.172680 0.000000 3.835780 
# 
# 
# High freq. dielectric constant tensor:
#      x y z
#    x 1.711540 0.000000 0.009350 
#    y 0.000000 1.720780 0.000000 
#    z 0.009350 0.000000 1.729240 
# 
# From -- ./inp_files/157688.got.cif
#   From: 2010.06.25/outbox.cif.g09.slc.cpg/sg12_79_cif.got.tgz:157688.got - 2010.06.28 00:19:55.
