data_PCOD8102848
_publ_section_title
;
Structure prediction by ZEFSAII (Michael W. Deem and Ramdas Pophale) SiO2 
 PCOD8102848
Probable space group: C 2/M
;
_chemical_formula_sum "Si O2"
_cell_formula_units_Z 64
_cell_length_a 19.554185
_cell_length_b 9.192049
_cell_length_c 21.307020
_cell_angle_alpha 90.000000
_cell_angle_beta 118.877752
_cell_angle_gamma 90.000000
_cell_volume 3353.562213
_symmetry_space_group_name_H-M "C 2/M"
_symmetry_group_IT_number 12
_symmetry_cell_setting 'monoclinic'
loop_
_space_group_symop_operation_xyz
x,y,z
-x,y,-z
-x,-y,-z
x,-y,z
1/2+x,1/2+y,z
1/2-x,1/2+y,-z
1/2-x,1/2-y,-z
1/2+x,1/2-y,z
loop_
_atom_site_type_symbol
_atom_site_label
_atom_site_fract_x
_atom_site_fract_y
_atom_site_fract_z
Si Si1 0.448974 0.167682 0.191338
Si Si2 0.883917 0.170244 0.908319
Si Si3 0.270791 0.834169 0.773176
Si Si4 0.878909 0.334315 0.701365
Si Si5 0.487523 0.668625 0.566523
Si Si6 0.384654 0.169886 0.296334
Si Si7 0.325291 0.330435 0.558422
Si Si8 0.449588 0.669299 0.069509
O O1 0.534814 0.225293 0.246772
O O2 0.393045 0.196002 0.225552
O O3 0.416343 0.251051 0.116167
O O4 0.453251 0.000000 0.174751
O O5 0.809619 0.259085 0.850890
O O6 0.962479 0.221256 0.907481
O O7 0.869042 0.000000 0.890336
O O8 0.892839 0.204331 0.986100
O O9 0.330319 0.824656 0.742844
O O10 0.193200 0.751377 0.716733
O O11 0.249974 0.000000 0.780933
O O12 0.881311 0.500000 0.676504
O O13 0.841440 0.227973 0.634626
O O14 0.500000 0.713570 0.500000
O O15 0.509257 0.500000 0.587145
O O16 0.541559 0.766734 0.634240
O O17 0.397856 0.700229 0.544383
O O18 0.378484 0.000000 0.309622
O O19 0.306663 0.500000 0.554417
O O20 0.250000 0.250000 0.500000
O O21 0.450323 0.500000 0.084097
#
# Coordination Sequence:
#
# PCOD8102848 Si02
#       8
#     8   8   8   8   8   8   8   8
#     4  10  20  37  59  85 115 150 192 239 288 339
#     4   9  18  34  54  84 121 152 188 238 292 341
#     4  11  23  38  59  86 117 154 194 240 289 342
#     4  10  21  39  60  84 117 151 192 243 289 337
#     4  10  23  43  63  85 116 155 194 233 284 342
#     4  11  24  41  61  85 117 154 192 238 288 344
#     4  11  24  40  62  90 120 153 191 239 288 339
#     4   9  18  32  56  86 117 152 190 237 289 343
#
# _framework density 19.084185000000002
#
# number of rings (size 3 to 8) (size 9 to 14) (size 15 to 20)
#    0.000    1.875    2.500    1.875    1.750    3.750 
#    0.000    1.875    0.000    0.000    0.000    0.000 
#    0.000    0.000    0.000    0.000    0.000    0.000 
#
# Total GULP energy -396913.755399 kJ/mol
# GULP energy per Si atom -12403.554856 kJ/mol
# Density = 1.904075 g / cm^3
# Si number density = 19.084185 Si / 1000 Ang^3
#
#
#
# Elastic Constant Matrix: (Units=GPa)
#
#
# Indices 1 2 3 4 5 6 
#
# 1 50.2344 31.9757 21.9096 0.0000 14.5576 0.0000
# 2 31.9757 94.7091 55.1638 0.0000 6.8493 0.0000
# 3 21.9096 55.1638 101.0151 0.0000 -3.2215 0.0000
# 4 0.0000 0.0000 0.0000 37.5348 0.0000 1.2996
# 5 14.5576 6.8493 -3.2215 0.0000 24.1599 0.0000
# 6 0.0000 0.0000 0.0000 1.2996 0.0000 30.6406
#
#
#
# Elastic Compliance Matrix: (Units=1/GPa)
#
#
# Indices 1 2 3 4 5 6 
#
# 1 0.030898 -0.007310 -0.003251 0.000000 -0.016979 0.000000
# 2 -0.007310 0.017989 -0.008295 0.000000 -0.001801 0.000000
# 3 -0.003251 -0.008295 0.015337 0.000000 0.006356 0.000000
# 4 0.000000 0.000000 0.000000 0.026681 0.000000 -0.001132
# 5 -0.016979 -0.001801 0.006356 0.000000 0.052980 0.000000
# 6 0.000000 0.000000 0.000000 -0.001132 0.000000 0.032684
#
#
# Mechanical properties :
#
#
# Convention : Reuss Voigt Hill
#
# Bulk Modulus (GPa) = 37.72048 51.56186 44.64117
# Shear Modulus (GPa) = 22.40948 27.59437 25.00192
#
# Velocity S-wave (km/s) = 3.43044 3.80666 3.62344
# Velocity P-wave (km/s) = 5.95809 6.81158 6.39908
#
# Compressibility (1/GPa) = 0.02651080
#
# Stress axis : x y z
#
# Youngs Moduli (GPa) = 32.36434 55.59033 65.20023
#
# Poissons Ratio (x) = 0.40639 0.21196
# Poissons Ratio (y) = 0.23660 0.54086
# Poissons Ratio (z) = 0.10521 0.46114
#
# Static dielectric constant tensor:
#      x y z
#    x 3.452880 0.000000 -0.012850 
#    y 0.000000 3.532760 0.000000 
#    z -0.012850 0.000000 3.566550 
# 
# 
# High freq. dielectric constant tensor:
#      x y z
#    x 1.735490 0.000000 -0.002860 
#    y 0.000000 1.743830 0.000000 
#    z -0.002860 0.000000 1.746810 
# 
# From -- ./inp_files/320020.got.cif
#   From: 2010.06.25/outbox.cif.g09.slc.cpg/sg12_161_cif.got.tgz:320020.got - 2010.06.28 00:19:55.
