data_PCOD8102309
_publ_section_title
;
Structure prediction by ZEFSAII (Michael W. Deem and Ramdas Pophale) SiO2 
 PCOD8102309
Probable space group: C 2/M
;
_chemical_formula_sum "Si O2"
_cell_formula_units_Z 48
_cell_length_a 14.792175
_cell_length_b 16.261346
_cell_length_c 8.953294
_cell_angle_alpha 90.000000
_cell_angle_beta 91.792802
_cell_angle_gamma 90.000000
_cell_volume 2152.577183
_symmetry_space_group_name_H-M "C 2/M"
_symmetry_group_IT_number 12
_symmetry_cell_setting 'monoclinic'
loop_
_space_group_symop_operation_xyz
x,y,z
-x,y,-z
-x,-y,-z
x,-y,z
1/2+x,1/2+y,z
1/2-x,1/2+y,-z
1/2-x,1/2-y,-z
1/2+x,1/2-y,z
loop_
_atom_site_type_symbol
_atom_site_label
_atom_site_fract_x
_atom_site_fract_y
_atom_site_fract_z
Si Si1 0.973384 0.328184 0.833172
Si Si2 0.627372 0.090335 0.407052
Si Si3 0.627618 0.233583 0.642695
Si Si4 0.166076 0.091056 0.661913
Si Si5 0.203411 0.221735 0.148007
Si Si6 0.900812 0.092633 0.006167
O O1 0.949192 0.406022 0.726841
O O2 0.881867 0.276946 0.818873
O O3 0.056919 0.275482 0.773857
O O4 0.000000 0.358024 0.000000
O O5 0.606900 0.165550 0.517695
O O6 0.726537 0.097875 0.342184
O O7 0.617245 0.000000 0.483587
O O8 0.621768 0.328494 0.577623
O O9 0.728849 0.220174 0.709174
O O10 0.141490 0.101788 0.833142
O O11 0.132863 0.000000 0.601404
O O12 0.250000 0.250000 0.000000
O O13 0.166944 0.130058 0.118913
O O14 0.912592 0.000000 0.954561
O O15 0.000000 0.136248 0.000000
#
# Coordination Sequence:
#
# PCOD8102309 Si02
#       6
#     8   8   8   8   8   8
#     4  12  24  41  69 100 133 175 227 275 337 405
#     4  11  26  47  67  95 138 181 228 281 335 402
#     4  12  24  41  70  98 134 182 220 278 342 398
#     4  10  20  39  67  94 127 174 222 268 331 394
#     4  12  21  38  65  99 133 169 228 275 333 400
#     4  10  20  36  61  96 135 171 216 278 336 393
#
# _framework density 22.298852
#
# number of rings (size 3 to 8) (size 9 to 14) (size 15 to 20)
#    0.000    0.833    5.000    2.500    0.000    2.333 
#    0.000    0.000    0.000    2.000    0.000    0.000 
#    0.000    0.000    0.000    0.000    0.000    0.000 
#
# Total GULP energy -297427.592836 kJ/mol
# GULP energy per Si atom -12392.816368 kJ/mol
# Density = 2.224810 g / cm^3
# Si number density = 22.298852 Si / 1000 Ang^3
#
#
#
# Elastic Constant Matrix: (Units=GPa)
#
#
# Indices 1 2 3 4 5 6 
#
# 1 100.6414 36.9705 32.4721 0.0000 -8.1937 0.0000
# 2 36.9705 179.6531 52.7769 0.0000 7.7845 0.0000
# 3 32.4721 52.7769 89.3467 0.0000 9.3274 0.0000
# 4 0.0000 0.0000 0.0000 26.4345 0.0000 -1.6108
# 5 -8.1937 7.7845 9.3274 0.0000 38.8308 0.0000
# 6 0.0000 0.0000 0.0000 -1.6108 0.0000 25.7530
#
#
#
# Elastic Compliance Matrix: (Units=1/GPa)
#
#
# Indices 1 2 3 4 5 6 
#
# 1 0.012049 -0.001502 -0.003887 0.000000 0.003777 0.000000
# 2 -0.001502 0.006928 -0.003455 0.000000 -0.000876 0.000000
# 3 -0.003887 -0.003455 0.015036 0.000000 -0.003739 0.000000
# 4 0.000000 0.000000 0.000000 0.037974 0.000000 0.002375
# 5 0.003777 -0.000876 -0.003739 0.000000 0.027624 0.000000
# 6 0.000000 0.000000 0.000000 0.002375 0.000000 0.038979
#
#
# Mechanical properties :
#
#
# Convention : Reuss Voigt Hill
#
# Bulk Modulus (GPa) = 61.24816 68.23115 64.73966
# Shear Modulus (GPa) = 30.91761 34.69842 32.80802
#
# Velocity S-wave (km/s) = 3.72763 3.94898 3.83990
# Velocity P-wave (km/s) = 6.78628 7.17339 6.98251
#
# Compressibility (1/GPa) = 0.01632702
#
# Stress axis : x y z
#
# Youngs Moduli (GPa) = 82.99181 144.33493 66.50541
#
# Poissons Ratio (x) = 0.21672 0.25848
# Poissons Ratio (y) = 0.12461 0.22980
# Poissons Ratio (z) = 0.32256 0.49874
#
# Static dielectric constant tensor:
#      x y z
#    x 4.393850 0.000000 -0.118680 
#    y 0.000000 4.522860 0.000000 
#    z -0.118680 0.000000 3.761340 
# 
# 
# High freq. dielectric constant tensor:
#      x y z
#    x 1.895210 0.000000 -0.023680 
#    y 0.000000 1.887780 0.000000 
#    z -0.023680 0.000000 1.853970 
# 
# From -- ./inp_files/61737.got.cif
#   From: 2010.06.25/outbox.cif.g09.slc.cpg/sg12_31_cif.got.tgz:61737.got - 2010.06.28 00:19:55.
