data_PCOD8102318
_publ_section_title
;
Structure prediction by ZEFSAII (Michael W. Deem and Ramdas Pophale) SiO2 
 PCOD8102318
Probable space group: C 2/M
;
_chemical_formula_sum "Si O2"
_cell_formula_units_Z 52
_cell_length_a 18.400950
_cell_length_b 20.532378
_cell_length_c 8.607208
_cell_angle_alpha 90.000000
_cell_angle_beta 54.233263
_cell_angle_gamma 90.000000
_cell_volume 2638.630346
_symmetry_space_group_name_H-M "C 2/M"
_symmetry_group_IT_number 12
_symmetry_cell_setting 'monoclinic'
loop_
_space_group_symop_operation_xyz
x,y,z
-x,y,-z
-x,-y,-z
x,-y,z
1/2+x,1/2+y,z
1/2-x,1/2+y,-z
1/2-x,1/2-y,-z
1/2+x,1/2-y,z
loop_
_atom_site_type_symbol
_atom_site_label
_atom_site_fract_x
_atom_site_fract_y
_atom_site_fract_z
Si Si1 0.790636 0.161472 0.382078
Si Si2 0.330722 0.425393 0.064580
Si Si3 0.398060 0.371382 0.677351
Si Si4 0.358746 0.749814 0.546116
Si Si5 0.359224 0.926324 0.853165
Si Si6 0.500000 0.839840 0.500000
Si Si7 0.736214 0.074003 0.716375
O O1 0.731430 0.207212 0.343635
O O2 0.862479 0.205654 0.385305
O O3 0.725616 0.123183 0.584863
O O4 0.844680 0.109087 0.213218
O O5 0.362293 0.500000 0.037331
O O6 0.392651 0.386937 0.865993
O O7 0.226838 0.420381 0.148972
O O8 0.500000 0.378124 0.500000
O O9 0.359599 0.298513 0.693712
O O10 0.337192 0.422835 0.658748
O O11 0.444544 0.796065 0.448375
O O12 0.437211 0.881918 0.689278
O O13 0.394949 0.000000 0.809420
O O14 0.333584 0.905295 0.061117
O O15 0.718357 0.000000 0.683772
#
# Coordination Sequence:
#
# PCOD8102318 Si02
#       7
#     8   8   8   8   8   4   8
#     4  10  20  40  56  87 115 153 189 234 281 343
#     4  10  20  36  62  87 109 148 194 235 289 340
#     4  10  20  37  57  85 114 147 193 239 279 341
#     4  10  22  37  58  82 120 154 191 226 287 337
#     4   9  19  35  58  88 116 149 191 234 283 338
#     4  12  19  38  60  88 111 154 194 240 270 336
#     4   9  19  37  59  82 114 153 189 230 288 344
#
# _framework density 19.707194000000001
#
# number of rings (size 3 to 8) (size 9 to 14) (size 15 to 20)
#    0.000    2.154    2.308    2.077    0.000    1.846 
#    5.538    5.385    0.000    6.462    0.000    0.000 
#    0.000    0.000    0.000    0.000    0.000    0.000 
#
# Total GULP energy -322347.265513 kJ/mol
# GULP energy per Si atom -12397.971750 kJ/mol
# Density = 1.966234 g / cm^3
# Si number density = 19.707194 Si / 1000 Ang^3
#
#
#
# Elastic Constant Matrix: (Units=GPa)
#
#
# Indices 1 2 3 4 5 6 
#
# 1 64.8982 51.0008 50.8255 0.0000 -1.8243 0.0000
# 2 51.0008 138.2985 86.7878 0.0000 5.0281 0.0000
# 3 50.8255 86.7878 143.4368 0.0000 5.8633 0.0000
# 4 0.0000 0.0000 0.0000 30.8174 0.0000 4.7769
# 5 -1.8243 5.0281 5.8633 0.0000 26.8389 0.0000
# 6 0.0000 0.0000 0.0000 4.7769 0.0000 36.2033
#
#
#
# Elastic Compliance Matrix: (Units=1/GPa)
#
#
# Indices 1 2 3 4 5 6 
#
# 1 0.024138 -0.005764 -0.005223 0.000000 0.003862 0.000000
# 2 -0.005764 0.013044 -0.005786 0.000000 -0.001572 0.000000
# 3 -0.005223 -0.005786 0.012404 0.000000 -0.001981 0.000000
# 4 0.000000 0.000000 0.000000 0.033127 0.000000 -0.004371
# 5 0.003862 -0.001572 -0.001981 0.000000 0.038249 0.000000
# 6 0.000000 0.000000 0.000000 -0.004371 0.000000 0.028199
#
#
# Mechanical properties :
#
#
# Convention : Reuss Voigt Hill
#
# Bulk Modulus (GPa) = 62.34418 80.42909 71.38663
# Shear Modulus (GPa) = 26.58817 29.30655 27.94736
#
# Velocity S-wave (km/s) = 3.67708 3.86048 3.76989
# Velocity P-wave (km/s) = 7.05208 7.79562 7.43315
#
# Compressibility (1/GPa) = 0.01603999
#
# Stress axis : x y z
#
# Youngs Moduli (GPa) = 41.42920 76.66139 80.61661
#
# Poissons Ratio (x) = 0.44187 0.42108
# Poissons Ratio (y) = 0.23879 0.46645
# Poissons Ratio (z) = 0.21640 0.44356
#
# Static dielectric constant tensor:
#      x y z
#    x 3.430520 0.000000 0.151070 
#    y 0.000000 3.869200 0.000000 
#    z 0.151070 0.000000 3.423910 
# 
# 
# High freq. dielectric constant tensor:
#      x y z
#    x 1.746660 0.000000 0.012830 
#    y 0.000000 1.787040 0.000000 
#    z 0.012830 0.000000 1.750900 
# 
# From -- ./inp_files/88380.got.cif
#   From: 2010.06.25/outbox.cif.g09.slc.cpg/sg12_45_cif.got.tgz:88380.got - 2010.06.28 00:19:55.
