data_PCOD8102228
_publ_section_title
;
Structure prediction by ZEFSAII (Michael W. Deem and Ramdas Pophale) SiO2 
 PCOD8102228
Probable space group: C 2/M
;
_chemical_formula_sum "Si O2"
_cell_formula_units_Z 56
_cell_length_a 23.874926
_cell_length_b 8.900904
_cell_length_c 15.468042
_cell_angle_alpha 90.000000
_cell_angle_beta 62.172564
_cell_angle_gamma 90.000000
_cell_volume 2906.962165
_symmetry_space_group_name_H-M "C 2/M"
_symmetry_group_IT_number 12
_symmetry_cell_setting 'monoclinic'
loop_
_space_group_symop_operation_xyz
x,y,z
-x,y,-z
-x,-y,-z
x,-y,z
1/2+x,1/2+y,z
1/2-x,1/2+y,-z
1/2-x,1/2-y,-z
1/2+x,1/2-y,z
loop_
_atom_site_type_symbol
_atom_site_label
_atom_site_fract_x
_atom_site_fract_y
_atom_site_fract_z
Si Si1 0.157870 0.325255 0.089800
Si Si2 0.022946 0.675036 0.245862
Si Si3 0.757572 0.676429 0.128663
Si Si4 0.605846 0.323242 0.664705
Si Si5 0.717022 0.328505 0.711070
Si Si6 0.148705 0.326387 0.457167
Si Si7 0.058790 0.169659 0.394194
O O1 0.170415 0.500000 0.095724
O O2 0.082984 0.290121 0.140866
O O3 0.189874 0.243070 0.148752
O O4 0.188560 0.269048 0.977953
O O5 0.005243 0.500000 0.257937
O O6 0.041083 0.722348 0.328972
O O7 0.963376 0.770059 0.254258
O O8 0.750998 0.500000 0.133712
O O9 0.777501 0.727217 0.208823
O O10 0.605649 0.500000 0.645809
O O11 0.654470 0.278922 0.704826
O O12 0.624410 0.239410 0.564130
O O13 0.712478 0.500000 0.745355
O O14 0.775797 0.306441 0.603649
O O15 0.128197 0.500000 0.466384
O O16 0.119842 0.236313 0.397645
O O17 0.000000 0.167832 0.500000
O O18 0.073914 0.000000 0.351513
#
# Coordination Sequence:
#
# PCOD8102228 Si02
#       7
#     8   8   8   8   8   8   8
#     4   9  20  38  59  86 117 145 176 224 281 331
#     4  11  22  37  58  82 112 149 187 226 274 329
#     4  10  20  36  61  89 113 141 182 228 275 328
#     4  11  23  39  56  78 112 149 187 231 275 324
#     4  10  23  40  57  80 112 148 185 229 278 327
#     4  11  22  37  58  82 109 146 189 229 275 329
#     4  11  22  35  53  80 115 146 177 225 275 322
#
# _framework density 19.264095999999999
#
# number of rings (size 3 to 8) (size 9 to 14) (size 15 to 20)
#    0.000    1.571    1.429    3.429    0.000    8.000 
#    0.000    0.714    0.000    4.286    0.000    0.000 
#    0.000    0.000    0.000    0.000    0.000    0.000 
#
# Total GULP energy -347318.266433 kJ/mol
# GULP energy per Si atom -12404.223801 kJ/mol
# Density = 1.922025 g / cm^3
# Si number density = 19.264096 Si / 1000 Ang^3
#
#
#
# Elastic Constant Matrix: (Units=GPa)
#
#
# Indices 1 2 3 4 5 6 
#
# 1 131.6745 38.4663 38.6663 0.0000 -11.7939 0.0000
# 2 38.4663 61.3267 25.4241 0.0001 -5.6012 0.0002
# 3 38.6663 25.4241 57.8464 0.0000 -9.8746 0.0000
# 4 0.0000 0.0001 0.0000 30.3890 0.0000 3.0065
# 5 -11.7939 -5.6012 -9.8746 0.0000 24.8198 0.0000
# 6 0.0000 0.0002 0.0000 3.0065 0.0000 50.9181
#
#
#
# Elastic Compliance Matrix: (Units=1/GPa)
#
#
# Indices 1 2 3 4 5 6 
#
# 1 0.010449 -0.004421 -0.004682 0.000000 0.002105 0.000000
# 2 -0.004421 0.021837 -0.006609 0.000000 0.000198 0.000000
# 3 -0.004682 -0.006609 0.024340 0.000000 0.005967 0.000000
# 4 0.000000 0.000000 0.000000 0.033100 0.000000 -0.001954
# 5 0.002105 0.000198 0.005967 0.000000 0.043709 0.000000
# 6 0.000000 0.000000 0.000000 -0.001954 0.000000 0.019755
#
#
# Mechanical properties :
#
#
# Convention : Reuss Voigt Hill
#
# Bulk Modulus (GPa) = 39.67834 50.66234 45.17034
# Shear Modulus (GPa) = 25.90464 31.11144 28.50804
#
# Velocity S-wave (km/s) = 3.67101 4.02306 3.85106
# Velocity P-wave (km/s) = 6.21371 6.92358 6.57823
#
# Compressibility (1/GPa) = 0.02520266
#
# Stress axis : x y z
#
# Youngs Moduli (GPa) = 95.69851 45.79414 41.08421
#
# Poissons Ratio (x) = 0.20245 0.19237
# Poissons Ratio (y) = 0.42307 0.27151
# Poissons Ratio (z) = 0.44810 0.30264
#
# Static dielectric constant tensor:
#      x y z
#    x 3.737360 0.000000 -0.245400 
#    y 0.000000 3.651670 0.000000 
#    z -0.245400 0.000000 3.602270 
# 
# 
# High freq. dielectric constant tensor:
#      x y z
#    x 1.750750 0.000000 -0.013950 
#    y 0.000000 1.760410 0.000000 
#    z -0.013950 0.000000 1.743870 
# 
# From -- ./inp_files/238233.got.cif
#   From: 2010.06.25/outbox.cif.g09.slc.cpg/sg12_120_cif.got.tgz:238233.got - 2010.06.28 00:19:55.
