data_PCOD8102270
_publ_section_title
;
Structure prediction by ZEFSAII (Michael W. Deem and Ramdas Pophale) SiO2 
 PCOD8102270
Probable space group: C 2/M
;
_chemical_formula_sum "Si O2"
_cell_formula_units_Z 48
_cell_length_a 16.491895
_cell_length_b 19.157462
_cell_length_c 9.211972
_cell_angle_alpha 90.000000
_cell_angle_beta 124.028981
_cell_angle_gamma 90.000000
_cell_volume 2412.054437
_symmetry_space_group_name_H-M "C 2/M"
_symmetry_group_IT_number 12
_symmetry_cell_setting 'monoclinic'
loop_
_space_group_symop_operation_xyz
x,y,z
-x,y,-z
-x,-y,-z
x,-y,z
1/2+x,1/2+y,z
1/2-x,1/2+y,-z
1/2-x,1/2-y,-z
1/2+x,1/2-y,z
loop_
_atom_site_type_symbol
_atom_site_label
_atom_site_fract_x
_atom_site_fract_y
_atom_site_fract_z
Si Si1 0.645126 0.242912 0.465579
Si Si2 0.443606 0.606261 0.590756
Si Si3 0.933873 0.500000 0.792763
Si Si4 0.218082 0.000000 0.529229
Si Si5 0.107278 0.636449 0.670555
Si Si6 0.550076 0.500000 0.897128
Si Si7 0.494381 0.144298 0.822212
Si Si8 0.238261 0.500000 0.766198
O O1 0.750000 0.250000 0.500000
O O2 0.581692 0.313095 0.412845
O O3 0.652648 0.202141 0.627344
O O4 0.588727 0.199228 0.290016
O O5 0.500000 0.594470 0.500000
O O6 0.339308 0.568549 0.479483
O O7 0.513354 0.571087 0.782055
O O8 0.819353 0.500000 0.718227
O O9 0.958363 0.568834 0.725007
O O10 0.000000 0.500000 0.000000
O O11 0.230452 0.000000 0.368968
O O12 0.176655 0.569511 0.735402
O O13 0.000000 0.619790 0.500000
O O14 0.093022 0.659691 0.826797
O O15 0.500000 0.500000 0.000000
O O16 0.667500 0.500000 0.033024
O O17 0.500000 0.142252 0.000000
#
# Coordination Sequence:
#
# PCOD8102270 Si02
#       8
#     8   8   4   4   8   4   8   4
#     4  11  23  41  66  89 120 170 216 255 311 382
#     4  11  23  44  64  89 126 169 214 263 312 374
#     4  10  20  36  61  91 130 158 205 263 315 375
#     4  11  20  38  66  89 119 168 214 251 312 379
#     4  10  21  39  65  92 126 164 212 256 316 381
#     4  11  24  42  65  96 129 168 212 264 317 372
#     4  10  21  40  58  91 125 160 197 255 324 363
#     4  12  21  39  67  99 128 164 216 261 316 385
#
# _framework density 19.900048000000002
#
# number of rings (size 3 to 8) (size 9 to 14) (size 15 to 20)
#    0.000    1.333    1.667    7.250    0.000    0.667 
#   15.000    0.833    0.000    0.000    0.000    0.000 
#    0.000    0.000    0.000    0.000    0.000    0.000 
#
# Total GULP energy -297394.319612 kJ/mol
# GULP energy per Si atom -12391.429984 kJ/mol
# Density = 1.985476 g / cm^3
# Si number density = 19.900048 Si / 1000 Ang^3
#
#
#
# Elastic Constant Matrix: (Units=GPa)
#
#
# Indices 1 2 3 4 5 6 
#
# 1 169.0049 64.5607 77.7984 0.0000 -16.6100 0.0000
# 2 64.5607 153.6056 61.5773 0.0000 -5.0231 0.0000
# 3 77.7984 61.5773 106.0601 0.0000 -9.4687 0.0000
# 4 0.0000 0.0000 0.0000 28.6717 0.0000 13.3303
# 5 -16.6100 -5.0231 -9.4687 0.0000 49.5047 0.0000
# 6 0.0000 0.0000 0.0000 13.3303 0.0000 49.6450
#
#
#
# Elastic Compliance Matrix: (Units=1/GPa)
#
#
# Indices 1 2 3 4 5 6 
#
# 1 0.009364 -0.001548 -0.005802 0.000000 0.001875 0.000000
# 2 -0.001548 0.008741 -0.003975 0.000000 -0.000393 0.000000
# 3 -0.005802 -0.003975 0.016057 0.000000 0.000721 0.000000
# 4 0.000000 0.000000 0.000000 0.039853 0.000000 -0.010701
# 5 0.001875 -0.000393 0.000721 0.000000 0.020927 0.000000
# 6 0.000000 0.000000 0.000000 -0.010701 0.000000 0.023016
#
#
# Mechanical properties :
#
#
# Convention : Reuss Voigt Hill
#
# Bulk Modulus (GPa) = 86.86833 92.94925 89.90879
# Shear Modulus (GPa) = 34.61519 40.54656 37.58088
#
# Velocity S-wave (km/s) = 4.17520 4.51878 4.35038
# Velocity P-wave (km/s) = 8.18475 8.60437 8.39718
#
# Compressibility (1/GPa) = 0.01151167
#
# Stress axis : x y z
#
# Youngs Moduli (GPa) = 106.79597 114.39859 62.27934
#
# Poissons Ratio (x) = 0.17712 0.36136
# Poissons Ratio (y) = 0.16535 0.24753
# Poissons Ratio (z) = 0.61966 0.45468
#
# Static dielectric constant tensor:
#      x y z
#    x 3.954880 0.000000 -0.244530 
#    y 0.000000 4.238540 0.000000 
#    z -0.244530 0.000000 3.425960 
# 
# 
# High freq. dielectric constant tensor:
#      x y z
#    x 1.796040 0.000000 -0.012890 
#    y 0.000000 1.789830 0.000000 
#    z -0.012890 0.000000 1.762360 
# 
# From -- ./inp_files/63688.got.cif
#   From: 2010.06.25/outbox.cif.g09.slc.cpg/sg12_32_cif.got.tgz:63688.got - 2010.06.28 00:19:55.
