data_PCOD8102079
_publ_section_title
;
Structure prediction by ZEFSAII (Michael W. Deem and Ramdas Pophale) SiO2 
 PCOD8102079
Probable space group: C 2/M
;
_chemical_formula_sum "Si O2"
_cell_formula_units_Z 56
_cell_length_a 25.989170
_cell_length_b 14.334277
_cell_length_c 14.496317
_cell_angle_alpha 90.000000
_cell_angle_beta 150.699578
_cell_angle_gamma 90.000000
_cell_volume 2642.895384
_symmetry_space_group_name_H-M "C 2/M"
_symmetry_group_IT_number 12
_symmetry_cell_setting 'monoclinic'
loop_
_space_group_symop_operation_xyz
x,y,z
-x,y,-z
-x,-y,-z
x,-y,z
1/2+x,1/2+y,z
1/2-x,1/2+y,-z
1/2-x,1/2-y,-z
1/2+x,1/2-y,z
loop_
_atom_site_type_symbol
_atom_site_label
_atom_site_fract_x
_atom_site_fract_y
_atom_site_fract_z
Si Si1 0.644547 0.105049 0.437505
Si Si2 0.958069 0.216983 0.663137
Si Si3 0.299548 0.752673 0.977761
Si Si4 0.515448 0.603530 0.126690
Si Si5 0.223145 0.887952 0.716041
Si Si6 0.382367 0.891004 0.809785
Si Si7 0.282949 0.400396 0.816820
O O1 0.564271 0.173192 0.363426
O O2 0.666875 0.132036 0.366703
O O3 0.753286 0.115460 0.662942
O O4 0.597351 0.000000 0.368489
O O5 0.922945 0.171720 0.707536
O O6 0.890007 0.161305 0.479694
O O7 0.080225 0.218486 0.826305
O O8 0.250000 0.750000 0.000000
O O9 0.275136 0.853767 0.893884
O O10 0.239558 0.679106 0.816900
O O11 0.568809 0.500000 0.203127
O O12 0.500000 0.646179 0.000000
O O13 0.407259 0.594697 0.012203
O O14 0.304674 0.849929 0.765718
O O15 0.208789 0.000000 0.695249
O O16 0.390735 0.000000 0.842666
O O17 0.500000 0.846983 0.000000
O O18 0.236123 0.500000 0.777566
#
# Coordination Sequence:
#
# PCOD8102079 Si02
#       7
#     8   8   8   8   8   8   8
#     4  10  20  36  60  88 124 166 201 239 295 370
#     4  11  23  39  64  93 126 164 213 267 317 381
#     4  11  25  45  66  89 120 161 212 272 335 386
#     4   9  19  34  56  87 125 163 199 242 301 373
#     4  11  24  43  66  98 134 169 213 266 322 383
#     4   9  19  35  58  91 133 173 205 242 301 378
#     4   9  19  38  59  85 120 157 200 247 302 366
#
# _framework density 21.188882
#
# number of rings (size 3 to 8) (size 9 to 14) (size 15 to 20)
#    0.000    2.000    1.429    1.286    2.000    6.857 
#    0.000    0.714    0.000    1.714    0.000    0.000 
#    0.000    0.000    0.000    0.000    0.000    0.000 
#
# Total GULP energy -346951.468238 kJ/mol
# GULP energy per Si atom -12391.123866 kJ/mol
# Density = 2.114066 g / cm^3
# Si number density = 21.188882 Si / 1000 Ang^3
#
#
#
# Elastic Constant Matrix: (Units=GPa)
#
#
# Indices 1 2 3 4 5 6 
#
# 1 111.2981 42.3858 42.6771 0.0000 -12.4225 0.0000
# 2 42.3858 97.9833 36.2096 0.0000 -4.8317 0.0000
# 3 42.6771 36.2096 101.1109 0.0000 -4.9261 0.0000
# 4 0.0000 0.0000 0.0000 30.8246 0.0000 -8.1547
# 5 -12.4225 -4.8317 -4.9261 0.0000 27.8794 0.0000
# 6 0.0000 0.0000 0.0000 -8.1547 0.0000 22.2335
#
#
#
# Elastic Compliance Matrix: (Units=1/GPa)
#
#
# Indices 1 2 3 4 5 6 
#
# 1 0.012276 -0.003763 -0.003631 0.000000 0.004176 0.000000
# 2 -0.003763 0.012963 -0.003053 0.000000 0.000031 0.000000
# 3 -0.003631 -0.003053 0.012519 0.000000 0.000065 0.000000
# 4 0.000000 0.000000 0.000000 0.035928 0.000000 0.013177
# 5 0.004176 0.000031 0.000065 0.000000 0.037747 0.000000
# 6 0.000000 0.000000 0.000000 0.013177 0.000000 0.049810
#
#
# Mechanical properties :
#
#
# Convention : Reuss Voigt Hill
#
# Bulk Modulus (GPa) = 59.29011 61.43747 60.36379
# Shear Modulus (GPa) = 26.63018 28.79548 27.71283
#
# Velocity S-wave (km/s) = 3.54898 3.69045 3.62041
# Velocity P-wave (km/s) = 6.69598 6.87148 6.78430
#
# Compressibility (1/GPa) = 0.01686622
#
# Stress axis : x y z
#
# Youngs Moduli (GPa) = 81.45870 77.14175 79.87926
#
# Poissons Ratio (x) = 0.29027 0.29001
# Poissons Ratio (y) = 0.30652 0.24384
# Poissons Ratio (z) = 0.29574 0.23548
#
# Static dielectric constant tensor:
#      x y z
#    x 3.393120 0.000000 -0.140550 
#    y 0.000000 4.137520 0.000000 
#    z -0.140550 0.000000 3.917620 
# 
# 
# High freq. dielectric constant tensor:
#      x y z
#    x 1.784820 0.000000 -0.013140 
#    y 0.000000 1.841090 0.000000 
#    z -0.013140 0.000000 1.834010 
# 
# From -- ./inp_files/246605.got.cif
#   From: 2010.06.25/outbox.cif.g09.slc.cpg/sg12_124_cif.got.tgz:246605.got - 2010.06.28 00:19:55.
