data_PCOD8102925
_publ_section_title
;
Structure prediction by ZEFSAII (Michael W. Deem and Ramdas Pophale) SiO2 
 PCOD8102925
Probable space group: C 2/M
;
_chemical_formula_sum "Si O2"
_cell_formula_units_Z 40
_cell_length_a 24.943583
_cell_length_b 9.200488
_cell_length_c 10.095670
_cell_angle_alpha 90.000000
_cell_angle_beta 65.851228
_cell_angle_gamma 90.000000
_cell_volume 2114.127531
_symmetry_space_group_name_H-M "C 2/M"
_symmetry_group_IT_number 12
_symmetry_cell_setting 'monoclinic'
loop_
_space_group_symop_operation_xyz
x,y,z
-x,y,-z
-x,-y,-z
x,-y,z
1/2+x,1/2+y,z
1/2-x,1/2+y,-z
1/2-x,1/2-y,-z
1/2+x,1/2-y,z
loop_
_atom_site_type_symbol
_atom_site_label
_atom_site_fract_x
_atom_site_fract_y
_atom_site_fract_z
Si Si1 0.309233 0.169938 0.203375
Si Si2 0.870121 0.831500 0.371374
Si Si3 0.824482 0.168696 0.707051
Si Si4 0.612100 0.172279 0.122317
Si Si5 0.001217 0.830046 0.845187
O O1 0.325024 0.247514 0.323781
O O2 0.243568 0.212711 0.228986
O O3 0.314675 0.000000 0.223743
O O4 0.352723 0.222570 0.043728
O O5 0.854956 0.796051 0.537268
O O6 0.936650 0.781514 0.277737
O O7 0.862437 0.000000 0.345586
O O8 0.854538 0.269774 0.783926
O O9 0.832429 0.000000 0.737579
O O10 0.547439 0.239915 0.184315
O O11 0.607537 0.000000 0.136300
O O12 0.988686 0.000000 0.836655
O O13 0.000000 0.787311 0.000000
#
# Coordination Sequence:
#
# PCOD8102925 Si02
#       5
#     8   8   8   8   8
#     4  10  21  37  58  84 114 148 185 228 277 329
#     4  10  21  37  60  86 110 145 189 230 276 330
#     4  10  22  39  57  82 116 149 184 228 278 331
#     4  11  23  37  57  85 114 148 187 228 277 328
#     4  10  20  37  60  83 109 145 188 230 275 329
#
# _framework density 18.920335999999999
#
# number of rings (size 3 to 8) (size 9 to 14) (size 15 to 20)
#    0.000    1.800    2.000    1.800    0.000    4.400 
#    0.000    4.000    0.000    0.000    0.000    0.000 
#    0.000    0.000    0.000    0.000    0.000    0.000 
#
# Total GULP energy -248123.401576 kJ/mol
# GULP energy per Si atom -12406.170079 kJ/mol
# Density = 1.887727 g / cm^3
# Si number density = 18.920336 Si / 1000 Ang^3
#
#
#
# Elastic Constant Matrix: (Units=GPa)
#
#
# Indices 1 2 3 4 5 6 
#
# 1 115.3350 49.3458 38.8029 0.0000 11.8752 0.0000
# 2 49.3458 58.7684 37.9069 0.0000 20.3732 0.0000
# 3 38.8029 37.9069 79.0756 0.0000 26.6177 0.0000
# 4 0.0000 0.0000 0.0000 24.9802 0.0000 15.2542
# 5 11.8752 20.3732 26.6177 0.0000 65.3318 0.0000
# 6 0.0000 0.0000 0.0000 15.2542 0.0000 25.6751
#
#
#
# Elastic Compliance Matrix: (Units=1/GPa)
#
#
# Indices 1 2 3 4 5 6 
#
# 1 0.013864 -0.010828 -0.002203 0.000000 0.001754 0.000000
# 2 -0.010828 0.033730 -0.009246 0.000000 -0.004783 0.000000
# 3 -0.002203 -0.009246 0.019764 0.000000 -0.004769 0.000000
# 4 0.000000 0.000000 0.000000 0.062825 0.000000 -0.037326
# 5 0.001754 -0.004783 -0.004769 0.000000 0.018422 0.000000
# 6 0.000000 0.000000 0.000000 -0.037326 0.000000 0.061125
#
#
# Mechanical properties :
#
#
# Convention : Reuss Voigt Hill
#
# Bulk Modulus (GPa) = 43.85044 56.14338 49.99691
# Shear Modulus (GPa) = 19.09238 31.67230 25.38234
#
# Velocity S-wave (km/s) = 3.18007 4.09587 3.66667
# Velocity P-wave (km/s) = 6.05892 7.21846 6.66396
#
# Compressibility (1/GPa) = 0.02280479
#
# Stress axis : x y z
#
# Youngs Moduli (GPa) = 72.13108 29.64728 50.59589
#
# Poissons Ratio (x) = 0.32103 0.11145
# Poissons Ratio (y) = 0.78105 0.46780
# Poissons Ratio (z) = 0.15888 0.27411
#
# Static dielectric constant tensor:
#      x y z
#    x 3.590780 0.000000 -0.243250 
#    y 0.000000 3.351920 0.000000 
#    z -0.243250 0.000000 3.597870 
# 
# 
# High freq. dielectric constant tensor:
#      x y z
#    x 1.749210 0.000000 -0.005580 
#    y 0.000000 1.729050 0.000000 
#    z -0.005580 0.000000 1.741750 
# 
# From -- ./inp_files/92743.got.cif
#   From: 2010.06.25/outbox.cif.g09.slc.cpg/sg12_47_cif.got.tgz:92743.got - 2010.06.28 00:19:55.
