data_PCOD8102156
_publ_section_title
;
Structure prediction by ZEFSAII (Michael W. Deem and Ramdas Pophale) SiO2 
 PCOD8102156
Probable space group: C 2/M
;
_chemical_formula_sum "Si O2"
_cell_formula_units_Z 64
_cell_length_a 15.340493
_cell_length_b 8.588752
_cell_length_c 26.247482
_cell_angle_alpha 90.000000
_cell_angle_beta 115.280027
_cell_angle_gamma 90.000000
_cell_volume 3127.063091
_symmetry_space_group_name_H-M "C 2/M"
_symmetry_group_IT_number 12
_symmetry_cell_setting 'monoclinic'
loop_
_space_group_symop_operation_xyz
x,y,z
-x,y,-z
-x,-y,-z
x,-y,z
1/2+x,1/2+y,z
1/2-x,1/2+y,-z
1/2-x,1/2-y,-z
1/2+x,1/2-y,z
loop_
_atom_site_type_symbol
_atom_site_label
_atom_site_fract_x
_atom_site_fract_y
_atom_site_fract_z
Si Si1 0.088942 0.817768 0.634407
Si Si2 0.387749 0.816537 0.563577
Si Si3 0.732079 0.181561 0.940284
Si Si4 0.096602 0.821708 0.827434
Si Si5 0.314155 0.684200 0.444462
Si Si6 0.307282 0.819015 0.244771
Si Si7 0.091996 0.821249 0.165429
Si Si8 0.415277 0.180023 0.940567
O O1 0.146461 0.751989 0.599574
O O2 0.151534 0.783439 0.699502
O O3 0.985361 0.737058 0.615128
O O4 0.071397 0.000000 0.624774
O O5 0.384051 0.746809 0.505985
O O6 0.295684 0.757054 0.573605
O O7 0.386007 0.000000 0.558799
O O8 0.643528 0.271489 0.892615
O O9 0.825304 0.208614 0.928859
O O10 0.707533 0.000000 0.937929
O O11 0.750000 0.250000 0.000000
O O12 0.132183 0.711581 0.791164
O O13 0.981561 0.801639 0.805699
O O14 0.123996 0.000000 0.821751
O O15 0.318169 0.500000 0.446539
O O16 0.197094 0.766013 0.209698
O O17 0.315094 0.000000 0.260779
O O18 0.054031 0.713912 0.109682
O O19 0.094824 0.000000 0.147646
O O20 0.386371 0.000000 0.940490
O O21 0.500000 0.226305 0.000000
#
# Coordination Sequence:
#
# PCOD8102156 Si02
#       8
#     8   8   8   8   8   8   8   8
#     4  11  23  39  60  86 120 163 208 254 305 363
#     4  10  20  36  60  91 125 161 203 254 307 363
#     4  12  24  39  60  89 124 160 199 248 303 362
#     4  11  23  42  66  92 121 158 200 248 308 370
#     4   9  20  38  59  87 125 165 204 249 305 367
#     4  11  24  43  63  88 121 161 206 257 307 365
#     4  10  23  42  64  89 120 157 198 248 307 366
#     4  11  23  38  60  91 123 156 198 246 301 367
#
# _framework density 20.466488999999999
#
# number of rings (size 3 to 8) (size 9 to 14) (size 15 to 20)
#    0.000    1.375    1.250    4.125    0.000    8.500 
#    0.000    2.500    0.000    0.000    0.000    0.000 
#    0.000    0.000    0.000    0.000    0.000    0.000 
#
# Total GULP energy -396973.547968 kJ/mol
# GULP energy per Si atom -12405.423374 kJ/mol
# Density = 2.041991 g / cm^3
# Si number density = 20.466489 Si / 1000 Ang^3
#
#
#
# Elastic Constant Matrix: (Units=GPa)
#
#
# Indices 1 2 3 4 5 6 
#
# 1 116.1667 18.0850 43.6421 0.0000 7.6877 0.0000
# 2 18.0850 30.9728 2.1151 0.0000 2.3373 0.0000
# 3 43.6421 2.1151 102.8260 0.0000 8.1252 0.0000
# 4 0.0000 0.0000 0.0000 35.8202 0.0000 0.1757
# 5 7.6877 2.3373 8.1252 0.0000 28.6707 0.0000
# 6 0.0000 0.0000 0.0000 0.1757 0.0000 30.3392
#
#
#
# Elastic Compliance Matrix: (Units=1/GPa)
#
#
# Indices 1 2 3 4 5 6 
#
# 1 0.011394 -0.006245 -0.004610 0.000000 -0.001240 0.000000
# 2 -0.006245 0.035931 0.002057 0.000000 -0.001837 0.000000
# 3 -0.004610 0.002057 0.011820 0.000000 -0.002281 0.000000
# 4 0.000000 0.000000 0.000000 0.027918 0.000000 -0.000162
# 5 -0.001240 -0.001837 -0.002281 0.000000 0.036008 0.000000
# 6 0.000000 0.000000 0.000000 -0.000162 0.000000 0.032962
#
#
# Mechanical properties :
#
#
# Convention : Reuss Voigt Hill
#
# Bulk Modulus (GPa) = 24.06787 41.96109 33.01448
# Shear Modulus (GPa) = 26.66986 31.37423 29.02205
#
# Velocity S-wave (km/s) = 3.61376 3.91955 3.76976
# Velocity P-wave (km/s) = 5.40348 6.40552 5.92571
#
# Compressibility (1/GPa) = 0.04154917
#
# Stress axis : x y z
#
# Youngs Moduli (GPa) = 87.76291 27.83114 84.60539
#
# Poissons Ratio (x) = 0.17380 0.39000
# Poissons Ratio (y) = 0.54806 -0.17400
# Poissons Ratio (z) = 0.40456 -0.05724
#
# Static dielectric constant tensor:
#      x y z
#    x 4.017720 0.000000 0.015870 
#    y 0.000000 3.634280 0.000000 
#    z 0.015870 0.000000 3.706830 
# 
# 
# High freq. dielectric constant tensor:
#      x y z
#    x 1.813290 0.000000 0.001400 
#    y 0.000000 1.801790 0.000000 
#    z 0.001400 0.000000 1.792990 
# 
# From -- ./inp_files/359965.got.cif
#   From: 2010.06.25/outbox.cif.g09.slc.cpg/sg12_180_cif.got.tgz:359965.got - 2010.06.28 00:19:55.
