data_PCOD8102466
_publ_section_title
;
Structure prediction by ZEFSAII (Michael W. Deem and Ramdas Pophale) SiO2 
 PCOD8102466
Probable space group: C 2/M
;
_chemical_formula_sum "Si O2"
_cell_formula_units_Z 64
_cell_length_a 28.789546
_cell_length_b 9.107164
_cell_length_c 19.004114
_cell_angle_alpha 90.000000
_cell_angle_beta 139.880459
_cell_angle_gamma 90.000000
_cell_volume 3210.780874
_symmetry_space_group_name_H-M "C 2/M"
_symmetry_group_IT_number 12
_symmetry_cell_setting 'monoclinic'
loop_
_space_group_symop_operation_xyz
x,y,z
-x,y,-z
-x,-y,-z
x,-y,z
1/2+x,1/2+y,z
1/2-x,1/2+y,-z
1/2-x,1/2-y,-z
1/2+x,1/2-y,z
loop_
_atom_site_type_symbol
_atom_site_label
_atom_site_fract_x
_atom_site_fract_y
_atom_site_fract_z
Si Si1 0.085317 0.834338 0.165825
Si Si2 0.469672 0.174669 0.117479
Si Si3 0.272513 0.665359 0.594277
Si Si4 0.154913 0.827427 0.097936
Si Si5 0.959525 0.333157 0.381461
Si Si6 0.819402 0.666234 0.294859
Si Si7 0.335223 0.667158 0.444930
Si Si8 0.516914 0.330474 0.314035
O O1 0.142015 0.828202 0.295528
O O2 0.124870 0.784790 0.140264
O O3 0.019463 0.728843 0.109996
O O4 0.054867 0.000000 0.123037
O O5 0.496850 0.235594 0.223217
O O6 0.469920 0.000000 0.120176
O O7 0.389397 0.235320 0.011134
O O8 0.245037 0.500000 0.554824
O O9 0.250000 0.750000 0.500000
O O10 0.234645 0.738527 0.616900
O O11 0.238267 0.779004 0.184622
O O12 0.145745 0.000000 0.072759
O O13 0.983226 0.500000 0.390434
O O14 0.872390 0.325107 0.289204
O O15 0.977219 0.226609 0.337660
O O16 0.000000 0.283649 0.500000
O O17 0.815294 0.500000 0.319339
O O18 0.859602 0.768861 0.398404
O O19 0.311293 0.500000 0.409214
O O20 0.397427 0.684102 0.575065
O O21 0.495231 0.500000 0.276634
#
# Coordination Sequence:
#
# PCOD8102466 Si02
#       8
#     8   8   8   8   8   8   8   8
#     4  10  21  39  62  86 117 159 204 244 295 363
#     4  12  26  41  60  88 120 156 204 259 306 348
#     4  11  22  36  54  82 119 159 200 242 296 359
#     4  10  21  41  65  87 118 162 205 244 293 360
#     4  10  20  36  64  96 126 155 193 247 301 355
#     4  10  20  38  63  92 121 156 195 237 297 358
#     4  11  22  35  56  86 120 157 196 243 293 349
#     4  11  24  41  61  87 123 164 204 244 298 365
#
# _framework density 19.932845
#
# number of rings (size 3 to 8) (size 9 to 14) (size 15 to 20)
#    0.000    1.375    2.500    3.375    0.000    8.750 
#    0.000    0.625    0.000    0.000    0.000    0.000 
#    0.000    0.000    0.000    0.000    0.000    0.000 
#
# Total GULP energy -396826.435118 kJ/mol
# GULP energy per Si atom -12400.826097 kJ/mol
# Density = 1.988748 g / cm^3
# Si number density = 19.932845 Si / 1000 Ang^3
#
#
#
# Elastic Constant Matrix: (Units=GPa)
#
#
# Indices 1 2 3 4 5 6 
#
# 1 75.5836 31.6770 21.4277 0.0000 14.0869 0.0000
# 2 31.6770 117.9258 42.9644 0.0000 5.6053 0.0000
# 3 21.4277 42.9644 88.2478 0.0000 12.0411 0.0000
# 4 0.0000 0.0000 0.0000 32.7393 0.0000 -3.8930
# 5 14.0869 5.6053 12.0411 0.0000 24.4048 0.0000
# 6 0.0000 0.0000 0.0000 -3.8930 0.0000 30.6766
#
#
#
# Elastic Compliance Matrix: (Units=1/GPa)
#
#
# Indices 1 2 3 4 5 6 
#
# 1 0.016612 -0.003660 -0.001135 0.000000 -0.008188 0.000000
# 2 -0.003660 0.011115 -0.004785 0.000000 0.001920 0.000000
# 3 -0.001135 -0.004785 0.014686 0.000000 -0.005492 0.000000
# 4 0.000000 0.000000 0.000000 0.031012 0.000000 0.003936
# 5 -0.008188 0.001920 -0.005492 0.000000 0.047971 0.000000
# 6 0.000000 0.000000 0.000000 0.003936 0.000000 0.033098
#
#
# Mechanical properties :
#
#
# Convention : Reuss Voigt Hill
#
# Bulk Modulus (GPa) = 43.00175 52.65503 47.82839
# Shear Modulus (GPa) = 27.56287 29.94335 28.75311
#
# Velocity S-wave (km/s) = 3.72262 3.88004 3.80215
# Velocity P-wave (km/s) = 6.33225 6.82250 6.58194
#
# Compressibility (1/GPa) = 0.02325487
#
# Stress axis : x y z
#
# Youngs Moduli (GPa) = 60.19781 89.96878 68.09132
#
# Poissons Ratio (x) = 0.32926 0.07725
# Poissons Ratio (y) = 0.22031 0.32581
# Poissons Ratio (z) = 0.06830 0.43049
#
# Static dielectric constant tensor:
#      x y z
#    x 3.661500 0.000000 0.163350 
#    y 0.000000 3.583520 0.000000 
#    z 0.163350 0.000000 3.617450 
# 
# 
# High freq. dielectric constant tensor:
#      x y z
#    x 1.773700 0.000000 0.009310 
#    y 0.000000 1.775240 0.000000 
#    z 0.009310 0.000000 1.775910 
# 
# From -- ./inp_files/295770.got.cif
#   From: 2010.06.25/outbox.cif.g09.slc.cpg/sg12_148_cif.got.tgz:295770.got - 2010.06.28 00:19:55.
