data_PCOD8102633
_publ_section_title
;
Structure prediction by ZEFSAII (Michael W. Deem and Ramdas Pophale) SiO2 
 PCOD8102633
Probable space group: C 2/M
;
_chemical_formula_sum "Si O2"
_cell_formula_units_Z 48
_cell_length_a 22.249889
_cell_length_b 13.628076
_cell_length_c 21.900434
_cell_angle_alpha 90.000000
_cell_angle_beta 22.883762
_cell_angle_gamma 90.000000
_cell_volume 2582.329092
_symmetry_space_group_name_H-M "C 2/M"
_symmetry_group_IT_number 12
_symmetry_cell_setting 'monoclinic'
loop_
_space_group_symop_operation_xyz
x,y,z
-x,y,-z
-x,-y,-z
x,-y,z
1/2+x,1/2+y,z
1/2-x,1/2+y,-z
1/2-x,1/2-y,-z
1/2+x,1/2-y,z
loop_
_atom_site_type_symbol
_atom_site_label
_atom_site_fract_x
_atom_site_fract_y
_atom_site_fract_z
Si Si1 0.133967 0.724206 0.286482
Si Si2 0.078509 0.387993 0.752697
Si Si3 0.703474 0.220281 0.418452
Si Si4 0.615512 0.887188 0.945625
Si Si5 0.341828 0.614539 0.180236
Si Si6 0.492923 0.886138 0.698688
O O1 0.229406 0.824056 0.202703
O O2 0.198538 0.641564 0.271333
O O3 0.954262 0.746394 0.471335
O O4 0.139002 0.677738 0.212859
O O5 0.138285 0.500000 0.696026
O O6 0.228420 0.320200 0.618013
O O7 0.987301 0.363194 0.775802
O O8 0.962177 0.369210 0.916686
O O9 0.828966 0.170716 0.256597
O O10 0.660596 0.145711 0.513880
O O11 0.663661 0.000000 0.891132
O O12 0.500000 0.853599 0.000000
O O13 0.339568 0.500000 0.196115
O O14 0.500000 0.648205 0.000000
O O15 0.463909 0.000000 0.712381
#
# Coordination Sequence:
#
# PCOD8102633 Si02
#       6
#     8   8   8   8   8   8
#     4  10  21  33  57  82 110 144 180 230 272 332
#     4  10  20  37  58  79 110 148 190 227 274 329
#     4  10  21  34  57  82 111 146 181 230 273 327
#     4  10  21  38  58  80 111 149 186 231 278 325
#     4  11  22  36  56  82 113 146 182 225 273 331
#     4   9  20  35  55  81 111 148 183 227 277 326
#
# _framework density 18.587872000000001
#
# number of rings (size 3 to 8) (size 9 to 14) (size 15 to 20)
#    1.000    1.000    0.000    4.500    0.000    2.000 
#    0.000    0.000    0.000    5.000    0.000    0.000 
#    0.000    0.000    0.000    0.000    0.000    0.000 
#
# Total GULP energy -297516.392842 kJ/mol
# GULP energy per Si atom -12396.516368 kJ/mol
# Density = 1.854557 g / cm^3
# Si number density = 18.587872 Si / 1000 Ang^3
#
#
#
# Elastic Constant Matrix: (Units=GPa)
#
#
# Indices 1 2 3 4 5 6 
#
# 1 92.9120 39.1856 21.4906 -0.0020 17.7028 -0.0020
# 2 39.1856 100.2719 36.8500 -0.0115 -5.9684 0.0013
# 3 21.4906 36.8500 62.2620 -0.0188 4.0811 0.0014
# 4 -0.0020 -0.0115 -0.0188 26.8786 0.0053 -8.0051
# 5 17.7028 -5.9684 4.0811 0.0053 31.3420 0.0013
# 6 -0.0020 0.0013 0.0014 -8.0051 0.0013 29.4069
#
#
#
# Elastic Compliance Matrix: (Units=1/GPa)
#
#
# Indices 1 2 3 4 5 6 
#
# 1 0.015516 -0.006284 -0.000992 0.000000 -0.009831 0.000002
# 2 -0.006284 0.015669 -0.007597 -0.000001 0.007523 -0.000001
# 3 -0.000992 -0.007597 0.021139 0.000013 -0.003639 0.000003
# 4 0.000000 -0.000001 0.000013 0.040487 -0.000009 0.011021
# 5 -0.009831 0.007523 -0.003639 -0.000009 0.039365 -0.000005
# 6 0.000002 -0.000001 0.000003 0.011021 -0.000005 0.037006
#
#
# Mechanical properties :
#
#
# Convention : Reuss Voigt Hill
#
# Bulk Modulus (GPa) = 44.29468 50.05538 47.17503
# Shear Modulus (GPa) = 24.21859 28.05349 26.13604
#
# Velocity S-wave (km/s) = 3.61352 3.88910 3.75384
# Velocity P-wave (km/s) = 6.42586 6.86690 6.65004
#
# Compressibility (1/GPa) = 0.02257607
#
# Stress axis : x y z
#
# Youngs Moduli (GPa) = 64.45037 63.82218 47.30682
#
# Poissons Ratio (x) = 0.40107 0.04692
# Poissons Ratio (y) = 0.40502 0.35941
# Poissons Ratio (z) = 0.06392 0.48489
#
# Static dielectric constant tensor:
#      x y z
#    x 3.433610 -0.000010 0.096720 
#    y -0.000010 3.398040 0.000020 
#    z 0.096720 0.000020 3.164490 
# 
# 
# High freq. dielectric constant tensor:
#      x y z
#    x 1.725920 0.000000 0.008840 
#    y 0.000000 1.730290 0.000000 
#    z 0.008840 0.000000 1.701060 
# 
# From -- ./inp_files/349610.got.cif
#   From: 2010.06.25/outbox.cif.g09.slc.cpg/sg12_175_cif.got.tgz:349610.got - 2010.06.28 00:19:55.
