data_PCOD8102536
_publ_section_title
;
Structure prediction by ZEFSAII (Michael W. Deem and Ramdas Pophale) SiO2 
 PCOD8102536
Probable space group: C 2/M
;
_chemical_formula_sum "Si O2"
_cell_formula_units_Z 48
_cell_length_a 20.238334
_cell_length_b 17.364211
_cell_length_c 15.099027
_cell_angle_alpha 90.000000
_cell_angle_beta 149.568628
_cell_angle_gamma 90.000000
_cell_volume 2687.591935
_symmetry_space_group_name_H-M "C 2/M"
_symmetry_group_IT_number 12
_symmetry_cell_setting 'monoclinic'
loop_
_space_group_symop_operation_xyz
x,y,z
-x,y,-z
-x,-y,-z
x,-y,z
1/2+x,1/2+y,z
1/2-x,1/2+y,-z
1/2-x,1/2-y,-z
1/2+x,1/2-y,z
loop_
_atom_site_type_symbol
_atom_site_label
_atom_site_fract_x
_atom_site_fract_y
_atom_site_fract_z
Si Si1 0.005553 0.000000 0.399161
Si Si2 0.000000 0.778846 0.000000
Si Si3 0.560879 0.769419 0.349477
Si Si4 0.015123 0.500000 0.914400
Si Si5 0.423782 0.340667 0.322230
Si Si6 0.318390 0.652862 0.648178
Si Si7 0.778851 0.000000 0.495284
Si Si8 0.874915 0.665255 0.995440
O O1 0.148921 0.000000 0.517498
O O2 0.000000 0.000000 0.500000
O O3 0.932360 0.922724 0.280089
O O4 0.909855 0.837125 0.839810
O O5 0.917572 0.720667 0.965148
O O6 0.496538 0.727774 0.357427
O O7 0.633301 0.710519 0.370209
O O8 0.670774 0.829276 0.509242
O O9 0.447028 0.814499 0.168900
O O10 0.875745 0.500000 0.703410
O O11 0.099307 0.575362 0.990271
O O12 0.000000 0.500000 0.000000
O O13 0.500000 0.353678 0.500000
O O14 0.276175 0.317585 0.167109
O O15 0.322500 0.570107 0.607624
#
# Coordination Sequence:
#
# PCOD8102536 Si02
#       8
#     4   4   8   4   8   8   4   8
#     4  10  23  34  52  83 116 146 190 231 289 346
#     4  10  22  38  60  90 116 152 196 252 280 336
#     4  10  20  37  56  84 114 153 192 242 287 349
#     4  12  25  34  59  89 120 155 189 238 291 353
#     4  11  22  35  56  81 116 154 190 239 294 349
#     4  10  21  37  61  83 118 150 200 238 291 342
#     4  12  22  41  60  85 115 162 194 237 293 348
#     4  11  22  37  56  87 118 153 195 234 294 345
#
# _framework density 17.859853000000001
#
# number of rings (size 3 to 8) (size 9 to 14) (size 15 to 20)
#    0.000    1.333    4.167    2.000    4.667    0.333 
#    0.000    0.000    0.000    0.000    0.000    2.333 
#    0.000    0.000    0.000    0.000    0.000    0.000 
#
# Total GULP energy -297467.394323 kJ/mol
# GULP energy per Si atom -12394.474763 kJ/mol
# Density = 1.781920 g / cm^3
# Si number density = 17.859853 Si / 1000 Ang^3
#
#
#
# Elastic Constant Matrix: (Units=GPa)
#
#
# Indices 1 2 3 4 5 6 
#
# 1 83.2321 35.2825 50.2843 0.0000 7.4398 0.0000
# 2 35.2825 85.7506 41.5538 0.0000 -9.7105 0.0000
# 3 50.2843 41.5538 127.2816 0.0000 11.5685 0.0000
# 4 0.0000 0.0000 0.0000 32.5374 0.0000 2.5812
# 5 7.4398 -9.7105 11.5685 0.0000 30.3943 0.0000
# 6 0.0000 0.0000 0.0000 2.5812 0.0000 46.8331
#
#
#
# Elastic Compliance Matrix: (Units=1/GPa)
#
#
# Indices 1 2 3 4 5 6 
#
# 1 0.017571 -0.005375 -0.004806 0.000000 -0.004189 0.000000
# 2 -0.005375 0.016799 -0.004111 0.000000 0.008247 0.000000
# 3 -0.004806 -0.004111 0.011508 0.000000 -0.004517 0.000000
# 4 0.000000 0.000000 0.000000 0.030869 0.000000 -0.001701
# 5 -0.004189 0.008247 -0.004517 0.000000 0.038280 0.000000
# 6 0.000000 0.000000 0.000000 -0.001701 0.000000 0.021446
#
#
# Mechanical properties :
#
#
# Convention : Reuss Voigt Hill
#
# Bulk Modulus (GPa) = 57.82154 61.16728 59.49441
# Shear Modulus (GPa) = 29.27022 33.22921 31.24972
#
# Velocity S-wave (km/s) = 4.05270 4.31809 4.18750
# Velocity P-wave (km/s) = 7.37188 7.69312 7.53421
#
# Compressibility (1/GPa) = 0.01729459
#
# Stress axis : x y z
#
# Youngs Moduli (GPa) = 56.91127 59.52665 86.89720
#
# Poissons Ratio (x) = 0.31996 0.41764
# Poissons Ratio (y) = 0.30590 0.35719
# Poissons Ratio (z) = 0.27353 0.24469
#
# Static dielectric constant tensor:
#      x y z
#    x 3.276500 0.000000 0.071170 
#    y 0.000000 3.941400 0.000000 
#    z 0.071170 0.000000 3.426080 
# 
# 
# High freq. dielectric constant tensor:
#      x y z
#    x 1.683110 0.000000 0.010510 
#    y 0.000000 1.697430 0.000000 
#    z 0.010510 0.000000 1.696790 
# 
# From -- ./inp_files/112984.got.cif
#   From: 2010.06.25/outbox.cif.g09.slc.cpg/sg12_57_cif.got.tgz:112984.got - 2010.06.28 00:19:55.
