data_PCOD8102259
_publ_section_title
;
Structure prediction by ZEFSAII (Michael W. Deem and Ramdas Pophale) SiO2 
 PCOD8102259
Probable space group: C 2/M
;
_chemical_formula_sum "Si O2"
_cell_formula_units_Z 60
_cell_length_a 12.121755
_cell_length_b 13.888528
_cell_length_c 18.037199
_cell_angle_alpha 90.000000
_cell_angle_beta 102.142276
_cell_angle_gamma 90.000000
_cell_volume 2968.688181
_symmetry_space_group_name_H-M "C 2/M"
_symmetry_group_IT_number 12
_symmetry_cell_setting 'monoclinic'
loop_
_space_group_symop_operation_xyz
x,y,z
-x,y,-z
-x,-y,-z
x,-y,z
1/2+x,1/2+y,z
1/2-x,1/2+y,-z
1/2-x,1/2-y,-z
1/2+x,1/2-y,z
loop_
_atom_site_type_symbol
_atom_site_label
_atom_site_fract_x
_atom_site_fract_y
_atom_site_fract_z
Si Si1 0.885217 0.734903 0.951246
Si Si2 0.425439 0.891487 0.241041
Si Si3 0.655281 0.607036 0.685761
Si Si4 0.589862 0.389502 0.389193
Si Si5 0.638917 0.891983 0.190465
Si Si6 0.000000 0.249197 0.500000
Si Si7 0.794534 0.612037 0.072308
Si Si8 0.819466 0.301553 0.368471
O O1 0.901648 0.681129 0.876702
O O2 0.817973 0.831270 0.923443
O O3 0.835815 0.657654 0.001484
O O4 0.000000 0.775415 0.000000
O O5 0.560748 0.874577 0.252845
O O6 0.379473 0.871245 0.152087
O O7 0.370807 0.822936 0.294599
O O8 0.397363 0.000000 0.262452
O O9 0.679654 0.500000 0.656963
O O10 0.519948 0.618948 0.680734
O O11 0.728528 0.621905 0.771000
O O12 0.698338 0.685556 0.632056
O O13 0.604412 0.500000 0.417849
O O14 0.571720 0.319786 0.456173
O O15 0.703444 0.358431 0.362635
O O16 0.616810 0.000000 0.157797
O O17 0.086939 0.321224 0.554624
O O18 0.768877 0.500000 0.055612
#
# Coordination Sequence:
#
# PCOD8102259 Si02
#       8
#     8   8   8   8   8   4   8   8
#     4  11  21  37  62  87 119 164 204 244 296 355
#     4  10  21  38  61  90 123 157 198 252 304 352
#     4   9  21  38  59  88 120 157 202 250 296 346
#     4  10  21  41  64  87 118 157 200 246 301 359
#     4  10  20  36  61  91 121 159 209 253 294 352
#     4  10  23  40  61  90 122 156 197 244 297 360
#     4  10  22  39  58  88 122 157 201 250 300 349
#     4  11  22  39  65  90 123 157 200 244 303 363
#
# _framework density 20.210946
#
# number of rings (size 3 to 8) (size 9 to 14) (size 15 to 20)
#    0.000    1.867    1.333    2.200    3.733    1.333 
#    0.000    1.333    0.000    0.000    0.000    0.000 
#    0.000    0.000    0.000    0.000    0.000    0.000 
#
# Total GULP energy -371792.795448 kJ/mol
# GULP energy per Si atom -12393.093182 kJ/mol
# Density = 2.016495 g / cm^3
# Si number density = 20.210946 Si / 1000 Ang^3
#
#
#
# Elastic Constant Matrix: (Units=GPa)
#
#
# Indices 1 2 3 4 5 6 
#
# 1 111.4355 42.8775 37.4154 0.0000 11.2799 0.0000
# 2 42.8775 85.8374 27.7158 0.0000 7.9491 0.0000
# 3 37.4154 27.7158 75.1267 0.0000 8.3834 0.0000
# 4 0.0000 0.0000 0.0000 19.9642 0.0000 6.2262
# 5 11.2799 7.9491 8.3834 0.0000 34.4554 0.0000
# 6 0.0000 0.0000 0.0000 6.2262 0.0000 28.8363
#
#
#
# Elastic Compliance Matrix: (Units=1/GPa)
#
#
# Indices 1 2 3 4 5 6 
#
# 1 0.012377 -0.004634 -0.004237 0.000000 -0.001952 0.000000
# 2 -0.004634 0.015084 -0.003123 0.000000 -0.001203 0.000000
# 3 -0.004237 -0.003123 0.016794 0.000000 -0.001979 0.000000
# 4 0.000000 0.000000 0.000000 0.053706 0.000000 -0.011596
# 5 -0.001952 -0.001203 -0.001979 0.000000 0.030421 0.000000
# 6 0.000000 0.000000 0.000000 -0.011596 0.000000 0.037182
#
#
# Mechanical properties :
#
#
# Convention : Reuss Voigt Hill
#
# Bulk Modulus (GPa) = 49.33839 54.26856 51.80347
# Shear Modulus (GPa) = 25.47029 27.61059 26.54044
#
# Velocity S-wave (km/s) = 3.55381 3.70012 3.62770
# Velocity P-wave (km/s) = 6.42683 6.72041 6.57526
#
# Compressibility (1/GPa) = 0.02026819
#
# Stress axis : x y z
#
# Youngs Moduli (GPa) = 80.79606 66.29389 59.54588
#
# Poissons Ratio (x) = 0.30719 0.25228
# Poissons Ratio (y) = 0.37439 0.18596
# Poissons Ratio (z) = 0.34231 0.20703
#
# Static dielectric constant tensor:
#      x y z
#    x 3.808850 0.000000 0.282470 
#    y 0.000000 3.763770 0.000000 
#    z 0.282470 0.000000 3.554050 
# 
# 
# High freq. dielectric constant tensor:
#      x y z
#    x 1.788310 0.000000 0.021130 
#    y 0.000000 1.794780 0.000000 
#    z 0.021130 0.000000 1.777950 
# 
# From -- ./inp_files/263385.got.cif
#   From: 2010.06.25/outbox.cif.g09.slc.cpg/sg12_132_cif.got.tgz:263385.got - 2010.06.28 00:19:55.
