data_PCOD8102772
_publ_section_title
;
Structure prediction by ZEFSAII (Michael W. Deem and Ramdas Pophale) SiO2 
 PCOD8102772
Probable space group: C 2/M
;
_chemical_formula_sum "Si O2"
_cell_formula_units_Z 56
_cell_length_a 18.825386
_cell_length_b 8.545994
_cell_length_c 20.590906
_cell_angle_alpha 90.000000
_cell_angle_beta 59.951735
_cell_angle_gamma 90.000000
_cell_volume 2867.484879
_symmetry_space_group_name_H-M "C 2/M"
_symmetry_group_IT_number 12
_symmetry_cell_setting 'monoclinic'
loop_
_space_group_symop_operation_xyz
x,y,z
-x,y,-z
-x,-y,-z
x,-y,z
1/2+x,1/2+y,z
1/2-x,1/2+y,-z
1/2-x,1/2-y,-z
1/2+x,1/2-y,z
loop_
_atom_site_type_symbol
_atom_site_label
_atom_site_fract_x
_atom_site_fract_y
_atom_site_fract_z
Si Si1 0.000656 0.813611 0.424093
Si Si2 0.150558 0.672602 0.693686
Si Si3 0.285169 0.822907 0.200481
Si Si4 0.469148 0.815599 0.084925
Si Si5 0.012900 0.182398 0.191101
Si Si6 0.833444 0.824240 0.441473
Si Si7 0.114051 0.682509 0.260135
O O1 0.073785 0.742555 0.346492
O O2 0.000000 0.760596 0.500000
O O3 0.914995 0.746716 0.434524
O O4 0.008006 0.000000 0.414765
O O5 0.153876 0.500000 0.659143
O O6 0.216954 0.680948 0.720218
O O7 0.165761 0.810508 0.636129
O O8 0.061484 0.699577 0.763195
O O9 0.373343 0.762185 0.134135
O O10 0.211631 0.710166 0.212895
O O11 0.268988 0.000000 0.183118
O O12 0.529913 0.722536 0.107355
O O13 0.476495 0.000000 0.094871
O O14 0.500000 0.768597 0.000000
O O15 0.082463 0.225532 0.211075
O O16 0.991094 0.000000 0.209674
O O17 0.750000 0.750000 0.500000
O O18 0.832570 0.000000 0.465898
O O19 0.095166 0.500000 0.261980
#
# Coordination Sequence:
#
# PCOD8102772 Si02
#       7
#     8   8   8   8   8   8   8
#     4  10  23  42  60  80 112 156 199 243 302 355
#     4  10  20  37  59  82 110 148 193 243 293 345
#     4   9  20  37  59  86 118 153 189 233 290 348
#     4   9  19  39  66  94 123 155 192 237 290 347
#     4  11  21  36  60  87 117 154 194 235 288 348
#     4  11  23  37  56  81 112 150 192 244 297 351
#     4  12  24  38  59  86 118 155 200 248 291 345
#
# _framework density 19.529309000000001
#
# number of rings (size 3 to 8) (size 9 to 14) (size 15 to 20)
#    0.000    1.714    1.429    4.286    2.000    4.000 
#    0.000    0.714    0.000    0.000    0.000    0.000 
#    0.000    0.000    0.000    0.000    0.000    0.000 
#
# Total GULP energy -346998.212925 kJ/mol
# GULP energy per Si atom -12392.793319 kJ/mol
# Density = 1.948486 g / cm^3
# Si number density = 19.529309 Si / 1000 Ang^3
#
#
#
# Elastic Constant Matrix: (Units=GPa)
#
#
# Indices 1 2 3 4 5 6 
#
# 1 108.3265 33.1951 55.2795 -0.0001 2.4456 -0.0004
# 2 33.1951 68.2482 27.0534 -0.0003 5.7624 -0.0008
# 3 55.2795 27.0534 119.6421 0.0000 14.0789 -0.0001
# 4 -0.0001 -0.0003 0.0000 28.8960 0.0000 1.5849
# 5 2.4456 5.7624 14.0789 0.0000 29.0054 -0.0001
# 6 -0.0004 -0.0008 -0.0001 1.5849 -0.0001 30.3831
#
#
#
# Elastic Compliance Matrix: (Units=1/GPa)
#
#
# Indices 1 2 3 4 5 6 
#
# 1 0.013333 -0.004541 -0.005417 0.000000 0.002407 0.000000
# 2 -0.004541 0.017705 -0.001630 0.000000 -0.002343 0.000000
# 3 -0.005417 -0.001630 0.011812 0.000000 -0.004953 0.000000
# 4 0.000000 0.000000 0.000000 0.034706 0.000000 -0.001810
# 5 0.002407 -0.002343 -0.004953 0.000000 0.037143 0.000000
# 6 0.000000 0.000000 0.000000 -0.001810 0.000000 0.033007
#
#
# Mechanical properties :
#
#
# Convention : Reuss Voigt Hill
#
# Bulk Modulus (GPa) = 50.82460 58.58586 54.70523
# Shear Modulus (GPa) = 28.17861 29.70282 28.94072
#
# Velocity S-wave (km/s) = 3.80266 3.90415 3.85374
# Velocity P-wave (km/s) = 6.73510 7.09840 6.91913
#
# Compressibility (1/GPa) = 0.01967551
#
# Stress axis : x y z
#
# Youngs Moduli (GPa) = 75.00373 56.48164 84.65724
#
# Poissons Ratio (x) = 0.25648 0.45856
# Poissons Ratio (y) = 0.34059 0.13795
# Poissons Ratio (z) = 0.40627 0.09204
#
# Static dielectric constant tensor:
#      x y z
#    x 3.630630 0.000000 0.022990 
#    y 0.000000 3.452200 0.000000 
#    z 0.022990 0.000000 3.489500 
# 
# 
# High freq. dielectric constant tensor:
#      x y z
#    x 1.761930 0.000000 0.009970 
#    y 0.000000 1.755930 0.000000 
#    z 0.009970 0.000000 1.751450 
# 
# From -- ./inp_files/275512.got.cif
#   From: 2010.06.25/outbox.cif.g09.slc.cpg/sg12_138_cif.got.tgz:275512.got - 2010.06.28 00:19:55.
