data_PCOD8102168
_publ_section_title
;
Structure prediction by ZEFSAII (Michael W. Deem and Ramdas Pophale) SiO2 
 PCOD8102168
Probable space group: C 2/M
;
_chemical_formula_sum "Si O2"
_cell_formula_units_Z 64
_cell_length_a 29.129439
_cell_length_b 18.978603
_cell_length_c 9.587946
_cell_angle_alpha 90.000000
_cell_angle_beta 142.588287
_cell_angle_gamma 90.000000
_cell_volume 3220.294220
_symmetry_space_group_name_H-M "C 2/M"
_symmetry_group_IT_number 12
_symmetry_cell_setting 'monoclinic'
loop_
_space_group_symop_operation_xyz
x,y,z
-x,y,-z
-x,-y,-z
x,-y,z
1/2+x,1/2+y,z
1/2-x,1/2+y,-z
1/2-x,1/2-y,-z
1/2+x,1/2-y,z
loop_
_atom_site_type_symbol
_atom_site_label
_atom_site_fract_x
_atom_site_fract_y
_atom_site_fract_z
Si Si1 0.705690 0.193739 0.985624
Si Si2 0.432630 0.078463 0.730317
Si Si3 0.730451 0.418953 0.665372
Si Si4 0.805159 0.345726 0.591820
Si Si5 0.051308 0.334278 0.493608
Si Si6 0.841205 0.779818 0.865233
Si Si7 0.940910 0.080923 0.743357
Si Si8 0.499440 0.321917 0.337386
O O1 0.639999 0.157259 0.738170
O O2 0.750000 0.250000 0.000000
O O3 0.758547 0.131522 0.173636
O O4 0.664482 0.234456 0.009500
O O5 0.361926 0.120007 0.620859
O O6 0.467486 0.114050 0.677642
O O7 0.405173 0.000000 0.627331
O O8 0.500000 0.076897 0.000000
O O9 0.747067 0.500000 0.747383
O O10 0.786718 0.397003 0.676836
O O11 0.644278 0.409787 0.404797
O O12 0.842218 0.272480 0.734271
O O13 0.729272 0.332026 0.320742
O O14 0.000000 0.357418 0.500000
O O15 0.033708 0.255358 0.403245
O O16 0.917202 0.824979 0.065762
O O17 0.947756 0.123726 0.616612
O O18 0.959231 0.000000 0.753337
O O19 0.000000 0.110301 0.000000
O O20 0.500000 0.345277 0.500000
#
# Coordination Sequence:
#
# PCOD8102168 Si02
#       8
#     8   8   8   8   8   8   8   8
#     4  11  21  37  62  88 123 160 205 254 304 366
#     4  11  25  42  63  89 122 166 209 256 312 365
#     4  10  22  38  61  89 121 164 205 252 310 366
#     4  10  21  39  61  89 124 154 206 261 305 368
#     4  11  23  41  62  92 125 160 205 258 304 366
#     4  10  20  36  60  93 118 157 203 251 313 357
#     4  10  22  40  61  90 123 159 204 247 299 369
#     4  11  21  37  63  90 123 160 198 250 306 364
#
# _framework density 19.87396
#
# number of rings (size 3 to 8) (size 9 to 14) (size 15 to 20)
#    0.000    1.500    2.500    3.375    1.750    4.500 
#    0.000    0.625    0.000    0.000    0.000    0.000 
#    0.000    0.000    0.000    0.000    0.000    0.000 
#
# Total GULP energy -396910.401360 kJ/mol
# GULP energy per Si atom -12403.450042 kJ/mol
# Density = 1.982873 g / cm^3
# Si number density = 19.873960 Si / 1000 Ang^3
#
#
#
# Elastic Constant Matrix: (Units=GPa)
#
#
# Indices 1 2 3 4 5 6 
#
# 1 107.1843 52.3441 26.3143 0.0000 -4.6321 0.0000
# 2 52.3441 85.1914 23.1836 0.0000 -8.0346 0.0000
# 3 26.3143 23.1836 94.7188 0.0000 4.5760 0.0000
# 4 0.0000 0.0000 0.0000 30.3848 0.0000 4.3225
# 5 -4.6321 -8.0346 4.5760 0.0000 31.6363 0.0000
# 6 0.0000 0.0000 0.0000 4.3225 0.0000 19.6010
#
#
#
# Elastic Compliance Matrix: (Units=1/GPa)
#
#
# Indices 1 2 3 4 5 6 
#
# 1 0.013631 -0.007837 -0.001882 0.000000 0.000278 0.000000
# 2 -0.007837 0.017518 -0.002286 0.000000 0.003632 0.000000
# 3 -0.001882 -0.002286 0.011764 0.000000 -0.002558 0.000000
# 4 0.000000 0.000000 0.000000 0.033977 0.000000 -0.007493
# 5 0.000278 0.003632 -0.002558 0.000000 0.032942 0.000000
# 6 0.000000 0.000000 0.000000 -0.007493 0.000000 0.052670
#
#
# Mechanical properties :
#
#
# Convention : Reuss Voigt Hill
#
# Bulk Modulus (GPa) = 52.90294 54.53096 53.71695
# Shear Modulus (GPa) = 25.93183 28.67460 27.30321
#
# Velocity S-wave (km/s) = 3.61614 3.80257 3.71053
# Velocity P-wave (km/s) = 6.64171 6.83940 6.74128
#
# Compressibility (1/GPa) = 0.01890254
#
# Stress axis : x y z
#
# Youngs Moduli (GPa) = 73.36218 57.08348 85.00833
#
# Poissons Ratio (x) = 0.44736 0.16000
# Poissons Ratio (y) = 0.57493 0.19434
# Poissons Ratio (z) = 0.13808 0.13050
#
# Static dielectric constant tensor:
#      x y z
#    x 3.482210 0.000000 0.007600 
#    y 0.000000 3.598750 0.000000 
#    z 0.007600 0.000000 3.769410 
# 
# 
# High freq. dielectric constant tensor:
#      x y z
#    x 1.773880 0.000000 0.004400 
#    y 0.000000 1.767610 0.000000 
#    z 0.004400 0.000000 1.787120 
# 
# From -- ./inp_files/112902.got.cif
#   From: 2010.06.25/outbox.cif.g09.slc.cpg/sg12_57_cif.got.tgz:112902.got - 2010.06.28 00:19:55.
