data_PCOD8102489
_publ_section_title
;
Structure prediction by ZEFSAII (Michael W. Deem and Ramdas Pophale) SiO2 
 PCOD8102489
Probable space group: C 2/M
;
_chemical_formula_sum "Si O2"
_cell_formula_units_Z 52
_cell_length_a 10.116079
_cell_length_b 13.702479
_cell_length_c 33.391707
_cell_angle_alpha 90.000000
_cell_angle_beta 34.675177
_cell_angle_gamma 90.000000
_cell_volume 2633.320287
_symmetry_space_group_name_H-M "C 2/M"
_symmetry_group_IT_number 12
_symmetry_cell_setting 'monoclinic'
loop_
_space_group_symop_operation_xyz
x,y,z
-x,y,-z
-x,-y,-z
x,-y,z
1/2+x,1/2+y,z
1/2-x,1/2+y,-z
1/2-x,1/2-y,-z
1/2+x,1/2-y,z
loop_
_atom_site_type_symbol
_atom_site_label
_atom_site_fract_x
_atom_site_fract_y
_atom_site_fract_z
Si Si1 0.471717 0.194446 0.460144
Si Si2 0.579912 0.794680 0.684167
Si Si3 0.406949 0.239713 0.226807
Si Si4 0.786615 0.500000 0.474386
Si Si5 0.904694 0.609868 0.887072
Si Si6 0.000000 0.746290 0.000000
Si Si7 0.219159 0.389595 0.882257
Si Si8 0.757954 0.500000 0.386716
O O1 0.500000 0.212356 0.500000
O O2 0.250000 0.250000 0.500000
O O3 0.699005 0.230506 0.381292
O O4 0.431983 0.084487 0.458417
O O5 0.529114 0.783862 0.743604
O O6 0.366722 0.752592 0.711529
O O7 0.623970 0.906805 0.662533
O O8 0.509651 0.147905 0.177139
O O9 0.528017 0.339595 0.181455
O O10 0.807435 0.500000 0.421529
O O11 0.516874 0.500000 0.554193
O O12 0.802611 0.500000 0.907457
O O13 0.717319 0.682568 0.953436
O O14 0.126917 0.607414 0.860238
O O15 0.960283 0.674984 0.047370
O O16 0.241822 0.500000 0.893965
#
# Coordination Sequence:
#
# PCOD8102489 Si02
#       8
#     8   8   8   4   8   4   8   4
#     4  12  24  44  68  95 130 166 217 276 331 383
#     4  12  25  43  65  93 125 171 213 264 320 389
#     4  11  24  43  61  92 128 171 215 258 315 383
#     4  11  23  44  64 100 126 166 208 276 336 385
#     4  10  21  40  63  90 131 166 210 258 315 368
#     4  10  20  36  68  96 124 162 218 256 310 364
#     4  10  21  40  63  93 130 168 206 261 309 372
#     4  11  24  40  70  92 130 162 216 267 328 392
#
# _framework density 19.746932999999999
#
# number of rings (size 3 to 8) (size 9 to 14) (size 15 to 20)
#    0.000    1.077    3.077    3.923    2.154    0.000 
#    2.769    0.000    0.000    0.000    0.000    0.000 
#    0.000    0.000    0.000    0.000    0.000    0.000 
#
# Total GULP energy -322446.554596 kJ/mol
# GULP energy per Si atom -12401.790561 kJ/mol
# Density = 1.970199 g / cm^3
# Si number density = 19.746933 Si / 1000 Ang^3
#
#
#
# Elastic Constant Matrix: (Units=GPa)
#
#
# Indices 1 2 3 4 5 6 
#
# 1 90.2433 33.1166 24.6897 -0.0011 3.1688 0.0012
# 2 33.1166 148.1084 46.1138 0.0039 2.3875 -0.0012
# 3 24.6897 46.1138 96.5641 0.0054 1.0295 -0.0029
# 4 -0.0011 0.0039 0.0054 31.8907 -0.0018 -2.0726
# 5 3.1688 2.3875 1.0295 -0.0018 37.8801 0.0007
# 6 0.0012 -0.0012 -0.0029 -2.0726 0.0007 34.9592
#
#
#
# Elastic Compliance Matrix: (Units=1/GPa)
#
#
# Indices 1 2 3 4 5 6 
#
# 1 0.012477 -0.002098 -0.002179 0.000001 -0.000852 -0.000001
# 2 -0.002098 0.008290 -0.003420 -0.000001 -0.000254 0.000000
# 3 -0.002179 -0.003420 0.012546 -0.000002 0.000057 0.000001
# 4 0.000001 -0.000001 -0.000002 0.031478 0.000001 0.001866
# 5 -0.000852 -0.000254 0.000057 0.000001 0.026485 0.000000
# 6 -0.000001 0.000000 0.000001 0.001866 0.000000 0.028715
#
#
# Mechanical properties :
#
#
# Convention : Reuss Voigt Hill
#
# Bulk Modulus (GPa) = 55.80673 60.30621 58.05647
# Shear Modulus (GPa) = 35.37141 36.34571 35.85856
#
# Velocity S-wave (km/s) = 4.23689 4.29485 4.26597
# Velocity P-wave (km/s) = 7.22892 7.42968 7.32999
#
# Compressibility (1/GPa) = 0.01791899
#
# Stress axis : x y z
#
# Youngs Moduli (GPa) = 80.14699 120.63268 79.70985
#
# Poissons Ratio (x) = 0.25303 0.17372
# Poissons Ratio (y) = 0.16811 0.27258
# Poissons Ratio (z) = 0.17467 0.41252
#
# Static dielectric constant tensor:
#      x y z
#    x 3.549070 0.000000 -0.008870 
#    y 0.000000 3.774940 0.000000 
#    z -0.008870 0.000000 3.607380 
# 
# 
# High freq. dielectric constant tensor:
#      x y z
#    x 1.773010 0.000000 0.000370 
#    y 0.000000 1.786040 0.000000 
#    z 0.000370 0.000000 1.775390 
# 
# From -- ./inp_files/372525.got.cif
#   From: 2010.06.25/outbox.cif.g09.slc.cpg/sg12_187_cif.got.tgz:372525.got - 2010.06.28 00:19:55.
