data_PCOD8102544
_publ_section_title
;
Structure prediction by ZEFSAII (Michael W. Deem and Ramdas Pophale) SiO2 
 PCOD8102544
Probable space group: C 2/M
;
_chemical_formula_sum "Si O2"
_cell_formula_units_Z 56
_cell_length_a 22.906176
_cell_length_b 18.530213
_cell_length_c 10.738461
_cell_angle_alpha 90.000000
_cell_angle_beta 144.581746
_cell_angle_gamma 90.000000
_cell_volume 2641.551561
_symmetry_space_group_name_H-M "C 2/M"
_symmetry_group_IT_number 12
_symmetry_cell_setting 'monoclinic'
loop_
_space_group_symop_operation_xyz
x,y,z
-x,y,-z
-x,-y,-z
x,-y,z
1/2+x,1/2+y,z
1/2-x,1/2+y,-z
1/2-x,1/2-y,-z
1/2+x,1/2-y,z
loop_
_atom_site_type_symbol
_atom_site_label
_atom_site_fract_x
_atom_site_fract_y
_atom_site_fract_z
Si Si1 0.411555 0.202439 0.256385
Si Si2 0.506624 0.179116 0.171896
Si Si3 0.276781 0.920244 0.994785
Si Si4 0.736104 0.170086 0.524723
Si Si5 0.559609 0.340874 0.988032
Si Si6 0.830580 0.583756 0.806446
Si Si7 0.417448 0.361145 0.248576
O O1 0.500000 0.221989 0.500000
O O2 0.462787 0.163298 0.230038
O O3 0.364171 0.281348 0.145499
O O4 0.333792 0.142583 0.171564
O O5 0.624256 0.159676 0.385527
O O6 0.487284 0.260765 0.096338
O O7 0.435690 0.127410 0.962819
O O8 0.280316 0.902058 0.853835
O O9 0.163660 0.919918 0.849737
O O10 0.322584 0.000000 0.099402
O O11 0.750000 0.250000 0.500000
O O12 0.820485 0.155859 0.776484
O O13 0.749643 0.113843 0.433858
O O14 0.500000 0.379746 0.000000
O O15 0.540852 0.378255 0.819472
O O16 0.852557 0.500000 0.821966
O O17 0.500000 0.364472 0.500000
#
# Coordination Sequence:
#
# PCOD8102544 Si02
#       7
#     8   8   8   8   8   8   8
#     4   9  20  36  60  89 124 154 200 260 309 358
#     4  10  20  37  56  94 124 163 206 245 315 368
#     4  10  22  40  62  88 120 163 208 246 306 375
#     4  12  22  34  64  92 125 164 205 257 308 371
#     4  11  22  38  60  96 126 157 205 263 314 361
#     4  10  22  40  62  90 126 164 205 254 308 376
#     4  10  23  40  64  92 121 162 208 258 307 368
#
# _framework density 21.199660999999999
#
# number of rings (size 3 to 8) (size 9 to 14) (size 15 to 20)
#    0.000    1.714    2.857    0.857    4.000    2.857 
#    0.000    0.714    0.000    0.857    0.000    0.000 
#    0.000    0.000    0.000    0.000    0.000    0.000 
#
# Total GULP energy -346895.702022 kJ/mol
# GULP energy per Si atom -12389.132215 kJ/mol
# Density = 2.115141 g / cm^3
# Si number density = 21.199661 Si / 1000 Ang^3
#
#
#
# Elastic Constant Matrix: (Units=GPa)
#
#
# Indices 1 2 3 4 5 6 
#
# 1 106.4723 15.0862 44.2043 0.0000 -1.3493 0.0000
# 2 15.0862 46.7047 5.1924 0.0000 3.8242 0.0000
# 3 44.2043 5.1924 102.9911 0.0000 -3.8395 0.0000
# 4 0.0000 0.0000 0.0000 19.6247 0.0000 -6.0576
# 5 -1.3493 3.8242 -3.8395 0.0000 32.3258 0.0000
# 6 0.0000 0.0000 0.0000 -6.0576 0.0000 15.4839
#
#
#
# Elastic Compliance Matrix: (Units=1/GPa)
#
#
# Indices 1 2 3 4 5 6 
#
# 1 0.011916 -0.003325 -0.004936 0.000000 0.000305 0.000000
# 2 -0.003325 0.022695 0.000179 0.000000 -0.002802 0.000000
# 3 -0.004936 0.000179 0.011863 0.000000 0.001182 0.000000
# 4 0.000000 0.000000 0.000000 0.057955 0.000000 0.022673
# 5 0.000305 -0.002802 0.001182 0.000000 0.031420 0.000000
# 6 0.000000 0.000000 0.000000 0.022673 0.000000 0.073453
#
#
# Mechanical properties :
#
#
# Convention : Reuss Voigt Hill
#
# Bulk Modulus (GPa) = 32.99287 42.79266 37.89277
# Shear Modulus (GPa) = 21.22517 26.26589 23.74553
#
# Velocity S-wave (km/s) = 3.16761 3.52373 3.35041
# Velocity P-wave (km/s) = 5.38285 6.06506 5.73411
#
# Compressibility (1/GPa) = 0.03030958
#
# Stress axis : x y z
#
# Youngs Moduli (GPa) = 83.91921 44.06287 84.29587
#
# Poissons Ratio (x) = 0.14652 0.41604
# Poissons Ratio (y) = 0.27906 -0.01505
# Poissons Ratio (z) = 0.41418 -0.00787
#
# Static dielectric constant tensor:
#      x y z
#    x 3.964560 0.000000 0.072270 
#    y 0.000000 3.592300 0.000000 
#    z 0.072270 0.000000 3.614920 
# 
# 
# High freq. dielectric constant tensor:
#      x y z
#    x 1.841170 0.000000 -0.003180 
#    y 0.000000 1.803910 0.000000 
#    z -0.003180 0.000000 1.822770 
# 
# From -- ./inp_files/177921.got.cif
#   From: 2010.06.25/outbox.cif.g09.slc.cpg/sg12_89_cif.got.tgz:177921.got - 2010.06.28 00:19:55.
