data_PCOD8102107
_publ_section_title
;
Structure prediction by ZEFSAII (Michael W. Deem and Ramdas Pophale) SiO2 
 PCOD8102107
Probable space group: C 2/M
;
_chemical_formula_sum "Si O2"
_cell_formula_units_Z 64
_cell_length_a 15.313800
_cell_length_b 8.966225
_cell_length_c 30.348971
_cell_angle_alpha 90.000000
_cell_angle_beta 128.846206
_cell_angle_gamma 90.000000
_cell_volume 3245.492265
_symmetry_space_group_name_H-M "C 2/M"
_symmetry_group_IT_number 12
_symmetry_cell_setting 'monoclinic'
loop_
_space_group_symop_operation_xyz
x,y,z
-x,y,-z
-x,-y,-z
x,-y,z
1/2+x,1/2+y,z
1/2-x,1/2+y,-z
1/2-x,1/2-y,-z
1/2+x,1/2-y,z
loop_
_atom_site_type_symbol
_atom_site_label
_atom_site_fract_x
_atom_site_fract_y
_atom_site_fract_z
Si Si1 0.551988 0.329542 0.562267
Si Si2 0.748853 0.325409 0.328900
Si Si3 0.656580 0.329071 0.441817
Si Si4 0.658855 0.175602 0.135369
Si Si5 0.677955 0.174235 0.745725
Si Si6 0.919893 0.324532 0.668690
Si Si7 0.711324 0.173878 0.052613
Si Si8 0.075076 0.825422 0.935338
O O1 0.500000 0.272144 0.500000
O O2 0.594011 0.500000 0.570437
O O3 0.655656 0.225078 0.606832
O O4 0.462273 0.314730 0.572335
O O5 0.729530 0.500000 0.328172
O O6 0.781166 0.281782 0.289748
O O7 0.633756 0.238780 0.303324
O O8 0.691340 0.500000 0.445700
O O9 0.750000 0.250000 0.500000
O O10 0.648800 0.248969 0.392690
O O11 0.755291 0.229032 0.198227
O O12 0.696579 0.223446 0.098310
O O13 0.542398 0.249396 0.113199
O O14 0.644482 0.000000 0.134429
O O15 0.549104 0.221619 0.708951
O O16 0.695946 0.000000 0.761208
O O17 0.904685 0.500000 0.660564
O O18 0.837206 0.211996 0.076119
O O19 0.685053 0.000000 0.037425
O O20 0.620735 0.264844 0.996049
O O21 0.055046 0.000000 0.933538
#
# Coordination Sequence:
#
# PCOD8102107 Si02
#       8
#     8   8   8   8   8   8   8   8
#     4  10  21  37  58  87 121 154 191 240 294 355
#     4  11  23  41  64  89 116 153 198 246 303 361
#     4  11  22  36  59  90 124 158 195 242 297 360
#     4  11  23  38  60  87 119 159 204 250 299 357
#     4  10  24  44  62  84 119 159 201 252 303 359
#     4  11  23  42  64  87 119 157 198 247 303 361
#     4   9  20  38  58  86 124 162 200 246 300 356
#     4  10  20  36  60  89 123 161 201 248 301 354
#
# _framework density 19.719657999999999
#
# number of rings (size 3 to 8) (size 9 to 14) (size 15 to 20)
#    0.000    1.625    1.250    3.000    0.000    7.750 
#    0.000    3.750    0.000    0.000    0.000    0.000 
#    0.000    0.000    0.000    0.000    0.000    0.000 
#
# Total GULP energy -396981.199754 kJ/mol
# GULP energy per Si atom -12405.662492 kJ/mol
# Density = 1.967478 g / cm^3
# Si number density = 19.719658 Si / 1000 Ang^3
#
#
#
# Elastic Constant Matrix: (Units=GPa)
#
#
# Indices 1 2 3 4 5 6 
#
# 1 121.8487 52.0614 52.8790 0.0000 8.3204 0.0000
# 2 52.0614 89.6121 52.7786 0.0000 9.7482 0.0000
# 3 52.8790 52.7786 110.4657 0.0000 8.8031 0.0000
# 4 0.0000 0.0000 0.0000 39.1707 0.0000 1.9463
# 5 8.3204 9.7482 8.8031 0.0000 25.0440 0.0000
# 6 0.0000 0.0000 0.0000 1.9463 0.0000 33.4267
#
#
#
# Elastic Compliance Matrix: (Units=1/GPa)
#
#
# Indices 1 2 3 4 5 6 
#
# 1 0.011730 -0.004805 -0.003249 0.000000 -0.000885 0.000000
# 2 -0.004805 0.017808 -0.005950 0.000000 -0.003244 0.000000
# 3 -0.003249 -0.005950 0.013560 0.000000 -0.001371 0.000000
# 4 0.000000 0.000000 0.000000 0.025603 0.000000 -0.001491
# 5 -0.000885 -0.003244 -0.001371 0.000000 0.041968 0.000000
# 6 0.000000 0.000000 0.000000 -0.001491 0.000000 0.030003
#
#
# Mechanical properties :
#
#
# Convention : Reuss Voigt Hill
#
# Bulk Modulus (GPa) = 66.26652 70.81828 68.54240
# Shear Modulus (GPa) = 28.78366 30.47546 29.62956
#
# Velocity S-wave (km/s) = 3.82467 3.93547 3.88046
# Velocity P-wave (km/s) = 7.29256 7.52602 7.41021
#
# Compressibility (1/GPa) = 0.01509058
#
# Stress axis : x y z
#
# Youngs Moduli (GPa) = 85.24933 56.15519 73.74818
#
# Poissons Ratio (x) = 0.26983 0.23960
# Poissons Ratio (y) = 0.40964 0.43877
# Poissons Ratio (z) = 0.27696 0.33410
#
# Static dielectric constant tensor:
#      x y z
#    x 3.884250 0.000000 0.007240 
#    y 0.000000 3.623380 0.000000 
#    z 0.007240 0.000000 3.449420 
# 
# 
# High freq. dielectric constant tensor:
#      x y z
#    x 1.786960 0.000000 0.000920 
#    y 0.000000 1.774210 0.000000 
#    z 0.000920 0.000000 1.761910 
# 
# From -- ./inp_files/375632.got.cif
#   From: 2010.06.25/outbox.cif.g09.slc.cpg/sg12_188_cif.got.tgz:375632.got - 2010.06.28 00:19:55.
