data_PCOD8102921
_publ_section_title
;
Structure prediction by ZEFSAII (Michael W. Deem and Ramdas Pophale) SiO2 
 PCOD8102921
Probable space group: C 2/M
;
_chemical_formula_sum "Si O2"
_cell_formula_units_Z 40
_cell_length_a 13.867722
_cell_length_b 9.755172
_cell_length_c 14.720472
_cell_angle_alpha 90.000000
_cell_angle_beta 82.488976
_cell_angle_gamma 90.000000
_cell_volume 1974.328209
_symmetry_space_group_name_H-M "C 2/M"
_symmetry_group_IT_number 12
_symmetry_cell_setting 'monoclinic'
loop_
_space_group_symop_operation_xyz
x,y,z
-x,y,-z
-x,-y,-z
x,-y,z
1/2+x,1/2+y,z
1/2-x,1/2+y,-z
1/2-x,1/2-y,-z
1/2+x,1/2-y,z
loop_
_atom_site_type_symbol
_atom_site_label
_atom_site_fract_x
_atom_site_fract_y
_atom_site_fract_z
Si Si1 0.261338 0.346486 0.150297
Si Si2 0.878524 0.844380 0.735005
Si Si3 0.411232 0.846208 0.071656
Si Si4 0.257639 0.845739 0.413074
Si Si5 0.910958 0.246420 0.261946
O O1 0.235133 0.500000 0.119374
O O2 0.163527 0.262149 0.185668
O O3 0.320969 0.258977 0.066581
O O4 0.330612 0.359521 0.231277
O O5 0.831536 0.812014 0.643324
O O6 0.994339 0.830671 0.712516
O O7 0.851373 0.000000 0.767801
O O8 0.440190 0.847975 0.175143
O O9 0.382041 0.000000 0.045071
O O10 0.500000 0.791388 0.000000
O O11 0.250000 0.750000 0.500000
O O12 0.361467 0.828680 0.350263
O O13 0.250104 0.000000 0.450060
#
# Coordination Sequence:
#
# PCOD8102921 Si02
#       5
#     8   8   8   8   8
#     4   9  19  33  54  83 113 144 185 233 275 323
#     4  10  20  37  60  82 112 152 189 227 282 340
#     4   9  18  35  59  83 113 152 188 226 279 336
#     4  10  22  39  59  82 113 149 186 233 281 336
#     4   9  20  36  60  83 110 148 190 231 275 331
#
# _framework density 20.260055999999999
#
# number of rings (size 3 to 8) (size 9 to 14) (size 15 to 20)
#    1.200    1.400    0.000    1.800    0.000    6.800 
#    0.000    4.000    0.000    0.000    0.000    0.000 
#    0.000    0.000    0.000    0.000    0.000    0.000 
#
# Total GULP energy -247794.396819 kJ/mol
# GULP energy per Si atom -12389.719841 kJ/mol
# Density = 2.021394 g / cm^3
# Si number density = 20.260056 Si / 1000 Ang^3
#
#
#
# Elastic Constant Matrix: (Units=GPa)
#
#
# Indices 1 2 3 4 5 6 
#
# 1 102.8787 18.8944 24.6369 0.0000 -7.8153 0.0000
# 2 18.8944 103.4162 24.0509 0.0000 -8.4214 0.0000
# 3 24.6369 24.0509 94.6252 0.0000 -27.4583 0.0000
# 4 0.0000 0.0000 0.0000 25.1317 0.0000 -12.9979
# 5 -7.8153 -8.4214 -27.4583 0.0000 18.7287 0.0000
# 6 0.0000 0.0000 0.0000 -12.9979 0.0000 21.4455
#
#
#
# Elastic Compliance Matrix: (Units=1/GPa)
#
#
# Indices 1 2 3 4 5 6 
#
# 1 0.010548 -0.001362 -0.002264 0.000000 0.000470 0.000000
# 2 -0.001362 0.010474 -0.001924 0.000000 0.001319 0.000000
# 3 -0.002264 -0.001924 0.019356 0.000000 0.026568 0.000000
# 4 0.000000 0.000000 0.000000 0.057958 0.000000 0.035128
# 5 0.000470 0.001319 0.026568 0.000000 0.093136 0.000000
# 6 0.000000 0.000000 0.000000 0.035128 0.000000 0.067920
#
#
# Mechanical properties :
#
#
# Convention : Reuss Voigt Hill
#
# Bulk Modulus (GPa) = 34.15661 48.45383 41.30522
# Shear Modulus (GPa) = 17.84110 28.61703 23.22907
#
# Velocity S-wave (km/s) = 2.97072 3.76238 3.38974
# Velocity P-wave (km/s) = 5.35374 6.54537 5.97932
#
# Compressibility (1/GPa) = 0.02927691
#
# Stress axis : x y z
#
# Youngs Moduli (GPa) = 94.80282 95.47814 51.66340
#
# Poissons Ratio (x) = 0.13008 0.11694
# Poissons Ratio (y) = 0.12916 0.09942
# Poissons Ratio (z) = 0.21459 0.18374
#
# Static dielectric constant tensor:
#      x y z
#    x 3.530590 0.000000 -0.098880 
#    y 0.000000 3.495150 0.000000 
#    z -0.098880 0.000000 3.374630 
# 
# 
# High freq. dielectric constant tensor:
#      x y z
#    x 1.785780 0.000000 -0.011270 
#    y 0.000000 1.786610 0.000000 
#    z -0.011270 0.000000 1.768940 
# 
# From -- ./inp_files/266683.got.cif
#   From: 2010.06.25/outbox.cif.g09.slc.cpg/sg12_134_cif.got.tgz:266683.got - 2010.06.28 00:19:55.
