data_PCOD8102528
_publ_section_title
;
Structure prediction by ZEFSAII (Michael W. Deem and Ramdas Pophale) SiO2 
 PCOD8102528
Probable space group: C 2/M
;
_chemical_formula_sum "Si O2"
_cell_formula_units_Z 56
_cell_length_a 28.487515
_cell_length_b 8.691415
_cell_length_c 14.516640
_cell_angle_alpha 90.000000
_cell_angle_beta 120.241463
_cell_angle_gamma 90.000000
_cell_volume 3105.131109
_symmetry_space_group_name_H-M "C 2/M"
_symmetry_group_IT_number 12
_symmetry_cell_setting 'monoclinic'
loop_
_space_group_symop_operation_xyz
x,y,z
-x,y,-z
-x,-y,-z
x,-y,z
1/2+x,1/2+y,z
1/2-x,1/2+y,-z
1/2-x,1/2-y,-z
1/2+x,1/2-y,z
loop_
_atom_site_type_symbol
_atom_site_label
_atom_site_fract_x
_atom_site_fract_y
_atom_site_fract_z
Si Si1 0.049995 0.819336 0.613454
Si Si2 0.630884 0.180243 0.563599
Si Si3 0.748291 0.819357 0.601243
Si Si4 0.646723 0.183533 0.223381
Si Si5 0.961201 0.673756 0.198587
Si Si6 0.056337 0.181134 0.008340
Si Si7 0.085587 0.327717 0.335253
O O1 0.108520 0.774280 0.628710
O O2 0.050144 0.743576 0.713442
O O3 0.000000 0.757547 0.500000
O O4 0.045019 0.000000 0.621480
O O5 0.692566 0.219160 0.599010
O O6 0.594021 0.247863 0.443196
O O7 0.621920 0.000000 0.574683
O O8 0.750000 0.750000 0.500000
O O9 0.792195 0.747284 0.714971
O O10 0.757270 0.000000 0.599913
O O11 0.621056 0.253276 0.291890
O O12 0.646475 0.000000 0.218876
O O13 0.610263 0.245195 0.104576
O O14 0.938002 0.500000 0.171435
O O15 0.937386 0.775899 0.092819
O O16 0.024703 0.673828 0.241708
O O17 0.058945 0.000000 0.023177
O O18 0.000000 0.243184 0.000000
O O19 0.108976 0.500000 0.369274
#
# Coordination Sequence:
#
# PCOD8102528 Si02
#       7
#     8   8   8   8   8   8   8
#     4  11  23  36  53  83 117 148 185 235 288 334
#     4  10  20  37  56  79 112 153 193 228 274 338
#     4  11  22  36  56  84 116 151 191 236 286 336
#     4  11  21  37  57  82 115 153 194 231 278 341
#     4  11  21  36  58  81 111 153 193 231 277 336
#     4  11  23  37  55  84 118 150 186 235 288 334
#     4   9  17  30  52  81 112 146 187 228 266 325
#
# _framework density 18.034666000000001
#
# number of rings (size 3 to 8) (size 9 to 14) (size 15 to 20)
#    0.000    1.429    4.286    2.143    0.000    2.286 
#    0.000    0.000    0.000    0.857    0.000    0.000 
#    0.000    0.000    0.000    0.000    0.000    0.000 
#
# Total GULP energy -347076.824737 kJ/mol
# GULP energy per Si atom -12395.600883 kJ/mol
# Density = 1.799362 g / cm^3
# Si number density = 18.034666 Si / 1000 Ang^3
#
#
#
# Elastic Constant Matrix: (Units=GPa)
#
#
# Indices 1 2 3 4 5 6 
#
# 1 89.8407 34.1373 42.1736 0.0000 -6.4731 0.0000
# 2 34.1373 74.4633 33.7862 0.0000 2.1481 0.0000
# 3 42.1736 33.7862 114.5306 0.0000 1.8137 0.0000
# 4 0.0000 0.0000 0.0000 30.8592 0.0000 -1.1718
# 5 -6.4731 2.1481 1.8137 0.0000 30.8455 0.0000
# 6 0.0000 0.0000 0.0000 -1.1718 0.0000 27.0324
#
#
#
# Elastic Compliance Matrix: (Units=1/GPa)
#
#
# Indices 1 2 3 4 5 6 
#
# 1 0.015362 -0.005264 -0.004165 0.000000 0.003835 0.000000
# 2 -0.005264 0.017329 -0.003140 0.000000 -0.002127 0.000000
# 3 -0.004165 -0.003140 0.011212 0.000000 -0.001315 0.000000
# 4 0.000000 0.000000 0.000000 0.032459 0.000000 0.001407
# 5 0.003835 -0.002127 -0.001315 0.000000 0.033450 0.000000
# 6 0.000000 0.000000 0.000000 0.001407 0.000000 0.037054
#
#
# Mechanical properties :
#
#
# Convention : Reuss Voigt Hill
#
# Bulk Modulus (GPa) = 53.28801 55.44763 54.36782
# Shear Modulus (GPa) = 28.04935 28.99661 28.52298
#
# Velocity S-wave (km/s) = 3.94801 4.01412 3.98120
# Velocity P-wave (km/s) = 7.09888 7.23160 7.16554
#
# Compressibility (1/GPa) = 0.01876595
#
# Stress axis : x y z
#
# Youngs Moduli (GPa) = 65.09448 57.70816 89.19019
#
# Poissons Ratio (x) = 0.30376 0.37146
# Poissons Ratio (y) = 0.34264 0.28005
# Poissons Ratio (z) = 0.27111 0.18120
#
# Static dielectric constant tensor:
#      x y z
#    x 3.308020 0.000000 0.021740 
#    y 0.000000 3.291930 0.000000 
#    z 0.021740 0.000000 3.350300 
# 
# 
# High freq. dielectric constant tensor:
#      x y z
#    x 1.688440 0.000000 -0.002910 
#    y 0.000000 1.695930 0.000000 
#    z -0.002910 0.000000 1.693900 
# 
# From -- ./inp_files/243278.got.cif
#   From: 2010.06.25/outbox.cif.g09.slc.cpg/sg12_122_cif.got.tgz:243278.got - 2010.06.28 00:19:55.
