data_PCOD8102917
_publ_section_title
;
Structure prediction by ZEFSAII (Michael W. Deem and Ramdas Pophale) SiO2 
 PCOD8102917
Probable space group: C 2/M
;
_chemical_formula_sum "Si O2"
_cell_formula_units_Z 56
_cell_length_a 17.955206
_cell_length_b 8.991315
_cell_length_c 25.458585
_cell_angle_alpha 90.000000
_cell_angle_beta 134.959716
_cell_angle_gamma 90.000000
_cell_volume 2908.291954
_symmetry_space_group_name_H-M "C 2/M"
_symmetry_group_IT_number 12
_symmetry_cell_setting 'monoclinic'
loop_
_space_group_symop_operation_xyz
x,y,z
-x,y,-z
-x,-y,-z
x,-y,z
1/2+x,1/2+y,z
1/2-x,1/2+y,-z
1/2-x,1/2-y,-z
1/2+x,1/2-y,z
loop_
_atom_site_type_symbol
_atom_site_label
_atom_site_fract_x
_atom_site_fract_y
_atom_site_fract_z
Si Si1 0.752553 0.324827 0.421014
Si Si2 0.680779 0.176283 0.848791
Si Si3 0.137869 0.824621 0.718110
Si Si4 0.911682 0.176487 0.994794
Si Si5 0.040059 0.827616 0.864046
Si Si6 0.203712 0.827935 0.279629
Si Si7 0.592214 0.325717 0.429832
O O1 0.765466 0.500000 0.428727
O O2 0.729907 0.269387 0.350942
O O3 0.655653 0.273366 0.409544
O O4 0.861134 0.253485 0.495393
O O5 0.640104 0.248972 0.775527
O O6 0.798268 0.234228 0.919544
O O7 0.605691 0.225029 0.858177
O O8 0.677945 0.000000 0.841405
O O9 0.233562 0.770071 0.730517
O O10 0.028757 0.778304 0.636065
O O11 0.144779 0.000000 0.729749
O O12 0.916448 0.000000 0.995250
O O13 0.934797 0.230893 0.065140
O O14 0.000000 0.244132 0.000000
O O15 0.918227 0.803758 0.791806
O O16 0.072030 0.000000 0.872439
O O17 0.235289 0.000000 0.288097
O O18 0.604639 0.500000 0.444363
#
# Coordination Sequence:
#
# PCOD8102917 Si02
#       7
#     8   8   8   8   8   8   8
#     4   9  18  34  56  80 106 138 178 223 270 322
#     4  11  22  36  57  84 112 143 185 230 270 321
#     4  11  23  38  56  79 110 146 184 227 276 327
#     4   9  18  34  57  83 111 146 184 221 267 322
#     4  10  20  37  60  82 111 149 184 222 270 323
#     4  10  21  37  57  81 110 145 184 225 272 326
#     4   9  19  36  56  78 105 140 181 222 269 325
#
# _framework density 19.255286999999999
#
# number of rings (size 3 to 8) (size 9 to 14) (size 15 to 20)
#    0.000    2.143    0.000    3.000    0.000    7.429 
#    0.000    6.429    0.000    3.000    0.000    0.000 
#    0.000    0.000    0.000    0.000    0.000    0.000 
#
# Total GULP energy -347300.114672 kJ/mol
# GULP energy per Si atom -12403.575524 kJ/mol
# Density = 1.921146 g / cm^3
# Si number density = 19.255287 Si / 1000 Ang^3
#
#
#
# Elastic Constant Matrix: (Units=GPa)
#
#
# Indices 1 2 3 4 5 6 
#
# 1 83.1662 31.2785 23.1372 0.0000 10.2271 0.0000
# 2 31.2785 47.1458 36.7732 0.0000 4.2487 0.0000
# 3 23.1372 36.7732 94.7442 0.0000 9.5646 0.0000
# 4 0.0000 0.0000 0.0000 6.7560 0.0000 -8.2130
# 5 10.2271 4.2487 9.5646 0.0000 28.3611 0.0000
# 6 0.0000 0.0000 0.0000 -8.2130 0.0000 29.7827
#
#
#
# Elastic Compliance Matrix: (Units=1/GPa)
#
#
# Indices 1 2 3 4 5 6 
#
# 1 0.016578 -0.011171 0.000747 0.000000 -0.004557 0.000000
# 2 -0.011171 0.037957 -0.012254 0.000000 0.002475 0.000000
# 3 0.000747 -0.012254 0.015498 0.000000 -0.003660 0.000000
# 4 0.000000 0.000000 0.000000 0.222660 0.000000 0.061401
# 5 -0.004557 0.002475 -0.003660 0.000000 0.037766 0.000000
# 6 0.000000 0.000000 0.000000 0.061401 0.000000 0.050509
#
#
# Mechanical properties :
#
#
# Convention : Reuss Voigt Hill
#
# Bulk Modulus (GPa) = 40.52243 45.27043 42.89643
# Shear Modulus (GPa) = 11.50618 21.90445 16.70532
#
# Velocity S-wave (km/s) = 2.44715 3.37646 2.94865
# Velocity P-wave (km/s) = 5.39215 6.22594 5.82399
#
# Compressibility (1/GPa) = 0.02467769
#
# Stress axis : x y z
#
# Youngs Moduli (GPa) = 60.32161 26.34561 64.52456
#
# Poissons Ratio (x) = 0.29430 -0.04822
# Poissons Ratio (y) = 0.67383 0.79069
# Poissons Ratio (z) = -0.04508 0.32284
#
# Static dielectric constant tensor:
#      x y z
#    x 3.624140 0.000000 -0.053820 
#    y 0.000000 3.326960 0.000000 
#    z -0.053820 0.000000 3.786110 
# 
# 
# High freq. dielectric constant tensor:
#      x y z
#    x 1.755600 0.000000 -0.001740 
#    y 0.000000 1.729280 0.000000 
#    z -0.001740 0.000000 1.767790 
# 
# From -- ./inp_files/342505.got.cif
#   From: 2010.06.25/outbox.cif.g09.slc.cpg/sg12_172_cif.got.tgz:342505.got - 2010.06.28 00:19:55.
