data_PCOD8102559
_publ_section_title
;
Structure prediction by ZEFSAII (Michael W. Deem and Ramdas Pophale) SiO2 
 PCOD8102559
Probable space group: C 2/M
;
_chemical_formula_sum "Si O2"
_cell_formula_units_Z 64
_cell_length_a 18.378653
_cell_length_b 9.012629
_cell_length_c 32.294889
_cell_angle_alpha 90.000000
_cell_angle_beta 38.188910
_cell_angle_gamma 90.000000
_cell_volume 3307.253629
_symmetry_space_group_name_H-M "C 2/M"
_symmetry_group_IT_number 12
_symmetry_cell_setting 'monoclinic'
loop_
_space_group_symop_operation_xyz
x,y,z
-x,y,-z
-x,-y,-z
x,-y,z
1/2+x,1/2+y,z
1/2-x,1/2+y,-z
1/2-x,1/2-y,-z
1/2+x,1/2-y,z
loop_
_atom_site_type_symbol
_atom_site_label
_atom_site_fract_x
_atom_site_fract_y
_atom_site_fract_z
Si Si1 0.361680 0.828149 0.563803
Si Si2 0.643263 0.325353 0.185463
Si Si3 0.287245 0.823503 0.687033
Si Si4 0.525464 0.676128 0.812199
Si Si5 0.623681 0.162487 0.965469
Si Si6 0.870195 0.826431 0.956323
Si Si7 0.712954 0.823935 0.559385
Si Si8 0.943690 0.675467 0.693091
O O1 0.500000 0.806235 0.500000
O O2 0.324795 0.766767 0.625121
O O3 0.298214 0.731595 0.557391
O O4 0.326135 0.000000 0.573208
O O5 0.631060 0.500000 0.198231
O O6 0.549184 0.266701 0.193734
O O7 0.774330 0.281789 0.111309
O O8 0.619131 0.244877 0.239207
O O9 0.156936 0.758523 0.753029
O O10 0.376729 0.764255 0.682051
O O11 0.288157 0.000000 0.687361
O O12 0.529025 0.500000 0.809321
O O13 0.467121 0.733185 0.880732
O O14 0.664101 0.000000 0.965118
O O15 0.500000 0.140672 0.000000
O O16 0.596362 0.283142 0.012434
O O17 0.855722 0.000000 0.958614
O O18 0.750000 0.750000 0.000000
O O19 0.750000 0.750000 0.500000
O O20 0.579648 0.775870 0.629735
O O21 0.723714 0.000000 0.549983
O O22 0.931513 0.500000 0.702016
#
# Coordination Sequence:
#
# PCOD8102559 Si02
#       8
#     8   8   8   8   8   8   8   8
#     4  10  20  37  63  90 116 152 196 236 283 341
#     4  10  20  37  57  79 111 150 190 233 290 354
#     4   9  18  34  56  81 111 147 185 233 285 335
#     4   9  18  33  54  78 106 142 186 233 281 339
#     4  10  22  39  57  80 116 154 191 240 297 350
#     4  11  21  36  58  83 111 147 194 242 291 350
#     4  11  23  39  60  88 122 158 194 236 283 337
#     4  10  22  38  57  84 117 148 189 239 285 336
#
# _framework density 19.351403000000001
#
# number of rings (size 3 to 8) (size 9 to 14) (size 15 to 20)
#    0.000    2.000    1.250    2.250    1.750    5.000 
#    0.000    0.625    0.000    1.500    0.000    0.000 
#    0.000    0.000    0.000    0.000    0.000    0.000 
#
# Total GULP energy -396775.520601 kJ/mol
# GULP energy per Si atom -12399.235019 kJ/mol
# Density = 1.930736 g / cm^3
# Si number density = 19.351403 Si / 1000 Ang^3
#
#
#
# Elastic Constant Matrix: (Units=GPa)
#
#
# Indices 1 2 3 4 5 6 
#
# 1 133.4542 36.4622 73.8562 -0.0025 7.1463 -0.0170
# 2 36.4622 42.9646 39.8794 -0.0053 5.7544 -0.0065
# 3 73.8562 39.8794 169.1005 0.0016 12.7143 0.0005
# 4 -0.0025 -0.0053 0.0016 26.1340 -0.0004 11.3612
# 5 7.1463 5.7544 12.7143 -0.0004 40.6084 -0.0022
# 6 -0.0170 -0.0065 0.0005 11.3612 -0.0022 18.1666
#
#
#
# Elastic Compliance Matrix: (Units=1/GPa)
#
#
# Indices 1 2 3 4 5 6 
#
# 1 0.011063 -0.006277 -0.003351 -0.000005 -0.000008 0.000011
# 2 -0.006277 0.033531 -0.005010 0.000005 -0.002078 0.000003
# 3 -0.003351 -0.005010 0.008665 0.000001 -0.001413 -0.000006
# 4 -0.000005 0.000005 0.000001 0.052552 -0.000001 -0.032865
# 5 -0.000008 -0.002078 -0.001413 -0.000001 0.025364 0.000003
# 6 0.000011 0.000003 -0.000006 -0.032865 0.000003 0.075600
#
#
# Mechanical properties :
#
#
# Convention : Reuss Voigt Hill
#
# Bulk Modulus (GPa) = 41.69673 71.76831 56.73252
# Shear Modulus (GPa) = 20.48808 30.00324 25.24566
#
# Velocity S-wave (km/s) = 3.25736 3.94184 3.61583
# Velocity P-wave (km/s) = 5.97838 7.60821 6.84200
#
# Compressibility (1/GPa) = 0.02398270
#
# Stress axis : x y z
#
# Youngs Moduli (GPa) = 90.38940 29.82354 115.40842
#
# Poissons Ratio (x) = 0.18722 0.38672
# Poissons Ratio (y) = 0.56742 0.57815
# Poissons Ratio (z) = 0.30289 0.14940
#
# Static dielectric constant tensor:
#      x y z
#    x 3.098810 -0.000150 -0.379440 
#    y -0.000150 3.332160 -0.000080 
#    z -0.379440 -0.000080 3.606960 
# 
# 
# High freq. dielectric constant tensor:
#      x y z
#    x 1.764680 0.000000 -0.002070 
#    y 0.000000 1.721770 0.000000 
#    z -0.002070 0.000000 1.772890 
# 
# From -- ./inp_files/378187.got.cif
#   From: 2010.06.25/outbox.cif.g09.slc.cpg/sg12_190_cif.got.tgz:378187.got - 2010.06.28 00:19:55.
