data_PCOD8102433
_publ_section_title
;
Structure prediction by ZEFSAII (Michael W. Deem and Ramdas Pophale) SiO2 
 PCOD8102433
Probable space group: C 2/M
;
_chemical_formula_sum "Si O2"
_cell_formula_units_Z 64
_cell_length_a 20.955173
_cell_length_b 29.890427
_cell_length_c 14.910888
_cell_angle_alpha 90.000000
_cell_angle_beta 161.360655
_cell_angle_gamma 90.000000
_cell_volume 2985.020563
_symmetry_space_group_name_H-M "C 2/M"
_symmetry_group_IT_number 12
_symmetry_cell_setting 'monoclinic'
loop_
_space_group_symop_operation_xyz
x,y,z
-x,y,-z
-x,-y,-z
x,-y,z
1/2+x,1/2+y,z
1/2-x,1/2+y,-z
1/2-x,1/2-y,-z
1/2+x,1/2-y,z
loop_
_atom_site_type_symbol
_atom_site_label
_atom_site_fract_x
_atom_site_fract_y
_atom_site_fract_z
Si Si1 0.827484 0.591987 0.052911
Si Si2 0.691178 0.788997 0.696015
Si Si3 0.418523 0.368535 0.531014
Si Si4 0.136426 0.662937 0.445471
Si Si5 0.525513 0.634386 0.873066
Si Si6 0.108359 0.303028 0.050532
Si Si7 0.788827 0.048684 0.268353
Si Si8 0.222375 0.448815 0.827441
O O1 0.771613 0.557907 0.057603
O O2 0.020723 0.620960 0.334392
O O3 0.642544 0.626169 0.791041
O O4 0.870589 0.564349 0.019321
O O5 0.500000 0.775904 0.500000
O O6 0.636318 0.797424 0.518574
O O7 0.787794 0.832719 0.868352
O O8 0.848239 0.748729 0.910070
O O9 0.314856 0.330426 0.332923
O O10 0.296416 0.415461 0.358712
O O11 0.421508 0.356390 0.639338
O O12 0.361378 0.645288 0.729690
O O13 0.031407 0.679454 0.215219
O O14 0.613748 0.584019 0.999516
O O15 0.000000 0.310330 0.000000
O O16 0.000000 0.046052 0.500000
O O17 0.727765 0.000000 0.225681
O O18 0.279998 0.500000 0.880908
O O19 0.000000 0.437085 0.500000
#
# Coordination Sequence:
#
# PCOD8102433 Si02
#       8
#     8   8   8   8   8   8   8   8
#     4  10  20  36  63  94 133 176 225 270 330 393
#     4  12  29  46  69  99 129 173 228 285 331 406
#     4  10  21  38  63  92 131 175 218 274 323 394
#     4  12  25  43  71  96 138 184 213 277 347 402
#     4  11  23  44  68  94 138 174 218 268 343 400
#     4  12  26  44  68  98 139 171 228 268 343 404
#     4   9  17  31  55  90 126 165 215 268 325 382
#     4  10  21  40  69  98 132 178 229 280 328 391
#
# _framework density 21.440389
#
# number of rings (size 3 to 8) (size 9 to 14) (size 15 to 20)
#    0.000    1.250    2.500    4.125    3.500    4.500 
#    0.000    1.250    0.000    4.125    0.000    0.000 
#    0.000    0.000    0.000    0.000    0.000    0.000 
#
# Total GULP energy -396838.297198 kJ/mol
# GULP energy per Si atom -12401.196787 kJ/mol
# Density = 2.139159 g / cm^3
# Si number density = 21.440389 Si / 1000 Ang^3
#
#
#
# Elastic Constant Matrix: (Units=GPa)
#
#
# Indices 1 2 3 4 5 6 
#
# 1 85.5481 20.8366 30.1348 0.0001 -10.1473 0.0006
# 2 20.8366 110.9725 33.3750 0.0002 -5.5676 0.0003
# 3 30.1348 33.3750 89.3123 -0.0008 -9.2153 0.0001
# 4 0.0001 0.0002 -0.0008 33.1634 -0.0004 -6.3874
# 5 -10.1473 -5.5676 -9.2153 -0.0004 31.9182 0.0003
# 6 0.0006 0.0003 0.0001 -6.3874 0.0003 22.9148
#
#
#
# Elastic Compliance Matrix: (Units=1/GPa)
#
#
# Indices 1 2 3 4 5 6 
#
# 1 0.013710 -0.001267 -0.003840 0.000000 0.003029 0.000000
# 2 -0.001267 0.010284 -0.003372 0.000000 0.000417 0.000000
# 3 -0.003840 -0.003372 0.013982 0.000000 0.002228 0.000000
# 4 0.000000 0.000000 0.000000 0.031864 0.000000 0.008882
# 5 0.003029 0.000417 0.002228 0.000000 0.033009 0.000000
# 6 0.000000 0.000000 0.000000 0.008882 0.000000 0.046116
#
#
# Mechanical properties :
#
#
# Convention : Reuss Voigt Hill
#
# Bulk Modulus (GPa) = 47.57957 50.50288 49.04123
# Shear Modulus (GPa) = 28.91327 31.03172 29.97250
#
# Velocity S-wave (km/s) = 3.67623 3.80853 3.74297
# Velocity P-wave (km/s) = 6.34502 6.55332 6.45001
#
# Compressibility (1/GPa) = 0.02101742
#
# Stress axis : x y z
#
# Youngs Moduli (GPa) = 72.94019 97.23437 71.51880
#
# Poissons Ratio (x) = 0.12324 0.27461
# Poissons Ratio (y) = 0.09245 0.24119
# Poissons Ratio (z) = 0.28007 0.32792
#
# Static dielectric constant tensor:
#      x y z
#    x 3.702170 0.000000 -0.189850 
#    y 0.000000 3.936860 0.000000 
#    z -0.189850 0.000000 3.944100 
# 
# 
# High freq. dielectric constant tensor:
#      x y z
#    x 1.829900 0.000000 -0.018660 
#    y 0.000000 1.841600 0.000000 
#    z -0.018660 0.000000 1.845810 
# 
# From -- ./inp_files/236009.got.cif
#   From: 2010.06.25/outbox.cif.g09.slc.cpg/sg12_119_cif.got.tgz:236009.got - 2010.06.28 00:19:55.
