data_PCOD8102295
_publ_section_title
;
Structure prediction by ZEFSAII (Michael W. Deem and Ramdas Pophale) SiO2 
 PCOD8102295
Probable space group: C 2/M
;
_chemical_formula_sum "Si O2"
_cell_formula_units_Z 48
_cell_length_a 8.365367
_cell_length_b 13.073872
_cell_length_c 26.154366
_cell_angle_alpha 90.000000
_cell_angle_beta 136.104060
_cell_angle_gamma 90.000000
_cell_volume 1983.290928
_symmetry_space_group_name_H-M "C 2/M"
_symmetry_group_IT_number 12
_symmetry_cell_setting 'monoclinic'
loop_
_space_group_symop_operation_xyz
x,y,z
-x,y,-z
-x,-y,-z
x,-y,z
1/2+x,1/2+y,z
1/2-x,1/2+y,-z
1/2-x,1/2-y,-z
1/2+x,1/2-y,z
loop_
_atom_site_type_symbol
_atom_site_label
_atom_site_fract_x
_atom_site_fract_y
_atom_site_fract_z
Si Si1 0.741167 0.614033 0.067294
Si Si2 0.050062 0.612565 0.778640
Si Si3 0.108741 0.186264 0.227092
Si Si4 0.753183 0.209977 0.444461
Si Si5 0.124172 0.617892 0.082269
Si Si6 0.795565 0.615806 0.367670
O O1 0.722574 0.500000 0.038678
O O2 0.765569 0.607698 0.133454
O O3 0.960369 0.664126 0.089260
O O4 0.500000 0.673283 0.000000
O O5 0.938296 0.500000 0.744156
O O6 0.182305 0.647830 0.758751
O O7 0.851164 0.694194 0.747453
O O8 0.099285 0.123475 0.278335
O O9 0.863202 0.180562 0.140873
O O10 0.750000 0.250000 0.500000
O O11 0.750153 0.303833 0.402820
O O12 0.530489 0.137630 0.388655
O O13 0.000000 0.150159 0.500000
O O14 0.189055 0.500000 0.106518
O O15 0.000000 0.634898 0.000000
O O16 0.800569 0.500000 0.391078
#
# Coordination Sequence:
#
# PCOD8102295 Si02
#       6
#     8   8   8   8   8   8
#     4   9  18  34  56  83 117 160 214 279 348 409
#     4  11  24  42  63  89 128 171 217 282 345 403
#     4  12  24  41  65  96 132 177 231 281 341 412
#     4   9  21  42  68 102 137 171 220 264 313 400
#     4  10  20  36  61  93 130 177 235 294 349 407
#     4  11  23  42  69 100 140 183 221 275 337 391
#
# _framework density 24.202199
#
# number of rings (size 3 to 8) (size 9 to 14) (size 15 to 20)
#    0.000    1.667    0.000    4.500    0.000    6.667 
#    0.000   11.667    0.000    0.000    0.000    0.000 
#    0.000    0.000    0.000    0.000    0.000    0.000 
#
# Total GULP energy -297374.735657 kJ/mol
# GULP energy per Si atom -12390.613986 kJ/mol
# Density = 2.414711 g / cm^3
# Si number density = 24.202199 Si / 1000 Ang^3
#
#
#
# Elastic Constant Matrix: (Units=GPa)
#
#
# Indices 1 2 3 4 5 6 
#
# 1 96.4824 32.4942 19.7691 0.0000 -25.9792 0.0000
# 2 32.4942 142.2585 3.1002 0.0000 -6.1671 0.0000
# 3 19.7691 3.1002 90.3993 -0.0001 -21.6862 0.0000
# 4 0.0000 0.0000 -0.0001 34.1525 -0.0001 -7.1392
# 5 -25.9792 -6.1671 -21.6862 -0.0001 35.6213 0.0000
# 6 0.0000 0.0000 0.0000 -7.1392 0.0000 40.3692
#
#
#
# Elastic Compliance Matrix: (Units=1/GPa)
#
#
# Indices 1 2 3 4 5 6 
#
# 1 0.013934 -0.002766 -0.000737 0.000000 0.009235 0.000000
# 2 -0.002766 0.007632 0.000206 0.000000 -0.000571 0.000000
# 3 -0.000737 0.000206 0.012993 0.000000 0.007409 0.000000
# 4 0.000000 0.000000 0.000000 0.030404 0.000000 0.005377
# 5 0.009235 -0.000571 0.007409 0.000000 0.039219 0.000000
# 6 0.000000 0.000000 0.000000 0.005377 0.000000 0.025722
#
#
# Mechanical properties :
#
#
# Convention : Reuss Voigt Hill
#
# Bulk Modulus (GPa) = 35.75848 48.87415 42.31631
# Shear Modulus (GPa) = 34.28859 40.28038 37.28448
#
# Velocity S-wave (km/s) = 3.76806 4.08404 3.92923
# Velocity P-wave (km/s) = 5.80845 6.51745 6.17313
#
# Compressibility (1/GPa) = 0.02796540
#
# Stress axis : x y z
#
# Youngs Moduli (GPa) = 71.76816 131.02559 76.96217
#
# Poissons Ratio (x) = 0.36246 0.05672
# Poissons Ratio (y) = 0.19853 -0.01588
# Poissons Ratio (z) = 0.05289 -0.02704
#
# Static dielectric constant tensor:
#      x y z
#    x 4.566830 0.000000 -0.012940 
#    y 0.000000 4.490740 0.000000 
#    z -0.012940 0.000000 4.191840 
# 
# 
# High freq. dielectric constant tensor:
#      x y z
#    x 1.964060 0.000000 -0.013630 
#    y 0.000000 1.954730 0.000000 
#    z -0.013630 0.000000 1.956710 
# 
# From -- ./inp_files/356356.got.cif
#   From: 2010.06.25/outbox.cif.g09.slc.cpg/sg12_179_cif.got.tgz:356356.got - 2010.06.28 00:19:55.
