data_PCOD8102267
_publ_section_title
;
Structure prediction by ZEFSAII (Michael W. Deem and Ramdas Pophale) SiO2 
 PCOD8102267
Probable space group: C 2/M
;
_chemical_formula_sum "Si O2"
_cell_formula_units_Z 64
_cell_length_a 15.014489
_cell_length_b 8.661789
_cell_length_c 24.618586
_cell_angle_alpha 90.000000
_cell_angle_beta 74.095789
_cell_angle_gamma 90.000000
_cell_volume 3079.147110
_symmetry_space_group_name_H-M "C 2/M"
_symmetry_group_IT_number 12
_symmetry_cell_setting 'monoclinic'
loop_
_space_group_symop_operation_xyz
x,y,z
-x,y,-z
-x,-y,-z
x,-y,z
1/2+x,1/2+y,z
1/2-x,1/2+y,-z
1/2-x,1/2-y,-z
1/2+x,1/2-y,z
loop_
_atom_site_type_symbol
_atom_site_label
_atom_site_fract_x
_atom_site_fract_y
_atom_site_fract_z
Si Si1 0.265953 0.176197 0.234057
Si Si2 0.566312 0.320827 0.133070
Si Si3 0.470641 0.176119 0.244935
Si Si4 0.510700 0.181458 0.436463
Si Si5 0.747626 0.679544 0.878886
Si Si6 0.400418 0.319432 0.361320
Si Si7 0.702449 0.819428 0.350630
Si Si8 0.942841 0.319881 0.062507
O O1 0.371045 0.196206 0.234676
O O2 0.251274 0.284318 0.185049
O O3 0.199423 0.229618 0.293969
O O4 0.243158 0.000000 0.221976
O O5 0.549699 0.500000 0.123921
O O6 0.543369 0.280047 0.199536
O O7 0.672303 0.275322 0.103912
O O8 0.500248 0.219883 0.106358
O O9 0.467120 0.233223 0.307420
O O10 0.504985 0.000000 0.238364
O O11 0.500000 0.236203 0.500000
O O12 0.431099 0.267825 0.415947
O O13 0.612793 0.230415 0.399653
O O14 0.494370 0.000000 0.433138
O O15 0.766286 0.500000 0.884616
O O16 0.651750 0.724930 0.923055
O O17 0.414205 0.500000 0.351067
O O18 0.293184 0.272259 0.370244
O O19 0.703283 0.000000 0.337369
O O20 0.918632 0.500000 0.067793
O O21 0.000000 0.271845 0.000000
#
# Coordination Sequence:
#
# PCOD8102267 Si02
#       8
#     8   8   8   8   8   8   8   8
#     4  10  20  36  61  91 126 161 204 256 311 376
#     4  12  25  41  65  96 130 168 213 261 315 377
#     4  10  20  37  62  90 126 164 203 252 312 377
#     4  10  22  40  60  83 116 160 207 253 308 376
#     4  12  25  41  65  95 130 170 212 260 316 375
#     4  10  21  37  58  86 119 155 200 253 308 366
#     4   9  20  38  58  83 118 158 201 248 308 373
#     4  11  25  47  71  95 129 170 214 265 316 373
#
# _framework density 20.784977000000001
#
# number of rings (size 3 to 8) (size 9 to 14) (size 15 to 20)
#    0.000    1.500    1.250    3.750    1.750    4.250 
#    0.000    0.000    0.000    0.000    0.000    0.000 
#    0.000    0.000    0.000    0.000    0.000    0.000 
#
# Total GULP energy -397015.475399 kJ/mol
# GULP energy per Si atom -12406.733606 kJ/mol
# Density = 2.073767 g / cm^3
# Si number density = 20.784977 Si / 1000 Ang^3
#
#
#
# Elastic Constant Matrix: (Units=GPa)
#
#
# Indices 1 2 3 4 5 6 
#
# 1 50.4144 10.1513 12.2729 0.0000 -20.3076 0.0000
# 2 10.1513 70.1222 24.5607 0.0000 -6.7264 0.0000
# 3 12.2729 24.5607 92.6607 0.0000 -20.9138 0.0000
# 4 0.0000 0.0000 0.0000 32.3592 0.0000 -0.1267
# 5 -20.3076 -6.7264 -20.9138 0.0000 27.0758 0.0000
# 6 0.0000 0.0000 0.0000 -0.1267 0.0000 30.8575
#
#
#
# Elastic Compliance Matrix: (Units=1/GPa)
#
#
# Indices 1 2 3 4 5 6 
#
# 1 0.029011 -0.002725 0.001984 0.000000 0.022614 0.000000
# 2 -0.002725 0.015992 -0.004169 0.000000 -0.001292 0.000000
# 3 0.001984 -0.004169 0.014215 0.000000 0.011432 0.000000
# 4 0.000000 0.000000 0.000000 0.030904 0.000000 0.000127
# 5 0.022614 -0.001292 0.011432 0.000000 0.062404 0.000000
# 6 0.000000 0.000000 0.000000 0.000127 0.000000 0.032408
#
#
# Mechanical properties :
#
#
# Convention : Reuss Voigt Hill
#
# Bulk Modulus (GPa) = 20.24475 34.12970 27.18722
# Shear Modulus (GPa) = 23.67214 29.13934 26.40574
#
# Velocity S-wave (km/s) = 3.37843 3.74831 3.56817
# Velocity P-wave (km/s) = 4.99796 5.93205 5.48492
#
# Compressibility (1/GPa) = 0.04939553
#
# Stress axis : x y z
#
# Youngs Moduli (GPa) = 34.47005 62.53208 70.35016
#
# Poissons Ratio (x) = 0.17043 -0.13958
# Poissons Ratio (y) = 0.09395 0.29332
# Poissons Ratio (z) = -0.06839 0.26072
#
# Static dielectric constant tensor:
#      x y z
#    x 3.855650 0.000000 -0.089740 
#    y 0.000000 3.707970 0.000000 
#    z -0.089740 0.000000 3.788700 
# 
# 
# High freq. dielectric constant tensor:
#      x y z
#    x 1.821220 0.000000 -0.003820 
#    y 0.000000 1.815760 0.000000 
#    z -0.003820 0.000000 1.808430 
# 
# From -- ./inp_files/359779.got.cif
#   From: 2010.06.25/outbox.cif.g09.slc.cpg/sg12_180_cif.got.tgz:359779.got - 2010.06.28 00:19:55.
