data_PCOD8102391
_publ_section_title
;
Structure prediction by ZEFSAII (Michael W. Deem and Ramdas Pophale) SiO2 
 PCOD8102391
Probable space group: C 2/M
;
_chemical_formula_sum "Si O2"
_cell_formula_units_Z 36
_cell_length_a 18.429836
_cell_length_b 12.991371
_cell_length_c 7.439953
_cell_angle_alpha 90.000000
_cell_angle_beta 116.825890
_cell_angle_gamma 90.000000
_cell_volume 1589.635106
_symmetry_space_group_name_H-M "C 2/M"
_symmetry_group_IT_number 12
_symmetry_cell_setting 'monoclinic'
loop_
_space_group_symop_operation_xyz
x,y,z
-x,y,-z
-x,-y,-z
x,-y,z
1/2+x,1/2+y,z
1/2-x,1/2+y,-z
1/2-x,1/2-y,-z
1/2+x,1/2-y,z
loop_
_atom_site_type_symbol
_atom_site_label
_atom_site_fract_x
_atom_site_fract_y
_atom_site_fract_z
Si Si1 0.179544 0.294271 0.684307
Si Si2 0.403687 0.000000 0.373988
Si Si3 0.500000 0.662455 0.000000
Si Si4 0.846347 0.714411 0.922935
Si Si5 0.094861 0.500000 0.046225
Si Si6 0.070590 0.887626 0.443995
O O1 0.138784 0.401761 0.575600
O O2 0.275534 0.280497 0.744500
O O3 0.137880 0.200284 0.532268
O O4 0.172864 0.291626 0.889620
O O5 0.500000 0.000000 0.500000
O O6 0.391016 0.000000 0.149816
O O7 0.567928 0.731803 0.987464
O O8 0.537866 0.596924 0.204527
O O9 0.857866 0.603124 0.836852
O O10 0.000000 0.500000 0.000000
O O11 0.000000 0.853343 0.500000
O O12 0.105464 0.000000 0.541457
#
# Coordination Sequence:
#
# PCOD8102391 Si02
#       6
#     8   4   4   8   4   8
#     4  10  22  43  65  98 132 176 223 276 342 394
#     4  10  22  38  68  95 128 172 218 279 331 402
#     4  12  23  43  66  98 132 173 228 279 328 402
#     4  10  22  39  66  98 136 171 227 280 326 405
#     4  10  20  36  62  98 129 174 218 272 329 387
#     4  11  24  43  67  96 130 175 217 272 337 407
#
# _framework density 22.646706999999999
#
# number of rings (size 3 to 8) (size 9 to 14) (size 15 to 20)
#    0.000    1.556    3.333    1.000    4.667    0.889 
#    6.000    0.000    0.000    0.000    0.000    0.000 
#    0.000    0.000    0.000    0.000    0.000    0.000 
#
# Total GULP energy -223026.537748 kJ/mol
# GULP energy per Si atom -12390.363208 kJ/mol
# Density = 2.259516 g / cm^3
# Si number density = 22.646707 Si / 1000 Ang^3
#
#
#
# Elastic Constant Matrix: (Units=GPa)
#
#
# Indices 1 2 3 4 5 6 
#
# 1 108.8443 60.0536 14.9710 0.0000 34.8633 0.0000
# 2 60.0536 168.2847 25.4955 0.0000 38.9967 0.0000
# 3 14.9710 25.4955 62.9088 0.0000 12.0263 0.0000
# 4 0.0000 0.0000 0.0000 18.7208 0.0000 21.2434
# 5 34.8633 38.9967 12.0263 0.0000 45.4741 0.0000
# 6 0.0000 0.0000 0.0000 21.2434 0.0000 34.7698
#
#
#
# Elastic Compliance Matrix: (Units=1/GPa)
#
#
# Indices 1 2 3 4 5 6 
#
# 1 0.013284 -0.002910 -0.000539 0.000000 -0.007546 0.000000
# 2 -0.002910 0.008272 -0.001822 0.000000 -0.004381 0.000000
# 3 -0.000539 -0.001822 0.017258 0.000000 -0.002588 0.000000
# 4 0.000000 0.000000 0.000000 0.174167 0.000000 -0.106411
# 5 -0.007546 -0.004381 -0.002588 0.000000 0.032217 0.000000
# 6 0.000000 0.000000 0.000000 -0.106411 0.000000 0.093775
#
#
# Mechanical properties :
#
#
# Convention : Reuss Voigt Hill
#
# Bulk Modulus (GPa) = 35.37301 60.11978 47.74639
# Shear Modulus (GPa) = 13.92990 35.76079 24.84535
#
# Velocity S-wave (km/s) = 2.48280 3.97807 3.31582
# Velocity P-wave (km/s) = 4.88595 6.90684 5.98235
#
# Compressibility (1/GPa) = 0.02827014
#
# Stress axis : x y z
#
# Youngs Moduli (GPa) = 75.27620 120.88852 57.94526
#
# Poissons Ratio (x) = 0.35181 0.03125
# Poissons Ratio (y) = 0.21907 0.10560
# Poissons Ratio (z) = 0.04060 0.22032
#
# Static dielectric constant tensor:
#      x y z
#    x 4.258920 0.000000 0.038320 
#    y 0.000000 4.448770 0.000000 
#    z 0.038320 0.000000 4.061860 
# 
# 
# High freq. dielectric constant tensor:
#      x y z
#    x 1.897070 0.000000 -0.003290 
#    y 0.000000 1.898520 0.000000 
#    z -0.003290 0.000000 1.883130 
# 
# From -- ./inp_files/83842.got.cif
#   From: 2010.06.25/outbox.cif.g09.slc.cpg/sg12_42_cif.got.tgz:83842.got - 2010.06.28 00:19:55.
