data_PCOD8102833
_publ_section_title
;
Structure prediction by ZEFSAII (Michael W. Deem and Ramdas Pophale) SiO2 
 PCOD8102833
Probable space group: C 2/M
;
_chemical_formula_sum "Si O2"
_cell_formula_units_Z 48
_cell_length_a 31.406631
_cell_length_b 8.564245
_cell_length_c 20.136604
_cell_angle_alpha 90.000000
_cell_angle_beta 152.662581
_cell_angle_gamma 90.000000
_cell_volume 2487.291728
_symmetry_space_group_name_H-M "C 2/M"
_symmetry_group_IT_number 12
_symmetry_cell_setting 'monoclinic'
loop_
_space_group_symop_operation_xyz
x,y,z
-x,y,-z
-x,-y,-z
x,-y,z
1/2+x,1/2+y,z
1/2-x,1/2+y,-z
1/2-x,1/2-y,-z
1/2+x,1/2-y,z
loop_
_atom_site_type_symbol
_atom_site_label
_atom_site_fract_x
_atom_site_fract_y
_atom_site_fract_z
Si Si1 0.309191 0.817491 0.141969
Si Si2 0.706201 0.179829 0.121661
Si Si3 0.007946 0.179991 0.649415
Si Si4 0.811668 0.682242 0.385921
Si Si5 0.473801 0.678029 0.171802
Si Si6 0.683736 0.316064 0.463971
O O1 0.259270 0.786831 0.142249
O O2 0.410433 0.738633 0.285287
O O3 0.321119 0.000000 0.147032
O O4 0.250000 0.750000 0.000000
O O5 0.739191 0.223729 0.240682
O O6 0.726909 0.000000 0.135002
O O7 0.596002 0.210676 0.964682
O O8 0.041353 0.204116 0.770977
O O9 0.915903 0.278533 0.507397
O O10 0.984834 0.000000 0.602893
O O11 0.793663 0.500000 0.352596
O O12 0.792120 0.731861 0.434064
O O13 0.451878 0.500000 0.122165
O O14 0.578491 0.722690 0.296818
O O15 0.696959 0.500000 0.492317
O O16 0.750000 0.250000 0.500000
#
# Coordination Sequence:
#
# PCOD8102833 Si02
#       6
#     8   8   8   8   8   8
#     4  12  23  36  56  84 117 156 203 247 290 341
#     4  12  24  38  58  85 119 157 198 245 295 345
#     4  10  20  37  59  84 116 154 200 247 291 342
#     4  11  23  40  61  86 120 156 194 240 297 353
#     4   9  19  36  59  85 117 153 191 236 290 348
#     4  10  21  40  66  93 120 150 191 236 288 351
#
# _framework density 19.298098
#
# number of rings (size 3 to 8) (size 9 to 14) (size 15 to 20)
#    0.000    1.333    1.667    6.500    0.000    4.000 
#    0.000    4.167    0.000    5.000    0.000    0.000 
#    0.000    0.000    0.000    0.000    0.000    0.000 
#
# Total GULP energy -297742.310123 kJ/mol
# GULP energy per Si atom -12405.929588 kJ/mol
# Density = 1.925417 g / cm^3
# Si number density = 19.298098 Si / 1000 Ang^3
#
#
#
# Elastic Constant Matrix: (Units=GPa)
#
#
# Indices 1 2 3 4 5 6 
#
# 1 92.1529 20.9830 42.9678 0.0000 17.4079 0.0000
# 2 20.9830 90.1548 31.3953 0.0000 1.7909 0.0000
# 3 42.9678 31.3953 104.1356 0.0000 -0.8336 0.0000
# 4 0.0000 0.0000 0.0000 34.0166 0.0000 1.1991
# 5 17.4079 1.7909 -0.8336 0.0000 24.1465 0.0000
# 6 0.0000 0.0000 0.0000 1.1991 0.0000 32.1008
#
#
#
# Elastic Compliance Matrix: (Units=1/GPa)
#
#
# Indices 1 2 3 4 5 6 
#
# 1 0.016436 -0.001332 -0.006476 0.000000 -0.011974 0.000000
# 2 -0.001332 0.012528 -0.003228 0.000000 -0.000080 0.000000
# 3 -0.006476 -0.003228 0.013291 0.000000 0.005367 0.000000
# 4 0.000000 0.000000 0.000000 0.029436 0.000000 -0.001100
# 5 -0.011974 -0.000080 0.005367 0.000000 0.050238 0.000000
# 6 0.000000 0.000000 0.000000 -0.001100 0.000000 0.031193
#
#
# Mechanical properties :
#
#
# Convention : Reuss Voigt Hill
#
# Bulk Modulus (GPa) = 49.54726 53.01505 51.28115
# Shear Modulus (GPa) = 27.48430 30.79259 29.13844
#
# Velocity S-wave (km/s) = 3.77795 3.99887 3.88998
# Velocity P-wave (km/s) = 6.69036 6.98946 6.84154
#
# Compressibility (1/GPa) = 0.02018275
#
# Stress axis : x y z
#
# Youngs Moduli (GPa) = 60.84051 79.82259 75.23854
#
# Poissons Ratio (x) = 0.10636 0.48725
# Poissons Ratio (y) = 0.08106 0.24286
# Poissons Ratio (z) = 0.39401 0.25765
#
# Static dielectric constant tensor:
#      x y z
#    x 3.339510 0.000000 0.070960 
#    y 0.000000 3.588860 0.000000 
#    z 0.070960 0.000000 3.544490 
# 
# 
# High freq. dielectric constant tensor:
#      x y z
#    x 1.733990 0.000000 0.008940 
#    y 0.000000 1.764690 0.000000 
#    z 0.008940 0.000000 1.753850 
# 
# From -- ./inp_files/274091.got.cif
#   From: 2010.06.25/outbox.cif.g09.slc.cpg/sg12_138_cif.got.tgz:274091.got - 2010.06.28 00:19:55.
