data_PCOD8102483
_publ_section_title
;
Structure prediction by ZEFSAII (Michael W. Deem and Ramdas Pophale) SiO2 
 PCOD8102483
Probable space group: C 2/M
;
_chemical_formula_sum "Si O2"
_cell_formula_units_Z 64
_cell_length_a 13.330252
_cell_length_b 33.933124
_cell_length_c 9.098258
_cell_angle_alpha 90.000000
_cell_angle_beta 129.539685
_cell_angle_gamma 90.000000
_cell_volume 3173.791304
_symmetry_space_group_name_H-M "C 2/M"
_symmetry_group_IT_number 12
_symmetry_cell_setting 'monoclinic'
loop_
_space_group_symop_operation_xyz
x,y,z
-x,y,-z
-x,-y,-z
x,-y,z
1/2+x,1/2+y,z
1/2-x,1/2+y,-z
1/2-x,1/2-y,-z
1/2+x,1/2-y,z
loop_
_atom_site_type_symbol
_atom_site_label
_atom_site_fract_x
_atom_site_fract_y
_atom_site_fract_z
Si Si1 0.548656 0.599765 0.887872
Si Si2 0.374160 0.902751 0.791522
Si Si3 0.212475 0.647033 0.783265
Si Si4 0.455422 0.928081 0.305228
Si Si5 0.360971 0.233672 0.205254
Si Si6 0.125498 0.766078 0.460655
Si Si7 0.185086 0.852375 0.443254
Si Si8 0.262137 0.455433 0.096541
O O1 0.426925 0.615359 0.682306
O O2 0.608899 0.564768 0.847695
O O3 0.500000 0.583128 0.000000
O O4 0.652569 0.634903 0.012080
O O5 0.420480 0.924463 0.686185
O O6 0.282721 0.866069 0.663636
O O7 0.290775 0.933180 0.809611
O O8 0.500000 0.887377 0.000000
O O9 0.103602 0.614750 0.714460
O O10 0.157026 0.687166 0.797233
O O11 0.233019 0.653229 0.629319
O O12 0.500000 0.947826 0.500000
O O13 0.347825 0.955879 0.131977
O O14 0.503027 0.243600 0.271434
O O15 0.358737 0.257353 0.354143
O O16 0.250000 0.250000 0.000000
O O17 0.250000 0.750000 0.500000
O O18 0.113893 0.812672 0.425650
O O19 0.296477 0.500000 0.172749
#
# Coordination Sequence:
#
# PCOD8102483 Si02
#       8
#     8   8   8   8   8   8   8   8
#     4   9  21  40  69  97 117 167 217 256 324 374
#     4  10  23  38  63  96 125 169 211 255 330 377
#     4  10  20  38  67  89 120 163 212 273 312 374
#     4  10  20  36  66  95 117 162 220 256 316 381
#     4  11  25  41  61  88 127 171 216 265 330 393
#     4  11  25  40  59  96 127 168 213 267 336 372
#     4  11  21  41  66  87 130 163 213 274 308 392
#     4  10  23  43  62  92 138 165 201 265 322 388
#
# _framework density 20.165157000000001
#
# number of rings (size 3 to 8) (size 9 to 14) (size 15 to 20)
#    0.000    1.750    2.500    0.750    3.500    8.750 
#    0.000    1.250    0.000    0.000    0.000    0.000 
#    0.000    0.000    0.000    0.000    0.000    0.000 
#
# Total GULP energy -396852.340399 kJ/mol
# GULP energy per Si atom -12401.635637 kJ/mol
# Density = 2.011926 g / cm^3
# Si number density = 20.165157 Si / 1000 Ang^3
#
#
#
# Elastic Constant Matrix: (Units=GPa)
#
#
# Indices 1 2 3 4 5 6 
#
# 1 133.0528 45.3964 34.4320 0.0000 11.9097 0.0000
# 2 45.3964 111.9710 26.0022 0.0000 9.0119 0.0000
# 3 34.4320 26.0022 107.5651 0.0000 13.0879 0.0000
# 4 0.0000 0.0000 0.0000 18.2660 0.0000 -2.9161
# 5 11.9097 9.0119 13.0879 0.0000 30.3985 0.0000
# 6 0.0000 0.0000 0.0000 -2.9161 0.0000 20.0337
#
#
#
# Elastic Compliance Matrix: (Units=1/GPa)
#
#
# Indices 1 2 3 4 5 6 
#
# 1 0.009268 -0.003149 -0.001981 0.000000 -0.001845 0.000000
# 2 -0.003149 0.010640 -0.001404 0.000000 -0.001316 0.000000
# 3 -0.001981 -0.001404 0.010685 0.000000 -0.003408 0.000000
# 4 0.000000 0.000000 0.000000 0.056049 0.000000 0.008159
# 5 -0.001845 -0.001316 -0.003408 0.000000 0.035476 0.000000
# 6 0.000000 0.000000 0.000000 0.008159 0.000000 0.051104
#
#
# Mechanical properties :
#
#
# Convention : Reuss Voigt Hill
#
# Bulk Modulus (GPa) = 57.06261 62.69445 59.87853
# Shear Modulus (GPa) = 26.02398 30.19020 28.10709
#
# Velocity S-wave (km/s) = 3.59631 3.87350 3.73747
# Velocity P-wave (km/s) = 6.75305 7.15285 6.95582
#
# Compressibility (1/GPa) = 0.01752461
#
# Stress axis : x y z
#
# Youngs Moduli (GPa) = 107.89802 93.98936 93.59046
#
# Poissons Ratio (x) = 0.29597 0.18541
# Poissons Ratio (y) = 0.33977 0.13138
# Poissons Ratio (z) = 0.21375 0.13194
#
# Static dielectric constant tensor:
#      x y z
#    x 3.750660 0.000000 0.004010 
#    y 0.000000 3.527770 0.000000 
#    z 0.004010 0.000000 3.783360 
# 
# 
# High freq. dielectric constant tensor:
#      x y z
#    x 1.803430 0.000000 0.003760 
#    y 0.000000 1.769250 0.000000 
#    z 0.003760 0.000000 1.789860 
# 
# From -- ./inp_files/68641.got.cif
#   From: 2010.06.25/outbox.cif.g09.slc.cpg/sg12_35_cif.got.tgz:68641.got - 2010.06.28 00:19:55.
