data_PCOD8102141
_publ_section_title
;
Structure prediction by ZEFSAII (Michael W. Deem and Ramdas Pophale) SiO2 
 PCOD8102141
Probable space group: C 2/M
;
_chemical_formula_sum "Si O2"
_cell_formula_units_Z 40
_cell_length_a 10.698205
_cell_length_b 19.241621
_cell_length_c 9.123239
_cell_angle_alpha 90.000000
_cell_angle_beta 99.205937
_cell_angle_gamma 90.000000
_cell_volume 1853.836548
_symmetry_space_group_name_H-M "C 2/M"
_symmetry_group_IT_number 12
_symmetry_cell_setting 'monoclinic'
loop_
_space_group_symop_operation_xyz
x,y,z
-x,y,-z
-x,-y,-z
x,-y,z
1/2+x,1/2+y,z
1/2-x,1/2+y,-z
1/2-x,1/2-y,-z
1/2+x,1/2-y,z
loop_
_atom_site_type_symbol
_atom_site_label
_atom_site_fract_x
_atom_site_fract_y
_atom_site_fract_z
Si Si1 0.614867 0.919321 0.723385
Si Si2 0.922644 0.921437 0.337000
Si Si3 0.716430 0.784678 0.840738
Si Si4 0.484304 0.300142 0.823145
Si Si5 0.836556 0.419502 0.595571
O O1 0.686627 0.867829 0.850057
O O2 0.463735 0.909240 0.713880
O O3 0.651001 0.891442 0.567896
O O4 0.652553 0.000000 0.759723
O O5 0.783031 0.887666 0.339574
O O6 0.000000 0.917612 0.500000
O O7 0.995302 0.878513 0.226703
O O8 0.913428 0.000000 0.276240
O O9 0.587059 0.748537 0.758263
O O10 0.840195 0.775225 0.759132
O O11 0.750000 0.750000 0.000000
O O12 0.500000 0.298317 0.000000
O O13 0.806848 0.500000 0.567749
#
# Coordination Sequence:
#
# PCOD8102141 Si02
#       5
#     8   8   8   8   8
#     4   9  17  34  62  90 120 156 199 244 305 364
#     4  10  20  36  60  90 125 155 198 255 302 353
#     4  10  22  40  59  82 118 159 200 250 298 352
#     4  10  23  41  59  82 117 166 201 242 304 360
#     4   8  16  31  56  93 125 152 187 247 309 359
#
# _framework density 21.576875999999999
#
# number of rings (size 3 to 8) (size 9 to 14) (size 15 to 20)
#    0.000    2.600    0.000    2.400    2.800    2.800 
#    3.600    5.000    0.000    5.400    0.000    0.000 
#    0.000    0.000    0.000    0.000    0.000    0.000 
#
# Total GULP energy -247797.094545 kJ/mol
# GULP energy per Si atom -12389.854727 kJ/mol
# Density = 2.152777 g / cm^3
# Si number density = 21.576876 Si / 1000 Ang^3
#
#
#
# Elastic Constant Matrix: (Units=GPa)
#
#
# Indices 1 2 3 4 5 6 
#
# 1 206.6167 68.9525 22.1335 0.0000 -14.4292 0.0000
# 2 68.9525 116.6457 31.5521 0.0000 3.3727 0.0000
# 3 22.1335 31.5521 31.7009 0.0000 -0.1896 0.0000
# 4 0.0000 0.0000 0.0000 31.3606 0.0000 -0.1085
# 5 -14.4292 3.3727 -0.1896 0.0000 25.3042 0.0000
# 6 0.0000 0.0000 0.0000 -0.1085 0.0000 39.1342
#
#
#
# Elastic Compliance Matrix: (Units=1/GPa)
#
#
# Indices 1 2 3 4 5 6 
#
# 1 0.006459 -0.003730 -0.000772 0.000000 0.004174 0.000000
# 2 -0.003730 0.013955 -0.011309 0.000000 -0.004072 0.000000
# 3 -0.000772 -0.011309 0.043349 0.000000 0.001392 0.000000
# 4 0.000000 0.000000 0.000000 0.031887 0.000000 0.000088
# 5 0.004174 -0.004072 0.001392 0.000000 0.042453 0.000000
# 6 0.000000 0.000000 0.000000 0.000088 0.000000 0.025553
#
#
# Mechanical properties :
#
#
# Convention : Reuss Voigt Hill
#
# Bulk Modulus (GPa) = 31.11465 66.69327 48.90396
# Shear Modulus (GPa) = 24.27290 34.64816 29.46053
#
# Velocity S-wave (km/s) = 3.35767 4.01159 3.69911
# Velocity P-wave (km/s) = 5.42988 7.24112 6.39990
#
# Compressibility (1/GPa) = 0.03213920
#
# Stress axis : x y z
#
# Youngs Moduli (GPa) = 154.82647 71.66112 23.06885
#
# Poissons Ratio (x) = 0.26728 0.01782
# Poissons Ratio (y) = 0.57747 0.26089
# Poissons Ratio (z) = 0.11958 0.81043
#
# Static dielectric constant tensor:
#      x y z
#    x 3.901430 0.000000 -0.858590 
#    y 0.000000 3.849770 0.000000 
#    z -0.858590 0.000000 2.854030 
# 
# 
# High freq. dielectric constant tensor:
#      x y z
#    x 1.881020 0.000000 -0.000990 
#    y 0.000000 1.836690 0.000000 
#    z -0.000990 0.000000 1.791020 
# 
# From -- ./inp_files/47132.got.cif
#   From: 2010.06.25/outbox.cif.g09.slc.cpg/sg12_24_cif.got.tgz:47132.got - 2010.06.28 00:19:55.
