data_PCOD8102702
_publ_section_title
;
Structure prediction by ZEFSAII (Michael W. Deem and Ramdas Pophale) SiO2 
 PCOD8102702
Probable space group: C 2/M
;
_chemical_formula_sum "Si O2"
_cell_formula_units_Z 40
_cell_length_a 9.252670
_cell_length_b 22.631023
_cell_length_c 9.926665
_cell_angle_alpha 90.000000
_cell_angle_beta 96.710692
_cell_angle_gamma 90.000000
_cell_volume 2064.376818
_symmetry_space_group_name_H-M "C 2/M"
_symmetry_group_IT_number 12
_symmetry_cell_setting 'monoclinic'
loop_
_space_group_symop_operation_xyz
x,y,z
-x,y,-z
-x,-y,-z
x,-y,z
1/2+x,1/2+y,z
1/2-x,1/2+y,-z
1/2-x,1/2-y,-z
1/2+x,1/2-y,z
loop_
_atom_site_type_symbol
_atom_site_label
_atom_site_fract_x
_atom_site_fract_y
_atom_site_fract_z
Si Si1 0.811713 0.433529 0.234451
Si Si2 0.338407 0.340281 0.958949
Si Si3 0.376105 0.214457 0.874723
Si Si4 0.570804 0.137018 0.369360
Si Si5 0.836001 0.067482 0.503170
O O1 0.820116 0.500000 0.179676
O O2 0.761439 0.391997 0.108378
O O3 0.696865 0.428189 0.342405
O O4 0.971657 0.415808 0.302015
O O5 0.343146 0.284295 0.857391
O O6 0.500000 0.365320 0.000000
O O7 0.269831 0.319183 0.093388
O O8 0.424374 0.191226 0.734323
O O9 0.500000 0.203651 0.000000
O O10 0.500000 0.161530 0.500000
O O11 0.730809 0.110308 0.407735
O O12 0.000000 0.089773 0.500000
O O13 0.816355 0.000000 0.450246
#
# Coordination Sequence:
#
# PCOD8102702 Si02
#       5
#     8   8   8   8   8
#     4  10  20  37  58  84 118 152 193 239 285 341
#     4  10  22  37  60  83 115 158 191 233 290 340
#     4  10  20  40  62  82 116 154 196 231 287 350
#     4  10  20  37  61  87 114 150 195 239 285 341
#     4   9  19  35  55  81 116 155 191 236 293 343
#
# _framework density 19.376308999999999
#
# number of rings (size 3 to 8) (size 9 to 14) (size 15 to 20)
#    0.000    2.200    2.000    0.600    2.800    2.800 
#    0.000    8.000    0.000    0.000    0.000    0.000 
#    0.000    0.000    0.000    0.000    0.000    0.000 
#
# Total GULP energy -248040.779565 kJ/mol
# GULP energy per Si atom -12402.038978 kJ/mol
# Density = 1.933221 g / cm^3
# Si number density = 19.376309 Si / 1000 Ang^3
#
#
#
# Elastic Constant Matrix: (Units=GPa)
#
#
# Indices 1 2 3 4 5 6 
#
# 1 117.3362 32.7872 33.0478 0.0000 2.9696 0.0000
# 2 32.7872 110.5070 59.5496 0.0000 -3.1855 0.0000
# 3 33.0478 59.5496 87.8155 0.0000 0.7081 0.0000
# 4 0.0000 0.0000 0.0000 20.7511 0.0000 -2.9696
# 5 2.9696 -3.1855 0.7081 0.0000 24.5726 0.0000
# 6 0.0000 0.0000 0.0000 -2.9696 0.0000 22.5225
#
#
#
# Elastic Compliance Matrix: (Units=1/GPa)
#
#
# Indices 1 2 3 4 5 6 
#
# 1 0.009715 -0.001505 -0.002625 0.000000 -0.001294 0.000000
# 2 -0.001505 0.014606 -0.009357 0.000000 0.002345 0.000000
# 3 -0.002625 -0.009357 0.018732 0.000000 -0.001436 0.000000
# 4 0.000000 0.000000 0.000000 0.049117 0.000000 0.006476
# 5 -0.001294 0.002345 -0.001436 0.000000 0.041197 0.000000
# 6 0.000000 0.000000 0.000000 0.006476 0.000000 0.045254
#
#
# Mechanical properties :
#
#
# Convention : Reuss Voigt Hill
#
# Bulk Modulus (GPa) = 62.19390 62.93643 62.56516
# Shear Modulus (GPa) = 23.70179 26.25419 24.97799
#
# Velocity S-wave (km/s) = 3.50127 3.68498 3.59430
# Velocity P-wave (km/s) = 6.96511 7.11738 7.04166
#
# Compressibility (1/GPa) = 0.01607875
#
# Stress axis : x y z
#
# Youngs Moduli (GPa) = 102.93162 68.46720 53.38467
#
# Poissons Ratio (x) = 0.10306 0.14013
# Poissons Ratio (y) = 0.15494 0.49951
# Poissons Ratio (z) = 0.27019 0.64063
#
# Static dielectric constant tensor:
#      x y z
#    x 3.734090 0.000000 -0.075630 
#    y 0.000000 3.440960 0.000000 
#    z -0.075630 0.000000 3.308380 
# 
# 
# High freq. dielectric constant tensor:
#      x y z
#    x 1.771730 0.000000 -0.001000 
#    y 0.000000 1.743790 0.000000 
#    z -0.001000 0.000000 1.730200 
# 
# From -- ./inp_files/39226.got.cif
#   From: 2010.06.25/outbox.cif.g09.slc.cpg/sg12_20_cif.got.tgz:39226.got - 2010.06.28 00:19:55.
