data_PCOD8102353
_publ_section_title
;
Structure prediction by ZEFSAII (Michael W. Deem and Ramdas Pophale) SiO2 
 PCOD8102353
Probable space group: C 2/M
;
_chemical_formula_sum "Si O2"
_cell_formula_units_Z 48
_cell_length_a 14.970345
_cell_length_b 18.353077
_cell_length_c 13.814162
_cell_angle_alpha 90.000000
_cell_angle_beta 139.943316
_cell_angle_gamma 90.000000
_cell_volume 2442.554534
_symmetry_space_group_name_H-M "C 2/M"
_symmetry_group_IT_number 12
_symmetry_cell_setting 'monoclinic'
loop_
_space_group_symop_operation_xyz
x,y,z
-x,y,-z
-x,-y,-z
x,-y,z
1/2+x,1/2+y,z
1/2-x,1/2+y,-z
1/2-x,1/2-y,-z
1/2+x,1/2-y,z
loop_
_atom_site_type_symbol
_atom_site_label
_atom_site_fract_x
_atom_site_fract_y
_atom_site_fract_z
Si Si1 0.171298 0.723493 0.336623
Si Si2 0.030154 0.584624 0.137426
Si Si3 0.223540 0.920488 0.946312
Si Si4 0.150559 0.081149 0.108587
Si Si5 0.645334 0.803710 0.660336
Si Si6 0.386757 0.274370 0.168501
O O1 0.250000 0.750000 0.500000
O O2 0.139576 0.637373 0.285932
O O3 0.272123 0.744310 0.332890
O O4 0.022403 0.763985 0.213780
O O5 0.082128 0.500000 0.186238
O O6 0.000000 0.606741 0.000000
O O7 0.886288 0.595410 0.073931
O O8 0.130288 0.859549 0.816030
O O9 0.187695 0.000000 0.871842
O O10 0.187831 0.917392 0.028322
O O11 0.261997 0.124889 0.261712
O O12 0.150188 0.000000 0.151582
O O13 0.000000 0.117336 0.000000
O O14 0.500000 0.830170 0.500000
O O15 0.602779 0.772548 0.727871
O O16 0.250000 0.250000 0.000000
#
# Coordination Sequence:
#
# PCOD8102353 Si02
#       6
#     8   8   8   8   8   8
#     4  12  25  41  61  92 131 165 206 260 315 380
#     4  10  21  39  65  95 122 160 213 265 313 370
#     4  10  20  36  62  91 119 150 201 258 301 357
#     4  10  21  38  61  91 120 154 202 254 304 364
#     4  12  25  40  60  89 128 165 202 254 310 372
#     4  12  22  40  66  93 119 162 213 254 308 367
#
# _framework density 19.651558000000001
#
# number of rings (size 3 to 8) (size 9 to 14) (size 15 to 20)
#    0.000    1.000    5.000    2.000    0.000    0.333 
#    0.000    1.667    0.000    1.000    0.000    0.000 
#    0.000    0.000    0.000    0.000    0.000    0.000 
#
# Total GULP energy -297396.925466 kJ/mol
# GULP energy per Si atom -12391.538561 kJ/mol
# Density = 1.960683 g / cm^3
# Si number density = 19.651558 Si / 1000 Ang^3
#
#
#
# Elastic Constant Matrix: (Units=GPa)
#
#
# Indices 1 2 3 4 5 6 
#
# 1 119.8844 22.7132 36.1904 0.0000 18.8993 0.0000
# 2 22.7132 133.3620 60.0114 0.0000 16.3900 0.0000
# 3 36.1904 60.0114 114.1840 0.0000 15.2217 0.0000
# 4 0.0000 0.0000 0.0000 23.2036 0.0000 3.1816
# 5 18.8993 16.3900 15.2217 0.0000 36.7337 0.0000
# 6 0.0000 0.0000 0.0000 3.1816 0.0000 32.0916
#
#
#
# Elastic Compliance Matrix: (Units=1/GPa)
#
#
# Indices 1 2 3 4 5 6 
#
# 1 0.009737 -0.000028 -0.002546 0.000000 -0.003942 0.000000
# 2 -0.000028 0.010021 -0.004936 0.000000 -0.002411 0.000000
# 3 -0.002546 -0.004936 0.012374 0.000000 -0.001615 0.000000
# 4 0.000000 0.000000 0.000000 0.043691 0.000000 -0.004332
# 5 -0.003942 -0.002411 -0.001615 0.000000 0.030996 0.000000
# 6 0.000000 0.000000 0.000000 -0.004332 0.000000 0.031590
#
#
# Mechanical properties :
#
#
# Convention : Reuss Voigt Hill
#
# Bulk Modulus (GPa) = 58.44054 67.25118 62.84586
# Shear Modulus (GPa) = 31.42024 34.97347 33.19686
#
# Velocity S-wave (km/s) = 4.00292 4.22320 4.11454
# Velocity P-wave (km/s) = 7.15314 7.62080 7.39067
#
# Compressibility (1/GPa) = 0.01711141
#
# Stress axis : x y z
#
# Youngs Moduli (GPa) = 102.70490 99.79284 80.81272
#
# Poissons Ratio (x) = 0.00282 0.20572
# Poissons Ratio (y) = 0.00291 0.39891
# Poissons Ratio (z) = 0.26145 0.49260
#
# Static dielectric constant tensor:
#      x y z
#    x 4.081600 0.000000 0.384010 
#    y 0.000000 4.242500 0.000000 
#    z 0.384010 0.000000 3.635190 
# 
# 
# High freq. dielectric constant tensor:
#      x y z
#    x 1.793630 0.000000 0.006180 
#    y 0.000000 1.775680 0.000000 
#    z 0.006180 0.000000 1.733580 
# 
# From -- ./inp_files/148002.got.cif
#   From: 2010.06.25/outbox.cif.g09.slc.cpg/sg12_75_cif.got.tgz:148002.got - 2010.06.28 00:19:55.
