data_PCOD8102652
_publ_section_title
;
Structure prediction by ZEFSAII (Michael W. Deem and Ramdas Pophale) SiO2 
 PCOD8102652
Probable space group: C 2/M
;
_chemical_formula_sum "Si O2"
_cell_formula_units_Z 56
_cell_length_a 18.962088
_cell_length_b 8.539959
_cell_length_c 24.420878
_cell_angle_alpha 90.000000
_cell_angle_beta 136.331048
_cell_angle_gamma 90.000000
_cell_volume 2730.618015
_symmetry_space_group_name_H-M "C 2/M"
_symmetry_group_IT_number 12
_symmetry_cell_setting 'monoclinic'
loop_
_space_group_symop_operation_xyz
x,y,z
-x,y,-z
-x,-y,-z
x,-y,z
1/2+x,1/2+y,z
1/2-x,1/2+y,-z
1/2-x,1/2-y,-z
1/2+x,1/2-y,z
loop_
_atom_site_type_symbol
_atom_site_label
_atom_site_fract_x
_atom_site_fract_y
_atom_site_fract_z
Si Si1 0.179899 0.685952 0.413006
Si Si2 0.615105 0.183651 0.074342
Si Si3 0.519030 0.823180 0.831184
Si Si4 0.280074 0.176835 0.684740
Si Si5 0.960600 0.816455 0.272657
Si Si6 0.780763 0.318692 0.241781
Si Si7 0.165624 0.182432 0.992096
O O1 0.168404 0.500000 0.408960
O O2 0.250000 0.750000 0.500000
O O3 0.232770 0.735886 0.385076
O O4 0.067914 0.758406 0.357338
O O5 0.670284 0.268060 0.156086
O O6 0.614529 0.000000 0.086486
O O7 0.500000 0.247321 0.000000
O O8 0.678630 0.223661 0.055767
O O9 0.398674 0.813988 0.764920
O O10 0.564377 0.765857 0.798924
O O11 0.556851 0.715969 0.902543
O O12 0.558088 0.000000 0.862474
O O13 0.218238 0.285290 0.692345
O O14 0.239363 0.000000 0.668317
O O15 0.871035 0.779432 0.264887
O O16 0.966297 0.000000 0.265559
O O17 0.800904 0.500000 0.242422
O O18 0.179911 0.000000 0.011761
O O19 0.250000 0.250000 0.000000
#
# Coordination Sequence:
#
# PCOD8102652 Si02
#       7
#     8   8   8   8   8   8   8
#     4  10  21  40  66  95 125 154 189 232 282 341
#     4  11  24  41  59  80 112 154 197 244 299 352
#     4  10  20  37  58  81 111 146 190 240 290 345
#     4   9  20  38  60  85 115 151 186 226 279 340
#     4  11  22  38  61  87 118 156 196 238 289 345
#     4  12  24  38  58  85 118 153 195 245 291 343
#     4  12  24  37  54  78 109 145 191 243 294 345
#
# _framework density 20.508178000000001
#
# number of rings (size 3 to 8) (size 9 to 14) (size 15 to 20)
#    0.000    1.286    0.000    7.714    0.000    8.000 
#    0.000    0.714    0.000    4.286    0.000    0.000 
#    0.000    0.000    0.000    0.000    0.000    0.000 
#
# Total GULP energy -347303.551046 kJ/mol
# GULP energy per Si atom -12403.698252 kJ/mol
# Density = 2.046150 g / cm^3
# Si number density = 20.508178 Si / 1000 Ang^3
#
#
#
# Elastic Constant Matrix: (Units=GPa)
#
#
# Indices 1 2 3 4 5 6 
#
# 1 93.7953 17.4208 17.9966 0.0000 -15.7566 0.0000
# 2 17.4208 74.0404 10.0061 0.0000 -0.0705 0.0000
# 3 17.9966 10.0061 83.6128 0.0000 -16.2430 0.0000
# 4 0.0000 0.0000 0.0000 35.4336 0.0000 -1.7013
# 5 -15.7566 -0.0705 -16.2430 0.0000 27.3205 0.0000
# 6 0.0000 0.0000 0.0000 -1.7013 0.0000 33.4310
#
#
#
# Elastic Compliance Matrix: (Units=1/GPa)
#
#
# Indices 1 2 3 4 5 6 
#
# 1 0.012487 -0.002786 -0.001082 0.000000 0.006551 0.000000
# 2 -0.002786 0.014377 -0.001612 0.000000 -0.002528 0.000000
# 3 -0.001082 -0.001612 0.013865 0.000000 0.007615 0.000000
# 4 0.000000 0.000000 0.000000 0.028291 0.000000 0.001440
# 5 0.006551 -0.002528 0.007615 0.000000 0.044902 0.000000
# 6 0.000000 0.000000 0.000000 0.001440 0.000000 0.029986
#
#
# Mechanical properties :
#
#
# Convention : Reuss Voigt Hill
#
# Bulk Modulus (GPa) = 33.59030 38.03282 35.81156
# Shear Modulus (GPa) = 30.34171 32.97200 31.65685
#
# Velocity S-wave (km/s) = 3.85059 4.01402 3.93316
# Velocity P-wave (km/s) = 6.01531 6.32998 6.17465
#
# Compressibility (1/GPa) = 0.02977050
#
# Stress axis : x y z
#
# Youngs Moduli (GPa) = 80.08339 69.55549 72.12408
#
# Poissons Ratio (x) = 0.19376 0.07801
# Poissons Ratio (y) = 0.22308 0.11627
# Poissons Ratio (z) = 0.08662 0.11213
#
# Static dielectric constant tensor:
#      x y z
#    x 3.813470 0.000000 -0.216150 
#    y 0.000000 3.854890 0.000000 
#    z -0.216150 0.000000 3.837620 
# 
# 
# High freq. dielectric constant tensor:
#      x y z
#    x 1.808350 0.000000 -0.010990 
#    y 0.000000 1.807910 0.000000 
#    z -0.010990 0.000000 1.790650 
# 
# From -- ./inp_files/342525.got.cif
#   From: 2010.06.25/outbox.cif.g09.slc.cpg/sg12_172_cif.got.tgz:342525.got - 2010.06.28 00:19:55.
