data_PCOD8102778
_publ_section_title
;
Structure prediction by ZEFSAII (Michael W. Deem and Ramdas Pophale) SiO2 
 PCOD8102778
Probable space group: C 2/M
;
_chemical_formula_sum "Si O2"
_cell_formula_units_Z 48
_cell_length_a 20.305626
_cell_length_b 8.834220
_cell_length_c 23.111486
_cell_angle_alpha 90.000000
_cell_angle_beta 140.417762
_cell_angle_gamma 90.000000
_cell_volume 2641.667008
_symmetry_space_group_name_H-M "C 2/M"
_symmetry_group_IT_number 12
_symmetry_cell_setting 'monoclinic'
loop_
_space_group_symop_operation_xyz
x,y,z
-x,y,-z
-x,-y,-z
x,-y,z
1/2+x,1/2+y,z
1/2-x,1/2+y,-z
1/2-x,1/2-y,-z
1/2+x,1/2-y,z
loop_
_atom_site_type_symbol
_atom_site_label
_atom_site_fract_x
_atom_site_fract_y
_atom_site_fract_z
Si Si1 0.033436 0.323470 0.264721
Si Si2 0.855274 0.321218 0.550598
Si Si3 0.492908 0.677504 0.928061
Si Si4 0.890817 0.175059 0.453946
Si Si5 0.678250 0.824613 0.259533
Si Si6 0.638942 0.180556 0.934796
O O1 0.015967 0.500000 0.256168
O O2 0.055934 0.261539 0.344489
O O3 0.131426 0.285300 0.290610
O O4 0.929731 0.256590 0.165565
O O5 0.843832 0.500000 0.547120
O O6 0.750000 0.250000 0.500000
O O7 0.885107 0.275766 0.506763
O O8 0.507235 0.500000 0.927694
O O9 0.379409 0.726889 0.828449
O O10 0.585419 0.763652 0.957716
O O11 0.500000 0.721031 0.000000
O O12 0.800007 0.216615 0.346597
O O13 0.000000 0.212622 0.500000
O O14 0.880142 0.000000 0.464709
O O15 0.660843 0.000000 0.231923
O O16 0.645728 0.000000 0.941720
O O17 0.750000 0.250000 0.000000
#
# Coordination Sequence:
#
# PCOD8102778 Si02
#       6
#     8   8   8   8   8   8
#     4   8  16  32  54  78 106 140 176 221 274 316
#     4  11  20  34  57  83 110 142 184 228 268 324
#     4  10  21  37  57  82 110 143 184 229 273 323
#     4  10  21  38  56  78 114 150 180 224 277 323
#     4   9  17  34  57  78 106 144 184 225 273 325
#     4  10  20  37  59  82 112 146 179 224 277 328
#
# _framework density 18.170345000000001
#
# number of rings (size 3 to 8) (size 9 to 14) (size 15 to 20)
#    0.000    2.333    1.667    2.500    0.000    2.333 
#    3.000    2.500    0.000    0.000    0.000    0.000 
#    0.000    0.000    0.000    0.000    0.000    0.000 
#
# Total GULP energy -297494.006434 kJ/mol
# GULP energy per Si atom -12395.583601 kJ/mol
# Density = 1.812899 g / cm^3
# Si number density = 18.170345 Si / 1000 Ang^3
#
#
#
# Elastic Constant Matrix: (Units=GPa)
#
#
# Indices 1 2 3 4 5 6 
#
# 1 98.8454 43.3429 78.8830 0.0000 12.4495 0.0000
# 2 43.3429 69.4339 47.6803 0.0000 -2.7447 0.0000
# 3 78.8830 47.6803 146.1799 0.0000 4.1452 0.0000
# 4 0.0000 0.0000 0.0000 29.1518 0.0000 -1.4164
# 5 12.4495 -2.7447 4.1452 0.0000 38.0032 0.0000
# 6 0.0000 0.0000 0.0000 -1.4164 0.0000 27.6370
#
#
#
# Elastic Compliance Matrix: (Units=1/GPa)
#
#
# Indices 1 2 3 4 5 6 
#
# 1 0.021291 -0.007457 -0.008871 0.000000 -0.006546 0.000000
# 2 -0.007457 0.021325 -0.003054 0.000000 0.004316 0.000000
# 3 -0.008871 -0.003054 0.012587 0.000000 0.001313 0.000000
# 4 0.000000 0.000000 0.000000 0.034389 0.000000 0.001762
# 5 -0.006546 0.004316 0.001313 0.000000 0.028626 0.000000
# 6 0.000000 0.000000 0.000000 0.001762 0.000000 0.036274
#
#
# Mechanical properties :
#
#
# Convention : Reuss Voigt Hill
#
# Bulk Modulus (GPa) = 60.83469 72.69683 66.76576
# Shear Modulus (GPa) = 25.15908 28.59528 26.87718
#
# Velocity S-wave (km/s) = 3.72509 3.97133 3.85018
# Velocity P-wave (km/s) = 7.21489 7.81819 7.52259
#
# Compressibility (1/GPa) = 0.01643799
#
# Stress axis : x y z
#
# Youngs Moduli (GPa) = 46.96881 46.89331 79.44784
#
# Poissons Ratio (x) = 0.34970 0.70479
# Poissons Ratio (y) = 0.35026 0.24263
# Poissons Ratio (z) = 0.41666 0.14321
#
# Static dielectric constant tensor:
#      x y z
#    x 3.026960 0.000000 0.607110 
#    y 0.000000 3.261240 0.000000 
#    z 0.607110 0.000000 3.135840 
# 
# 
# High freq. dielectric constant tensor:
#      x y z
#    x 1.684790 0.000000 0.002980 
#    y 0.000000 1.694860 0.000000 
#    z 0.002980 0.000000 1.721580 
# 
# From -- ./inp_files/248815.got.cif
#   From: 2010.06.25/outbox.cif.g09.slc.cpg/sg12_125_cif.got.tgz:248815.got - 2010.06.28 00:19:55.
