data_PCOD8102019
_publ_section_title
;
Structure prediction by ZEFSAII (Michael W. Deem and Ramdas Pophale) SiO2 
 PCOD8102019
Probable space group: C 2/M
;
_chemical_formula_sum "Si O2"
_cell_formula_units_Z 64
_cell_length_a 30.696965
_cell_length_b 8.551404
_cell_length_c 25.042065
_cell_angle_alpha 90.000000
_cell_angle_beta 27.791052
_cell_angle_gamma 90.000000
_cell_volume 3064.929141
_symmetry_space_group_name_H-M "C 2/M"
_symmetry_group_IT_number 12
_symmetry_cell_setting 'monoclinic'
loop_
_space_group_symop_operation_xyz
x,y,z
-x,y,-z
-x,-y,-z
x,-y,z
1/2+x,1/2+y,z
1/2-x,1/2+y,-z
1/2-x,1/2-y,-z
1/2+x,1/2-y,z
loop_
_atom_site_type_symbol
_atom_site_label
_atom_site_fract_x
_atom_site_fract_y
_atom_site_fract_z
Si Si1 0.108152 0.316966 0.891158
Si Si2 0.827244 0.317619 0.377504
Si Si3 0.991272 0.181002 0.257662
Si Si4 0.575502 0.680480 0.553013
Si Si5 0.433753 0.683124 0.617683
Si Si6 0.228491 0.314988 0.860714
Si Si7 0.814317 0.318545 0.975713
Si Si8 0.732717 0.679848 0.665723
O O1 0.123880 0.500000 0.862399
O O2 0.144109 0.272399 0.911665
O O3 0.169443 0.214274 0.785121
O O4 0.000000 0.271287 0.000000
O O5 0.841408 0.500000 0.373676
O O6 0.750000 0.250000 0.500000
O O7 0.922836 0.224419 0.283606
O O8 0.798690 0.293361 0.347633
O O9 0.939896 0.222324 0.368611
O O10 0.080382 0.288998 0.155434
O O11 0.020510 0.000000 0.223532
O O12 0.603564 0.500000 0.515238
O O13 0.480441 0.718157 0.624358
O O14 0.659267 0.783771 0.438114
O O15 0.500000 0.758972 0.500000
O O16 0.425595 0.500000 0.614962
O O17 0.328555 0.754165 0.731856
O O18 0.237581 0.500000 0.855787
O O19 0.205630 0.243772 0.944045
O O20 0.793425 0.500000 0.001371
O O21 0.750000 0.250000 0.000000
O O22 0.721572 0.500000 0.660938
#
# Coordination Sequence:
#
# PCOD8102019 Si02
#       8
#     8   8   8   8   8   8   8   8
#     4  10  22  41  66  92 120 162 216 266 316 379
#     4  12  24  41  64  93 127 165 210 260 317 379
#     4  11  23  39  61  91 125 164 211 259 316 382
#     4  10  20  36  60  87 118 159 203 253 308 374
#     4   9  16  29  56  88 115 146 196 254 308 364
#     4   9  19  37  60  90 123 161 209 263 320 380
#     4  11  23  40  63  91 128 173 218 268 323 384
#     4  12  25  40  61  90 127 166 204 256 319 379
#
# _framework density 20.881395000000001
#
# number of rings (size 3 to 8) (size 9 to 14) (size 15 to 20)
#    0.000    1.500    1.250    4.500    1.750    4.750 
#    0.000    1.250    0.000    3.375    0.000    0.000 
#    0.000    0.000    0.000    0.000    0.000    0.000 
#
# Total GULP energy -396873.134049 kJ/mol
# GULP energy per Si atom -12402.285439 kJ/mol
# Density = 2.083387 g / cm^3
# Si number density = 20.881395 Si / 1000 Ang^3
#
#
#
# Elastic Constant Matrix: (Units=GPa)
#
#
# Indices 1 2 3 4 5 6 
#
# 1 139.3135 25.0691 61.8048 -0.0058 -9.6775 0.0020
# 2 25.0691 46.4081 31.6024 -0.0113 5.2176 0.0089
# 3 61.8048 31.6024 126.8829 0.0056 -12.7006 -0.0010
# 4 -0.0058 -0.0113 0.0056 28.8485 0.0070 -1.4077
# 5 -9.6775 5.2176 -12.7006 0.0070 41.3152 -0.0051
# 6 0.0020 0.0089 -0.0010 -1.4077 -0.0051 25.7983
#
#
#
# Elastic Compliance Matrix: (Units=1/GPa)
#
#
# Indices 1 2 3 4 5 6 
#
# 1 0.009438 -0.002670 -0.003794 0.000001 0.001382 0.000000
# 2 -0.002670 0.027942 -0.006268 0.000013 -0.006081 -0.000010
# 3 -0.003794 -0.006268 0.011639 -0.000006 0.003481 0.000003
# 4 0.000001 0.000013 -0.000006 0.034756 -0.000009 0.001897
# 5 0.001382 -0.006081 0.003481 -0.000009 0.026366 0.000007
# 6 0.000000 -0.000010 0.000003 0.001897 0.000007 0.038866
#
#
# Mechanical properties :
#
#
# Convention : Reuss Voigt Hill
#
# Bulk Modulus (GPa) = 42.45273 61.06189 51.75731
# Shear Modulus (GPa) = 27.42427 32.13429 29.77928
#
# Velocity S-wave (km/s) = 3.62793 3.92713 3.78049
# Velocity P-wave (km/s) = 6.15822 7.06179 6.62543
#
# Compressibility (1/GPa) = 0.02355561
#
# Stress axis : x y z
#
# Youngs Moduli (GPa) = 105.95996 35.78855 85.92047
#
# Poissons Ratio (x) = 0.09555 0.32596
# Poissons Ratio (y) = 0.28291 0.53851
# Poissons Ratio (z) = 0.40198 0.22431
#
# Static dielectric constant tensor:
#      x y z
#    x 4.116520 0.000260 -0.167740 
#    y 0.000260 3.521550 0.000650 
#    z -0.167740 0.000650 3.151060 
# 
# 
# High freq. dielectric constant tensor:
#      x y z
#    x 1.833220 0.000000 -0.004790 
#    y 0.000000 1.784650 0.000010 
#    z -0.004790 0.000010 1.824680 
# 
# From -- ./inp_files/353357.got.cif
#   From: 2010.06.25/outbox.cif.g09.slc.cpg/sg12_177_cif.got.tgz:353357.got - 2010.06.28 00:19:55.
