data_PCOD8102509
_publ_section_title
;
Structure prediction by ZEFSAII (Michael W. Deem and Ramdas Pophale) SiO2 
 PCOD8102509
Probable space group: C 2/M
;
_chemical_formula_sum "Si O2"
_cell_formula_units_Z 48
_cell_length_a 29.653161
_cell_length_b 13.838453
_cell_length_c 10.107174
_cell_angle_alpha 90.000000
_cell_angle_beta 144.352260
_cell_angle_gamma 90.000000
_cell_volume 2417.174577
_symmetry_space_group_name_H-M "C 2/M"
_symmetry_group_IT_number 12
_symmetry_cell_setting 'monoclinic'
loop_
_space_group_symop_operation_xyz
x,y,z
-x,y,-z
-x,-y,-z
x,-y,z
1/2+x,1/2+y,z
1/2-x,1/2+y,-z
1/2-x,1/2-y,-z
1/2+x,1/2-y,z
loop_
_atom_site_type_symbol
_atom_site_label
_atom_site_fract_x
_atom_site_fract_y
_atom_site_fract_z
Si Si1 0.137189 0.390162 0.027669
Si Si2 0.157771 0.247109 0.622622
Si Si3 0.499462 0.791067 0.154042
Si Si4 0.593129 0.388854 0.994931
Si Si5 0.671636 0.291762 0.947995
Si Si6 0.197466 0.890620 0.485226
O O1 0.132681 0.500000 0.963492
O O2 0.210029 0.375707 0.300061
O O3 0.060622 0.365727 0.926235
O O4 0.148704 0.318665 0.931046
O O5 0.148954 0.191866 0.741678
O O6 0.157605 0.170039 0.504924
O O7 0.083375 0.314630 0.417436
O O8 0.236554 0.309817 0.812254
O O9 0.478767 0.679816 0.140760
O O10 0.500000 0.808325 0.000000
O O11 0.566645 0.500000 0.943094
O O12 0.624080 0.368245 0.921383
O O13 0.663078 0.361201 0.261040
O O14 0.175631 0.000000 0.466222
#
# Coordination Sequence:
#
# PCOD8102509 Si02
#       6
#     8   8   8   8   8   8
#     4   9  20  37  56  79 108 146 188 223 270 325
#     4  10  20  37  55  83 111 142 184 224 273 322
#     4  11  22  34  56  83 113 143 176 232 280 320
#     4  10  21  36  55  84 113 146 183 220 271 327
#     4   9  21  38  60  78 108 150 184 223 265 326
#     4   9  18  34  58  80 108 148 187 222 262 323
#
# _framework density 19.857894999999999
#
# number of rings (size 3 to 8) (size 9 to 14) (size 15 to 20)
#    0.000    2.333    1.667    0.000    2.333    6.667 
#    0.000    5.833    0.000    0.000    0.000    0.000 
#    0.000    0.000    0.000    0.000    0.000    0.000 
#
# Total GULP energy -297591.820463 kJ/mol
# GULP energy per Si atom -12399.659186 kJ/mol
# Density = 1.981270 g / cm^3
# Si number density = 19.857895 Si / 1000 Ang^3
#
#
#
# Elastic Constant Matrix: (Units=GPa)
#
#
# Indices 1 2 3 4 5 6 
#
# 1 94.3336 7.9437 31.8151 0.0000 2.8477 0.0000
# 2 7.9437 70.3190 3.8459 0.0000 6.1308 0.0000
# 3 31.8151 3.8459 86.6969 0.0000 8.3710 0.0000
# 4 0.0000 0.0000 0.0000 18.1125 0.0000 3.4565
# 5 2.8477 6.1308 8.3710 0.0000 35.1515 0.0000
# 6 0.0000 0.0000 0.0000 3.4565 0.0000 17.3764
#
#
#
# Elastic Compliance Matrix: (Units=1/GPa)
#
#
# Indices 1 2 3 4 5 6 
#
# 1 0.012190 -0.001158 -0.004449 0.000000 0.000274 0.000000
# 2 -0.001158 0.014564 0.000015 0.000000 -0.002450 0.000000
# 3 -0.004449 0.000015 0.013441 0.000000 -0.002843 0.000000
# 4 0.000000 0.000000 0.000000 0.057389 0.000000 -0.011416
# 5 0.000274 -0.002450 -0.002843 0.000000 0.029530 0.000000
# 6 0.000000 0.000000 0.000000 -0.011416 0.000000 0.059820
#
#
# Mechanical properties :
#
#
# Convention : Reuss Voigt Hill
#
# Bulk Modulus (GPa) = 34.46648 37.61764 36.04206
# Shear Modulus (GPa) = 24.06300 27.97774 26.02037
#
# Velocity S-wave (km/s) = 3.48481 3.75760 3.62377
# Velocity P-wave (km/s) = 5.79535 6.14903 5.97481
#
# Compressibility (1/GPa) = 0.02901370
#
# Stress axis : x y z
#
# Youngs Moduli (GPa) = 82.03298 68.66030 74.40063
#
# Poissons Ratio (x) = 0.07948 0.33097
# Poissons Ratio (y) = 0.09497 -0.00114
# Poissons Ratio (z) = 0.36493 -0.00105
#
# Static dielectric constant tensor:
#      x y z
#    x 3.624340 0.000000 0.059880 
#    y 0.000000 3.368010 0.000000 
#    z 0.059880 0.000000 3.682940 
# 
# 
# High freq. dielectric constant tensor:
#      x y z
#    x 1.781730 0.000000 0.004710 
#    y 0.000000 1.748210 0.000000 
#    z 0.004710 0.000000 1.775960 
# 
# From -- ./inp_files/104924.got.cif
#   From: 2010.06.25/outbox.cif.g09.slc.cpg/sg12_53_cif.got.tgz:104924.got - 2010.06.28 00:19:55.
