data_PCOD8102898
_publ_section_title
;
Structure prediction by ZEFSAII (Michael W. Deem and Ramdas Pophale) SiO2 
 PCOD8102898
Probable space group: C 2/M
;
_chemical_formula_sum "Si O2"
_cell_formula_units_Z 56
_cell_length_a 10.004300
_cell_length_b 27.772755
_cell_length_c 12.294535
_cell_angle_alpha 90.000000
_cell_angle_beta 116.543585
_cell_angle_gamma 90.000000
_cell_volume 3055.934827
_symmetry_space_group_name_H-M "C 2/M"
_symmetry_group_IT_number 12
_symmetry_cell_setting 'monoclinic'
loop_
_space_group_symop_operation_xyz
x,y,z
-x,y,-z
-x,-y,-z
x,-y,z
1/2+x,1/2+y,z
1/2-x,1/2+y,-z
1/2-x,1/2-y,-z
1/2+x,1/2-y,z
loop_
_atom_site_type_symbol
_atom_site_label
_atom_site_fract_x
_atom_site_fract_y
_atom_site_fract_z
Si Si1 0.117907 0.103941 0.218792
Si Si2 0.652894 0.889756 0.890150
Si Si3 0.342769 0.779241 0.121549
Si Si4 0.670764 0.055191 0.537924
Si Si5 0.692155 0.555257 0.870363
Si Si6 0.637249 0.054752 0.280514
Si Si7 0.070902 0.792485 0.146555
O O1 0.208116 0.100118 0.139003
O O2 0.224208 0.091152 0.357721
O O3 0.053907 0.158100 0.207610
O O4 0.978351 0.068209 0.166661
O O5 0.626847 0.833549 0.905557
O O6 0.502749 0.910430 0.784639
O O7 0.689237 0.914365 0.017523
O O8 0.247277 0.780120 0.198386
O O9 0.497948 0.750399 0.190914
O O10 0.250000 0.750000 0.000000
O O11 0.500000 0.068755 0.500000
O O12 0.707668 0.063256 0.424713
O O13 0.702385 0.000000 0.584971
O O14 0.715693 0.500000 0.910342
O O15 0.731774 0.565115 0.758562
O O16 0.577949 0.000000 0.248551
O O17 0.000000 0.798681 0.000000
#
# Coordination Sequence:
#
# PCOD8102898 Si02
#       7
#     8   8   8   8   8   8   8
#     4  11  21  35  56  82 109 143 183 229 273 318
#     4  11  21  35  56  82 111 148 183 217 268 331
#     4   9  18  31  50  76 107 140 175 217 263 322
#     4  10  20  37  60  79 102 145 194 227 256 315
#     4  11  23  34  50  82 120 146 172 224 281 322
#     4  10  22  38  54  79 111 146 188 224 261 317
#     4   9  18  33  52  79 110 137 175 222 270 322
#
# _framework density 18.324997
#
# number of rings (size 3 to 8) (size 9 to 14) (size 15 to 20)
#    0.000    1.857    1.429    4.286    0.000    8.571 
#    0.000    2.143    0.000    0.857    0.000    0.000 
#    0.000    0.000    0.000    0.000    0.000    0.000 
#
# Total GULP energy -347198.020153 kJ/mol
# GULP energy per Si atom -12399.929291 kJ/mol
# Density = 1.828329 g / cm^3
# Si number density = 18.324997 Si / 1000 Ang^3
#
#
#
# Elastic Constant Matrix: (Units=GPa)
#
#
# Indices 1 2 3 4 5 6 
#
# 1 74.8155 54.9242 19.9146 0.0000 -4.3380 0.0000
# 2 54.9242 135.3501 47.1045 0.0000 0.9180 0.0000
# 3 19.9146 47.1045 77.6995 0.0000 -4.3620 0.0000
# 4 0.0000 0.0000 0.0000 17.8928 0.0000 6.4951
# 5 -4.3380 0.9180 -4.3620 0.0000 25.3394 0.0000
# 6 0.0000 0.0000 0.0000 6.4951 0.0000 35.3615
#
#
#
# Elastic Compliance Matrix: (Units=1/GPa)
#
#
# Indices 1 2 3 4 5 6 
#
# 1 0.019360 -0.007889 0.000023 0.000000 0.003604 0.000000
# 2 -0.007889 0.012623 -0.005788 0.000000 -0.002804 0.000000
# 3 0.000023 -0.005788 0.016545 0.000000 0.003062 0.000000
# 4 0.000000 0.000000 0.000000 0.059881 0.000000 -0.010999
# 5 0.003604 -0.002804 0.003062 0.000000 0.040710 0.000000
# 6 0.000000 0.000000 0.000000 -0.010999 0.000000 0.030300
#
#
# Mechanical properties :
#
#
# Convention : Reuss Voigt Hill
#
# Bulk Modulus (GPa) = 47.12472 59.08353 53.10413
# Shear Modulus (GPa) = 23.38634 26.78019 25.08326
#
# Velocity S-wave (km/s) = 3.57627 3.82698 3.70374
# Velocity P-wave (km/s) = 6.54407 7.19998 6.87984
#
# Compressibility (1/GPa) = 0.02122028
#
# Stress axis : x y z
#
# Youngs Moduli (GPa) = 51.65165 79.22204 60.44097
#
# Poissons Ratio (x) = 0.62496 -0.00137
# Poissons Ratio (y) = 0.40746 0.34983
# Poissons Ratio (z) = -0.00117 0.45853
#
# Static dielectric constant tensor:
#      x y z
#    x 4.075070 0.000000 -0.064240 
#    y 0.000000 3.553670 0.000000 
#    z -0.064240 0.000000 3.146230 
# 
# 
# High freq. dielectric constant tensor:
#      x y z
#    x 1.723770 0.000000 -0.004070 
#    y 0.000000 1.714330 0.000000 
#    z -0.004070 0.000000 1.675220 
# 
# From -- ./inp_files/135466.got.cif
#   From: 2010.06.25/outbox.cif.g09.slc.cpg/sg12_68_cif.got.tgz:135466.got - 2010.06.28 00:19:55.
