data_PCOD8102475
_publ_section_title
;
Structure prediction by ZEFSAII (Michael W. Deem and Ramdas Pophale) SiO2 
 PCOD8102475
Probable space group: C 2/M
;
_chemical_formula_sum "Si O2"
_cell_formula_units_Z 64
_cell_length_a 8.410538
_cell_length_b 27.383993
_cell_length_c 17.970868
_cell_angle_alpha 90.000000
_cell_angle_beta 49.530853
_cell_angle_gamma 90.000000
_cell_volume 3148.725128
_symmetry_space_group_name_H-M "C 2/M"
_symmetry_group_IT_number 12
_symmetry_cell_setting 'monoclinic'
loop_
_space_group_symop_operation_xyz
x,y,z
-x,y,-z
-x,-y,-z
x,-y,z
1/2+x,1/2+y,z
1/2-x,1/2+y,-z
1/2-x,1/2-y,-z
1/2+x,1/2-y,z
loop_
_atom_site_type_symbol
_atom_site_label
_atom_site_fract_x
_atom_site_fract_y
_atom_site_fract_z
Si Si1 0.803546 0.943004 0.102537
Si Si2 0.966293 0.688818 0.315487
Si Si3 0.021905 0.056770 0.636944
Si Si4 0.106150 0.389645 0.786898
Si Si5 0.166964 0.310939 0.884064
Si Si6 0.895919 0.767523 0.221798
Si Si7 0.120638 0.620298 0.538298
Si Si8 0.233384 0.555542 0.290373
O O1 0.591898 0.922194 0.131662
O O2 0.830155 0.930625 0.181527
O O3 0.797071 0.000000 0.089159
O O4 0.000000 0.919106 0.000000
O O5 0.201198 0.696230 0.274332
O O6 0.969268 0.648859 0.250706
O O7 0.877460 0.739091 0.307126
O O8 0.830541 0.669218 0.427631
O O9 0.787041 0.075777 0.698880
O O10 0.168743 0.090150 0.540361
O O11 0.089688 0.063790 0.701667
O O12 0.037611 0.000000 0.607640
O O13 0.184695 0.362589 0.836953
O O14 0.092787 0.269139 0.850406
O O15 0.395781 0.299601 0.846058
O O16 0.000000 0.314421 0.000000
O O17 0.000000 0.635184 0.500000
O O18 0.971228 0.587368 0.634230
O O19 0.153968 0.500000 0.316018
#
# Coordination Sequence:
#
# PCOD8102475 Si02
#       8
#     8   8   8   8   8   8   8   8
#     4  10  21  38  58  83 121 167 207 243 296 362
#     4  10  21  41  61  87 115 158 195 251 306 370
#     4  10  22  39  61  91 125 160 201 255 307 355
#     4  11  23  36  59  89 126 159 200 250 304 353
#     4  10  21  37  62  93 118 156 205 254 306 364
#     4   9  21  40  65  82 123 158 194 252 321 366
#     4  10  20  36  65  90 116 153 207 249 300 361
#     4   9  18  36  59  84 118 159 197 245 299 353
#
# _framework density 20.325686999999999
#
# number of rings (size 3 to 8) (size 9 to 14) (size 15 to 20)
#    0.000    2.125    1.250    1.125    3.500    4.000 
#    0.000    2.500    0.000    3.750    0.000    0.000 
#    0.000    0.000    0.000    0.000    0.000    0.000 
#
# Total GULP energy -396798.707201 kJ/mol
# GULP energy per Si atom -12399.959600 kJ/mol
# Density = 2.027942 g / cm^3
# Si number density = 20.325687 Si / 1000 Ang^3
#
#
#
# Elastic Constant Matrix: (Units=GPa)
#
#
# Indices 1 2 3 4 5 6 
#
# 1 98.1970 42.1017 47.9990 0.0000 -18.7192 0.0000
# 2 42.1017 62.6779 53.7180 0.0000 -4.7780 0.0000
# 3 47.9990 53.7180 130.2147 0.0000 -8.2124 0.0000
# 4 0.0000 0.0000 0.0000 29.4826 0.0000 -2.2157
# 5 -18.7192 -4.7780 -8.2124 0.0000 34.4173 0.0000
# 6 0.0000 0.0000 0.0000 -2.2157 0.0000 29.2416
#
#
#
# Elastic Compliance Matrix: (Units=1/GPa)
#
#
# Indices 1 2 3 4 5 6 
#
# 1 0.016221 -0.008683 -0.001946 0.000000 0.007153 0.000000
# 2 -0.008683 0.029363 -0.009090 0.000000 -0.002815 0.000000
# 3 -0.001946 -0.009090 0.012184 0.000000 0.000587 0.000000
# 4 0.000000 0.000000 0.000000 0.034113 0.000000 0.002585
# 5 0.007153 -0.002815 0.000587 0.000000 0.032695 0.000000
# 6 0.000000 0.000000 0.000000 0.002585 0.000000 0.034394
#
#
# Mechanical properties :
#
#
# Convention : Reuss Voigt Hill
#
# Bulk Modulus (GPa) = 54.55585 64.30300 59.42943
# Shear Modulus (GPa) = 24.44776 28.44635 26.44706
#
# Velocity S-wave (km/s) = 3.47191 3.74508 3.61108
# Velocity P-wave (km/s) = 6.55525 7.09971 6.83290
#
# Compressibility (1/GPa) = 0.01832984
#
# Stress axis : x y z
#
# Youngs Moduli (GPa) = 61.64789 34.05646 82.07401
#
# Poissons Ratio (x) = 0.29570 0.15975
# Poissons Ratio (y) = 0.53526 0.74607
# Poissons Ratio (z) = 0.11999 0.30958
#
# Static dielectric constant tensor:
#      x y z
#    x 3.743330 0.000000 0.135760 
#    y 0.000000 3.838750 0.000000 
#    z 0.135760 0.000000 3.683560 
# 
# 
# High freq. dielectric constant tensor:
#      x y z
#    x 1.799820 0.000000 0.005580 
#    y 0.000000 1.796230 0.000000 
#    z 0.005580 0.000000 1.784390 
# 
# From -- ./inp_files/260302.got.cif
#   From: 2010.06.25/outbox.cif.g09.slc.cpg/sg12_131_cif.got.tgz:260302.got - 2010.06.28 00:19:55.
