data_PCOD8102862
_publ_section_title
;
Structure prediction by ZEFSAII (Michael W. Deem and Ramdas Pophale) SiO2 
 PCOD8102862
Probable space group: C 2/M
;
_chemical_formula_sum "Si O2"
_cell_formula_units_Z 64
_cell_length_a 24.504000
_cell_length_b 11.185394
_cell_length_c 12.241267
_cell_angle_alpha 90.000000
_cell_angle_beta 107.034281
_cell_angle_gamma 90.000000
_cell_volume 3207.978351
_symmetry_space_group_name_H-M "C 2/M"
_symmetry_group_IT_number 12
_symmetry_cell_setting 'monoclinic'
loop_
_space_group_symop_operation_xyz
x,y,z
-x,y,-z
-x,-y,-z
x,-y,z
1/2+x,1/2+y,z
1/2-x,1/2+y,-z
1/2-x,1/2-y,-z
1/2+x,1/2-y,z
loop_
_atom_site_type_symbol
_atom_site_label
_atom_site_fract_x
_atom_site_fract_y
_atom_site_fract_z
Si Si1 0.065982 0.132020 0.825835
Si Si2 0.335063 0.728282 0.991629
Si Si3 0.937723 0.864542 0.432702
Si Si4 0.218448 0.637880 0.843412
Si Si5 0.998624 0.366662 0.128381
Si Si6 0.818701 0.761549 0.398382
Si Si7 0.875296 0.636369 0.815454
Si Si8 0.788855 0.368875 0.596631
O O1 0.073617 0.140173 0.701687
O O2 0.032932 0.251477 0.841648
O O3 0.038040 0.000000 0.837569
O O4 0.127864 0.132079 0.919322
O O5 0.285661 0.662391 0.895016
O O6 0.376589 0.793953 0.930818
O O7 0.310968 0.826784 0.060462
O O8 0.885182 0.793459 0.457877
O O9 0.000000 0.808144 0.500000
O O10 0.936321 0.000000 0.476692
O O11 0.207318 0.500000 0.813122
O O12 0.190326 0.710194 0.727595
O O13 0.974156 0.500000 0.149189
O O14 0.063536 0.355986 0.207583
O O15 0.000000 0.359702 0.000000
O O16 0.794457 0.672475 0.475621
O O17 0.775931 0.872847 0.393779
O O18 0.858454 0.500000 0.833542
O O19 0.830019 0.700041 0.706658
O O20 0.814183 0.500000 0.609226
#
# Coordination Sequence:
#
# PCOD8102862 Si02
#       8
#     8   8   8   8   8   8   8   8
#     4  11  23  40  63  91 123 160 208 260 308 368
#     4  11  21  39  58  89 121 160 200 251 308 374
#     4  10  23  43  64  87 120 161 205 255 309 374
#     4  11  23  37  58  89 123 157 197 256 315 370
#     4  10  21  37  59  85 121 162 204 246 301 370
#     4  11  21  40  63  87 120 156 203 251 314 370
#     4  10  20  37  59  85 118 162 205 248 303 370
#     4  10  22  38  61  87 117 155 203 255 302 367
#
# _framework density 19.950258999999999
#
# number of rings (size 3 to 8) (size 9 to 14) (size 15 to 20)
#    0.000    1.500    3.750    1.500    1.750    0.750 
#    0.000    0.000    0.000    1.875    0.000    0.000 
#    0.000    0.000    0.000    0.000    0.000    0.000 
#
# Total GULP energy -396488.034463 kJ/mol
# GULP energy per Si atom -12390.251077 kJ/mol
# Density = 1.990485 g / cm^3
# Si number density = 19.950259 Si / 1000 Ang^3
#
#
#
# Elastic Constant Matrix: (Units=GPa)
#
#
# Indices 1 2 3 4 5 6 
#
# 1 114.9609 38.0439 23.2394 0.0000 16.7423 0.0000
# 2 38.0439 102.9409 15.3700 0.0000 -7.7457 0.0000
# 3 23.2394 15.3700 73.6605 0.0000 13.3025 0.0000
# 4 0.0000 0.0000 0.0000 14.2332 0.0000 3.1468
# 5 16.7423 -7.7457 13.3025 0.0000 33.0868 0.0000
# 6 0.0000 0.0000 0.0000 3.1468 0.0000 21.5104
#
#
#
# Elastic Compliance Matrix: (Units=1/GPa)
#
#
# Indices 1 2 3 4 5 6 
#
# 1 0.011380 -0.004439 -0.001549 0.000000 -0.006175 0.000000
# 2 -0.004439 0.012135 -0.002211 0.000000 0.005976 0.000000
# 3 -0.001549 -0.002211 0.015611 0.000000 -0.006010 0.000000
# 4 0.000000 0.000000 0.000000 0.072607 0.000000 -0.010622
# 5 -0.006175 0.005976 -0.006010 0.000000 0.037163 0.000000
# 6 0.000000 0.000000 0.000000 -0.010622 0.000000 0.048043
#
#
# Mechanical properties :
#
#
# Convention : Reuss Voigt Hill
#
# Bulk Modulus (GPa) = 43.99782 49.42985 46.71384
# Shear Modulus (GPa) = 22.63342 28.09334 25.36338
#
# Velocity S-wave (km/s) = 3.37188 3.75663 3.56944
# Velocity P-wave (km/s) = 6.10418 6.60656 6.36034
#
# Compressibility (1/GPa) = 0.02272840
#
# Stress axis : x y z
#
# Youngs Moduli (GPa) = 87.87329 82.40913 64.05678
#
# Poissons Ratio (x) = 0.36582 0.09922
# Poissons Ratio (y) = 0.39008 0.14161
# Poissons Ratio (z) = 0.13611 0.18218
#
# Static dielectric constant tensor:
#      x y z
#    x 3.797710 0.000000 0.251920 
#    y 0.000000 3.622000 0.000000 
#    z 0.251920 0.000000 3.667390 
# 
# 
# High freq. dielectric constant tensor:
#      x y z
#    x 1.777790 0.000000 0.015690 
#    y 0.000000 1.766800 0.000000 
#    z 0.015690 0.000000 1.783890 
# 
# From -- ./inp_files/174683.got.cif
#   From: 2010.06.25/outbox.cif.g09.slc.cpg/sg12_88_cif.got.tgz:174683.got - 2010.06.28 00:19:55.
