data_PCOD8102097
_publ_section_title
;
Structure prediction by ZEFSAII (Michael W. Deem and Ramdas Pophale) SiO2 
 PCOD8102097
Probable space group: C 2/M
;
_chemical_formula_sum "Si O2"
_cell_formula_units_Z 64
_cell_length_a 15.046975
_cell_length_b 9.072954
_cell_length_c 30.533399
_cell_angle_alpha 90.000000
_cell_angle_beta 128.180260
_cell_angle_gamma 90.000000
_cell_volume 3276.681515
_symmetry_space_group_name_H-M "C 2/M"
_symmetry_group_IT_number 12
_symmetry_cell_setting 'monoclinic'
loop_
_space_group_symop_operation_xyz
x,y,z
-x,y,-z
-x,-y,-z
x,-y,z
1/2+x,1/2+y,z
1/2-x,1/2+y,-z
1/2-x,1/2-y,-z
1/2+x,1/2-y,z
loop_
_atom_site_type_symbol
_atom_site_label
_atom_site_fract_x
_atom_site_fract_y
_atom_site_fract_z
Si Si1 0.287340 0.670366 0.337800
Si Si2 0.615940 0.164624 0.560801
Si Si3 0.841384 0.173551 0.864838
Si Si4 0.279483 0.832228 0.552730
Si Si5 0.668587 0.672154 0.748670
Si Si6 0.436008 0.170515 0.675679
Si Si7 0.793955 0.170221 0.950133
Si Si8 0.573837 0.828223 0.936349
O O1 0.318289 0.500000 0.355793
O O2 0.384892 0.775407 0.389413
O O3 0.287147 0.706534 0.286517
O O4 0.164187 0.708933 0.320551
O O5 0.500000 0.158372 0.500000
O O6 0.686839 0.291310 0.559709
O O7 0.669525 0.000000 0.575907
O O8 0.745644 0.237024 0.804778
O O9 0.806097 0.214175 0.903451
O O10 0.960245 0.245592 0.887888
O O11 0.850786 0.000000 0.860820
O O12 0.250000 0.750000 0.500000
O O13 0.398177 0.799440 0.613369
O O14 0.270799 0.000000 0.536726
O O15 0.676300 0.500000 0.761959
O O16 0.540294 0.723701 0.717098
O O17 0.471401 0.000000 0.692090
O O18 0.666051 0.202850 0.926601
O O19 0.825553 0.000000 0.968084
O O20 0.882250 0.268164 0.003899
O O21 0.547759 0.000000 0.933395
#
# Coordination Sequence:
#
# PCOD8102097 Si02
#       8
#     8   8   8   8   8   8   8   8
#     4   9  21  41  60  80 110 150 188 231 289 350
#     4  10  21  35  54  83 113 142 181 229 282 342
#     4  11  23  39  58  83 117 157 197 236 287 346
#     4  10  21  36  56  82 113 146 182 227 285 348
#     4  11  24  40  60  86 113 148 197 244 290 341
#     4   9  20  40  60  79 109 147 186 229 285 347
#     4   9  20  38  59  85 120 160 195 231 287 351
#     4  10  20  36  60  89 120 154 194 243 290 333
#
# _framework density 19.531956999999998
#
# number of rings (size 3 to 8) (size 9 to 14) (size 15 to 20)
#    0.000    2.125    0.000    3.000    1.750    8.500 
#    0.000    5.000    0.000    0.000    0.000    0.000 
#    0.000    0.000    0.000    0.000    0.000    0.000 
#
# Total GULP energy -396695.500230 kJ/mol
# GULP energy per Si atom -12396.734382 kJ/mol
# Density = 1.948750 g / cm^3
# Si number density = 19.531957 Si / 1000 Ang^3
#
#
#
# Elastic Constant Matrix: (Units=GPa)
#
#
# Indices 1 2 3 4 5 6 
#
# 1 71.7453 32.1693 38.6387 0.0000 4.9430 0.0000
# 2 32.1693 78.0490 60.8975 0.0000 10.2421 0.0000
# 3 38.6387 60.8975 104.3819 0.0000 8.7367 0.0000
# 4 0.0000 0.0000 0.0000 25.7675 0.0000 5.7802
# 5 4.9430 10.2421 8.7367 0.0000 26.3549 0.0000
# 6 0.0000 0.0000 0.0000 5.7802 0.0000 31.4342
#
#
#
# Elastic Compliance Matrix: (Units=1/GPa)
#
#
# Indices 1 2 3 4 5 6 
#
# 1 0.018099 -0.004050 -0.004304 0.000000 -0.000394 0.000000
# 2 -0.004050 0.025010 -0.012694 0.000000 -0.004752 0.000000
# 3 -0.004304 -0.012694 0.018615 0.000000 -0.000431 0.000000
# 4 0.000000 0.000000 0.000000 0.040478 0.000000 -0.007443
# 5 -0.000394 -0.004752 -0.000431 0.000000 0.040007 0.000000
# 6 0.000000 0.000000 0.000000 -0.007443 0.000000 0.033181
#
#
# Mechanical properties :
#
#
# Convention : Reuss Voigt Hill
#
# Bulk Modulus (GPa) = 50.94722 57.50969 54.22846
# Shear Modulus (GPa) = 22.31850 24.87606 23.59728
#
# Velocity S-wave (km/s) = 3.38400 3.57264 3.47960
# Velocity P-wave (km/s) = 6.43500 6.82101 6.63081
#
# Compressibility (1/GPa) = 0.01962816
#
# Stress axis : x y z
#
# Youngs Moduli (GPa) = 55.25109 39.98421 53.71937
#
# Poissons Ratio (x) = 0.16194 0.23120
# Poissons Ratio (y) = 0.22377 0.68192
# Poissons Ratio (z) = 0.23779 0.50756
#
# Static dielectric constant tensor:
#      x y z
#    x 4.096840 0.000000 -2.267440 
#    y 0.000000 3.766570 0.000000 
#    z -2.267440 0.000000 11.082160 
# 
# 
# High freq. dielectric constant tensor:
#      x y z
#    x 1.757390 0.000000 -0.003260 
#    y 0.000000 1.770720 0.000000 
#    z -0.003260 0.000000 1.763310 
# 
# From -- ./inp_files/375546.got.cif
#   From: 2010.06.25/outbox.cif.g09.slc.cpg/sg12_188_cif.got.tgz:375546.got - 2010.06.28 00:19:55.
