data_PCOD8102809
_publ_section_title
;
Structure prediction by ZEFSAII (Michael W. Deem and Ramdas Pophale) SiO2 
 PCOD8102809
Probable space group: C 2/M
;
_chemical_formula_sum "Si O2"
_cell_formula_units_Z 56
_cell_length_a 30.728076
_cell_length_b 9.398151
_cell_length_c 11.733117
_cell_angle_alpha 90.000000
_cell_angle_beta 59.888713
_cell_angle_gamma 90.000000
_cell_volume 2931.120739
_symmetry_space_group_name_H-M "C 2/M"
_symmetry_group_IT_number 12
_symmetry_cell_setting 'monoclinic'
loop_
_space_group_symop_operation_xyz
x,y,z
-x,y,-z
-x,-y,-z
x,-y,z
1/2+x,1/2+y,z
1/2-x,1/2+y,-z
1/2-x,1/2-y,-z
1/2+x,1/2-y,z
loop_
_atom_site_type_symbol
_atom_site_label
_atom_site_fract_x
_atom_site_fract_y
_atom_site_fract_z
Si Si1 0.732198 0.168676 0.910082
Si Si2 0.919237 0.661841 0.589002
Si Si3 0.300719 0.335243 0.425461
Si Si4 0.493275 0.163018 0.690812
Si Si5 0.035314 0.832940 0.055405
Si Si6 0.328549 0.661777 0.636978
Si Si7 0.150905 0.167841 0.877171
O O1 0.772969 0.193380 0.757237
O O2 0.680988 0.240403 0.931358
O O3 0.723925 0.000000 0.945610
O O4 0.750000 0.250000 0.000000
O O5 0.905470 0.500000 0.581247
O O6 0.943200 0.678505 0.681600
O O7 0.867919 0.747830 0.656522
O O8 0.958372 0.717052 0.442955
O O9 0.285969 0.500000 0.441917
O O10 0.250000 0.250000 0.500000
O O11 0.332447 0.300383 0.497819
O O12 0.332214 0.291535 0.272965
O O13 0.488451 0.263317 0.803502
O O14 0.500277 0.000000 0.719622
O O15 0.031626 0.000000 0.076198
O O16 0.092825 0.786210 0.960959
O O17 0.000000 0.779749 0.000000
O O18 0.343316 0.500000 0.639859
O O19 0.158822 0.000000 0.891297
#
# Coordination Sequence:
#
# PCOD8102809 Si02
#       7
#     8   8   8   8   8   8   8
#     4  11  24  41  60  87 122 157 197 242 290 350
#     4   9  20  38  60  85 115 149 188 236 291 344
#     4  10  20  37  59  83 114 148 187 236 284 336
#     4   9  20  40  60  83 115 150 191 239 288 344
#     4  10  23  40  60  86 117 154 196 241 291 347
#     4  10  22  37  58  88 117 146 190 240 285 340
#     4  10  22  40  61  86 118 157 197 241 294 348
#
# _framework density 19.105319999999999
#
# number of rings (size 3 to 8) (size 9 to 14) (size 15 to 20)
#    0.000    2.143    1.429    1.286    4.000    3.714 
#    0.000    1.429    0.000    0.000    0.000    0.000 
#    0.000    0.000    0.000    0.000    0.000    0.000 
#
# Total GULP energy -347229.511715 kJ/mol
# GULP energy per Si atom -12401.053990 kJ/mol
# Density = 1.906184 g / cm^3
# Si number density = 19.105320 Si / 1000 Ang^3
#
#
#
# Elastic Constant Matrix: (Units=GPa)
#
#
# Indices 1 2 3 4 5 6 
#
# 1 125.5364 54.2330 40.4329 0.0000 -1.6531 0.0000
# 2 54.2330 55.7557 33.5530 0.0000 2.6315 0.0000
# 3 40.4329 33.5530 86.3307 0.0000 17.6613 0.0000
# 4 0.0000 0.0000 0.0000 30.8206 0.0000 3.4447
# 5 -1.6531 2.6315 17.6613 0.0000 26.9536 0.0000
# 6 0.0000 0.0000 0.0000 3.4447 0.0000 28.3095
#
#
#
# Elastic Compliance Matrix: (Units=1/GPa)
#
#
# Indices 1 2 3 4 5 6 
#
# 1 0.014237 -0.012463 -0.002601 0.000000 0.003794 0.000000
# 2 -0.012463 0.034748 -0.007873 0.000000 0.001002 0.000000
# 3 -0.002601 -0.007873 0.018173 0.000000 -0.011298 0.000000
# 4 0.000000 0.000000 0.000000 0.032893 0.000000 -0.004002
# 5 0.003794 0.001002 -0.011298 0.000000 0.044639 0.000000
# 6 0.000000 0.000000 0.000000 -0.004002 0.000000 0.035811
#
#
# Mechanical properties :
#
#
# Convention : Reuss Voigt Hill
#
# Bulk Modulus (GPa) = 46.98032 58.22896 52.60464
# Shear Modulus (GPa) = 21.41606 26.51033 23.96319
#
# Velocity S-wave (km/s) = 3.35169 3.72908 3.54541
# Velocity P-wave (km/s) = 6.29460 7.00610 6.65986
#
# Compressibility (1/GPa) = 0.02128551
#
# Stress axis : x y z
#
# Youngs Moduli (GPa) = 70.23795 28.77831 55.02739
#
# Poissons Ratio (x) = 0.35865 0.14310
# Poissons Ratio (y) = 0.87535 0.43325
# Poissons Ratio (z) = 0.18265 0.22658
#
# Static dielectric constant tensor:
#      x y z
#    x 3.827500 0.000000 0.194730 
#    y 0.000000 3.436800 0.000000 
#    z 0.194730 0.000000 3.705800 
# 
# 
# High freq. dielectric constant tensor:
#      x y z
#    x 1.747320 0.000000 0.002980 
#    y 0.000000 1.738490 0.000000 
#    z 0.002980 0.000000 1.750080 
# 
# From -- ./inp_files/186477.got.cif
#   From: 2010.06.25/outbox.cif.g09.slc.cpg/sg12_94_cif.got.tgz:186477.got - 2010.06.28 00:19:55.
