data_PCOD8102850
_publ_section_title
;
Structure prediction by ZEFSAII (Michael W. Deem and Ramdas Pophale) SiO2 
 PCOD8102850
Probable space group: C 2/M
;
_chemical_formula_sum "Si O2"
_cell_formula_units_Z 64
_cell_length_a 26.430658
_cell_length_b 14.128134
_cell_length_c 9.021900
_cell_angle_alpha 90.000000
_cell_angle_beta 106.758962
_cell_angle_gamma 90.000000
_cell_volume 3225.830082
_symmetry_space_group_name_H-M "C 2/M"
_symmetry_group_IT_number 12
_symmetry_cell_setting 'monoclinic'
loop_
_space_group_symop_operation_xyz
x,y,z
-x,y,-z
-x,-y,-z
x,-y,z
1/2+x,1/2+y,z
1/2-x,1/2+y,-z
1/2-x,1/2-y,-z
1/2+x,1/2-y,z
loop_
_atom_site_type_symbol
_atom_site_label
_atom_site_fract_x
_atom_site_fract_y
_atom_site_fract_z
Si Si1 0.564115 0.765363 0.205649
Si Si2 0.141270 0.892013 0.273707
Si Si3 0.762485 0.888091 0.432207
Si Si4 0.871129 0.108390 0.073866
Si Si5 0.632729 0.107505 0.739387
Si Si6 0.551923 0.227301 0.852769
Si Si7 0.211661 0.775319 0.835383
Si Si8 0.146389 0.395929 0.418947
O O1 0.586277 0.660992 0.260837
O O2 0.509454 0.776348 0.250992
O O3 0.612055 0.832757 0.284310
O O4 0.553783 0.791163 0.027912
O O5 0.189932 0.857491 0.417228
O O6 0.129032 0.000000 0.297835
O O7 0.154048 0.874912 0.110723
O O8 0.761362 0.818188 0.289056
O O9 0.708149 0.865890 0.473893
O O10 0.766882 0.000000 0.393395
O O11 0.923883 0.168515 0.151989
O O12 0.827658 0.140523 0.153804
O O13 0.886548 0.000000 0.113455
O O14 0.583494 0.146490 0.791716
O O15 0.683035 0.175145 0.791212
O O16 0.618358 0.106518 0.554743
O O17 0.646362 0.000000 0.804330
O O18 0.250000 0.750000 0.000000
O O19 0.143445 0.500000 0.347601
#
# Coordination Sequence:
#
# PCOD8102850 Si02
#       8
#     8   8   8   8   8   8   8   8
#     4  10  20  37  59  85 116 146 193 241 282 344
#     4   9  19  35  59  87 116 153 189 229 282 338
#     4  10  22  39  59  86 119 150 186 232 282 339
#     4   9  19  37  58  84 117 150 190 233 279 341
#     4  10  23  41  57  80 113 149 193 239 281 338
#     4   9  21  38  58  85 114 151 189 237 295 334
#     4  11  24  36  56  87 114 155 190 225 288 334
#     4  10  23  39  59  84 111 152 195 234 284 335
#
# _framework density 19.839853999999999
#
# number of rings (size 3 to 8) (size 9 to 14) (size 15 to 20)
#    0.000    2.250    0.000    1.125    7.000    4.000 
#    0.000    5.000    0.000    0.000    0.000    7.000 
#    0.000    0.000    0.000    0.000    0.000    0.000 
#
# Total GULP energy -396567.466280 kJ/mol
# GULP energy per Si atom -12392.733321 kJ/mol
# Density = 1.979470 g / cm^3
# Si number density = 19.839854 Si / 1000 Ang^3
#
#
#
# Elastic Constant Matrix: (Units=GPa)
#
#
# Indices 1 2 3 4 5 6 
#
# 1 116.3745 52.2824 39.0779 0.0000 0.0566 0.0000
# 2 52.2824 115.5455 36.5509 0.0000 -4.0357 0.0000
# 3 39.0779 36.5509 57.3921 0.0000 3.9933 0.0000
# 4 0.0000 0.0000 0.0000 44.0222 0.0000 1.1612
# 5 0.0566 -4.0357 3.9933 0.0000 28.5120 0.0000
# 6 0.0000 0.0000 0.0000 1.1612 0.0000 23.4530
#
#
#
# Elastic Compliance Matrix: (Units=1/GPa)
#
#
# Indices 1 2 3 4 5 6 
#
# 1 0.012253 -0.003616 -0.006062 0.000000 0.000313 0.000000
# 2 -0.003616 0.012088 -0.005409 0.000000 0.002476 0.000000
# 3 -0.006062 -0.005409 0.025295 0.000000 -0.004296 0.000000
# 4 0.000000 0.000000 0.000000 0.022746 0.000000 -0.001126
# 5 0.000313 0.002476 -0.004296 0.000000 0.036024 0.000000
# 6 0.000000 0.000000 0.000000 -0.001126 0.000000 0.042694
#
#
# Mechanical properties :
#
#
# Convention : Reuss Voigt Hill
#
# Bulk Modulus (GPa) = 51.37908 60.57048 55.97478
# Shear Modulus (GPa) = 26.62964 29.95750 28.29357
#
# Velocity S-wave (km/s) = 3.66762 3.89004 3.78047
# Velocity P-wave (km/s) = 6.62483 7.12549 6.87971
#
# Compressibility (1/GPa) = 0.01946317
#
# Stress axis : x y z
#
# Youngs Moduli (GPa) = 81.61471 82.72608 39.53327
#
# Poissons Ratio (x) = 0.29911 0.23965
# Poissons Ratio (y) = 0.29509 0.21383
# Poissons Ratio (z) = 0.49474 0.44745
#
# Static dielectric constant tensor:
#      x y z
#    x -13.867490 0.000000 32.152450 
#    y 0.000000 3.881510 0.000000 
#    z 32.152450 0.000000 -55.374140 
# 
# 
# High freq. dielectric constant tensor:
#      x y z
#    x 1.771320 0.000000 -0.003110 
#    y 0.000000 1.786410 0.000000 
#    z -0.003110 0.000000 1.763870 
# 
# From -- ./inp_files/104668.got.cif
#   From: 2010.06.25/outbox.cif.g09.slc.cpg/sg12_53_cif.got.tgz:104668.got - 2010.06.28 00:19:55.
