data_PCOD8102052
_publ_section_title
;
Structure prediction by ZEFSAII (Michael W. Deem and Ramdas Pophale) SiO2 
 PCOD8102052
Probable space group: C 2/M
;
_chemical_formula_sum "Si O2"
_cell_formula_units_Z 56
_cell_length_a 20.075127
_cell_length_b 9.155447
_cell_length_c 17.308439
_cell_angle_alpha 90.000000
_cell_angle_beta 63.262642
_cell_angle_gamma 90.000000
_cell_volume 2841.091761
_symmetry_space_group_name_H-M "C 2/M"
_symmetry_group_IT_number 12
_symmetry_cell_setting 'monoclinic'
loop_
_space_group_symop_operation_xyz
x,y,z
-x,y,-z
-x,-y,-z
x,-y,z
1/2+x,1/2+y,z
1/2-x,1/2+y,-z
1/2-x,1/2-y,-z
1/2+x,1/2-y,z
loop_
_atom_site_type_symbol
_atom_site_label
_atom_site_fract_x
_atom_site_fract_y
_atom_site_fract_z
Si Si1 0.917745 0.168386 0.520896
Si Si2 0.673534 0.832052 0.554400
Si Si3 0.823878 0.171819 0.167982
Si Si4 0.822275 0.830594 0.992370
Si Si5 0.913140 0.331831 0.247237
Si Si6 0.062749 0.170024 0.196945
Si Si7 0.172647 0.167629 0.277429
O O1 0.891954 0.264851 0.462798
O O2 0.862461 0.192027 0.620774
O O3 0.000000 0.221953 0.500000
O O4 0.919353 0.000000 0.493648
O O5 0.750000 0.750000 0.500000
O O6 0.651626 0.815677 0.655283
O O7 0.684532 0.000000 0.525757
O O8 0.840121 0.212795 0.070813
O O9 0.888797 0.246866 0.183299
O O10 0.743351 0.228756 0.234843
O O11 0.826871 0.000000 0.181158
O O12 0.803798 0.000000 0.993690
O O13 0.750000 0.750000 0.000000
O O14 0.893774 0.788340 0.904039
O O15 0.926733 0.500000 0.219079
O O16 0.988837 0.265179 0.241076
O O17 0.113222 0.212519 0.243666
O O18 0.040904 0.000000 0.210533
O O19 0.198090 0.000000 0.252446
#
# Coordination Sequence:
#
# PCOD8102052 Si02
#       7
#     8   8   8   8   8   8   8
#     4  10  21  37  59  87 117 152 195 241 292 351
#     4  11  24  41  61  85 116 156 200 245 295 351
#     4  11  23  38  60  89 119 153 195 241 290 347
#     4  10  21  38  62  91 120 154 195 239 288 347
#     4  11  25  42  59  85 120 157 198 244 296 351
#     4  10  21  39  63  88 119 158 196 240 292 347
#     4  10  20  36  60  88 117 153 196 240 290 349
#
# _framework density 19.710733000000001
#
# number of rings (size 3 to 8) (size 9 to 14) (size 15 to 20)
#    0.000    1.571    1.429    3.000    0.000   10.000 
#    0.000    2.857    0.000    0.000    0.000    0.000 
#    0.000    0.000    0.000    0.000    0.000    0.000 
#
# Total GULP energy -347378.721205 kJ/mol
# GULP energy per Si atom -12406.382900 kJ/mol
# Density = 1.966587 g / cm^3
# Si number density = 19.710733 Si / 1000 Ang^3
#
#
#
# Elastic Constant Matrix: (Units=GPa)
#
#
# Indices 1 2 3 4 5 6 
#
# 1 91.2958 41.8748 11.1392 0.0000 9.0812 0.0000
# 2 41.8748 79.9799 25.4941 0.0000 7.9779 0.0001
# 3 11.1392 25.4941 57.8837 0.0000 9.9260 0.0000
# 4 0.0000 0.0000 0.0000 26.5693 0.0000 0.4030
# 5 9.0812 7.9779 9.9260 0.0000 35.9005 0.0000
# 6 0.0000 0.0001 0.0000 0.4030 0.0000 41.6421
#
#
#
# Elastic Compliance Matrix: (Units=1/GPa)
#
#
# Indices 1 2 3 4 5 6 
#
# 1 0.014605 -0.007736 0.000982 0.000000 -0.002247 0.000000
# 2 -0.007736 0.018723 -0.006697 0.000000 -0.000352 0.000000
# 3 0.000982 -0.006697 0.020811 0.000000 -0.004514 0.000000
# 4 0.000000 0.000000 0.000000 0.037643 0.000000 -0.000364
# 5 -0.002247 -0.000352 -0.004514 0.000000 0.029749 0.000000
# 6 0.000000 0.000000 0.000000 -0.000364 0.000000 0.024018
#
#
# Mechanical properties :
#
#
# Convention : Reuss Voigt Hill
#
# Bulk Modulus (GPa) = 36.71494 42.90840 39.81167
# Shear Modulus (GPa) = 27.54352 30.86579 29.20465
#
# Velocity S-wave (km/s) = 3.74222 3.96149 3.85341
# Velocity P-wave (km/s) = 6.11061 6.53765 6.32773
#
# Compressibility (1/GPa) = 0.02723687
#
# Stress axis : x y z
#
# Youngs Moduli (GPa) = 68.46858 53.40968 48.05170
#
# Poissons Ratio (x) = 0.41316 -0.04717
# Poissons Ratio (y) = 0.52965 0.32182
# Poissons Ratio (z) = -0.06722 0.35770
#
# Static dielectric constant tensor:
#      x y z
#    x 3.620530 0.000000 0.125620 
#    y 0.000000 3.614270 0.000000 
#    z 0.125620 0.000000 3.786560 
# 
# 
# High freq. dielectric constant tensor:
#      x y z
#    x 1.776110 0.000000 0.004750 
#    y 0.000000 1.768030 0.000000 
#    z 0.004750 0.000000 1.780340 
# 
# From -- ./inp_files/275037.got.cif
#   From: 2010.06.25/outbox.cif.g09.slc.cpg/sg12_138_cif.got.tgz:275037.got - 2010.06.28 00:19:55.
