data_PCOD8102167
_publ_section_title
;
Structure prediction by ZEFSAII (Michael W. Deem and Ramdas Pophale) SiO2 
 PCOD8102167
Probable space group: C 2/M
;
_chemical_formula_sum "Si O2"
_cell_formula_units_Z 48
_cell_length_a 14.515383
_cell_length_b 13.149861
_cell_length_c 13.016144
_cell_angle_alpha 90.000000
_cell_angle_beta 63.656740
_cell_angle_gamma 90.000000
_cell_volume 2226.452898
_symmetry_space_group_name_H-M "C 2/M"
_symmetry_group_IT_number 12
_symmetry_cell_setting 'monoclinic'
loop_
_space_group_symop_operation_xyz
x,y,z
-x,y,-z
-x,-y,-z
x,-y,z
1/2+x,1/2+y,z
1/2-x,1/2+y,-z
1/2-x,1/2-y,-z
1/2+x,1/2-y,z
loop_
_atom_site_type_symbol
_atom_site_label
_atom_site_fract_x
_atom_site_fract_y
_atom_site_fract_z
Si Si1 0.402328 0.692921 0.114958
Si Si2 0.398746 0.700991 0.351619
Si Si3 0.299815 0.115586 0.082349
Si Si4 0.624521 0.693752 0.293454
Si Si5 0.246409 0.617904 0.577442
Si Si6 0.194513 0.612994 0.156326
O O1 0.424865 0.672404 0.222412
O O2 0.368882 0.811077 0.118728
O O3 0.315012 0.616597 0.120221
O O4 0.500000 0.665678 0.000000
O O5 0.502808 0.675624 0.363174
O O6 0.309058 0.628286 0.439910
O O7 0.359918 0.818605 0.378349
O O8 0.180070 0.131243 0.173679
O O9 0.332980 0.000000 0.087445
O O10 0.319708 0.146483 0.954937
O O11 0.680472 0.666273 0.371607
O O12 0.634211 0.813489 0.263083
O O13 0.220885 0.500000 0.612938
O O14 0.152051 0.500000 0.195187
#
# Coordination Sequence:
#
# PCOD8102167 Si02
#       6
#     8   8   8   8   8   8
#     4  11  21  38  61  91 130 166 208 267 323 381
#     4  11  24  41  66  99 127 168 216 271 324 376
#     4  10  20  36  60  92 129 171 214 260 318 387
#     4  11  21  41  66  91 129 168 215 266 326 378
#     4  11  25  46  68  95 131 172 221 269 316 385
#     4  10  21  37  57  88 131 171 210 260 323 387
#
# _framework density 21.558955999999998
#
# number of rings (size 3 to 8) (size 9 to 14) (size 15 to 20)
#    0.000    1.333    3.333    5.000    0.000    4.000 
#    0.000    0.000    0.000    3.000    0.000    0.000 
#    0.000    0.000    0.000    0.000    0.000    0.000 
#
# Total GULP energy -297556.991886 kJ/mol
# GULP energy per Si atom -12398.207995 kJ/mol
# Density = 2.150989 g / cm^3
# Si number density = 21.558956 Si / 1000 Ang^3
#
#
#
# Elastic Constant Matrix: (Units=GPa)
#
#
# Indices 1 2 3 4 5 6 
#
# 1 57.7795 -20.3082 2.1411 0.0000 4.6124 0.0000
# 2 -20.3082 72.7342 10.9873 0.0000 24.0308 0.0000
# 3 2.1411 10.9873 98.3584 0.0000 0.7766 0.0000
# 4 0.0000 0.0000 0.0000 26.9009 0.0000 4.3705
# 5 4.6124 24.0308 0.7766 0.0000 26.4558 0.0000
# 6 0.0000 0.0000 0.0000 4.3705 0.0000 11.2251
#
#
#
# Elastic Compliance Matrix: (Units=1/GPa)
#
#
# Indices 1 2 3 4 5 6 
#
# 1 0.022379 0.011096 -0.001617 0.000000 -0.013933 0.000000
# 2 0.011096 0.025570 -0.002900 0.000000 -0.025075 0.000000
# 3 -0.001617 -0.002900 0.010505 0.000000 0.002608 0.000000
# 4 0.000000 0.000000 0.000000 0.039684 0.000000 -0.015451
# 5 -0.013933 -0.025075 0.002608 0.000000 0.062928 0.000000
# 6 0.000000 0.000000 0.000000 -0.015451 0.000000 0.095102
#
#
# Mechanical properties :
#
#
# Convention : Reuss Voigt Hill
#
# Bulk Modulus (GPa) = 13.96373 23.83475 18.89924
# Shear Modulus (GPa) = 18.73499 28.65317 23.69408
#
# Velocity S-wave (km/s) = 2.95110 3.64958 3.31877
# Velocity P-wave (km/s) = 4.25477 5.37019 4.84468
#
# Compressibility (1/GPa) = 0.07161412
#
# Stress axis : x y z
#
# Youngs Moduli (GPa) = 44.68378 39.10884 95.18880
#
# Poissons Ratio (x) = -0.43397 0.15389
# Poissons Ratio (y) = -0.49583 0.27604
# Poissons Ratio (z) = 0.07224 0.11341
#
# Static dielectric constant tensor:
#      x y z
#    x 3.760990 0.000000 -0.031220 
#    y 0.000000 3.852350 0.000000 
#    z -0.031220 0.000000 4.036140 
# 
# 
# High freq. dielectric constant tensor:
#      x y z
#    x 1.831390 0.000000 0.001450 
#    y 0.000000 1.837330 0.000000 
#    z 0.001450 0.000000 1.857760 
# 
# From -- ./inp_files/142706.got.cif
#   From: 2010.06.25/outbox.cif.g09.slc.cpg/sg12_72_cif.got.tgz:142706.got - 2010.06.28 00:19:55.
