data_PCOD8102563
_publ_section_title
;
Structure prediction by ZEFSAII (Michael W. Deem and Ramdas Pophale) SiO2 
 PCOD8102563
Probable space group: C 2/M
;
_chemical_formula_sum "Si O2"
_cell_formula_units_Z 56
_cell_length_a 12.511892
_cell_length_b 20.447553
_cell_length_c 11.495614
_cell_angle_alpha 90.000000
_cell_angle_beta 96.372127
_cell_angle_gamma 90.000000
_cell_volume 2922.840531
_symmetry_space_group_name_H-M "C 2/M"
_symmetry_group_IT_number 12
_symmetry_cell_setting 'monoclinic'
loop_
_space_group_symop_operation_xyz
x,y,z
-x,y,-z
-x,-y,-z
x,-y,z
1/2+x,1/2+y,z
1/2-x,1/2+y,-z
1/2-x,1/2-y,-z
1/2+x,1/2-y,z
loop_
_atom_site_type_symbol
_atom_site_label
_atom_site_fract_x
_atom_site_fract_y
_atom_site_fract_z
Si Si1 0.838929 0.838583 0.261260
Si Si2 0.261867 0.215273 0.124984
Si Si3 0.568350 0.304787 0.243253
Si Si4 0.380448 0.073971 0.519983
Si Si5 0.989296 0.678141 0.126837
Si Si6 0.350939 0.072981 0.789570
Si Si7 0.204200 0.822109 0.483313
O O1 0.782286 0.769772 0.225950
O O2 0.765413 0.895590 0.198060
O O3 0.848797 0.844714 0.401728
O O4 0.956419 0.844304 0.215362
O O5 0.154661 0.176229 0.152612
O O6 0.362918 0.165777 0.136866
O O7 0.250000 0.250000 0.000000
O O8 0.541195 0.227429 0.227454
O O9 0.612240 0.321585 0.375492
O O10 0.500000 0.096219 0.500000
O O11 0.374364 0.075807 0.656968
O O12 0.296351 0.125889 0.456168
O O13 0.355861 0.000000 0.471411
O O14 0.052777 0.610217 0.133975
O O15 0.000000 0.710444 0.000000
O O16 0.349235 0.000000 0.838979
O O17 0.250000 0.750000 0.500000
#
# Coordination Sequence:
#
# PCOD8102563 Si02
#       7
#     8   8   8   8   8   8   8
#     4  10  21  36  53  80 114 147 187 224 284 335
#     4  11  20  35  55  82 116 145 182 228 283 341
#     4  11  21  34  55  82 114 146 175 234 283 335
#     4   9  20  36  55  79 112 151 185 229 288 341
#     4  11  21  36  55  83 116 143 186 228 285 337
#     4  10  20  37  57  80 109 148 194 231 271 333
#     4  11  20  34  52  85 115 146 189 235 284 338
#
# _framework density 19.159444000000001
#
# number of rings (size 3 to 8) (size 9 to 14) (size 15 to 20)
#    0.000    1.571    4.286    1.286    2.000    1.429 
#    0.000    0.714    0.000    4.286    0.000    4.000 
#    0.000    0.000    0.000    0.000    0.000    0.000 
#
# Total GULP energy -347123.217120 kJ/mol
# GULP energy per Si atom -12397.257754 kJ/mol
# Density = 1.911584 g / cm^3
# Si number density = 19.159444 Si / 1000 Ang^3
#
#
#
# Elastic Constant Matrix: (Units=GPa)
#
#
# Indices 1 2 3 4 5 6 
#
# 1 195.0812 67.5853 37.6315 0.0000 -5.7366 0.0000
# 2 67.5853 105.7060 21.6873 0.0000 11.5947 0.0000
# 3 37.6315 21.6873 66.0219 0.0000 5.8273 0.0000
# 4 0.0000 0.0000 0.0000 16.2013 0.0000 3.7038
# 5 -5.7366 11.5947 5.8273 0.0000 28.6973 0.0000
# 6 0.0000 0.0000 0.0000 3.7038 0.0000 30.5432
#
#
#
# Elastic Compliance Matrix: (Units=1/GPa)
#
#
# Indices 1 2 3 4 5 6 
#
# 1 0.007408 -0.004536 -0.003080 0.000000 0.003939 0.000000
# 2 -0.004536 0.013276 -0.001244 0.000000 -0.006018 0.000000
# 3 -0.003080 -0.001244 0.017637 0.000000 -0.003694 0.000000
# 4 0.000000 0.000000 0.000000 0.063484 0.000000 -0.007698
# 5 0.003939 -0.006018 -0.003694 0.000000 0.038816 0.000000
# 6 0.000000 0.000000 0.000000 -0.007698 0.000000 0.033674
#
#
# Mechanical properties :
#
#
# Convention : Reuss Voigt Hill
#
# Bulk Modulus (GPa) = 48.54435 68.95747 58.75091
# Shear Modulus (GPa) = 25.14071 31.08201 28.11136
#
# Velocity S-wave (km/s) = 3.62634 4.03213 3.83460
# Velocity P-wave (km/s) = 6.55178 7.59914 7.09481
#
# Compressibility (1/GPa) = 0.02059972
#
# Stress axis : x y z
#
# Youngs Moduli (GPa) = 134.99612 75.32372 56.70013
#
# Poissons Ratio (x) = 0.34170 0.17462
# Poissons Ratio (y) = 0.61240 0.07054
# Poissons Ratio (z) = 0.41575 0.09371
#
# Static dielectric constant tensor:
#      x y z
#    x 3.844100 0.000000 0.060520 
#    y 0.000000 3.406050 0.000000 
#    z 0.060520 0.000000 3.660240 
# 
# 
# High freq. dielectric constant tensor:
#      x y z
#    x 1.763440 0.000000 0.000860 
#    y 0.000000 1.702340 0.000000 
#    z 0.000860 0.000000 1.741130 
# 
# From -- ./inp_files/133179.got.cif
#   From: 2010.06.25/outbox.cif.g09.slc.cpg/sg12_67_cif.got.tgz:133179.got - 2010.06.28 00:19:55.
