data_PCOD8102834
_publ_section_title
;
Structure prediction by ZEFSAII (Michael W. Deem and Ramdas Pophale) SiO2 
 PCOD8102834
Probable space group: C 2/M
;
_chemical_formula_sum "Si O2"
_cell_formula_units_Z 48
_cell_length_a 28.376289
_cell_length_b 7.467578
_cell_length_c 11.932493
_cell_angle_alpha 90.000000
_cell_angle_beta 90.747248
_cell_angle_gamma 90.000000
_cell_volume 2528.305901
_symmetry_space_group_name_H-M "C 2/M"
_symmetry_group_IT_number 12
_symmetry_cell_setting 'monoclinic'
loop_
_space_group_symop_operation_xyz
x,y,z
-x,y,-z
-x,-y,-z
x,-y,z
1/2+x,1/2+y,z
1/2-x,1/2+y,-z
1/2-x,1/2-y,-z
1/2+x,1/2-y,z
loop_
_atom_site_type_symbol
_atom_site_label
_atom_site_fract_x
_atom_site_fract_y
_atom_site_fract_z
Si Si1 0.948074 0.711202 0.496122
Si Si2 0.798875 0.710419 0.624276
Si Si3 0.944369 0.000000 0.128041
Si Si4 0.446619 0.500000 0.863639
Si Si5 0.602887 0.211348 0.281664
Si Si6 0.697028 0.796539 0.624083
Si Si7 0.895571 0.288466 0.269917
O O1 0.951274 0.500000 0.501657
O O2 0.919448 0.778472 0.602669
O O3 0.922742 0.771195 0.382553
O O4 0.000000 0.797574 0.500000
O O5 0.795885 0.500000 0.609960
O O6 0.841608 0.761726 0.708230
O O7 0.749711 0.778950 0.676318
O O8 0.805338 0.796238 0.499493
O O9 0.918083 0.820900 0.168766
O O10 0.998612 0.000000 0.170582
O O11 0.941167 0.000000 0.995464
O O12 0.421198 0.320784 0.818593
O O13 0.595152 0.000000 0.259423
O O14 0.658528 0.722022 0.711190
O O15 0.681494 0.000000 0.606233
O O16 0.900350 0.500000 0.242988
#
# Coordination Sequence:
#
# PCOD8102834 Si02
#       7
#     8   8   4   4   8   8   8
#     4   9  16  29  52  81 114 146 178 222 280 349
#     4   9  17  30  51  84 121 152 183 222 276 346
#     4  11  26  43  59  83 111 148 205 255 289 336
#     4  11  26  43  59  83 111 148 205 255 289 336
#     4  10  20  37  59  84 117 153 188 231 292 350
#     4   9  17  30  51  84 121 152 183 222 276 346
#     4  10  20  37  59  84 117 153 188 231 292 350
#
# _framework density 18.985045
#
# number of rings (size 3 to 8) (size 9 to 14) (size 15 to 20)
#    0.000    2.333    1.667    1.000    2.333    3.333 
#    0.000    3.333    0.000    1.000    0.000    0.000 
#    0.000    0.000    0.000    0.000    0.000    0.000 
#
# Total GULP energy -297477.181120 kJ/mol
# GULP energy per Si atom -12394.882547 kJ/mol
# Density = 1.894183 g / cm^3
# Si number density = 18.985045 Si / 1000 Ang^3
#
#
#
# Elastic Constant Matrix: (Units=GPa)
#
#
# Indices 1 2 3 4 5 6 
#
# 1 167.5265 42.7578 52.5855 0.0000 -13.2571 0.0000
# 2 42.7578 72.9015 33.3669 0.0000 -1.6134 0.0000
# 3 52.5855 33.3669 76.0056 0.0000 -5.5732 0.0000
# 4 0.0000 0.0000 0.0000 14.1641 0.0000 2.0672
# 5 -13.2571 -1.6134 -5.5732 0.0000 21.9646 0.0000
# 6 0.0000 0.0000 0.0000 2.0672 0.0000 26.3370
#
#
#
# Elastic Compliance Matrix: (Units=1/GPa)
#
#
# Indices 1 2 3 4 5 6 
#
# 1 0.008323 -0.002864 -0.004227 0.000000 0.003741 0.000000
# 2 -0.002864 0.018162 -0.006134 0.000000 -0.001951 0.000000
# 3 -0.004227 -0.006134 0.018906 0.000000 0.001795 0.000000
# 4 0.000000 0.000000 0.000000 0.071419 0.000000 -0.005606
# 5 0.003741 -0.001951 0.001795 0.000000 0.048098 0.000000
# 6 0.000000 0.000000 0.000000 -0.005606 0.000000 0.038409
#
#
# Mechanical properties :
#
#
# Convention : Reuss Voigt Hill
#
# Bulk Modulus (GPa) = 52.79894 63.76156 58.28025
# Shear Modulus (GPa) = 21.17921 25.00805 23.09363
#
# Velocity S-wave (km/s) = 3.34364 3.63333 3.49149
# Velocity P-wave (km/s) = 6.54047 7.15958 6.85701
#
# Compressibility (1/GPa) = 0.01893978
#
# Stress axis : x y z
#
# Youngs Moduli (GPa) = 120.14925 55.06128 52.89347
#
# Poissons Ratio (x) = 0.15771 0.22356
# Poissons Ratio (y) = 0.34413 0.32447
# Poissons Ratio (z) = 0.50783 0.33777
#
# Static dielectric constant tensor:
#      x y z
#    x 3.935710 0.000000 -0.071000 
#    y 0.000000 3.309720 0.000000 
#    z -0.071000 0.000000 3.062820 
# 
# 
# High freq. dielectric constant tensor:
#      x y z
#    x 1.760860 0.000000 -0.004140 
#    y 0.000000 1.734700 0.000000 
#    z -0.004140 0.000000 1.683710 
# 
# From -- ./inp_files/179297.got.cif
#   From: 2010.06.25/outbox.cif.g09.slc.cpg/sg12_90_cif.got.tgz:179297.got - 2010.06.28 00:19:55.
