data_PCOD8102611
_publ_section_title
;
Structure prediction by ZEFSAII (Michael W. Deem and Ramdas Pophale) SiO2 
 PCOD8102611
Probable space group: C 2/M
;
_chemical_formula_sum "Si O2"
_cell_formula_units_Z 64
_cell_length_a 30.101456
_cell_length_b 9.105138
_cell_length_c 14.287930
_cell_angle_alpha 90.000000
_cell_angle_beta 120.266583
_cell_angle_gamma 90.000000
_cell_volume 3382.213906
_symmetry_space_group_name_H-M "C 2/M"
_symmetry_group_IT_number 12
_symmetry_cell_setting 'monoclinic'
loop_
_space_group_symop_operation_xyz
x,y,z
-x,y,-z
-x,-y,-z
x,-y,z
1/2+x,1/2+y,z
1/2-x,1/2+y,-z
1/2-x,1/2-y,-z
1/2+x,1/2-y,z
loop_
_atom_site_type_symbol
_atom_site_label
_atom_site_fract_x
_atom_site_fract_y
_atom_site_fract_z
Si Si1 0.661242 0.668880 0.176190
Si Si2 0.296352 0.174945 0.103940
Si Si3 0.630649 0.826756 0.489391
Si Si4 0.908157 0.326678 0.752101
Si Si5 0.034160 0.169542 0.451685
Si Si6 0.724577 0.826153 0.708870
Si Si7 0.122276 0.168738 0.928099
Si Si8 0.006037 0.169133 0.794706
O O1 0.655054 0.500000 0.201343
O O2 0.620780 0.766286 0.188653
O O3 0.718492 0.731716 0.256428
O O4 0.652156 0.685776 0.056629
O O5 0.293909 0.228109 0.208966
O O6 0.350582 0.229760 0.120244
O O7 0.291781 0.000000 0.089094
O O8 0.250000 0.250000 0.000000
O O9 0.623090 0.775854 0.373985
O O10 0.587029 0.758190 0.508356
O O11 0.685542 0.770594 0.586792
O O12 0.625893 0.000000 0.493458
O O13 0.911742 0.500000 0.762907
O O14 0.965928 0.263816 0.812421
O O15 0.000000 0.230955 0.500000
O O16 0.002381 0.196249 0.323751
O O17 0.048019 0.000000 0.481476
O O18 0.727196 0.000000 0.714451
O O19 0.063577 0.221462 0.879862
O O20 0.123204 0.000000 0.894199
O O21 0.997485 0.000000 0.813352
#
# Coordination Sequence:
#
# PCOD8102611 Si02
#       8
#     8   8   8   8   8   8   8   8
#     4  10  20  37  58  77 105 143 182 222 272 329
#     4  11  21  36  57  81 113 148 181 221 269 319
#     4   9  19  36  55  76 106 142 179 220 265 319
#     4  10  21  37  56  80 109 138 180 233 275 314
#     4   9  18  32  50  77 109 139 175 222 269 312
#     4   9  19  36  56  80 109 144 181 217 263 324
#     4  10  21  37  57  83 110 143 186 223 265 324
#     4   9  19  36  56  77 108 146 181 218 269 329
#
# _framework density 18.922518
#
# number of rings (size 3 to 8) (size 9 to 14) (size 15 to 20)
#    0.000    2.375    1.250    0.750    1.750    2.750 
#    0.000    3.750    0.000    0.000    0.000    0.000 
#    0.000    0.000    0.000    0.000    0.000    0.000 
#
# Total GULP energy -396851.401845 kJ/mol
# GULP energy per Si atom -12401.606308 kJ/mol
# Density = 1.887945 g / cm^3
# Si number density = 18.922518 Si / 1000 Ang^3
#
#
#
# Elastic Constant Matrix: (Units=GPa)
#
#
# Indices 1 2 3 4 5 6 
#
# 1 117.3913 36.9689 20.8658 0.0000 8.6234 0.0000
# 2 36.9689 49.9789 15.5935 0.0000 1.3992 0.0000
# 3 20.8658 15.5935 42.8194 0.0000 21.1237 0.0000
# 4 0.0000 0.0000 0.0000 21.9369 0.0000 -0.0498
# 5 8.6234 1.3992 21.1237 0.0000 37.1242 0.0000
# 6 0.0000 0.0000 0.0000 -0.0498 0.0000 35.2019
#
#
#
# Elastic Compliance Matrix: (Units=1/GPa)
#
#
# Indices 1 2 3 4 5 6 
#
# 1 0.011427 -0.007734 -0.002206 0.000000 -0.001108 0.000000
# 2 -0.007734 0.028589 -0.009728 0.000000 0.006254 0.000000
# 3 -0.002206 -0.009728 0.038284 0.000000 -0.020905 0.000000
# 4 0.000000 0.000000 0.000000 0.045585 0.000000 0.000064
# 5 -0.001108 0.006254 -0.020905 0.000000 0.038853 0.000000
# 6 0.000000 0.000000 0.000000 0.000064 0.000000 0.028408
#
#
# Mechanical properties :
#
#
# Convention : Reuss Voigt Hill
#
# Bulk Modulus (GPa) = 25.66336 39.67177 32.66757
# Shear Modulus (GPa) = 20.53647 27.97003 24.25325
#
# Velocity S-wave (km/s) = 3.29795 3.84882 3.58399
# Velocity P-wave (km/s) = 5.30036 6.38452 5.86753
#
# Compressibility (1/GPa) = 0.03896606
#
# Stress axis : x y z
#
# Youngs Moduli (GPa) = 87.50889 34.97862 26.12057
#
# Poissons Ratio (x) = 0.27051 0.05761
# Poissons Ratio (y) = 0.67675 0.25410
# Poissons Ratio (z) = 0.19302 0.34027
#
# Static dielectric constant tensor:
#      x y z
#    x 3.608920 0.000000 0.149860 
#    y 0.000000 3.312420 0.000000 
#    z 0.149860 0.000000 3.598120 
# 
# 
# High freq. dielectric constant tensor:
#      x y z
#    x 1.743080 0.000000 0.006300 
#    y 0.000000 1.717030 0.000000 
#    z 0.006300 0.000000 1.735590 
# 
# From -- ./inp_files/249142.got.cif
#   From: 2010.06.25/outbox.cif.g09.slc.cpg/sg12_125_cif.got.tgz:249142.got - 2010.06.28 00:19:55.
