data_PCOD8102474
_publ_section_title
;
Structure prediction by ZEFSAII (Michael W. Deem and Ramdas Pophale) SiO2 
 PCOD8102474
Probable space group: C 2/M
;
_chemical_formula_sum "Si O2"
_cell_formula_units_Z 40
_cell_length_a 10.541929
_cell_length_b 24.898537
_cell_length_c 8.395999
_cell_angle_alpha 90.000000
_cell_angle_beta 112.483969
_cell_angle_gamma 90.000000
_cell_volume 2036.254011
_symmetry_space_group_name_H-M "C 2/M"
_symmetry_group_IT_number 12
_symmetry_cell_setting 'monoclinic'
loop_
_space_group_symop_operation_xyz
x,y,z
-x,y,-z
-x,-y,-z
x,-y,z
1/2+x,1/2+y,z
1/2-x,1/2+y,-z
1/2-x,1/2-y,-z
1/2+x,1/2-y,z
loop_
_atom_site_type_symbol
_atom_site_label
_atom_site_fract_x
_atom_site_fract_y
_atom_site_fract_z
Si Si1 0.573950 0.786543 0.702884
Si Si2 0.613541 0.099170 0.832059
Si Si3 0.207843 0.280508 0.319197
Si Si4 0.693363 0.101178 0.224813
Si Si5 0.161910 0.000000 0.576235
Si Si6 0.846055 0.500000 0.357183
O O1 0.500000 0.777101 0.500000
O O2 0.628646 0.846964 0.736746
O O3 0.705337 0.746914 0.782282
O O4 0.458245 0.775167 0.784158
O O5 0.455393 0.083535 0.783537
O O6 0.682403 0.051870 0.764932
O O7 0.691769 0.109440 0.034639
O O8 0.250000 0.250000 0.500000
O O9 0.242872 0.344050 0.336121
O O10 0.796537 0.053500 0.310574
O O11 0.229724 0.000000 0.435194
O O12 0.000000 0.000000 0.500000
O O13 0.000000 0.500000 0.500000
#
# Coordination Sequence:
#
# PCOD8102474 Si02
#       6
#     8   8   8   8   4   4
#     4   9  18  33  55  86 116 152 194 241 284 348
#     4  10  20  36  65  89 117 149 209 254 286 339
#     4   9  19  33  57  81 116 153 195 237 286 344
#     4  10  21  40  59  89 121 159 193 250 304 343
#     4  12  27  41  61  87 124 151 193 242 313 370
#     4  12  21  37  67  93 108 154 207 250 290 355
#
# _framework density 19.643915
#
# number of rings (size 3 to 8) (size 9 to 14) (size 15 to 20)
#    0.000    2.000    2.000    1.200    5.600    4.800 
#    0.000    2.000    0.000    0.000    0.000    0.000 
#    0.000    0.000    0.000    0.000    0.000    0.000 
#
# Total GULP energy -247908.468715 kJ/mol
# GULP energy per Si atom -12395.423436 kJ/mol
# Density = 1.959920 g / cm^3
# Si number density = 19.643915 Si / 1000 Ang^3
#
#
#
# Elastic Constant Matrix: (Units=GPa)
#
#
# Indices 1 2 3 4 5 6 
#
# 1 134.7251 76.0933 27.3813 0.0000 4.0347 0.0000
# 2 76.0933 152.5843 31.1972 0.0000 13.7816 0.0000
# 3 27.3813 31.1972 54.0757 0.0000 1.7728 0.0000
# 4 0.0000 0.0000 0.0000 12.6622 0.0000 -5.4388
# 5 4.0347 13.7816 1.7728 0.0000 16.1982 0.0000
# 6 0.0000 0.0000 0.0000 -5.4388 0.0000 34.4273
#
#
#
# Elastic Compliance Matrix: (Units=1/GPa)
#
#
# Indices 1 2 3 4 5 6 
#
# 1 0.010706 -0.004972 -0.002613 0.000000 0.001849 0.000000
# 2 -0.004972 0.010341 -0.003212 0.000000 -0.007208 0.000000
# 3 -0.002613 -0.003212 0.021636 0.000000 0.001016 0.000000
# 4 0.000000 0.000000 0.000000 0.084724 0.000000 0.013385
# 5 0.001849 -0.007208 0.001016 0.000000 0.067296 0.000000
# 6 0.000000 0.000000 0.000000 0.013385 0.000000 0.031161
#
#
# Mechanical properties :
#
#
# Convention : Reuss Voigt Hill
#
# Bulk Modulus (GPa) = 47.41973 67.85875 57.63924
# Shear Modulus (GPa) = 19.64720 26.43842 23.04281
#
# Velocity S-wave (km/s) = 3.16597 3.67261 3.42866
# Velocity P-wave (km/s) = 6.12834 7.25283 6.71417
#
# Compressibility (1/GPa) = 0.02108827
#
# Stress axis : x y z
#
# Youngs Moduli (GPa) = 93.40134 96.70188 46.21992
#
# Poissons Ratio (x) = 0.48080 0.12079
# Poissons Ratio (y) = 0.46439 0.14846
# Poissons Ratio (z) = 0.24410 0.31061
#
# Static dielectric constant tensor:
#      x y z
#    x 4.354910 0.000000 -0.157580 
#    y 0.000000 3.679930 0.000000 
#    z -0.157580 0.000000 3.355640 
# 
# 
# High freq. dielectric constant tensor:
#      x y z
#    x 1.756060 0.000000 -0.015520 
#    y 0.000000 1.778590 0.000000 
#    z -0.015520 0.000000 1.743240 
# 
# From -- ./inp_files/51006.got.cif
#   From: 2010.06.25/outbox.cif.g09.slc.cpg/sg12_26_cif.got.tgz:51006.got - 2010.06.28 00:19:55.
