data_PCOD8102556
_publ_section_title
;
Structure prediction by ZEFSAII (Michael W. Deem and Ramdas Pophale) SiO2 
 PCOD8102556
Probable space group: C 2/M
;
_chemical_formula_sum "Si O2"
_cell_formula_units_Z 48
_cell_length_a 29.126040
_cell_length_b 9.034560
_cell_length_c 18.741467
_cell_angle_alpha 90.000000
_cell_angle_beta 149.096179
_cell_angle_gamma 90.000000
_cell_volume 2532.886654
_symmetry_space_group_name_H-M "C 2/M"
_symmetry_group_IT_number 12
_symmetry_cell_setting 'monoclinic'
loop_
_space_group_symop_operation_xyz
x,y,z
-x,y,-z
-x,-y,-z
x,-y,z
1/2+x,1/2+y,z
1/2-x,1/2+y,-z
1/2-x,1/2-y,-z
1/2+x,1/2-y,z
loop_
_atom_site_type_symbol
_atom_site_label
_atom_site_fract_x
_atom_site_fract_y
_atom_site_fract_z
Si Si1 0.905990 0.670070 0.837896
Si Si2 0.753903 0.325936 0.746687
Si Si3 0.246554 0.173059 0.106212
Si Si4 0.384888 0.326361 0.196024
Si Si5 0.917222 0.824738 0.567186
Si Si6 0.654574 0.675503 0.378039
O O1 0.892751 0.500000 0.796887
O O2 0.826957 0.718387 0.785366
O O3 0.905879 0.773615 0.768554
O O4 0.000000 0.696378 0.000000
O O5 0.756181 0.500000 0.765452
O O6 0.778347 0.240583 0.851006
O O7 0.656919 0.273454 0.588931
O O8 0.337758 0.244380 0.198723
O O9 0.262120 0.000000 0.135009
O O10 0.164822 0.209940 0.944352
O O11 0.382742 0.500000 0.209829
O O12 0.485667 0.263423 0.325656
O O13 0.892401 0.766282 0.612598
O O14 0.920884 0.000000 0.574997
O O15 0.666134 0.500000 0.393690
O O16 0.750000 0.750000 0.500000
#
# Coordination Sequence:
#
# PCOD8102556 Si02
#       6
#     8   8   8   8   8   8
#     4  10  22  39  57  83 118 153 191 234 281 334
#     4  10  20  37  57  78 111 149 184 222 274 334
#     4  10  21  36  56  83 113 138 176 231 279 327
#     4   9  19  38  60  79 104 143 185 223 273 332
#     4   9  19  36  58  81 106 144 190 228 266 328
#     4  11  21  37  60  84 116 152 191 234 279 333
#
# _framework density 18.950710999999998
#
# number of rings (size 3 to 8) (size 9 to 14) (size 15 to 20)
#    0.000    2.167    1.667    1.000    2.333    2.333 
#    0.000    5.833    0.000    0.000    0.000    0.000 
#    0.000    0.000    0.000    0.000    0.000    0.000 
#
# Total GULP energy -297668.143490 kJ/mol
# GULP energy per Si atom -12402.839312 kJ/mol
# Density = 1.890758 g / cm^3
# Si number density = 18.950711 Si / 1000 Ang^3
#
#
#
# Elastic Constant Matrix: (Units=GPa)
#
#
# Indices 1 2 3 4 5 6 
#
# 1 54.1339 19.5417 29.8394 0.0000 2.0158 0.0000
# 2 19.5417 47.8846 20.9810 0.0000 -5.3937 0.0000
# 3 29.8394 20.9810 83.5516 0.0000 11.4000 0.0000
# 4 0.0000 0.0000 0.0000 26.8625 0.0000 -7.3168
# 5 2.0158 -5.3937 11.4000 0.0000 41.6872 0.0000
# 6 0.0000 0.0000 0.0000 -7.3168 0.0000 31.2078
#
#
#
# Elastic Compliance Matrix: (Units=1/GPa)
#
#
# Indices 1 2 3 4 5 6 
#
# 1 0.024957 -0.007091 -0.007108 0.000000 -0.000181 0.000000
# 2 -0.007091 0.026454 -0.004804 0.000000 0.005079 0.000000
# 3 -0.007108 -0.004804 0.016362 0.000000 -0.004752 0.000000
# 4 0.000000 0.000000 0.000000 0.039766 0.000000 0.009323
# 5 -0.000181 0.005079 -0.004752 0.000000 0.025954 0.000000
# 6 0.000000 0.000000 0.000000 0.009323 0.000000 0.034229
#
#
# Mechanical properties :
#
#
# Convention : Reuss Voigt Hill
#
# Bulk Modulus (GPa) = 33.59282 36.25494 34.92388
# Shear Modulus (GPa) = 23.18578 27.63205 25.40892
#
# Velocity S-wave (km/s) = 3.50162 3.82265 3.66565
# Velocity P-wave (km/s) = 5.84066 6.21742 6.03198
#
# Compressibility (1/GPa) = 0.02976826
#
# Stress axis : x y z
#
# Youngs Moduli (GPa) = 40.06874 37.80117 61.11804
#
# Poissons Ratio (x) = 0.26805 0.43442
# Poissons Ratio (y) = 0.28413 0.29359
# Poissons Ratio (z) = 0.28480 0.18158
#
# Static dielectric constant tensor:
#      x y z
#    x 3.655350 0.000000 0.039720 
#    y 0.000000 3.331880 0.000000 
#    z 0.039720 0.000000 3.673750 
# 
# 
# High freq. dielectric constant tensor:
#      x y z
#    x 1.744130 0.000000 0.001380 
#    y 0.000000 1.716870 0.000000 
#    z 0.001380 0.000000 1.745130 
# 
# From -- ./inp_files/244614.got.cif
#   From: 2010.06.25/outbox.cif.g09.slc.cpg/sg12_123_cif.got.tgz:244614.got - 2010.06.28 00:19:55.
