data_PCOD8102815
_publ_section_title
;
Structure prediction by ZEFSAII (Michael W. Deem and Ramdas Pophale) SiO2 
 PCOD8102815
Probable space group: C 2/M
;
_chemical_formula_sum "Si O2"
_cell_formula_units_Z 64
_cell_length_a 14.972151
_cell_length_b 8.720139
_cell_length_c 24.639588
_cell_angle_alpha 90.000000
_cell_angle_beta 89.381074
_cell_angle_gamma 90.000000
_cell_volume 3216.738141
_symmetry_space_group_name_H-M "C 2/M"
_symmetry_group_IT_number 12
_symmetry_cell_setting 'monoclinic'
loop_
_space_group_symop_operation_xyz
x,y,z
-x,y,-z
-x,-y,-z
x,-y,z
1/2+x,1/2+y,z
1/2-x,1/2+y,-z
1/2-x,1/2-y,-z
1/2+x,1/2-y,z
loop_
_atom_site_type_symbol
_atom_site_label
_atom_site_fract_x
_atom_site_fract_y
_atom_site_fract_z
Si Si1 0.090083 0.822534 0.753307
Si Si2 0.404121 0.680413 0.636825
Si Si3 0.902378 0.677531 0.745789
Si Si4 0.391883 0.323928 0.366511
Si Si5 0.747237 0.683079 0.940454
Si Si6 0.596307 0.181309 0.136794
Si Si7 0.107078 0.317244 0.861251
Si Si8 0.753723 0.180005 0.558943
O O1 0.143046 0.808278 0.695731
O O2 0.145099 0.762158 0.805376
O O3 0.007401 0.708315 0.748960
O O4 0.060504 0.000000 0.761385
O O5 0.401913 0.500000 0.637841
O O6 0.361831 0.734146 0.694541
O O7 0.505951 0.736764 0.628846
O O8 0.341959 0.744685 0.588918
O O9 0.883284 0.500000 0.736116
O O10 0.863715 0.732768 0.804503
O O11 0.385339 0.500000 0.385767
O O12 0.333823 0.220574 0.406376
O O13 0.740593 0.500000 0.941317
O O14 0.837390 0.742005 0.910018
O O15 0.661884 0.753725 0.911415
O O16 0.750000 0.750000 0.000000
O O17 0.495068 0.240138 0.128439
O O18 0.592454 0.000000 0.135731
O O19 0.115816 0.500000 0.857274
O O20 0.750000 0.250000 0.500000
O O21 0.759579 0.000000 0.552683
#
# Coordination Sequence:
#
# PCOD8102815 Si02
#       8
#     8   8   8   8   8   8   8   8
#     4   9  17  32  55  84 116 148 177 215 271 332
#     4   9  20  38  57  80 112 148 177 216 276 333
#     4   9  16  30  55  85 111 140 179 221 264 322
#     4   9  19  37  59  81 110 146 181 217 270 330
#     4  11  23  40  57  78 108 145 189 233 276 328
#     4   8  18  36  57  79 110 147 178 214 272 333
#     4  10  20  37  59  84 111 144 183 225 272 325
#     4  11  24  40  57  79 109 144 189 235 275 321
#
# _framework density 19.895931999999998
#
# number of rings (size 3 to 8) (size 9 to 14) (size 15 to 20)
#    0.000    2.500    0.000    3.375    0.000    5.500 
#    0.000   16.250    0.000    0.000    0.000    0.000 
#    0.000    0.000    0.000    0.000    0.000    0.000 
#
# Total GULP energy -396590.170073 kJ/mol
# GULP energy per Si atom -12393.442815 kJ/mol
# Density = 1.985065 g / cm^3
# Si number density = 19.895932 Si / 1000 Ang^3
#
#
#
# Elastic Constant Matrix: (Units=GPa)
#
#
# Indices 1 2 3 4 5 6 
#
# 1 96.0844 31.9806 75.6251 0.0000 4.7381 0.0000
# 2 31.9806 42.5927 46.2614 0.0000 1.7339 0.0000
# 3 75.6251 46.2614 191.4140 0.0000 8.9186 0.0000
# 4 0.0000 0.0000 0.0000 38.8413 0.0000 1.4839
# 5 4.7381 1.7339 8.9186 0.0000 35.0253 0.0000
# 6 0.0000 0.0000 0.0000 1.4839 0.0000 23.6735
#
#
#
# Elastic Compliance Matrix: (Units=1/GPa)
#
#
# Indices 1 2 3 4 5 6 
#
# 1 0.016619 -0.007259 -0.004780 0.000000 -0.000672 0.000000
# 2 -0.007259 0.035011 -0.005625 0.000000 0.000681 0.000000
# 3 -0.004780 -0.005625 0.008531 0.000000 -0.001247 0.000000
# 4 0.000000 0.000000 0.000000 0.025808 0.000000 -0.001618
# 5 -0.000672 0.000681 -0.001247 0.000000 0.028925 0.000000
# 6 0.000000 0.000000 0.000000 -0.001618 0.000000 0.042343
#
#
# Mechanical properties :
#
#
# Convention : Reuss Voigt Hill
#
# Bulk Modulus (GPa) = 40.27194 70.86949 55.57072
# Shear Modulus (GPa) = 24.89513 31.25629 28.07571
#
# Velocity S-wave (km/s) = 3.54116 3.96787 3.76057
# Velocity P-wave (km/s) = 6.08317 7.52924 6.84450
#
# Compressibility (1/GPa) = 0.02483119
#
# Stress axis : x y z
#
# Youngs Moduli (GPa) = 60.17148 28.56267 117.22552
#
# Poissons Ratio (x) = 0.20734 0.56038
# Poissons Ratio (y) = 0.43679 0.65943
# Poissons Ratio (z) = 0.28764 0.16067
#
# Static dielectric constant tensor:
#      x y z
#    x 3.702100 0.000000 0.101150 
#    y 0.000000 3.547010 0.000000 
#    z 0.101150 0.000000 3.961980 
# 
# 
# High freq. dielectric constant tensor:
#      x y z
#    x 1.760640 0.000000 0.004720 
#    y 0.000000 1.766810 0.000000 
#    z 0.004720 0.000000 1.786300 
# 
# From -- ./inp_files/338929.got.cif
#   From: 2010.06.25/outbox.cif.g09.slc.cpg/sg12_170_cif.got.tgz:338929.got - 2010.06.28 00:19:55.
