data_PCOD8102403
_publ_section_title
;
Structure prediction by ZEFSAII (Michael W. Deem and Ramdas Pophale) SiO2 
 PCOD8102403
Probable space group: C 2/M
;
_chemical_formula_sum "Si O2"
_cell_formula_units_Z 44
_cell_length_a 9.307328
_cell_length_b 18.436620
_cell_length_c 16.263927
_cell_angle_alpha 90.000000
_cell_angle_beta 129.076022
_cell_angle_gamma 90.000000
_cell_volume 2166.541806
_symmetry_space_group_name_H-M "C 2/M"
_symmetry_group_IT_number 12
_symmetry_cell_setting 'monoclinic'
loop_
_space_group_symop_operation_xyz
x,y,z
-x,y,-z
-x,-y,-z
x,-y,z
1/2+x,1/2+y,z
1/2-x,1/2+y,-z
1/2-x,1/2-y,-z
1/2+x,1/2-y,z
loop_
_atom_site_type_symbol
_atom_site_label
_atom_site_fract_x
_atom_site_fract_y
_atom_site_fract_z
Si Si1 0.413756 0.828291 0.385017
Si Si2 0.345731 0.697835 0.100603
Si Si3 0.025236 0.421575 0.829484
Si Si4 0.845231 0.915004 0.822086
Si Si5 0.878418 0.709687 0.696682
Si Si6 0.500000 0.116432 0.000000
O O1 0.500000 0.859568 0.500000
O O2 0.274411 0.889166 0.299865
O O3 0.313015 0.752034 0.367497
O O4 0.579250 0.811226 0.381893
O O5 0.472925 0.635354 0.104742
O O6 0.454653 0.743045 0.207146
O O7 0.250000 0.750000 0.000000
O O8 0.177397 0.663251 0.090515
O O9 0.960419 0.500000 0.773127
O O10 0.223640 0.401712 0.860253
O O11 0.868652 0.364022 0.746975
O O12 0.053037 0.428301 0.937749
O O13 0.900318 0.000000 0.831907
#
# Coordination Sequence:
#
# PCOD8102403 Si02
#       6
#     8   8   8   8   8   4
#     4  10  20  36  63  88 109 145 190 242 296 343
#     4  11  23  37  59  83 117 156 198 232 281 339
#     4  10  21  37  55  79 114 154 192 232 281 334
#     4   9  22  42  59  82 118 153 190 239 289 343
#     4  10  20  38  56  82 119 146 189 238 287 340
#     4  12  23  34  56  80 113 154 198 236 269 334
#
# _framework density 20.308862000000001
#
# number of rings (size 3 to 8) (size 9 to 14) (size 15 to 20)
#    0.000    1.818    1.818    1.909    5.091    2.545 
#    0.000    1.818    0.000    0.545    0.000    0.000 
#    0.000    0.000    0.000    0.000    0.000    0.000 
#
# Total GULP energy -272720.490837 kJ/mol
# GULP energy per Si atom -12396.385947 kJ/mol
# Density = 2.026264 g / cm^3
# Si number density = 20.308862 Si / 1000 Ang^3
#
#
#
# Elastic Constant Matrix: (Units=GPa)
#
#
# Indices 1 2 3 4 5 6 
#
# 1 86.6658 39.8388 42.3744 0.0000 -12.7198 0.0000
# 2 39.8388 124.7446 31.8910 0.0000 -0.8864 0.0000
# 3 42.3744 31.8910 106.4805 0.0000 -17.5769 0.0000
# 4 0.0000 0.0000 0.0000 16.8441 0.0000 6.6951
# 5 -12.7198 -0.8864 -17.5769 0.0000 33.1584 0.0000
# 6 0.0000 0.0000 0.0000 6.6951 0.0000 23.3409
#
#
#
# Elastic Compliance Matrix: (Units=1/GPa)
#
#
# Indices 1 2 3 4 5 6 
#
# 1 0.016158 -0.003946 -0.004650 0.000000 0.003628 0.000000
# 2 -0.003946 0.009693 -0.001687 0.000000 -0.002149 0.000000
# 3 -0.004650 -0.001687 0.012543 0.000000 0.004820 0.000000
# 4 0.000000 0.000000 0.000000 0.067008 0.000000 -0.019220
# 5 0.003628 -0.002149 0.004820 0.000000 0.034048 0.000000
# 6 0.000000 0.000000 0.000000 -0.019220 0.000000 0.048356
#
#
# Mechanical properties :
#
#
# Convention : Reuss Voigt Hill
#
# Bulk Modulus (GPa) = 56.09161 60.67770 58.38466
# Shear Modulus (GPa) = 23.33028 28.25447 25.79237
#
# Velocity S-wave (km/s) = 3.39303 3.73398 3.56758
# Velocity P-wave (km/s) = 6.55968 6.96652 6.76616
#
# Compressibility (1/GPa) = 0.01782798
#
# Stress axis : x y z
#
# Youngs Moduli (GPa) = 61.88755 103.17062 79.72743
#
# Poissons Ratio (x) = 0.40711 0.37070
# Poissons Ratio (y) = 0.24420 0.13453
# Poissons Ratio (z) = 0.28775 0.17409
#
# Static dielectric constant tensor:
#      x y z
#    x 3.879190 0.000000 0.037930 
#    y 0.000000 3.880580 0.000000 
#    z 0.037930 0.000000 3.537200 
# 
# 
# High freq. dielectric constant tensor:
#      x y z
#    x 1.793940 0.000000 -0.014740 
#    y 0.000000 1.798330 0.000000 
#    z -0.014740 0.000000 1.774990 
# 
# From -- ./inp_files/196077.got.cif
#   From: 2010.06.25/outbox.cif.g09.slc.cpg/sg12_99_cif.got.tgz:196077.got - 2010.06.28 00:19:55.
