data_PCOD8102972
_publ_section_title
;
Structure prediction by ZEFSAII (Michael W. Deem and Ramdas Pophale) SiO2 
 PCOD8102972
Probable space group: C 2/M
;
_chemical_formula_sum "Si O2"
_cell_formula_units_Z 64
_cell_length_a 31.330775
_cell_length_b 9.031164
_cell_length_c 16.272075
_cell_angle_alpha 90.000000
_cell_angle_beta 45.169692
_cell_angle_gamma 90.000000
_cell_volume 3265.316232
_symmetry_space_group_name_H-M "C 2/M"
_symmetry_group_IT_number 12
_symmetry_cell_setting 'monoclinic'
loop_
_space_group_symop_operation_xyz
x,y,z
-x,y,-z
-x,-y,-z
x,-y,z
1/2+x,1/2+y,z
1/2-x,1/2+y,-z
1/2-x,1/2-y,-z
1/2+x,1/2-y,z
loop_
_atom_site_type_symbol
_atom_site_label
_atom_site_fract_x
_atom_site_fract_y
_atom_site_fract_z
Si Si1 0.602219 0.674370 0.554093
Si Si2 0.997197 0.827204 0.178661
Si Si3 0.167379 0.330134 0.166508
Si Si4 0.700403 0.329564 0.960597
Si Si5 0.388237 0.826046 0.024470
Si Si6 0.413286 0.831287 0.175011
Si Si7 0.189722 0.329517 0.554279
Si Si8 0.432770 0.172848 0.565855
O O1 0.614492 0.500000 0.535224
O O2 0.543960 0.713893 0.687706
O O3 0.661036 0.752189 0.512907
O O4 0.589992 0.733077 0.480002
O O5 0.966238 0.771575 0.136898
O O6 0.009245 0.000000 0.155330
O O7 0.060280 0.743334 0.103694
O O8 0.164316 0.500000 0.140719
O O9 0.228277 0.302243 0.135076
O O10 0.110494 0.288852 0.299421
O O11 0.167217 0.225690 0.087874
O O12 0.683979 0.500000 0.971614
O O13 0.675856 0.238459 0.916344
O O14 0.397785 0.777231 0.105090
O O15 0.388209 0.000000 0.012974
O O16 0.354053 0.813963 0.309299
O O17 0.436994 0.000000 0.143587
O O18 0.202859 0.500000 0.514449
O O19 0.250000 0.250000 0.500000
O O20 0.500000 0.220406 0.500000
O O21 0.429794 0.000000 0.546608
#
# Coordination Sequence:
#
# PCOD8102972 Si02
#       8
#     8   8   8   8   8   8   8   8
#     4  10  22  39  57  83 117 152 192 235 287 346
#     4  10  21  36  55  81 114 148 184 230 281 333
#     4   9  20  40  60  82 114 149 187 233 286 342
#     4  10  21  37  58  83 112 148 189 233 284 337
#     4  11  22  35  55  81 110 145 188 230 277 336
#     4   9  20  37  54  78 111 149 188 227 275 333
#     4  10  20  37  60  84 114 151 192 236 285 340
#     4  10  22  39  61  89 118 152 195 240 292 348
#
# _framework density 19.599938999999999
#
# number of rings (size 3 to 8) (size 9 to 14) (size 15 to 20)
#    0.000    2.125    0.000    2.250    1.750    6.750 
#    0.000    2.500    0.000    0.000    0.000    0.000 
#    0.000    0.000    0.000    0.000    0.000    0.000 
#
# Total GULP energy -396937.201108 kJ/mol
# GULP energy per Si atom -12404.287535 kJ/mol
# Density = 1.955533 g / cm^3
# Si number density = 19.599939 Si / 1000 Ang^3
#
#
#
# Elastic Constant Matrix: (Units=GPa)
#
#
# Indices 1 2 3 4 5 6 
#
# 1 97.1485 40.0871 35.2466 0.0000 -8.5126 0.0000
# 2 40.0871 82.2799 26.7967 0.0000 -3.5350 0.0001
# 3 35.2466 26.7967 73.0509 0.0000 -8.7572 0.0000
# 4 0.0000 0.0000 0.0000 26.1961 0.0000 2.7614
# 5 -8.5126 -3.5350 -8.7572 0.0000 25.7997 0.0000
# 6 0.0000 0.0001 0.0000 2.7614 0.0000 41.1824
#
#
#
# Elastic Compliance Matrix: (Units=1/GPa)
#
#
# Indices 1 2 3 4 5 6 
#
# 1 0.014438 -0.005401 -0.004694 0.000000 0.002431 0.000000
# 2 -0.005401 0.015824 -0.003286 0.000000 -0.000729 0.000000
# 3 -0.004694 -0.003286 0.017637 0.000000 0.003988 0.000000
# 4 0.000000 0.000000 0.000000 0.038445 0.000000 -0.002578
# 5 0.002431 -0.000729 0.003988 0.000000 0.040816 0.000000
# 6 0.000000 0.000000 0.000000 -0.002578 0.000000 0.024455
#
#
# Mechanical properties :
#
#
# Convention : Reuss Voigt Hill
#
# Bulk Modulus (GPa) = 47.30912 50.74889 49.02901
# Shear Modulus (GPa) = 26.96534 28.65888 27.81211
#
# Velocity S-wave (km/s) = 3.71318 3.82801 3.77103
# Velocity P-wave (km/s) = 6.52483 6.74439 6.63552
#
# Compressibility (1/GPa) = 0.02113757
#
# Stress axis : x y z
#
# Youngs Moduli (GPa) = 69.26073 63.19515 56.69854
#
# Poissons Ratio (x) = 0.34134 0.26612
# Poissons Ratio (y) = 0.37410 0.18631
# Poissons Ratio (z) = 0.32509 0.20765
#
# Static dielectric constant tensor:
#      x y z
#    x 3.631040 0.000000 -0.071020 
#    y 0.000000 3.612900 0.000000 
#    z -0.071020 0.000000 3.544960 
# 
# 
# High freq. dielectric constant tensor:
#      x y z
#    x 1.771680 0.000000 -0.004080 
#    y 0.000000 1.768990 0.000000 
#    z -0.004080 0.000000 1.758860 
# 
# From -- ./inp_files/249738.got.cif
#   From: 2010.06.25/outbox.cif.g09.slc.cpg/sg12_125_cif.got.tgz:249738.got - 2010.06.28 00:19:55.
