data_PCOD8102622
_publ_section_title
;
Structure prediction by ZEFSAII (Michael W. Deem and Ramdas Pophale) SiO2 
 PCOD8102622
Probable space group: C 2/M
;
_chemical_formula_sum "Si O2"
_cell_formula_units_Z 48
_cell_length_a 14.773414
_cell_length_b 8.856088
_cell_length_c 20.658971
_cell_angle_alpha 90.000000
_cell_angle_beta 112.898338
_cell_angle_gamma 90.000000
_cell_volume 2489.911137
_symmetry_space_group_name_H-M "C 2/M"
_symmetry_group_IT_number 12
_symmetry_cell_setting 'monoclinic'
loop_
_space_group_symop_operation_xyz
x,y,z
-x,y,-z
-x,-y,-z
x,-y,z
1/2+x,1/2+y,z
1/2-x,1/2+y,-z
1/2-x,1/2-y,-z
1/2+x,1/2-y,z
loop_
_atom_site_type_symbol
_atom_site_label
_atom_site_fract_x
_atom_site_fract_y
_atom_site_fract_z
Si Si1 0.172219 0.828803 0.629665
Si Si2 0.151070 0.678760 0.000874
Si Si3 0.517021 0.671415 0.350431
Si Si4 0.557825 0.179082 0.106726
Si Si5 0.882967 0.679341 0.736857
Si Si6 0.148696 0.678315 0.492729
O O1 0.276880 0.765865 0.682368
O O2 0.127466 0.725338 0.560578
O O3 0.099849 0.824179 0.670858
O O4 0.182954 0.000000 0.606271
O O5 0.163880 0.500000 0.001245
O O6 0.129896 0.733871 0.068852
O O7 0.250000 0.750000 0.000000
O O8 0.055283 0.732631 0.933504
O O9 0.556897 0.500000 0.360560
O O10 0.535456 0.750054 0.287095
O O11 0.565253 0.760784 0.422702
O O12 0.598975 0.242695 0.185964
O O13 0.558073 0.000000 0.105982
O O14 0.891940 0.500000 0.737796
O O15 0.152706 0.500000 0.487687
O O16 0.250000 0.750000 0.500000
#
# Coordination Sequence:
#
# PCOD8102622 Si02
#       6
#     8   8   8   8   8   8
#     4  10  22  38  56  79 109 144 184 230 280 331
#     4   9  17  33  57  83 111 143 184 226 267 321
#     4  11  23  38  56  82 113 144 182 232 282 327
#     4   8  17  34  55  79 110 149 185 219 267 329
#     4  10  20  37  58  78 107 149 189 223 271 334
#     4  12  23  37  59  82 107 142 186 234 282 330
#
# _framework density 19.277795999999999
#
# number of rings (size 3 to 8) (size 9 to 14) (size 15 to 20)
#    0.000    2.000    1.667    3.500    0.000    4.667 
#    0.000    5.000    0.000    0.000    0.000    0.000 
#    0.000    0.000    0.000    0.000    0.000    0.000 
#
# Total GULP energy -297572.178929 kJ/mol
# GULP energy per Si atom -12398.840789 kJ/mol
# Density = 1.923392 g / cm^3
# Si number density = 19.277796 Si / 1000 Ang^3
#
#
#
# Elastic Constant Matrix: (Units=GPa)
#
#
# Indices 1 2 3 4 5 6 
#
# 1 122.6447 27.0060 46.1829 0.0000 -20.4963 0.0000
# 2 27.0060 61.4097 35.1677 0.0000 -4.0764 0.0000
# 3 46.1829 35.1677 142.0872 0.0000 -22.8210 0.0000
# 4 0.0000 0.0000 0.0000 21.1628 0.0000 -5.5450
# 5 -20.4963 -4.0764 -22.8210 0.0000 21.3763 0.0000
# 6 0.0000 0.0000 0.0000 -5.5450 0.0000 32.0479
#
#
#
# Elastic Compliance Matrix: (Units=1/GPa)
#
#
# Indices 1 2 3 4 5 6 
#
# 1 0.010794 -0.003437 -0.001329 0.000000 0.008276 0.000000
# 2 -0.003437 0.020118 -0.004557 0.000000 -0.004323 0.000000
# 3 -0.001329 -0.004557 0.009961 0.000000 0.008492 0.000000
# 4 0.000000 0.000000 0.000000 0.049497 0.000000 0.008564
# 5 0.008276 -0.004323 0.008492 0.000000 0.062957 0.000000
# 6 0.000000 0.000000 0.000000 0.008564 0.000000 0.032685
#
#
# Mechanical properties :
#
#
# Convention : Reuss Voigt Hill
#
# Bulk Modulus (GPa) = 44.98548 60.31718 52.65133
# Shear Modulus (GPa) = 23.57768 29.43642 26.50705
#
# Velocity S-wave (km/s) = 3.50101 3.91187 3.71213
# Velocity P-wave (km/s) = 6.30308 7.19444 6.76346
#
# Compressibility (1/GPa) = 0.02222939
#
# Stress axis : x y z
#
# Youngs Moduli (GPa) = 92.64725 49.70701 100.38660
#
# Poissons Ratio (x) = 0.17082 0.13337
# Poissons Ratio (y) = 0.31839 0.45744
# Poissons Ratio (z) = 0.12309 0.22650
#
# Static dielectric constant tensor:
#      x y z
#    x 3.645270 0.000000 -0.041790 
#    y 0.000000 3.388250 0.000000 
#    z -0.041790 0.000000 3.811790 
# 
# 
# High freq. dielectric constant tensor:
#      x y z
#    x 1.761030 0.000000 -0.006180 
#    y 0.000000 1.729750 0.000000 
#    z -0.006180 0.000000 1.746610 
# 
# From -- ./inp_files/308298.got.cif
#   From: 2010.06.25/outbox.cif.g09.slc.cpg/sg12_155_cif.got.tgz:308298.got - 2010.06.28 00:19:55.
