data_PCOD8102400
_publ_section_title
;
Structure prediction by ZEFSAII (Michael W. Deem and Ramdas Pophale) SiO2 
 PCOD8102400
Probable space group: C 2/M
;
_chemical_formula_sum "Si O2"
_cell_formula_units_Z 56
_cell_length_a 19.047677
_cell_length_b 34.560957
_cell_length_c 8.024265
_cell_angle_alpha 90.000000
_cell_angle_beta 148.513880
_cell_angle_gamma 90.000000
_cell_volume 2758.966395
_symmetry_space_group_name_H-M "C 2/M"
_symmetry_group_IT_number 12
_symmetry_cell_setting 'monoclinic'
loop_
_space_group_symop_operation_xyz
x,y,z
-x,y,-z
-x,-y,-z
x,-y,z
1/2+x,1/2+y,z
1/2-x,1/2+y,-z
1/2-x,1/2-y,-z
1/2+x,1/2-y,z
loop_
_atom_site_type_symbol
_atom_site_label
_atom_site_fract_x
_atom_site_fract_y
_atom_site_fract_z
Si Si1 0.519147 0.289551 0.226739
Si Si2 0.870326 0.655051 0.344280
Si Si3 0.854797 0.917370 0.626232
Si Si4 0.147988 0.000000 0.365141
Si Si5 0.892869 0.500000 0.637435
Si Si6 0.759538 0.734669 0.207150
Si Si7 0.891587 0.585054 0.636101
Si Si8 0.388439 0.362844 0.393321
O O1 0.651548 0.263209 0.501071
O O2 0.536327 0.325016 0.387049
O O3 0.500000 0.304994 0.000000
O O4 0.390096 0.265132 0.022295
O O5 0.828058 0.692525 0.364879
O O6 0.908332 0.618283 0.533876
O O7 0.000000 0.666260 0.500000
O O8 0.746092 0.645947 0.975702
O O9 0.827114 0.959910 0.486020
O O10 0.752919 0.909516 0.570633
O O11 0.837287 0.888189 0.441716
O O12 0.000000 0.913942 0.000000
O O13 0.241342 0.000000 0.392901
O O14 0.000000 0.000000 0.000000
O O15 0.909752 0.542266 0.581566
O O16 0.000000 0.500000 0.000000
O O17 0.750000 0.750000 0.000000
O O18 0.000000 0.590628 0.000000
O O19 0.500000 0.383574 0.500000
#
# Coordination Sequence:
#
# PCOD8102400 Si02
#       8
#     8   8   8   4   4   8   8   8
#     4  12  26  44  68  97 121 157 216 254 298 365
#     4  12  25  40  62  91 128 162 205 251 316 374
#     4  10  20  36  63  87 121 160 207 255 299 360
#     4   8  16  32  54  88 116 156 202 248 304 356
#     4   8  16  34  62  84 120 162 202 252 312 368
#     4  12  24  47  68  90 126 170 200 251 320 371
#     4  10  21  40  62  93 122 162 212 259 307 366
#     4  12  23  41  61  89 124 167 201 246 316 374
#
# _framework density 20.297457999999999
#
# number of rings (size 3 to 8) (size 9 to 14) (size 15 to 20)
#    0.000    1.143    2.857    3.857    2.000    0.571 
#    0.000    1.429    0.000    0.000    0.000    0.000 
#    0.000    0.000    0.000    0.000    0.000    0.000 
#
# Total GULP energy -347024.811830 kJ/mol
# GULP energy per Si atom -12393.743280 kJ/mol
# Density = 2.025126 g / cm^3
# Si number density = 20.297458 Si / 1000 Ang^3
#
#
#
# Elastic Constant Matrix: (Units=GPa)
#
#
# Indices 1 2 3 4 5 6 
#
# 1 54.4908 4.9245 22.3857 0.0000 3.8701 0.0000
# 2 4.9245 105.2758 9.4515 0.0000 -13.8434 0.0000
# 3 22.3857 9.4515 94.4590 0.0000 7.5541 0.0000
# 4 0.0000 0.0000 0.0000 26.7902 0.0000 -4.4158
# 5 3.8701 -13.8434 7.5541 0.0000 37.9978 0.0000
# 6 0.0000 0.0000 0.0000 -4.4158 0.0000 32.4143
#
#
#
# Elastic Compliance Matrix: (Units=1/GPa)
#
#
# Indices 1 2 3 4 5 6 
#
# 1 0.020431 -0.000724 -0.004656 0.000000 -0.001419 0.000000
# 2 -0.000724 0.010165 -0.001166 0.000000 0.004009 0.000000
# 3 -0.004656 -0.001166 0.011993 0.000000 -0.002335 0.000000
# 4 0.000000 0.000000 0.000000 0.038185 0.000000 0.005202
# 5 -0.001419 0.004009 -0.002335 0.000000 0.028386 0.000000
# 6 0.000000 0.000000 0.000000 0.005202 0.000000 0.031559
#
#
# Mechanical properties :
#
#
# Convention : Reuss Voigt Hill
#
# Bulk Modulus (GPa) = 33.90259 36.41657 35.15958
# Shear Modulus (GPa) = 30.55426 33.93806 32.24616
#
# Velocity S-wave (km/s) = 3.88406 4.09349 3.99015
# Velocity P-wave (km/s) = 6.07072 6.35001 6.21194
#
# Compressibility (1/GPa) = 0.02949627
#
# Stress axis : x y z
#
# Youngs Moduli (GPa) = 48.94604 98.38115 83.37929
#
# Poissons Ratio (x) = 0.07126 0.38820
# Poissons Ratio (y) = 0.03545 0.09722
# Poissons Ratio (z) = 0.22789 0.11471
#
# Static dielectric constant tensor:
#      x y z
#    x 3.826540 0.000000 0.283500 
#    y 0.000000 4.294700 0.000000 
#    z 0.283500 0.000000 3.806170 
# 
# 
# High freq. dielectric constant tensor:
#      x y z
#    x 1.773590 0.000000 0.027450 
#    y 0.000000 1.809010 0.000000 
#    z 0.027450 0.000000 1.805040 
# 
# From -- ./inp_files/91688.got.cif
#   From: 2010.06.25/outbox.cif.g09.slc.cpg/sg12_46_cif.got.tgz:91688.got - 2010.06.28 00:19:55.
