data_PCOD8102828
_publ_section_title
;
Structure prediction by ZEFSAII (Michael W. Deem and Ramdas Pophale) SiO2 
 PCOD8102828
Probable space group: C 2/M
;
_chemical_formula_sum "Si O2"
_cell_formula_units_Z 64
_cell_length_a 20.355843
_cell_length_b 8.900905
_cell_length_c 22.166813
_cell_angle_alpha 90.000000
_cell_angle_beta 124.159865
_cell_angle_gamma 90.000000
_cell_volume 3323.387081
_symmetry_space_group_name_H-M "C 2/M"
_symmetry_group_IT_number 12
_symmetry_cell_setting 'monoclinic'
loop_
_space_group_symop_operation_xyz
x,y,z
-x,y,-z
-x,-y,-z
x,-y,z
1/2+x,1/2+y,z
1/2-x,1/2+y,-z
1/2-x,1/2-y,-z
1/2+x,1/2-y,z
loop_
_atom_site_type_symbol
_atom_site_label
_atom_site_fract_x
_atom_site_fract_y
_atom_site_fract_z
Si Si1 0.348662 0.822396 0.168281
Si Si2 0.716012 0.827475 0.541457
Si Si3 0.498004 0.822101 0.678968
Si Si4 0.551085 0.325780 0.467023
Si Si5 0.903167 0.321533 0.066803
Si Si6 0.131051 0.827725 0.304450
Si Si7 0.684958 0.823876 0.096349
Si Si8 0.916692 0.323591 0.839766
O O1 0.420824 0.769330 0.247604
O O2 0.363898 0.762381 0.108289
O O3 0.268571 0.753078 0.153140
O O4 0.341176 0.000000 0.164408
O O5 0.750000 0.750000 0.500000
O O6 0.636210 0.747909 0.521887
O O7 0.778312 0.812902 0.627776
O O8 0.697471 0.000000 0.516236
O O9 0.495650 0.749970 0.611978
O O10 0.423924 0.768917 0.680093
O O11 0.493590 0.000000 0.670994
O O12 0.500000 0.299511 0.500000
O O13 0.563449 0.500000 0.458290
O O14 0.904316 0.500000 0.064759
O O15 0.993383 0.263606 0.109504
O O16 0.852829 0.257552 0.984704
O O17 0.128613 0.764790 0.235817
O O18 0.102480 0.000000 0.291516
O O19 0.625189 0.785003 0.119156
O O20 0.699413 0.000000 0.098128
O O21 0.914031 0.500000 0.823450
#
# Coordination Sequence:
#
# PCOD8102828 Si02
#       8
#     8   8   8   8   8   8   8   8
#     4  10  21  37  58  84 117 155 193 240 294 353
#     4  11  23  39  63  91 120 155 198 246 296 352
#     4  11  22  39  64  88 115 157 200 241 292 353
#     4  11  25  43  63  91 126 160 197 244 296 352
#     4   9  17  35  59  83 112 152 201 242 287 347
#     4  11  23  38  60  90 120 151 193 246 295 347
#     4  10  21  35  57  86 116 153 195 246 295 343
#     4  10  20  37  59  84 115 153 199 242 290 350
#
# _framework density 19.257462
#
# number of rings (size 3 to 8) (size 9 to 14) (size 15 to 20)
#    0.000    1.625    2.500    2.250    0.000    6.500 
#    0.000    5.625    0.000    1.500    0.000    0.000 
#    0.000    0.000    0.000    0.000    0.000    0.000 
#
# Total GULP energy -396950.695843 kJ/mol
# GULP energy per Si atom -12404.709245 kJ/mol
# Density = 1.921363 g / cm^3
# Si number density = 19.257462 Si / 1000 Ang^3
#
#
#
# Elastic Constant Matrix: (Units=GPa)
#
#
# Indices 1 2 3 4 5 6 
#
# 1 95.0814 37.9378 33.3369 0.0000 11.8801 0.0000
# 2 37.9378 75.0070 45.5707 0.0000 1.3139 0.0000
# 3 33.3369 45.5707 128.1949 0.0000 3.1559 0.0000
# 4 0.0000 0.0000 0.0000 27.7850 0.0000 0.0613
# 5 11.8801 1.3139 3.1559 0.0000 27.1249 0.0000
# 6 0.0000 0.0000 0.0000 0.0613 0.0000 33.0925
#
#
#
# Elastic Compliance Matrix: (Units=1/GPa)
#
#
# Indices 1 2 3 4 5 6 
#
# 1 0.014207 -0.006284 -0.001319 0.000000 -0.005765 0.000000
# 2 -0.006284 0.019784 -0.005459 0.000000 0.002429 0.000000
# 3 -0.001319 -0.005459 0.010092 0.000000 -0.000332 0.000000
# 4 0.000000 0.000000 0.000000 0.035991 0.000000 -0.000067
# 5 -0.005765 0.002429 -0.000332 0.000000 0.039312 0.000000
# 6 0.000000 0.000000 0.000000 -0.000067 0.000000 0.030218
#
#
# Mechanical properties :
#
#
# Convention : Reuss Voigt Hill
#
# Bulk Modulus (GPa) = 55.67540 59.10824 57.39182
# Shear Modulus (GPa) = 27.51573 29.69634 28.60603
#
# Velocity S-wave (km/s) = 3.78409 3.93118 3.85834
# Velocity P-wave (km/s) = 6.93299 7.16700 7.05096
#
# Compressibility (1/GPa) = 0.01796125
#
# Stress axis : x y z
#
# Youngs Moduli (GPa) = 70.38697 50.54565 99.08621
#
# Poissons Ratio (x) = 0.31760 0.13069
# Poissons Ratio (y) = 0.44228 0.54087
# Poissons Ratio (z) = 0.09284 0.27591
#
# Static dielectric constant tensor:
#      x y z
#    x 3.470640 0.000000 0.046820 
#    y 0.000000 3.462910 0.000000 
#    z 0.046820 0.000000 3.812460 
# 
# 
# High freq. dielectric constant tensor:
#      x y z
#    x 1.753170 0.000000 0.004140 
#    y 0.000000 1.739850 0.000000 
#    z 0.004140 0.000000 1.764630 
# 
# From -- ./inp_files/320046.got.cif
#   From: 2010.06.25/outbox.cif.g09.slc.cpg/sg12_161_cif.got.tgz:320046.got - 2010.06.28 00:19:55.
