data_PCOD8102692
_publ_section_title
;
Structure prediction by ZEFSAII (Michael W. Deem and Ramdas Pophale) SiO2 
 PCOD8102692
Probable space group: C 2/M
;
_chemical_formula_sum "Si O2"
_cell_formula_units_Z 64
_cell_length_a 18.155977
_cell_length_b 18.051815
_cell_length_c 14.411524
_cell_angle_alpha 90.000000
_cell_angle_beta 137.853810
_cell_angle_gamma 90.000000
_cell_volume 3169.485884
_symmetry_space_group_name_H-M "C 2/M"
_symmetry_group_IT_number 12
_symmetry_cell_setting 'monoclinic'
loop_
_space_group_symop_operation_xyz
x,y,z
-x,y,-z
-x,-y,-z
x,-y,z
1/2+x,1/2+y,z
1/2-x,1/2+y,-z
1/2-x,1/2-y,-z
1/2+x,1/2-y,z
loop_
_atom_site_type_symbol
_atom_site_label
_atom_site_fract_x
_atom_site_fract_y
_atom_site_fract_z
Si Si1 0.389258 0.912272 0.945102
Si Si2 0.240206 0.831256 0.313551
Si Si3 0.811530 0.830633 0.324367
Si Si4 0.955620 0.086162 0.777637
Si Si5 0.125298 0.584600 0.861724
Si Si6 0.496857 0.331665 0.634361
Si Si7 0.679215 0.582636 0.079633
Si Si8 0.969877 0.329512 0.580175
O O1 0.286888 0.886519 0.788013
O O2 0.383290 0.000000 0.943796
O O3 0.500000 0.883840 0.000000
O O4 0.388108 0.878585 0.048933
O O5 0.256238 0.743415 0.315033
O O6 0.140324 0.856984 0.284949
O O7 0.224462 0.860628 0.195827
O O8 0.348419 0.865339 0.463876
O O9 0.899445 0.864771 0.478857
O O10 0.882260 0.821074 0.296906
O O11 0.006077 0.112040 0.727714
O O12 0.917156 0.000000 0.736835
O O13 0.050950 0.095397 0.942398
O O14 0.088620 0.500000 0.834613
O O15 0.252403 0.593386 0.951441
O O16 0.051007 0.617679 0.710660
O O17 0.463771 0.247828 0.630523
O O18 0.697410 0.500000 0.136285
O O19 0.000000 0.313581 0.500000
#
# Coordination Sequence:
#
# PCOD8102692 Si02
#       8
#     8   8   8   8   8   8   8   8
#     4  10  23  41  58  85 126 161 202 260 313 368
#     4  11  22  38  60  89 124 160 202 254 312 370
#     4  10  21  40  65  87 116 160 209 252 306 365
#     4  11  25  40  59  92 128 161 203 256 316 372
#     4  10  21  36  61  90 117 163 211 251 308 370
#     4  10  21  41  64  88 122 157 207 258 307 366
#     4  10  20  37  58  83 121 162 204 251 304 368
#     4  11  20  40  62  88 125 159 203 261 305 361
#
# _framework density 20.192551000000002
#
# number of rings (size 3 to 8) (size 9 to 14) (size 15 to 20)
#    0.000    1.625    3.750    1.500    0.000   10.250 
#    0.000    5.000    0.000    0.000    0.000    0.000 
#    0.000    0.000    0.000    0.000    0.000    0.000 
#
# Total GULP energy -396608.978657 kJ/mol
# GULP energy per Si atom -12394.030583 kJ/mol
# Density = 2.014659 g / cm^3
# Si number density = 20.192551 Si / 1000 Ang^3
#
#
#
# Elastic Constant Matrix: (Units=GPa)
#
#
# Indices 1 2 3 4 5 6 
#
# 1 84.9166 33.1062 22.6061 0.0000 11.3000 0.0000
# 2 33.1062 46.2291 29.2091 0.0000 2.0863 0.0000
# 3 22.6061 29.2091 84.3346 0.0000 19.2208 0.0000
# 4 0.0000 0.0000 0.0000 32.7048 0.0000 -0.6043
# 5 11.3000 2.0863 19.2208 0.0000 35.2914 0.0000
# 6 0.0000 0.0000 0.0000 -0.6043 0.0000 30.8885
#
#
#
# Elastic Compliance Matrix: (Units=1/GPa)
#
#
# Indices 1 2 3 4 5 6 
#
# 1 0.017157 -0.012678 0.000997 0.000000 -0.005287 0.000000
# 2 -0.012678 0.037588 -0.011461 0.000000 0.008080 0.000000
# 3 0.000997 -0.011461 0.017672 0.000000 -0.009266 0.000000
# 4 0.000000 0.000000 0.000000 0.030588 0.000000 0.000598
# 5 -0.005287 0.008080 -0.009266 0.000000 0.034597 0.000000
# 6 0.000000 0.000000 0.000000 0.000598 0.000000 0.032386
#
#
# Mechanical properties :
#
#
# Convention : Reuss Voigt Hill
#
# Bulk Modulus (GPa) = 38.26792 42.81367 40.54080
# Shear Modulus (GPa) = 22.22379 28.48085 25.35232
#
# Velocity S-wave (km/s) = 3.32112 3.75969 3.54719
# Velocity P-wave (km/s) = 5.80509 6.33212 6.07432
#
# Compressibility (1/GPa) = 0.02613155
#
# Stress axis : x y z
#
# Youngs Moduli (GPa) = 58.28436 26.60434 56.58737
#
# Poissons Ratio (x) = 0.33730 -0.05642
# Poissons Ratio (y) = 0.73894 0.64857
# Poissons Ratio (z) = -0.05811 0.30492
#
# Static dielectric constant tensor:
#      x y z
#    x 3.749440 0.000000 0.090660 
#    y 0.000000 3.440760 0.000000 
#    z 0.090660 0.000000 3.769140 
# 
# 
# High freq. dielectric constant tensor:
#      x y z
#    x 1.790230 0.000000 0.009140 
#    y 0.000000 1.771620 0.000000 
#    z 0.009140 0.000000 1.798060 
# 
# From -- ./inp_files/226870.got.cif
#   From: 2010.06.25/outbox.cif.g09.slc.cpg/sg12_114_cif.got.tgz:226870.got - 2010.06.28 00:19:55.
