data_PCOD8102991
_publ_section_title
;
Structure prediction by ZEFSAII (Michael W. Deem and Ramdas Pophale) SiO2 
 PCOD8102991
Probable space group: C 2/M
;
_chemical_formula_sum "Si O2"
_cell_formula_units_Z 48
_cell_length_a 30.651824
_cell_length_b 8.354962
_cell_length_c 9.425525
_cell_angle_alpha 90.000000
_cell_angle_beta 89.587436
_cell_angle_gamma 90.000000
_cell_volume 2413.765596
_symmetry_space_group_name_H-M "C 2/M"
_symmetry_group_IT_number 12
_symmetry_cell_setting 'monoclinic'
loop_
_space_group_symop_operation_xyz
x,y,z
-x,y,-z
-x,-y,-z
x,-y,z
1/2+x,1/2+y,z
1/2-x,1/2+y,-z
1/2-x,1/2-y,-z
1/2+x,1/2-y,z
loop_
_atom_site_type_symbol
_atom_site_label
_atom_site_fract_x
_atom_site_fract_y
_atom_site_fract_z
Si Si1 0.001577 0.808986 0.159126
Si Si2 0.077082 0.810904 0.653659
Si Si3 0.748275 0.314620 0.158240
Si Si4 0.325186 0.686185 0.331701
Si Si5 0.824526 0.315420 0.638981
Si Si6 0.583313 0.310117 0.335807
O O1 0.046358 0.748988 0.229039
O O2 0.960069 0.736233 0.244444
O O3 0.999849 0.000000 0.161480
O O4 0.000000 0.741837 0.000000
O O5 0.125252 0.759300 0.703944
O O6 0.069243 0.752582 0.493106
O O7 0.073257 0.000000 0.657939
O O8 0.735573 0.500000 0.157785
O O9 0.794864 0.291622 0.231939
O O10 0.712164 0.216539 0.244253
O O11 0.750000 0.250000 0.000000
O O12 0.317619 0.500000 0.298064
O O13 0.314921 0.712982 0.498020
O O14 0.823885 0.500000 0.595440
O O15 0.870874 0.269483 0.707633
O O16 0.589295 0.500000 0.329833
#
# Coordination Sequence:
#
# PCOD8102991 Si02
#       6
#     8   8   8   8   8   8
#     4   9  16  26  45  76 108 138 177 225 274 325
#     4   8  15  28  48  74 104 139 179 223 270 324
#     4  12  25  41  59  83 115 149 185 225 276 334
#     4  10  20  37  60  85 112 146 189 234 281 331
#     4  11  22  38  59  83 111 145 188 235 283 333
#     4   9  17  31  52  76 104 139 180 226 275 326
#
# _framework density 19.885940000000002
#
# number of rings (size 3 to 8) (size 9 to 14) (size 15 to 20)
#    0.000    2.167    0.000    5.500    0.000    3.333 
#    0.000    3.333    0.000    9.500    0.000    0.000 
#    0.000    0.000    0.000    0.000    0.000    0.000 
#
# Total GULP energy -297632.090729 kJ/mol
# GULP energy per Si atom -12401.337114 kJ/mol
# Density = 1.984068 g / cm^3
# Si number density = 19.885940 Si / 1000 Ang^3
#
#
#
# Elastic Constant Matrix: (Units=GPa)
#
#
# Indices 1 2 3 4 5 6 
#
# 1 141.0254 15.5230 77.4474 0.0000 18.1520 0.0000
# 2 15.5230 48.4081 5.4286 0.0000 0.9045 0.0000
# 3 77.4474 5.4286 114.4871 0.0000 14.3369 0.0000
# 4 0.0000 0.0000 0.0000 21.0212 0.0000 3.1215
# 5 18.1520 0.9045 14.3369 0.0000 19.0366 0.0000
# 6 0.0000 0.0000 0.0000 3.1215 0.0000 24.8924
#
#
#
# Elastic Compliance Matrix: (Units=1/GPa)
#
#
# Indices 1 2 3 4 5 6 
#
# 1 0.012251 -0.002987 -0.007398 0.000000 -0.005968 0.000000
# 2 -0.002987 0.021498 0.000853 0.000000 0.001185 0.000000
# 3 -0.007398 0.000853 0.014156 0.000000 -0.003647 0.000000
# 4 0.000000 0.000000 0.000000 0.048474 0.000000 -0.006079
# 5 -0.005968 0.001185 -0.003647 0.000000 0.060911 0.000000
# 6 0.000000 0.000000 0.000000 -0.006079 0.000000 0.040935
#
#
# Mechanical properties :
#
#
# Convention : Reuss Voigt Hill
#
# Bulk Modulus (GPa) = 34.67502 55.63541 45.15521
# Shear Modulus (GPa) = 22.03590 26.69148 24.36369
#
# Velocity S-wave (km/s) = 3.33245 3.66762 3.50404
# Velocity P-wave (km/s) = 5.68170 6.78036 6.25520
#
# Compressibility (1/GPa) = 0.02883921
#
# Stress axis : x y z
#
# Youngs Moduli (GPa) = 81.62662 46.51627 70.64301
#
# Poissons Ratio (x) = 0.13896 0.52265
# Poissons Ratio (y) = 0.24384 -0.06027
# Poissons Ratio (z) = 0.60391 -0.03968
#
# Static dielectric constant tensor:
#      x y z
#    x 3.886060 0.000000 -0.020810 
#    y 0.000000 3.258090 0.000000 
#    z -0.020810 0.000000 3.669530 
# 
# 
# High freq. dielectric constant tensor:
#      x y z
#    x 1.790770 0.000000 0.001390 
#    y 0.000000 1.745010 0.000000 
#    z 0.001390 0.000000 1.769360 
# 
# From -- ./inp_files/108715.got.cif
#   From: 2010.06.25/outbox.cif.g09.slc.cpg/sg12_55_cif.got.tgz:108715.got - 2010.06.28 00:19:55.
