data_PCOD8102756
_publ_section_title
;
Structure prediction by ZEFSAII (Michael W. Deem and Ramdas Pophale) SiO2 
 PCOD8102756
Probable space group: C 2/M
;
_chemical_formula_sum "Si O2"
_cell_formula_units_Z 56
_cell_length_a 25.980244
_cell_length_b 13.521012
_cell_length_c 9.397446
_cell_angle_alpha 90.000000
_cell_angle_beta 113.837993
_cell_angle_gamma 90.000000
_cell_volume 3019.514252
_symmetry_space_group_name_H-M "C 2/M"
_symmetry_group_IT_number 12
_symmetry_cell_setting 'monoclinic'
loop_
_space_group_symop_operation_xyz
x,y,z
-x,y,-z
-x,-y,-z
x,-y,z
1/2+x,1/2+y,z
1/2-x,1/2+y,-z
1/2-x,1/2-y,-z
1/2+x,1/2-y,z
loop_
_atom_site_type_symbol
_atom_site_label
_atom_site_fract_x
_atom_site_fract_y
_atom_site_fract_z
Si Si1 0.443210 0.106350 0.352164
Si Si2 0.260508 0.388249 0.277111
Si Si3 0.346713 0.389066 0.126520
Si Si4 0.860828 0.885998 0.602549
Si Si5 0.655397 0.748744 0.146173
Si Si6 0.932579 0.811773 0.435321
Si Si7 0.946858 0.385737 0.027543
O O1 0.500000 0.091863 0.500000
O O2 0.410176 0.198587 0.384486
O O3 0.409833 0.000000 0.323220
O O4 0.457656 0.132837 0.205859
O O5 0.235680 0.500000 0.254784
O O6 0.292874 0.371928 0.165772
O O7 0.302890 0.371587 0.454281
O O8 0.212946 0.306269 0.238440
O O9 0.346241 0.500000 0.062727
O O10 0.404067 0.378826 0.282185
O O11 0.342467 0.309628 0.998432
O O12 0.857254 0.828099 0.744599
O O13 0.913294 0.845480 0.569400
O O14 0.872452 0.000000 0.650397
O O15 0.607183 0.829440 0.088258
O O16 0.000000 0.818904 0.500000
O O17 0.936910 0.500000 0.981081
O O18 0.000000 0.344256 0.000000
#
# Coordination Sequence:
#
# PCOD8102756 Si02
#       7
#     8   8   8   8   8   8   8
#     4   9  18  34  56  79 109 147 185 227 271 323
#     4   9  20  40  60  80 107 144 185 226 279 340
#     4  10  21  37  57  82 113 146 185 232 280 323
#     4  10  23  39  57  81 114 148 185 235 280 321
#     4  12  21  35  60  86 109 146 187 231 276 335
#     4  10  20  37  59  81 108 154 193 224 273 332
#     4  10  22  37  54  83 120 150 177 225 289 337
#
# _framework density 18.546029000000001
#
# number of rings (size 3 to 8) (size 9 to 14) (size 15 to 20)
#    0.000    2.000    1.429    3.000    4.000    1.143 
#    0.000    0.714    0.000    6.000    0.000    0.000 
#    0.000    0.000    0.000    0.000    0.000    0.000 
#
# Total GULP energy -347134.830078 kJ/mol
# GULP energy per Si atom -12397.672503 kJ/mol
# Density = 1.850382 g / cm^3
# Si number density = 18.546029 Si / 1000 Ang^3
#
#
#
# Elastic Constant Matrix: (Units=GPa)
#
#
# Indices 1 2 3 4 5 6 
#
# 1 89.8240 55.6215 41.8175 0.0000 0.9278 0.0000
# 2 55.6215 106.4507 36.4901 0.0000 -5.9283 0.0000
# 3 41.8175 36.4901 80.7313 0.0000 -14.8325 0.0000
# 4 0.0000 0.0000 0.0000 43.7609 0.0000 -4.6048
# 5 0.9278 -5.9283 -14.8325 0.0000 20.8892 0.0000
# 6 0.0000 0.0000 0.0000 -4.6048 0.0000 32.0092
#
#
#
# Elastic Compliance Matrix: (Units=1/GPa)
#
#
# Indices 1 2 3 4 5 6 
#
# 1 0.020249 -0.008186 -0.008488 0.000000 -0.009249 0.000000
# 2 -0.008186 0.014430 -0.001682 0.000000 0.003264 0.000000
# 3 -0.008488 -0.001682 0.020155 0.000000 0.014211 0.000000
# 4 0.000000 0.000000 0.000000 0.023203 0.000000 0.003338
# 5 -0.009249 0.003264 0.014211 0.000000 0.059299 0.000000
# 6 0.000000 0.000000 0.000000 0.003338 0.000000 0.031721
#
#
# Mechanical properties :
#
#
# Convention : Reuss Voigt Hill
#
# Bulk Modulus (GPa) = 55.18470 60.54047 57.86258
# Shear Modulus (GPa) = 23.60624 28.87033 26.23828
#
# Velocity S-wave (km/s) = 3.57157 3.94977 3.76542
# Velocity P-wave (km/s) = 6.84312 7.31540 7.08320
#
# Compressibility (1/GPa) = 0.01812096
#
# Stress axis : x y z
#
# Youngs Moduli (GPa) = 49.38560 69.30209 49.61626
#
# Poissons Ratio (x) = 0.56729 0.42114
# Poissons Ratio (y) = 0.40426 0.08347
# Poissons Ratio (z) = 0.41919 0.11659
#
# Static dielectric constant tensor:
#      x y z
#    x 3.298590 0.000000 -0.079790 
#    y 0.000000 3.980850 0.000000 
#    z -0.079790 0.000000 3.380660 
# 
# 
# High freq. dielectric constant tensor:
#      x y z
#    x 1.700310 0.000000 -0.003400 
#    y 0.000000 1.740270 0.000000 
#    z -0.003400 0.000000 1.724240 
# 
# From -- ./inp_files/96257.got.cif
#   From: 2010.06.25/outbox.cif.g09.slc.cpg/sg12_49_cif.got.tgz:96257.got - 2010.06.28 00:19:55.
