data_PCOD8102192
_publ_section_title
;
Structure prediction by ZEFSAII (Michael W. Deem and Ramdas Pophale) SiO2 
 PCOD8102192
Probable space group: C 2/M
;
_chemical_formula_sum "Si O2"
_cell_formula_units_Z 64
_cell_length_a 13.297498
_cell_length_b 12.963693
_cell_length_c 33.848596
_cell_angle_alpha 90.000000
_cell_angle_beta 146.159699
_cell_angle_gamma 90.000000
_cell_volume 3249.383239
_symmetry_space_group_name_H-M "C 2/M"
_symmetry_group_IT_number 12
_symmetry_cell_setting 'monoclinic'
loop_
_space_group_symop_operation_xyz
x,y,z
-x,y,-z
-x,-y,-z
x,-y,z
1/2+x,1/2+y,z
1/2-x,1/2+y,-z
1/2-x,1/2-y,-z
1/2+x,1/2-y,z
loop_
_atom_site_type_symbol
_atom_site_label
_atom_site_fract_x
_atom_site_fract_y
_atom_site_fract_z
Si Si1 0.803831 0.119036 0.419762
Si Si2 0.181919 0.319208 0.037516
Si Si3 0.000042 0.882323 0.331907
Si Si4 0.769008 0.801508 0.660129
Si Si5 0.784461 0.383932 0.038387
Si Si6 0.595045 0.786162 0.420880
Si Si7 0.424870 0.377908 0.185614
Si Si8 0.683083 0.879326 0.177287
O O1 0.745449 0.184973 0.362183
O O2 0.661891 0.135491 0.409011
O O3 0.000000 0.153615 0.500000
O O4 0.802826 0.000000 0.406526
O O5 0.151426 0.198670 0.015232
O O6 0.362086 0.338527 0.122277
O O7 0.218202 0.384947 0.009931
O O8 0.000000 0.357852 0.000000
O O9 0.163777 0.874177 0.353691
O O10 0.029964 0.821203 0.381409
O O11 0.819581 0.831437 0.253904
O O12 0.976956 0.000000 0.336782
O O13 0.570644 0.838366 0.609480
O O14 0.904804 0.812607 0.741916
O O15 0.740283 0.500000 0.038687
O O16 0.979682 0.342119 0.116534
O O17 0.750000 0.750000 0.500000
O O18 0.472968 0.500000 0.201143
O O19 0.251267 0.352120 0.155828
O O20 0.693926 0.000000 0.187044
#
# Coordination Sequence:
#
# PCOD8102192 Si02
#       8
#     8   8   8   8   8   8   8   8
#     4  10  21  39  59  81 115 154 189 232 282 337
#     4  11  22  36  59  87 115 153 195 237 285 341
#     4   9  20  36  56  83 112 144 181 231 285 333
#     4  10  21  38  59  82 114 146 185 235 281 335
#     4  10  21  36  56  85 117 150 189 235 286 340
#     4  11  22  36  58  83 112 147 189 231 277 337
#     4  10  20  36  61  87 114 148 190 241 288 336
#     4   8  15  32  56  79 107 142 181 227 279 329
#
# _framework density 19.696047
#
# number of rings (size 3 to 8) (size 9 to 14) (size 15 to 20)
#    0.000    2.125    2.500    1.500    1.750    2.750 
#    0.000    1.250    0.000    0.000    0.000    0.000 
#    0.000    0.000    0.000    0.000    0.000    0.000 
#
# Total GULP energy -396608.350985 kJ/mol
# GULP energy per Si atom -12394.010968 kJ/mol
# Density = 1.965122 g / cm^3
# Si number density = 19.696047 Si / 1000 Ang^3
#
#
#
# Elastic Constant Matrix: (Units=GPa)
#
#
# Indices 1 2 3 4 5 6 
#
# 1 46.4680 -1.5795 14.6354 0.0000 -0.0875 0.0000
# 2 -1.5795 79.7608 28.1512 0.0000 -8.8299 0.0000
# 3 14.6354 28.1512 116.8394 0.0000 -16.2694 0.0000
# 4 0.0000 0.0000 0.0000 30.1891 0.0000 -0.5366
# 5 -0.0875 -8.8299 -16.2694 0.0000 26.2053 0.0000
# 6 0.0000 0.0000 0.0000 -0.5366 0.0000 16.4391
#
#
#
# Elastic Compliance Matrix: (Units=1/GPa)
#
#
# Indices 1 2 3 4 5 6 
#
# 1 0.022641 0.001480 -0.003407 0.000000 -0.001541 0.000000
# 2 0.001480 0.013991 -0.003174 0.000000 0.002749 0.000000
# 3 -0.003407 -0.003174 0.010508 0.000000 0.005443 0.000000
# 4 0.000000 0.000000 0.000000 0.033144 0.000000 0.001082
# 5 -0.001541 0.002749 0.005443 0.000000 0.042461 0.000000
# 6 0.000000 0.000000 0.000000 0.001082 0.000000 0.060866
#
#
# Mechanical properties :
#
#
# Convention : Reuss Voigt Hill
#
# Bulk Modulus (GPa) = 27.07171 36.16473 31.61822
# Shear Modulus (GPa) = 24.25715 28.02409 26.14062
#
# Velocity S-wave (km/s) = 3.51319 3.77613 3.64703
# Velocity P-wave (km/s) = 5.49829 6.11666 5.81570
#
# Compressibility (1/GPa) = 0.03693893
#
# Stress axis : x y z
#
# Youngs Moduli (GPa) = 44.16823 71.47317 95.16416
#
# Poissons Ratio (x) = -0.10580 0.32425
# Poissons Ratio (y) = -0.06538 0.30202
# Poissons Ratio (z) = 0.15049 0.22683
#
# Static dielectric constant tensor:
#      x y z
#    x 3.902150 0.000000 0.644960 
#    y 0.000000 3.339180 0.000000 
#    z 0.644960 0.000000 4.740000 
# 
# 
# High freq. dielectric constant tensor:
#      x y z
#    x 1.758530 0.000000 -0.004320 
#    y 0.000000 1.749060 0.000000 
#    z -0.004320 0.000000 1.776140 
# 
# From -- ./inp_files/374113.got.cif
#   From: 2010.06.25/outbox.cif.g09.slc.cpg/sg12_188_cif.got.tgz:374113.got - 2010.06.28 00:19:55.
