data_PCOD8102484
_publ_section_title
;
Structure prediction by ZEFSAII (Michael W. Deem and Ramdas Pophale) SiO2 
 PCOD8102484
Probable space group: C 2/M
;
_chemical_formula_sum "Si O2"
_cell_formula_units_Z 64
_cell_length_a 27.982653
_cell_length_b 14.457879
_cell_length_c 12.687738
_cell_angle_alpha 90.000000
_cell_angle_beta 144.213734
_cell_angle_gamma 90.000000
_cell_volume 3001.634034
_symmetry_space_group_name_H-M "C 2/M"
_symmetry_group_IT_number 12
_symmetry_cell_setting 'monoclinic'
loop_
_space_group_symop_operation_xyz
x,y,z
-x,y,-z
-x,-y,-z
x,-y,z
1/2+x,1/2+y,z
1/2-x,1/2+y,-z
1/2-x,1/2-y,-z
1/2+x,1/2-y,z
loop_
_atom_site_type_symbol
_atom_site_label
_atom_site_fract_x
_atom_site_fract_y
_atom_site_fract_z
Si Si1 0.858238 0.102530 0.191727
Si Si2 0.094180 0.098418 0.143838
Si Si3 0.086697 0.719388 0.629788
Si Si4 0.333369 0.773259 0.451727
Si Si5 0.809576 0.102824 0.878804
Si Si6 0.684759 0.897778 0.968222
Si Si7 0.214573 0.609431 0.253527
Si Si8 0.595800 0.796538 0.203638
O O1 0.923208 0.173010 0.356098
O O2 0.782375 0.099507 0.135151
O O3 0.897157 0.000000 0.248205
O O4 0.829974 0.144501 0.028809
O O5 0.107453 0.101298 0.041455
O O6 0.131629 0.191895 0.257774
O O7 0.132996 0.000000 0.256011
O O8 0.000000 0.097592 0.000000
O O9 0.110426 0.714665 0.550447
O O10 0.000000 0.671106 0.500000
O O11 0.153108 0.671708 0.823144
O O12 0.254665 0.837116 0.299973
O O13 0.299092 0.668891 0.410954
O O14 0.389227 0.814959 0.645862
O O15 0.772964 0.000000 0.829658
O O16 0.668157 0.867568 0.059597
O O17 0.647986 0.000000 0.880584
O O18 0.235966 0.500000 0.299105
O O19 0.150764 0.635331 0.231682
O O20 0.500000 0.806241 0.000000
#
# Coordination Sequence:
#
# PCOD8102484 Si02
#       8
#     8   8   8   8   8   8   8   8
#     4  10  20  39  64  94 127 163 209 256 313 383
#     4   9  19  36  59  91 124 161 208 260 321 375
#     4  12  26  38  64  98 134 171 204 261 325 380
#     4  12  24  43  62  97 127 164 218 265 314 379
#     4  10  20  36  66  95 122 164 213 268 314 370
#     4  10  21  41  68  94 123 165 214 261 313 379
#     4  11  24  43  69  95 127 171 217 264 317 377
#     4  11  26  43  65  92 130 173 212 266 320 381
#
# _framework density 21.321719000000002
#
# number of rings (size 3 to 8) (size 9 to 14) (size 15 to 20)
#    0.000    1.375    3.750    1.500    1.750    2.750 
#    0.000    0.000    0.000    0.000    0.000    0.000 
#    0.000    0.000    0.000    0.000    0.000    0.000 
#
# Total GULP energy -396514.908317 kJ/mol
# GULP energy per Si atom -12391.090885 kJ/mol
# Density = 2.127319 g / cm^3
# Si number density = 21.321719 Si / 1000 Ang^3
#
#
#
# Elastic Constant Matrix: (Units=GPa)
#
#
# Indices 1 2 3 4 5 6 
#
# 1 143.6984 40.4130 65.0932 0.0000 -16.0559 0.0000
# 2 40.4130 70.9806 17.7134 0.0000 -10.1828 0.0000
# 3 65.0932 17.7134 80.2202 0.0000 -23.6621 0.0000
# 4 0.0000 0.0000 0.0000 6.8415 0.0000 -6.7988
# 5 -16.0559 -10.1828 -23.6621 0.0000 38.2449 0.0000
# 6 0.0000 0.0000 0.0000 -6.7988 0.0000 28.7452
#
#
#
# Elastic Compliance Matrix: (Units=1/GPa)
#
#
# Indices 1 2 3 4 5 6 
#
# 1 0.012510 -0.005009 -0.009650 0.000000 -0.002052 0.000000
# 2 -0.005009 0.017092 0.001238 0.000000 0.003214 0.000000
# 3 -0.009650 0.001238 0.023150 0.000000 0.010601 0.000000
# 4 0.000000 0.000000 0.000000 0.191080 0.000000 0.045194
# 5 -0.002052 0.003214 0.010601 0.000000 0.032700 0.000000
# 6 0.000000 0.000000 0.000000 0.045194 0.000000 0.045478
#
#
# Mechanical properties :
#
#
# Convention : Reuss Voigt Hill
#
# Bulk Modulus (GPa) = 38.59492 60.14873 49.37183
# Shear Modulus (GPa) = 13.98648 26.21162 20.09905
#
# Velocity S-wave (km/s) = 2.56398 3.51000 3.07360
# Velocity P-wave (km/s) = 5.18708 6.68566 5.98347
#
# Compressibility (1/GPa) = 0.02591014
#
# Stress axis : x y z
#
# Youngs Moduli (GPa) = 79.93808 58.50636 43.19713
#
# Poissons Ratio (x) = 0.29304 0.41686
# Poissons Ratio (y) = 0.40038 -0.05348
# Poissons Ratio (z) = 0.77142 -0.07244
#
# Static dielectric constant tensor:
#      x y z
#    x 3.945610 0.000000 -0.217320 
#    y 0.000000 4.329860 0.000000 
#    z -0.217320 0.000000 3.460090 
# 
# 
# High freq. dielectric constant tensor:
#      x y z
#    x 1.848850 0.000000 -0.018050 
#    y 0.000000 1.848000 0.000000 
#    z -0.018050 0.000000 1.801810 
# 
# From -- ./inp_files/183840.got.cif
#   From: 2010.06.25/outbox.cif.g09.slc.cpg/sg12_92_cif.got.tgz:183840.got - 2010.06.28 00:19:55.
