data_PCOD8102573
_publ_section_title
;
Structure prediction by ZEFSAII (Michael W. Deem and Ramdas Pophale) SiO2 
 PCOD8102573
Probable space group: C 2/M
;
_chemical_formula_sum "Si O2"
_cell_formula_units_Z 56
_cell_length_a 21.217938
_cell_length_b 8.858290
_cell_length_c 18.018479
_cell_angle_alpha 90.000000
_cell_angle_beta 57.344789
_cell_angle_gamma 90.000000
_cell_volume 2851.337640
_symmetry_space_group_name_H-M "C 2/M"
_symmetry_group_IT_number 12
_symmetry_cell_setting 'monoclinic'
loop_
_space_group_symop_operation_xyz
x,y,z
-x,y,-z
-x,-y,-z
x,-y,z
1/2+x,1/2+y,z
1/2-x,1/2+y,-z
1/2-x,1/2-y,-z
1/2+x,1/2-y,z
loop_
_atom_site_type_symbol
_atom_site_label
_atom_site_fract_x
_atom_site_fract_y
_atom_site_fract_z
Si Si1 0.736370 0.325456 0.087042
Si Si2 0.826015 0.327059 0.477515
Si Si3 0.901445 0.174729 0.728138
Si Si4 0.914782 0.826375 0.552457
Si Si5 0.105833 0.675829 0.951331
Si Si6 0.480832 0.322224 0.120990
Si Si7 0.036197 0.327479 0.714017
O O1 0.725128 0.500000 0.077847
O O2 0.664176 0.262397 0.176588
O O3 0.806574 0.295303 0.095578
O O4 0.750000 0.250000 0.000000
O O5 0.808415 0.500000 0.505980
O O6 0.750000 0.250000 0.500000
O O7 0.861008 0.258879 0.529895
O O8 0.883055 0.308999 0.373503
O O9 0.877862 0.192030 0.657255
O O10 0.974457 0.275812 0.694054
O O11 0.919339 0.000000 0.734734
O O12 0.000000 0.761837 0.500000
O O13 0.917869 0.000000 0.524948
O O14 0.084982 0.500000 0.969096
O O15 0.083316 0.741173 0.885987
O O16 0.062102 0.762747 0.044408
O O17 0.476663 0.500000 0.110919
O O18 0.467958 0.283828 0.214151
O O19 0.021329 0.500000 0.747693
#
# Coordination Sequence:
#
# PCOD8102573 Si02
#       7
#     8   8   8   8   8   8   8
#     4  10  22  37  56  83 117 153 192 240 291 344
#     4  11  25  42  63  90 124 160 201 253 311 370
#     4  10  21  38  61  89 118 155 199 245 296 358
#     4  10  20  38  65  92 122 160 202 249 305 367
#     4  10  20  37  57  81 116 156 196 241 296 354
#     4  11  22  36  58  85 113 151 198 245 295 356
#     4  11  23  39  59  86 117 153 196 244 297 359
#
# _framework density 19.639904999999999
#
# number of rings (size 3 to 8) (size 9 to 14) (size 15 to 20)
#    0.000    1.571    1.429    4.286    0.000    7.714 
#    0.000    2.857    0.000    0.000    0.000    0.000 
#    0.000    0.000    0.000    0.000    0.000    0.000 
#
# Total GULP energy -347277.968027 kJ/mol
# GULP energy per Si atom -12402.784572 kJ/mol
# Density = 1.959520 g / cm^3
# Si number density = 19.639905 Si / 1000 Ang^3
#
#
#
# Elastic Constant Matrix: (Units=GPa)
#
#
# Indices 1 2 3 4 5 6 
#
# 1 130.9256 56.6622 46.0557 0.0000 -6.1093 -0.0001
# 2 56.6622 80.7584 29.8257 0.0002 -2.2595 -0.0005
# 3 46.0557 29.8257 91.0636 0.0001 5.0474 -0.0001
# 4 0.0000 0.0002 0.0001 31.6769 0.0000 6.3136
# 5 -6.1093 -2.2595 5.0474 0.0000 32.5727 0.0000
# 6 -0.0001 -0.0005 -0.0001 6.3136 0.0000 30.4700
#
#
#
# Elastic Compliance Matrix: (Units=1/GPa)
#
#
# Indices 1 2 3 4 5 6 
#
# 1 0.012193 -0.007008 -0.004006 0.000000 0.002421 0.000000
# 2 -0.007008 0.018209 -0.002438 0.000000 0.000327 0.000000
# 3 -0.004006 -0.002438 0.013977 0.000000 -0.003086 0.000000
# 4 0.000000 0.000000 0.000000 0.032929 0.000000 -0.006823
# 5 0.002421 0.000327 -0.003086 0.000000 0.031656 0.000000
# 6 0.000000 0.000000 0.000000 -0.006823 0.000000 0.034233
#
#
# Mechanical properties :
#
#
# Convention : Reuss Voigt Hill
#
# Bulk Modulus (GPa) = 57.22072 63.09277 60.15674
# Shear Modulus (GPa) = 28.42155 30.29086 29.35620
#
# Velocity S-wave (km/s) = 3.80825 3.93149 3.87036
# Velocity P-wave (km/s) = 6.96672 7.26659 7.11823
#
# Compressibility (1/GPa) = 0.01747619
#
# Stress axis : x y z
#
# Youngs Moduli (GPa) = 82.01605 54.91837 71.54789
#
# Poissons Ratio (x) = 0.38485 0.28659
# Poissons Ratio (y) = 0.57474 0.17442
# Poissons Ratio (z) = 0.32852 0.13388
#
# Static dielectric constant tensor:
#      x y z
#    x 3.013160 0.000000 -0.189180 
#    y 0.000000 3.638310 0.000000 
#    z -0.189180 0.000000 3.593160 
# 
# 
# High freq. dielectric constant tensor:
#      x y z
#    x 1.769850 0.000000 0.004080 
#    y 0.000000 1.767760 0.000000 
#    z 0.004080 0.000000 1.770620 
# 
# From -- ./inp_files/280939.got.cif
#   From: 2010.06.25/outbox.cif.g09.slc.cpg/sg12_141_cif.got.tgz:280939.got - 2010.06.28 00:19:55.
