data_PCOD8102744
_publ_section_title
;
Structure prediction by ZEFSAII (Michael W. Deem and Ramdas Pophale) SiO2 
 PCOD8102744
Probable space group: C 2/M
;
_chemical_formula_sum "Si O2"
_cell_formula_units_Z 64
_cell_length_a 14.879111
_cell_length_b 9.117235
_cell_length_c 23.698629
_cell_angle_alpha 90.000000
_cell_angle_beta 89.257000
_cell_angle_gamma 90.000000
_cell_volume 3214.599239
_symmetry_space_group_name_H-M "C 2/M"
_symmetry_group_IT_number 12
_symmetry_cell_setting 'monoclinic'
loop_
_space_group_symop_operation_xyz
x,y,z
-x,y,-z
-x,-y,-z
x,-y,z
1/2+x,1/2+y,z
1/2-x,1/2+y,-z
1/2-x,1/2-y,-z
1/2+x,1/2-y,z
loop_
_atom_site_type_symbol
_atom_site_label
_atom_site_fract_x
_atom_site_fract_y
_atom_site_fract_z
Si Si1 0.846450 0.834463 0.560147
Si Si2 0.633739 0.164940 0.547735
Si Si3 0.350209 0.830326 0.944778
Si Si4 0.507851 0.170226 0.859936
Si Si5 0.173473 0.672928 0.327406
Si Si6 0.035170 0.827616 0.253578
Si Si7 0.620791 0.670066 0.658941
Si Si8 0.176607 0.328377 0.928949
O O1 0.740731 0.835902 0.550678
O O2 0.896132 0.755322 0.507453
O O3 0.869189 0.744617 0.616280
O O4 0.883557 0.000000 0.566093
O O5 0.592622 0.240494 0.603507
O O6 0.596185 0.000000 0.543415
O O7 0.442518 0.796853 0.912627
O O8 0.270226 0.747992 0.912843
O O9 0.325886 0.000000 0.943163
O O10 0.358753 0.774990 0.009326
O O11 0.483623 0.275641 0.809154
O O12 0.606424 0.213740 0.880887
O O13 0.502276 0.000000 0.841283
O O14 0.156730 0.500000 0.329528
O O15 0.279022 0.711182 0.321040
O O16 0.123274 0.742912 0.274505
O O17 0.948152 0.787223 0.291465
O O18 0.054950 0.000000 0.254150
O O19 0.616191 0.500000 0.642654
O O20 0.192777 0.500000 0.929949
#
# Coordination Sequence:
#
# PCOD8102744 Si02
#       8
#     8   8   8   8   8   8   8   8
#     4   9  16  28  49  78 110 141 173 214 269 328
#     4   9  16  27  49  80 108 136 174 219 267 323
#     4   9  18  34  57  84 114 146 179 218 267 320
#     4  10  21  37  56  78 108 147 185 221 265 317
#     4  10  20  37  59  80 105 140 181 224 272 325
#     4  11  24  40  56  78 108 142 184 229 271 318
#     4   9  20  38  57  76 104 142 178 219 274 328
#     4   9  18  34  57  85 114 144 180 221 265 316
#
# _framework density 19.909168999999999
#
# number of rings (size 3 to 8) (size 9 to 14) (size 15 to 20)
#    0.000    2.500    0.000    1.875    0.000    8.000 
#    0.000    4.375    0.000    7.500    0.000    0.000 
#    0.000    0.000    0.000    0.000    0.000    0.000 
#
# Total GULP energy -396877.508456 kJ/mol
# GULP energy per Si atom -12402.422139 kJ/mol
# Density = 1.986385 g / cm^3
# Si number density = 19.909169 Si / 1000 Ang^3
#
#
#
# Elastic Constant Matrix: (Units=GPa)
#
#
# Indices 1 2 3 4 5 6 
#
# 1 43.8417 16.6052 1.5877 0.0000 7.7794 0.0000
# 2 16.6052 76.3939 22.4197 0.0000 4.4133 0.0000
# 3 1.5877 22.4197 56.3811 0.0000 12.6364 0.0000
# 4 0.0000 0.0000 0.0000 37.5577 0.0000 1.3722
# 5 7.7794 4.4133 12.6364 0.0000 19.9055 0.0000
# 6 0.0000 0.0000 0.0000 1.3722 0.0000 26.7940
#
#
#
# Elastic Compliance Matrix: (Units=1/GPa)
#
#
# Indices 1 2 3 4 5 6 
#
# 1 0.027278 -0.006567 0.004554 0.000000 -0.012096 0.000000
# 2 -0.006567 0.016405 -0.007110 0.000000 0.003443 0.000000
# 3 0.004554 -0.007110 0.023879 0.000000 -0.015362 0.000000
# 4 0.000000 0.000000 0.000000 0.026676 0.000000 -0.001366
# 5 -0.012096 0.003443 -0.015362 0.000000 0.063953 0.000000
# 6 0.000000 0.000000 0.000000 -0.001366 0.000000 0.037392
#
#
# Mechanical properties :
#
#
# Convention : Reuss Voigt Hill
#
# Bulk Modulus (GPa) = 20.27754 28.64909 24.46331
# Shear Modulus (GPa) = 21.71394 25.91838 23.81616
#
# Velocity S-wave (km/s) = 3.30608 3.61200 3.46242
# Velocity P-wave (km/s) = 4.97802 5.64062 5.31965
#
# Compressibility (1/GPa) = 0.04931564
#
# Stress axis : x y z
#
# Youngs Moduli (GPa) = 36.65966 60.95617 41.87861
#
# Poissons Ratio (x) = 0.40030 -0.19072
# Poissons Ratio (y) = 0.24074 0.29776
# Poissons Ratio (z) = -0.16695 0.43341
#
# Static dielectric constant tensor:
#      x y z
#    x 3.531240 0.000000 0.053210 
#    y 0.000000 3.648890 0.000000 
#    z 0.053210 0.000000 3.607610 
# 
# 
# High freq. dielectric constant tensor:
#      x y z
#    x 1.770640 0.000000 0.004060 
#    y 0.000000 1.777490 0.000000 
#    z 0.004060 0.000000 1.771280 
# 
# From -- ./inp_files/338889.got.cif
#   From: 2010.06.25/outbox.cif.g09.slc.cpg/sg12_170_cif.got.tgz:338889.got - 2010.06.28 00:19:55.
