data_PCOD8102058
_publ_section_title
;
Structure prediction by ZEFSAII (Michael W. Deem and Ramdas Pophale) SiO2 
 PCOD8102058
Probable space group: C 2/M
;
_chemical_formula_sum "Si O2"
_cell_formula_units_Z 64
_cell_length_a 14.946877
_cell_length_b 9.179079
_cell_length_c 30.356086
_cell_angle_alpha 90.000000
_cell_angle_beta 52.474967
_cell_angle_gamma 90.000000
_cell_volume 3303.059019
_symmetry_space_group_name_H-M "C 2/M"
_symmetry_group_IT_number 12
_symmetry_cell_setting 'monoclinic'
loop_
_space_group_symop_operation_xyz
x,y,z
-x,y,-z
-x,-y,-z
x,-y,z
1/2+x,1/2+y,z
1/2-x,1/2+y,-z
1/2-x,1/2-y,-z
1/2+x,1/2-y,z
loop_
_atom_site_type_symbol
_atom_site_label
_atom_site_fract_x
_atom_site_fract_y
_atom_site_fract_z
Si Si1 0.757343 0.168891 0.166069
Si Si2 0.178734 0.828860 0.365730
Si Si3 0.806464 0.167862 0.252637
Si Si4 0.435271 0.327133 0.827396
Si Si5 0.769128 0.669905 0.562876
Si Si6 0.201461 0.842805 0.053633
Si Si7 0.581966 0.667839 0.548890
Si Si8 0.902528 0.660875 0.059678
O O1 0.766197 0.192917 0.215187
O O2 0.642360 0.244949 0.184671
O O3 0.870806 0.236268 0.110143
O O4 0.752771 0.000000 0.154477
O O5 0.231027 0.771792 0.304980
O O6 0.240464 0.749772 0.387655
O O7 0.046706 0.790221 0.403842
O O8 0.199538 0.000000 0.363824
O O9 0.936077 0.215192 0.220128
O O10 0.790031 0.000000 0.271551
O O11 0.414817 0.500000 0.828940
O O12 0.405890 0.278788 0.887118
O O13 0.790419 0.500000 0.564250
O O14 0.652544 0.699472 0.572022
O O15 0.874201 0.733686 0.504178
O O16 0.292474 0.858957 0.064122
O O17 0.171334 0.000000 0.042197
O O18 0.250000 0.750000 0.000000
O O19 0.595481 0.500000 0.530336
O O20 0.942937 0.500000 0.064191
O O21 0.000000 0.732893 0.000000
#
# Coordination Sequence:
#
# PCOD8102058 Si02
#       8
#     8   8   8   8   8   8   8   8
#     4  10  21  37  58  84 110 138 182 237 282 326
#     4  11  23  38  57  84 116 151 193 237 281 334
#     4  10  23  41  59  80 110 150 191 234 284 335
#     4   9  20  40  59  75 107 149 182 219 278 344
#     4  10  20  36  60  88 118 154 193 234 281 332
#     4   9  18  31  50  76 103 133 169 213 267 328
#     4   9  20  38  58  84 120 157 190 229 283 340
#     4   9  19  35  53  76 107 142 176 214 272 341
#
# _framework density 19.375978
#
# number of rings (size 3 to 8) (size 9 to 14) (size 15 to 20)
#    0.000    2.375    0.000    2.250    1.750    7.750 
#    0.000    3.750    0.000    0.000    0.000    0.000 
#    0.000    0.000    0.000    0.000    0.000    0.000 
#
# Total GULP energy -396741.463811 kJ/mol
# GULP energy per Si atom -12398.170744 kJ/mol
# Density = 1.933188 g / cm^3
# Si number density = 19.375978 Si / 1000 Ang^3
#
#
#
# Elastic Constant Matrix: (Units=GPa)
#
#
# Indices 1 2 3 4 5 6 
#
# 1 72.2667 41.5101 42.2404 0.0000 2.0964 0.0000
# 2 41.5101 91.6741 57.6084 0.0000 8.1601 0.0000
# 3 42.2404 57.6084 117.1410 0.0000 4.7869 0.0000
# 4 0.0000 0.0000 0.0000 28.1260 0.0000 2.7673
# 5 2.0964 8.1601 4.7869 0.0000 26.4558 0.0000
# 6 0.0000 0.0000 0.0000 2.7673 0.0000 26.1561
#
#
#
# Elastic Compliance Matrix: (Units=1/GPa)
#
#
# Indices 1 2 3 4 5 6 
#
# 1 0.019938 -0.006636 -0.003975 0.000000 0.001186 0.000000
# 2 -0.006636 0.018322 -0.006456 0.000000 -0.003957 0.000000
# 3 -0.003975 -0.006456 0.013148 0.000000 -0.000073 0.000000
# 4 0.000000 0.000000 0.000000 0.035928 0.000000 -0.003801
# 5 0.001186 -0.003957 -0.000073 0.000000 0.038939 0.000000
# 6 0.000000 0.000000 0.000000 -0.003801 0.000000 0.038634
#
#
# Mechanical properties :
#
#
# Convention : Reuss Voigt Hill
#
# Bulk Modulus (GPa) = 57.88666 62.64441 60.26553
# Shear Modulus (GPa) = 24.41400 25.46246 24.93823
#
# Velocity S-wave (km/s) = 3.55352 3.62902 3.59147
# Velocity P-wave (km/s) = 6.83937 7.06830 6.95478
#
# Compressibility (1/GPa) = 0.01727514
#
# Stress axis : x y z
#
# Youngs Moduli (GPa) = 50.15536 54.57864 76.05787
#
# Poissons Ratio (x) = 0.36218 0.30230
# Poissons Ratio (y) = 0.33283 0.49103
# Poissons Ratio (z) = 0.19935 0.35236
#
# Static dielectric constant tensor:
#      x y z
#    x 3.497930 0.000000 -0.119530 
#    y 0.000000 3.687900 0.000000 
#    z -0.119530 0.000000 3.707500 
# 
# 
# High freq. dielectric constant tensor:
#      x y z
#    x 1.752970 0.000000 -0.003920 
#    y 0.000000 1.753830 0.000000 
#    z -0.003920 0.000000 1.756430 
# 
# From -- ./inp_files/375463.got.cif
#   From: 2010.06.25/outbox.cif.g09.slc.cpg/sg12_188_cif.got.tgz:375463.got - 2010.06.28 00:19:55.
