data_PCOD8102918
_publ_section_title
;
Structure prediction by ZEFSAII (Michael W. Deem and Ramdas Pophale) SiO2 
 PCOD8102918
Probable space group: C 2/M
;
_chemical_formula_sum "Si O2"
_cell_formula_units_Z 56
_cell_length_a 20.513518
_cell_length_b 8.855541
_cell_length_c 20.431562
_cell_angle_alpha 90.000000
_cell_angle_beta 51.429616
_cell_angle_gamma 90.000000
_cell_volume 2901.858845
_symmetry_space_group_name_H-M "C 2/M"
_symmetry_group_IT_number 12
_symmetry_cell_setting 'monoclinic'
loop_
_space_group_symop_operation_xyz
x,y,z
-x,y,-z
-x,-y,-z
x,-y,z
1/2+x,1/2+y,z
1/2-x,1/2+y,-z
1/2-x,1/2-y,-z
1/2+x,1/2-y,z
loop_
_atom_site_type_symbol
_atom_site_label
_atom_site_fract_x
_atom_site_fract_y
_atom_site_fract_z
Si Si1 0.911192 0.178049 0.745578
Si Si2 0.524409 0.320231 0.555693
Si Si3 0.184218 0.322229 0.728811
Si Si4 0.761905 0.179178 0.171143
Si Si5 0.507781 0.323548 0.815967
Si Si6 0.427226 0.677377 0.000055
Si Si7 0.290540 0.322100 0.537205
O O1 0.822890 0.259079 0.806649
O O2 0.959045 0.236912 0.651000
O O3 0.965924 0.223140 0.774103
O O4 0.896016 0.000000 0.752269
O O5 0.500000 0.254765 0.500000
O O6 0.524624 0.500000 0.553856
O O7 0.615787 0.258821 0.515846
O O8 0.187981 0.500000 0.739117
O O9 0.225016 0.238619 0.764211
O O10 0.090097 0.273177 0.774917
O O11 0.239195 0.272915 0.632765
O O12 0.837432 0.240938 0.078378
O O13 0.758356 0.000000 0.174887
O O14 0.531905 0.500000 0.802460
O O15 0.443194 0.282941 0.914331
O O16 0.426939 0.500000 0.012254
O O17 0.500000 0.749310 0.000000
O O18 0.290565 0.500000 0.528189
O O19 0.250000 0.250000 0.500000
#
# Coordination Sequence:
#
# PCOD8102918 Si02
#       7
#     8   8   8   8   8   8   8
#     4  10  21  36  56  83 112 144 186 233 279 333
#     4   9  17  33  55  75 103 145 184 217 264 326
#     4  11  22  36  57  86 116 144 185 240 286 325
#     4  11  22  37  59  82 110 149 189 229 279 340
#     4  10  20  37  60  82 111 152 191 228 279 342
#     4   9  17  34  58  82 108 143 189 231 274 334
#     4  10  21  36  56  82 111 145 184 229 277 330
#
# _framework density 19.297975000000001
#
# number of rings (size 3 to 8) (size 9 to 14) (size 15 to 20)
#    0.000    2.000    1.429    2.571    0.000    5.714 
#    0.000    2.857    0.000    1.714    0.000    0.000 
#    0.000    0.000    0.000    0.000    0.000    0.000 
#
# Total GULP energy -347256.645104 kJ/mol
# GULP energy per Si atom -12402.023039 kJ/mol
# Density = 1.925405 g / cm^3
# Si number density = 19.297975 Si / 1000 Ang^3
#
#
#
# Elastic Constant Matrix: (Units=GPa)
#
#
# Indices 1 2 3 4 5 6 
#
# 1 86.6077 7.7115 12.9944 0.0001 6.8178 0.0000
# 2 7.7115 25.4505 8.0513 0.0001 1.9869 0.0000
# 3 12.9944 8.0513 96.8032 0.0000 4.4276 0.0000
# 4 0.0001 0.0001 0.0000 20.6979 0.0000 -2.8296
# 5 6.8178 1.9869 4.4276 0.0000 37.7263 0.0000
# 6 0.0000 0.0000 0.0000 -2.8296 0.0000 28.3900
#
#
#
# Elastic Compliance Matrix: (Units=1/GPa)
#
#
# Indices 1 2 3 4 5 6 
#
# 1 0.012166 -0.003132 -0.001287 0.000000 -0.001883 0.000000
# 2 -0.003132 0.041274 -0.002955 0.000000 -0.001261 0.000000
# 3 -0.001287 -0.002955 0.010789 0.000000 -0.000878 0.000000
# 4 0.000000 0.000000 0.000000 0.048981 0.000000 0.004882
# 5 -0.001883 -0.001261 -0.000878 0.000000 0.027016 0.000000
# 6 0.000000 0.000000 0.000000 0.004882 0.000000 0.035710
#
#
# Mechanical properties :
#
#
# Convention : Reuss Voigt Hill
#
# Bulk Modulus (GPa) = 20.20930 29.59730 24.90330
# Shear Modulus (GPa) = 24.13372 29.36979 26.75175
#
# Velocity S-wave (km/s) = 3.54019 3.90540 3.72727
# Velocity P-wave (km/s) = 5.21590 5.97549 5.60857
#
# Compressibility (1/GPa) = 0.04948217
#
# Stress axis : x y z
#
# Youngs Moduli (GPa) = 82.19315 24.22821 92.68832
#
# Poissons Ratio (x) = 0.07589 0.11925
# Poissons Ratio (y) = 0.25747 0.27386
# Poissons Ratio (z) = 0.10574 0.07159
#
# Static dielectric constant tensor:
#      x y z
#    x 3.637580 0.000000 -0.007780 
#    y 0.000000 3.211420 0.000000 
#    z -0.007780 0.000000 3.923610 
# 
# 
# High freq. dielectric constant tensor:
#      x y z
#    x 1.761910 0.000000 -0.001060 
#    y 0.000000 1.717040 0.000000 
#    z -0.001060 0.000000 1.770380 
# 
# From -- ./inp_files/319641.got.cif
#   From: 2010.06.25/outbox.cif.g09.slc.cpg/sg12_160_cif.got.tgz:319641.got - 2010.06.28 00:19:55.
