data_PCOD8102722
_publ_section_title
;
Structure prediction by ZEFSAII (Michael W. Deem and Ramdas Pophale) SiO2 
 PCOD8102722
Probable space group: C 2/M
;
_chemical_formula_sum "Si O2"
_cell_formula_units_Z 56
_cell_length_a 15.075047
_cell_length_b 17.875542
_cell_length_c 21.666981
_cell_angle_alpha 90.000000
_cell_angle_beta 151.348899
_cell_angle_gamma 90.000000
_cell_volume 2799.509938
_symmetry_space_group_name_H-M "C 2/M"
_symmetry_group_IT_number 12
_symmetry_cell_setting 'monoclinic'
loop_
_space_group_symop_operation_xyz
x,y,z
-x,y,-z
-x,-y,-z
x,-y,z
1/2+x,1/2+y,z
1/2-x,1/2+y,-z
1/2-x,1/2-y,-z
1/2+x,1/2-y,z
loop_
_atom_site_type_symbol
_atom_site_label
_atom_site_fract_x
_atom_site_fract_y
_atom_site_fract_z
Si Si1 0.912821 0.296226 0.174857
Si Si2 0.321697 0.229021 0.857426
Si Si3 0.078192 0.352629 0.456564
Si Si4 0.496105 0.310871 0.423286
Si Si5 0.466205 0.677675 0.107988
Si Si6 0.674713 0.912723 0.389592
Si Si7 0.247513 0.084484 0.327385
O O1 0.831133 0.260305 0.187878
O O2 0.006422 0.233279 0.189677
O O3 0.063945 0.361500 0.273511
O O4 0.748600 0.333458 0.035378
O O5 0.424072 0.297290 0.886011
O O6 0.206149 0.181668 0.734643
O O7 0.500000 0.186323 0.000000
O O8 0.100376 0.263352 0.460811
O O9 0.068622 0.399880 0.388543
O O10 0.246491 0.388195 0.598203
O O11 0.884487 0.362487 0.373037
O O12 0.500000 0.307128 0.500000
O O13 0.614361 0.383580 0.475858
O O14 0.542535 0.596712 0.175609
O O15 0.672275 0.000000 0.368983
O O16 0.312607 0.000000 0.360724
#
# Coordination Sequence:
#
# PCOD8102722 Si02
#       7
#     8   8   8   8   8   8   8
#     4  10  21  37  60  82 116 159 198 243 293 356
#     4  10  20  37  60  88 114 146 199 252 294 346
#     4  11  20  37  56  83 115 154 197 240 291 356
#     4  12  22  39  66  86 115 157 209 250 293 349
#     4  10  20  37  58  86 113 152 205 243 289 363
#     4  12  25  37  56  89 126 155 192 245 302 358
#     4  11  20  32  55  84 119 152 185 243 307 357
#
# _framework density 20.003502000000001
#
# number of rings (size 3 to 8) (size 9 to 14) (size 15 to 20)
#    0.000    1.143    4.286    3.857    2.000    0.857 
#    0.000    0.000    0.000    4.714    0.000    0.000 
#    0.000    0.000    0.000    0.000    0.000    0.000 
#
# Total GULP energy -346924.895645 kJ/mol
# GULP energy per Si atom -12390.174844 kJ/mol
# Density = 1.995797 g / cm^3
# Si number density = 20.003502 Si / 1000 Ang^3
#
#
#
# Elastic Constant Matrix: (Units=GPa)
#
#
# Indices 1 2 3 4 5 6 
#
# 1 58.9995 18.9670 16.4749 -0.0023 -11.6392 0.0006
# 2 18.9670 80.0732 37.9748 -0.0143 -1.6620 -0.0005
# 3 16.4749 37.9748 142.5746 -0.0072 -12.6189 -0.0004
# 4 -0.0023 -0.0143 -0.0072 13.0924 -0.0004 3.6118
# 5 -11.6392 -1.6620 -12.6189 -0.0004 23.6629 0.0013
# 6 0.0006 -0.0005 -0.0004 3.6118 0.0013 17.5529
#
#
#
# Elastic Compliance Matrix: (Units=1/GPa)
#
#
# Indices 1 2 3 4 5 6 
#
# 1 0.020356 -0.004473 -0.000317 -0.000001 0.009529 -0.000001
# 2 -0.004473 0.015303 -0.003840 0.000014 -0.003173 -0.000002
# 3 -0.000317 -0.003840 0.008434 0.000001 0.004072 0.000000
# 4 -0.000001 0.000014 0.000001 0.080977 0.000003 -0.016662
# 5 0.009529 -0.003173 0.004072 0.000003 0.048896 -0.000005
# 6 -0.000001 -0.000002 0.000000 -0.016662 -0.000005 0.060399
#
#
# Mechanical properties :
#
#
# Convention : Reuss Voigt Hill
#
# Bulk Modulus (GPa) = 37.26959 47.60897 42.43928
# Shear Modulus (GPa) = 19.18866 24.74366 21.96616
#
# Velocity S-wave (km/s) = 3.10056 3.52087 3.31738
# Velocity P-wave (km/s) = 5.61159 6.35458 5.99461
#
# Compressibility (1/GPa) = 0.02683153
#
# Stress axis : x y z
#
# Youngs Moduli (GPa) = 49.12589 65.34455 118.57181
#
# Poissons Ratio (x) = 0.29232 0.03762
# Poissons Ratio (y) = 0.21976 0.45532
# Poissons Ratio (z) = 0.01559 0.25093
#
# Static dielectric constant tensor:
#      x y z
#    x 3.597180 0.000000 -0.206910 
#    y 0.000000 3.215750 -0.000010 
#    z -0.206910 -0.000010 4.169000 
# 
# 
# High freq. dielectric constant tensor:
#      x y z
#    x 1.781930 0.000000 -0.011070 
#    y 0.000000 1.733290 0.000000 
#    z -0.011070 0.000000 1.800760 
# 
# From -- ./inp_files/311724.got.cif
#   From: 2010.06.25/outbox.cif.g09.slc.cpg/sg12_156_cif.got.tgz:311724.got - 2010.06.28 00:19:55.
