data_PCOD8102946
_publ_section_title
;
Structure prediction by ZEFSAII (Michael W. Deem and Ramdas Pophale) SiO2 
 PCOD8102946
Probable space group: C 2/M
;
_chemical_formula_sum "Si O2"
_cell_formula_units_Z 48
_cell_length_a 18.777679
_cell_length_b 8.935784
_cell_length_c 29.528863
_cell_angle_alpha 90.000000
_cell_angle_beta 30.041915
_cell_angle_gamma 90.000000
_cell_volume 2480.510832
_symmetry_space_group_name_H-M "C 2/M"
_symmetry_group_IT_number 12
_symmetry_cell_setting 'monoclinic'
loop_
_space_group_symop_operation_xyz
x,y,z
-x,y,-z
-x,-y,-z
x,-y,z
1/2+x,1/2+y,z
1/2-x,1/2+y,-z
1/2-x,1/2-y,-z
1/2+x,1/2-y,z
loop_
_atom_site_type_symbol
_atom_site_label
_atom_site_fract_x
_atom_site_fract_y
_atom_site_fract_z
Si Si1 0.905557 0.178837 0.915668
Si Si2 0.611681 0.176622 0.251713
Si Si3 0.863205 0.167575 0.554088
Si Si4 0.608560 0.333604 0.566580
Si Si5 0.432000 0.677636 0.083303
Si Si6 0.050287 0.321527 0.749602
O O1 0.982766 0.233122 0.919346
O O2 0.998428 0.238059 0.822882
O O3 0.893158 0.000000 0.920352
O O4 0.750000 0.250000 0.000000
O O5 0.524823 0.247332 0.340235
O O6 0.770728 0.236114 0.171858
O O7 0.552353 0.225698 0.235315
O O8 0.600041 0.000000 0.262846
O O9 0.900850 0.162599 0.481415
O O10 0.709336 0.239485 0.650188
O O11 0.000000 0.254333 0.500000
O O12 0.855827 0.000000 0.578383
O O13 0.612943 0.500000 0.584773
O O14 0.750000 0.250000 0.500000
O O15 0.435318 0.500000 0.080106
O O16 0.500000 0.743780 0.000000
O O17 0.045384 0.500000 0.759464
#
# Coordination Sequence:
#
# PCOD8102946 Si02
#       6
#     8   8   8   8   8   8
#     4  11  23  39  60  87 115 147 186 230 284 339
#     4  10  20  37  60  85 113 149 193 235 281 336
#     4   9  19  35  55  81 114 154 194 230 276 336
#     4  11  21  36  58  84 114 153 195 236 281 330
#     4   9  19  37  61  84 110 146 187 230 279 338
#     4  10  20  37  60  83 113 154 191 228 281 336
#
# _framework density 19.350853000000001
#
# number of rings (size 3 to 8) (size 9 to 14) (size 15 to 20)
#    0.000    2.000    1.667    2.000    2.333    3.333 
#    0.000    0.833    0.000    6.000    0.000    0.000 
#    0.000    0.000    0.000    0.000    0.000    0.000 
#
# Total GULP energy -297507.477105 kJ/mol
# GULP energy per Si atom -12396.144879 kJ/mol
# Density = 1.930681 g / cm^3
# Si number density = 19.350853 Si / 1000 Ang^3
#
#
#
# Elastic Constant Matrix: (Units=GPa)
#
#
# Indices 1 2 3 4 5 6 
#
# 1 149.6951 34.6166 93.9437 -0.0001 -19.6099 0.0001
# 2 34.6166 34.6049 39.4609 -0.0003 -2.6526 0.0005
# 3 93.9437 39.4609 191.0039 -0.0009 -9.1230 0.0000
# 4 -0.0001 -0.0003 -0.0009 30.5555 0.0000 7.9680
# 5 -19.6099 -2.6526 -9.1230 0.0000 43.7221 -0.0001
# 6 0.0001 0.0005 0.0000 7.9680 -0.0001 21.1655
#
#
#
# Elastic Compliance Matrix: (Units=1/GPa)
#
#
# Indices 1 2 3 4 5 6 
#
# 1 0.011140 -0.006295 -0.003998 0.000000 0.003780 0.000000
# 2 -0.006295 0.041380 -0.005523 0.000001 -0.001465 -0.000001
# 3 -0.003998 -0.005523 0.008324 0.000000 -0.000391 0.000000
# 4 0.000000 0.000001 0.000000 0.036290 0.000000 -0.013662
# 5 0.003780 -0.001465 -0.000391 0.000000 0.024397 0.000000
# 6 0.000000 -0.000001 0.000000 -0.013662 0.000000 0.052390
#
#
# Mechanical properties :
#
#
# Convention : Reuss Voigt Hill
#
# Bulk Modulus (GPa) = 34.23158 79.03849 56.63503
# Shear Modulus (GPa) = 23.22430 32.90745 28.06587
#
# Velocity S-wave (km/s) = 3.46810 4.12827 3.81250
# Velocity P-wave (km/s) = 5.81080 7.97854 6.97934
#
# Compressibility (1/GPa) = 0.02921279
#
# Stress axis : x y z
#
# Youngs Moduli (GPa) = 89.76417 24.16598 120.13057
#
# Poissons Ratio (x) = 0.15213 0.48030
# Poissons Ratio (y) = 0.56507 0.66347
# Poissons Ratio (z) = 0.35889 0.13347
#
# Static dielectric constant tensor:
#      x y z
#    x 3.676470 0.000000 -0.130440 
#    y 0.000000 3.359650 0.000000 
#    z -0.130440 0.000000 3.771100 
# 
# 
# High freq. dielectric constant tensor:
#      x y z
#    x 1.766640 0.000000 -0.004240 
#    y 0.000000 1.717570 0.000000 
#    z -0.004240 0.000000 1.773440 
# 
# From -- ./inp_files/295354.got.cif
#   From: 2010.06.25/outbox.cif.g09.slc.cpg/sg12_148_cif.got.tgz:295354.got - 2010.06.28 00:19:55.
