data_PCOD8102133
_publ_section_title
;
Structure prediction by ZEFSAII (Michael W. Deem and Ramdas Pophale) SiO2 
 PCOD8102133
Probable space group: C 2/M
;
_chemical_formula_sum "Si O2"
_cell_formula_units_Z 64
_cell_length_a 18.577288
_cell_length_b 8.632510
_cell_length_c 20.950417
_cell_angle_alpha 90.000000
_cell_angle_beta 73.795882
_cell_angle_gamma 90.000000
_cell_volume 3226.317317
_symmetry_space_group_name_H-M "C 2/M"
_symmetry_group_IT_number 12
_symmetry_cell_setting 'monoclinic'
loop_
_space_group_symop_operation_xyz
x,y,z
-x,y,-z
-x,-y,-z
x,-y,z
1/2+x,1/2+y,z
1/2-x,1/2+y,-z
1/2-x,1/2-y,-z
1/2+x,1/2-y,z
loop_
_atom_site_type_symbol
_atom_site_label
_atom_site_fract_x
_atom_site_fract_y
_atom_site_fract_z
Si Si1 0.374247 0.818615 0.869541
Si Si2 0.405689 0.823072 0.318293
Si Si3 0.673255 0.823298 0.333149
Si Si4 0.574022 0.317368 0.019008
Si Si5 0.562777 0.322268 0.273239
Si Si6 0.788703 0.679367 0.089350
Si Si7 0.770390 0.817658 0.427088
Si Si8 0.302352 0.174401 0.229687
O O1 0.401111 0.779249 0.791748
O O2 0.288317 0.770659 0.901550
O O3 0.382407 0.000000 0.878777
O O4 0.429320 0.731475 0.905845
O O5 0.476502 0.713046 0.306696
O O6 0.344008 0.768362 0.383997
O O7 0.377184 0.806505 0.252711
O O8 0.427461 0.000000 0.328412
O O9 0.604196 0.715453 0.329771
O O10 0.700622 0.780708 0.397542
O O11 0.741345 0.798041 0.267185
O O12 0.647065 0.000000 0.335413
O O13 0.580913 0.500000 0.009912
O O14 0.648922 0.239033 0.974057
O O15 0.500000 0.257171 0.000000
O O16 0.573714 0.500000 0.252140
O O17 0.772031 0.500000 0.080027
O O18 0.822057 0.707393 0.151658
O O19 0.750000 0.750000 0.500000
O O20 0.786340 0.000000 0.426471
O O21 0.269446 0.000000 0.246407
#
# Coordination Sequence:
#
# PCOD8102133 Si02
#       8
#     8   8   8   8   8   8   8   8
#     4  12  25  42  64  88 117 158 203 249 304 364
#     4  10  21  38  60  90 125 161 201 247 299 353
#     4  10  20  36  60  90 122 157 200 244 290 348
#     4  11  26  45  62  86 119 156 200 252 308 365
#     4  12  24  39  60  90 126 160 199 250 305 358
#     4  11  22  39  63  90 119 154 200 248 301 364
#     4  10  21  39  64  94 126 164 205 246 293 351
#     4   9  19  35  58  87 117 153 196 243 294 353
#
# _framework density 19.836860000000001
#
# number of rings (size 3 to 8) (size 9 to 14) (size 15 to 20)
#    0.000    1.375    1.250    4.500    1.750    3.500 
#    0.000    0.625    0.000    3.750    0.000    0.000 
#    0.000    0.000    0.000    0.000    0.000    0.000 
#
# Total GULP energy -396928.945861 kJ/mol
# GULP energy per Si atom -12404.029558 kJ/mol
# Density = 1.979171 g / cm^3
# Si number density = 19.836860 Si / 1000 Ang^3
#
#
#
# Elastic Constant Matrix: (Units=GPa)
#
#
# Indices 1 2 3 4 5 6 
#
# 1 104.1862 25.7063 33.7553 0.0000 12.6113 0.0000
# 2 25.7063 69.1760 22.4586 0.0000 9.5664 0.0000
# 3 33.7553 22.4586 97.4572 0.0000 13.7421 0.0000
# 4 0.0000 0.0000 0.0000 30.6170 0.0000 -1.1846
# 5 12.6113 9.5664 13.7421 0.0000 23.2144 0.0000
# 6 0.0000 0.0000 0.0000 -1.1846 0.0000 33.7686
#
#
#
# Elastic Compliance Matrix: (Units=1/GPa)
#
#
# Indices 1 2 3 4 5 6 
#
# 1 0.011669 -0.002926 -0.002884 0.000000 -0.003426 0.000000
# 2 -0.002926 0.016843 -0.002306 0.000000 -0.003986 0.000000
# 3 -0.002884 -0.002306 0.012478 0.000000 -0.004869 0.000000
# 4 0.000000 0.000000 0.000000 0.032706 0.000000 0.001147
# 5 -0.003426 -0.003986 -0.004869 0.000000 0.049463 0.000000
# 6 0.000000 0.000000 0.000000 0.001147 0.000000 0.029654
#
#
# Mechanical properties :
#
#
# Convention : Reuss Voigt Hill
#
# Bulk Modulus (GPa) = 40.39152 48.29554 44.34353
# Shear Modulus (GPa) = 28.20105 30.11331 29.15718
#
# Velocity S-wave (km/s) = 3.77457 3.90044 3.83802
# Velocity P-wave (km/s) = 6.27714 6.68459 6.48407
#
# Compressibility (1/GPa) = 0.02475767
#
# Stress axis : x y z
#
# Youngs Moduli (GPa) = 85.69400 59.37135 80.14156
#
# Poissons Ratio (x) = 0.17373 0.23116
# Poissons Ratio (y) = 0.25076 0.18479
# Poissons Ratio (z) = 0.24718 0.13690
#
# Static dielectric constant tensor:
#      x y z
#    x 5.516290 0.000000 3.787890 
#    y 0.000000 3.677030 0.000000 
#    z 3.787890 0.000000 10.148180 
# 
# 
# High freq. dielectric constant tensor:
#      x y z
#    x 1.771520 0.000000 0.017090 
#    y 0.000000 1.785220 0.000000 
#    z 0.017090 0.000000 1.768820 
# 
# From -- ./inp_files/314051.got.cif
#   From: 2010.06.25/outbox.cif.g09.slc.cpg/sg12_158_cif.got.tgz:314051.got - 2010.06.28 00:19:55.
