data_PCOD8102775
_publ_section_title
;
Structure prediction by ZEFSAII (Michael W. Deem and Ramdas Pophale) SiO2 
 PCOD8102775
Probable space group: C 2/M
;
_chemical_formula_sum "Si O2"
_cell_formula_units_Z 64
_cell_length_a 20.268761
_cell_length_b 8.928354
_cell_length_c 21.412620
_cell_angle_alpha 90.000000
_cell_angle_beta 118.225830
_cell_angle_gamma 90.000000
_cell_volume 3414.199124
_symmetry_space_group_name_H-M "C 2/M"
_symmetry_group_IT_number 12
_symmetry_cell_setting 'monoclinic'
loop_
_space_group_symop_operation_xyz
x,y,z
-x,y,-z
-x,-y,-z
x,-y,z
1/2+x,1/2+y,z
1/2-x,1/2+y,-z
1/2-x,1/2-y,-z
1/2+x,1/2-y,z
loop_
_atom_site_type_symbol
_atom_site_label
_atom_site_fract_x
_atom_site_fract_y
_atom_site_fract_z
Si Si1 0.951542 0.677213 0.293152
Si Si2 0.910758 0.825842 0.711375
Si Si3 0.326520 0.328087 0.550959
Si Si4 0.658859 0.674558 0.842138
Si Si5 0.916552 0.327758 0.839615
Si Si6 0.169913 0.671562 0.074340
Si Si7 0.071892 0.175032 0.928729
Si Si8 0.519919 0.322967 0.438815
O O1 0.955489 0.500000 0.297610
O O2 0.872132 0.730825 0.230258
O O3 0.015019 0.739511 0.275705
O O4 0.961119 0.742017 0.367116
O O5 0.844516 0.800340 0.631921
O O6 0.884507 0.762959 0.766038
O O7 0.931977 0.000000 0.726361
O O8 0.314256 0.500000 0.530263
O O9 0.250000 0.250000 0.500000
O O10 0.395851 0.268018 0.540056
O O11 0.652037 0.500000 0.822664
O O12 0.744198 0.721278 0.891777
O O13 0.613218 0.717748 0.883435
O O14 0.927340 0.500000 0.825516
O O15 0.855434 0.308156 0.865894
O O16 0.995020 0.264700 0.899000
O O17 0.158709 0.500000 0.047254
O O18 0.123162 0.780576 0.009632
O O19 0.054102 0.000000 0.924472
O O20 0.500000 0.275925 0.500000
O O21 0.513036 0.500000 0.424507
#
# Coordination Sequence:
#
# PCOD8102775 Si02
#       8
#     8   8   8   8   8   8   8   8
#     4  11  21  34  58  88 114 146 188 236 280 326
#     4  10  20  37  59  82 111 150 192 230 274 333
#     4   9  19  35  57  84 112 145 183 225 275 327
#     4  10  21  39  59  80 112 152 190 229 280 337
#     4  11  22  37  58  84 112 146 190 235 280 330
#     4  10  23  40  56  80 115 150 186 234 284 333
#     4  11  22  36  60  85 108 147 192 233 280 338
#     4   9  19  38  61  83 112 151 191 228 273 331
#
# _framework density 18.745246000000002
#
# number of rings (size 3 to 8) (size 9 to 14) (size 15 to 20)
#    0.000    1.875    1.250    3.750    0.000    6.250 
#    2.250    0.000    0.000    0.000    0.000    0.000 
#    0.000    0.000    0.000    0.000    0.000    0.000 
#
# Total GULP energy -396920.390718 kJ/mol
# GULP energy per Si atom -12403.762210 kJ/mol
# Density = 1.870258 g / cm^3
# Si number density = 18.745246 Si / 1000 Ang^3
#
#
#
# Elastic Constant Matrix: (Units=GPa)
#
#
# Indices 1 2 3 4 5 6 
#
# 1 51.4536 22.8803 25.2700 0.0000 2.2923 0.0000
# 2 22.8803 72.6073 45.2063 0.0000 -3.7892 0.0000
# 3 25.2700 45.2063 111.6679 0.0000 -4.6883 0.0000
# 4 0.0000 0.0000 0.0000 35.5883 0.0000 -0.4871
# 5 2.2923 -3.7892 -4.6883 0.0000 27.7530 0.0000
# 6 0.0000 0.0000 0.0000 -0.4871 0.0000 24.0823
#
#
#
# Elastic Compliance Matrix: (Units=1/GPa)
#
#
# Indices 1 2 3 4 5 6 
#
# 1 0.023660 -0.005625 -0.003214 0.000000 -0.003265 0.000000
# 2 -0.005625 0.019795 -0.006655 0.000000 0.002043 0.000000
# 3 -0.003214 -0.006655 0.012438 0.000000 0.001458 0.000000
# 4 0.000000 0.000000 0.000000 0.028107 0.000000 0.000568
# 5 -0.003265 0.002043 0.001458 0.000000 0.036827 0.000000
# 6 0.000000 0.000000 0.000000 0.000568 0.000000 0.041536
#
#
# Mechanical properties :
#
#
# Convention : Reuss Voigt Hill
#
# Bulk Modulus (GPa) = 40.15257 46.93800 43.54528
# Shear Modulus (GPa) = 24.79499 26.97622 25.88560
#
# Velocity S-wave (km/s) = 3.64089 3.79766 3.72010
# Velocity P-wave (km/s) = 6.25631 6.65762 6.46008
#
# Compressibility (1/GPa) = 0.02490501
#
# Stress axis : x y z
#
# Youngs Moduli (GPa) = 42.26478 50.51657 80.40009
#
# Poissons Ratio (x) = 0.28417 0.25841
# Poissons Ratio (y) = 0.23775 0.53506
# Poissons Ratio (z) = 0.13584 0.33619
#
# Static dielectric constant tensor:
#      x y z
#    x 3.413880 0.000000 -0.064270 
#    y 0.000000 3.450340 0.000000 
#    z -0.064270 0.000000 3.547750 
# 
# 
# High freq. dielectric constant tensor:
#      x y z
#    x 1.717830 0.000000 -0.001270 
#    y 0.000000 1.729730 0.000000 
#    z -0.001270 0.000000 1.738010 
# 
# From -- ./inp_files/320075.got.cif
#   From: 2010.06.25/outbox.cif.g09.slc.cpg/sg12_161_cif.got.tgz:320075.got - 2010.06.28 00:19:55.
