data_PCOD8102532
_publ_section_title
;
Structure prediction by ZEFSAII (Michael W. Deem and Ramdas Pophale) SiO2 
 PCOD8102532
Probable space group: C 2/M
;
_chemical_formula_sum "Si O2"
_cell_formula_units_Z 56
_cell_length_a 11.419841
_cell_length_b 29.678781
_cell_length_c 9.729273
_cell_angle_alpha 90.000000
_cell_angle_beta 115.997622
_cell_angle_gamma 90.000000
_cell_volume 2963.844975
_symmetry_space_group_name_H-M "C 2/M"
_symmetry_group_IT_number 12
_symmetry_cell_setting 'monoclinic'
loop_
_space_group_symop_operation_xyz
x,y,z
-x,y,-z
-x,-y,-z
x,-y,z
1/2+x,1/2+y,z
1/2-x,1/2+y,-z
1/2-x,1/2-y,-z
1/2+x,1/2-y,z
loop_
_atom_site_type_symbol
_atom_site_label
_atom_site_fract_x
_atom_site_fract_y
_atom_site_fract_z
Si Si1 0.400367 0.948812 0.072523
Si Si2 0.764194 0.320367 0.159727
Si Si3 0.605084 0.734642 0.660765
Si Si4 0.514008 0.115543 0.658163
Si Si5 0.439691 0.659128 0.725067
Si Si6 0.197470 0.878128 0.879318
Si Si7 0.753184 0.657163 0.615282
O O1 0.477823 0.927239 0.238850
O O2 0.362727 0.000000 0.087493
O O3 0.500000 0.945304 0.000000
O O4 0.265562 0.922833 0.972452
O O5 0.829756 0.271482 0.207171
O O6 0.629157 0.322462 0.173721
O O7 0.853448 0.357060 0.277797
O O8 0.746250 0.333833 0.990579
O O9 0.500000 0.756338 0.500000
O O10 0.531915 0.698685 0.716603
O O11 0.720531 0.709388 0.634365
O O12 0.500000 0.095027 0.500000
O O13 0.401158 0.150837 0.643374
O O14 0.539960 0.618428 0.814481
O O15 0.341744 0.641613 0.557182
O O16 0.233045 0.873838 0.737942
#
# Coordination Sequence:
#
# PCOD8102532 Si02
#       7
#     8   8   8   8   8   8   8
#     4  10  21  39  65  91 114 145 182 235 298 352
#     4  11  22  33  56  84 113 156 198 241 284 326
#     4   9  21  34  54  80 116 157 201 245 278 325
#     4  11  21  36  60  89 115 152 191 239 288 341
#     4  10  21  37  55  80 113 159 197 233 282 337
#     4  10  21  39  59  80 114 147 189 232 287 348
#     4  10  20  37  56  81 112 157 195 231 283 336
#
# _framework density 18.894375
#
# number of rings (size 3 to 8) (size 9 to 14) (size 15 to 20)
#    0.000    1.857    2.857    2.143    2.000    3.714 
#    0.000    0.000    0.000    9.429    0.000    0.000 
#    0.000    0.000    0.000    0.000    0.000    0.000 
#
# Total GULP energy -347090.650532 kJ/mol
# GULP energy per Si atom -12396.094662 kJ/mol
# Density = 1.885137 g / cm^3
# Si number density = 18.894375 Si / 1000 Ang^3
#
#
#
# Elastic Constant Matrix: (Units=GPa)
#
#
# Indices 1 2 3 4 5 6 
#
# 1 88.2153 26.4265 24.9100 0.0000 -0.6459 0.0000
# 2 26.4265 86.0131 37.9684 0.0000 5.1130 0.0000
# 3 24.9100 37.9684 90.0904 0.0000 5.3963 0.0000
# 4 0.0000 0.0000 0.0000 3.8264 0.0000 3.2580
# 5 -0.6459 5.1130 5.3963 0.0000 30.0476 0.0000
# 6 0.0000 0.0000 0.0000 3.2580 0.0000 20.4776
#
#
#
# Elastic Compliance Matrix: (Units=1/GPa)
#
#
# Indices 1 2 3 4 5 6 
#
# 1 0.012913 -0.002987 -0.002384 0.000000 0.001214 0.000000
# 2 -0.002987 0.015030 -0.005410 0.000000 -0.001650 0.000000
# 3 -0.002384 -0.005410 0.014139 0.000000 -0.001670 0.000000
# 4 0.000000 0.000000 0.000000 0.302293 0.000000 -0.048096
# 5 0.001214 -0.001650 -0.001670 0.000000 0.033887 0.000000
# 6 0.000000 0.000000 0.000000 -0.048096 0.000000 0.056486
#
#
# Mechanical properties :
#
#
# Convention : Reuss Voigt Hill
#
# Bulk Modulus (GPa) = 48.73256 49.21432 48.97344
# Shear Modulus (GPa) = 10.79563 22.53791 16.66677
#
# Velocity S-wave (km/s) = 2.39292 3.45749 2.97324
# Velocity P-wave (km/s) = 5.78644 6.48403 6.14514
#
# Compressibility (1/GPa) = 0.02052016
#
# Stress axis : x y z
#
# Youngs Moduli (GPa) = 77.44214 66.53410 70.72592
#
# Poissons Ratio (x) = 0.19874 0.16863
# Poissons Ratio (y) = 0.23132 0.38260
# Poissons Ratio (z) = 0.18464 0.35992
#
# Static dielectric constant tensor:
#      x y z
#    x 3.606100 0.000000 0.170130 
#    y 0.000000 3.166410 0.000000 
#    z 0.170130 0.000000 3.836990 
# 
# 
# High freq. dielectric constant tensor:
#      x y z
#    x 1.742210 0.000000 0.002380 
#    y 0.000000 1.688170 0.000000 
#    z 0.002380 0.000000 1.755210 
# 
# From -- ./inp_files/54578.got.cif
#   From: 2010.06.25/outbox.cif.g09.slc.cpg/sg12_28_cif.got.tgz:54578.got - 2010.06.28 00:19:55.
