data_PCOD8102321
_publ_section_title
;
Structure prediction by ZEFSAII (Michael W. Deem and Ramdas Pophale) SiO2 
 PCOD8102321
Probable space group: C 2/M
;
_chemical_formula_sum "Si O2"
_cell_formula_units_Z 64
_cell_length_a 9.304600
_cell_length_b 19.286557
_cell_length_c 21.364164
_cell_angle_alpha 90.000000
_cell_angle_beta 53.845122
_cell_angle_gamma 90.000000
_cell_volume 3095.569828
_symmetry_space_group_name_H-M "C 2/M"
_symmetry_group_IT_number 12
_symmetry_cell_setting 'monoclinic'
loop_
_space_group_symop_operation_xyz
x,y,z
-x,y,-z
-x,-y,-z
x,-y,z
1/2+x,1/2+y,z
1/2-x,1/2+y,-z
1/2-x,1/2-y,-z
1/2+x,1/2-y,z
loop_
_atom_site_type_symbol
_atom_site_label
_atom_site_fract_x
_atom_site_fract_y
_atom_site_fract_z
Si Si1 0.706712 0.702075 0.796478
Si Si2 0.347630 0.785960 0.892323
Si Si3 0.905920 0.177086 0.585607
Si Si4 0.687575 0.854247 0.973410
Si Si5 0.011500 0.079784 0.324385
Si Si6 0.524421 0.578926 0.182063
Si Si7 0.108015 0.578199 0.408940
Si Si8 0.027388 0.703160 0.629752
O O1 0.551619 0.759591 0.840968
O O2 0.790249 0.682004 0.841573
O O3 0.641595 0.630010 0.783442
O O4 0.867121 0.732424 0.714116
O O5 0.215733 0.721970 0.938059
O O6 0.311449 0.847240 0.951592
O O7 0.892135 0.122479 0.645843
O O8 0.031221 0.242671 0.571287
O O9 0.708585 0.204314 0.622030
O O10 0.000000 0.143445 0.500000
O O11 0.834001 0.906896 0.909206
O O12 0.500000 0.884624 0.000000
O O13 0.103233 0.091351 0.232226
O O14 0.807237 0.104812 0.371187
O O15 0.022052 0.000000 0.342027
O O16 0.456561 0.500000 0.193665
O O17 0.112646 0.500000 0.380835
O O18 0.009351 0.625319 0.383445
O O19 0.000000 0.581928 0.500000
#
# Coordination Sequence:
#
# PCOD8102321 Si02
#       8
#     8   8   8   8   8   8   8   8
#     4  11  22  38  63  89 125 159 205 258 307 368
#     4  10  21  36  58  94 121 157 201 254 310 357
#     4  12  26  41  61  92 132 168 207 265 323 374
#     4  10  20  36  62  87 126 159 202 251 303 367
#     4  10  22  43  65  88 124 167 213 257 314 378
#     4  10  23  41  64  89 122 167 206 251 310 371
#     4  10  20  38  65  91 119 162 212 256 306 374
#     4  12  24  38  62  92 127 165 209 259 318 380
#
# _framework density 20.674706
#
# number of rings (size 3 to 8) (size 9 to 14) (size 15 to 20)
#    0.000    1.375    2.500    3.000    3.500    2.000 
#    0.000    1.250    0.000    0.000    0.000    0.000 
#    0.000    0.000    0.000    0.000    0.000    0.000 
#
# Total GULP energy -396824.667855 kJ/mol
# GULP energy per Si atom -12400.770870 kJ/mol
# Density = 2.062765 g / cm^3
# Si number density = 20.674706 Si / 1000 Ang^3
#
#
#
# Elastic Constant Matrix: (Units=GPa)
#
#
# Indices 1 2 3 4 5 6 
#
# 1 123.8031 41.9484 37.7814 -0.0001 12.6486 0.0005
# 2 41.9484 78.3574 29.4112 0.0000 16.4382 0.0001
# 3 37.7814 29.4112 108.8646 0.0000 9.3791 0.0000
# 4 -0.0001 0.0000 0.0000 29.5417 0.0000 8.4304
# 5 12.6486 16.4382 9.3791 0.0000 39.7243 -0.0001
# 6 0.0005 0.0001 0.0000 8.4304 -0.0001 25.2406
#
#
#
# Elastic Compliance Matrix: (Units=1/GPa)
#
#
# Indices 1 2 3 4 5 6 
#
# 1 0.010405 -0.004513 -0.002314 0.000000 -0.000899 0.000000
# 2 -0.004513 0.017238 -0.002654 0.000000 -0.005070 0.000000
# 3 -0.002314 -0.002654 0.010767 0.000000 -0.000707 0.000000
# 4 0.000000 0.000000 0.000000 0.037417 0.000000 -0.012497
# 5 -0.000899 -0.005070 -0.000707 0.000000 0.027725 0.000000
# 6 0.000000 0.000000 0.000000 -0.012497 0.000000 0.043793
#
#
# Mechanical properties :
#
#
# Convention : Reuss Voigt Hill
#
# Bulk Modulus (GPa) = 51.42226 58.81190 55.11708
# Shear Modulus (GPa) = 28.93726 32.36026 30.64876
#
# Velocity S-wave (km/s) = 3.74524 3.96057 3.85441
# Velocity P-wave (km/s) = 6.60519 7.03014 6.82097
#
# Compressibility (1/GPa) = 0.01944683
#
# Stress axis : x y z
#
# Youngs Moduli (GPa) = 96.11214 58.01259 92.87796
#
# Poissons Ratio (x) = 0.26180 0.21494
# Poissons Ratio (y) = 0.43373 0.24650
# Poissons Ratio (z) = 0.22243 0.15397
#
# Static dielectric constant tensor:
#      x y z
#    x 3.636150 0.000000 0.051160 
#    y 0.000000 3.526890 0.000000 
#    z 0.051160 0.000000 3.998060 
# 
# 
# High freq. dielectric constant tensor:
#      x y z
#    x 1.801270 0.000000 0.002260 
#    y 0.000000 1.787620 0.000000 
#    z 0.002260 0.000000 1.828110 
# 
# From -- ./inp_files/301693.got.cif
#   From: 2010.06.25/outbox.cif.g09.slc.cpg/sg12_151_cif.got.tgz:301693.got - 2010.06.28 00:19:55.
