data_PCOD8102729
_publ_section_title
;
Structure prediction by ZEFSAII (Michael W. Deem and Ramdas Pophale) SiO2 
 PCOD8102729
Probable space group: C 2/M
;
_chemical_formula_sum "Si O2"
_cell_formula_units_Z 48
_cell_length_a 21.247264
_cell_length_b 17.325017
_cell_length_c 9.603904
_cell_angle_alpha 90.000000
_cell_angle_beta 135.568529
_cell_angle_gamma 90.000000
_cell_volume 2474.896688
_symmetry_space_group_name_H-M "C 2/M"
_symmetry_group_IT_number 12
_symmetry_cell_setting 'monoclinic'
loop_
_space_group_symop_operation_xyz
x,y,z
-x,y,-z
-x,-y,-z
x,-y,z
1/2+x,1/2+y,z
1/2-x,1/2+y,-z
1/2-x,1/2-y,-z
1/2+x,1/2-y,z
loop_
_atom_site_type_symbol
_atom_site_label
_atom_site_fract_x
_atom_site_fract_y
_atom_site_fract_z
Si Si1 0.289316 0.676141 0.908380
Si Si2 0.645323 0.189376 0.456434
Si Si3 0.711306 0.646136 0.533690
Si Si4 0.294084 0.856023 0.945312
Si Si5 0.903748 0.086823 0.884458
Si Si6 0.489342 0.910698 0.321482
O O1 0.201086 0.660962 0.677573
O O2 0.272309 0.634600 0.028420
O O3 0.372487 0.636883 0.964796
O O4 0.314982 0.765573 0.960664
O O5 0.642470 0.282550 0.452714
O O6 0.694228 0.169356 0.388732
O O7 0.549251 0.146597 0.319284
O O8 0.660458 0.587046 0.352737
O O9 0.740522 0.609519 0.727633
O O10 0.386237 0.901840 0.112580
O O11 0.912106 0.000000 0.951172
O O12 0.000000 0.121967 0.000000
O O13 0.500000 0.887257 0.500000
O O14 0.518628 0.000000 0.344352
#
# Coordination Sequence:
#
# PCOD8102729 Si02
#       6
#     8   8   8   8   8   8
#     4   9  19  37  60  83 114 158 195 235 281 344
#     4   9  18  37  56  83 114 155 199 226 280 344
#     4   9  20  37  59  82 112 151 196 245 281 328
#     4  10  20  37  58  88 117 148 200 236 282 342
#     4  10  22  39  59  85 110 147 195 237 293 347
#     4  11  23  36  56  89 125 157 189 230 291 361
#
# _framework density 19.394749000000001
#
# number of rings (size 3 to 8) (size 9 to 14) (size 15 to 20)
#    0.000    2.333    1.667    1.000    2.333    4.667 
#    0.000    1.667    0.000    2.000    0.000    0.000 
#    0.000    0.000    0.000    0.000    0.000    0.000 
#
# Total GULP energy -297514.234626 kJ/mol
# GULP energy per Si atom -12396.426443 kJ/mol
# Density = 1.935061 g / cm^3
# Si number density = 19.394749 Si / 1000 Ang^3
#
#
#
# Elastic Constant Matrix: (Units=GPa)
#
#
# Indices 1 2 3 4 5 6 
#
# 1 127.2133 46.8028 40.9505 0.0000 -5.5707 0.0000
# 2 46.8028 54.6898 7.5891 0.0000 4.3410 0.0000
# 3 40.9505 7.5891 83.6457 0.0000 -13.9484 0.0000
# 4 0.0000 0.0000 0.0000 20.3283 0.0000 9.3212
# 5 -5.5707 4.3410 -13.9484 0.0000 34.9849 0.0000
# 6 0.0000 0.0000 0.0000 9.3212 0.0000 16.0039
#
#
#
# Elastic Compliance Matrix: (Units=1/GPa)
#
#
# Indices 1 2 3 4 5 6 
#
# 1 0.013800 -0.011155 -0.005513 0.000000 0.001383 0.000000
# 2 -0.011155 0.027870 0.002206 0.000000 -0.004355 0.000000
# 3 -0.005513 0.002206 0.015278 0.000000 0.004940 0.000000
# 4 0.000000 0.000000 0.000000 0.067117 0.000000 -0.039091
# 5 0.001383 -0.004355 0.004940 0.000000 0.031314 0.000000
# 6 0.000000 0.000000 0.000000 -0.039091 0.000000 0.085253
#
#
# Mechanical properties :
#
#
# Convention : Reuss Voigt Hill
#
# Bulk Modulus (GPa) = 35.68282 50.69263 43.18773
# Shear Modulus (GPa) = 17.92771 25.61050 21.76910
#
# Velocity S-wave (km/s) = 3.04363 3.63779 3.35389
# Velocity P-wave (km/s) = 5.54884 6.62108 6.10854
#
# Compressibility (1/GPa) = 0.02802469
#
# Stress axis : x y z
#
# Youngs Moduli (GPa) = 72.46353 35.88029 65.45384
#
# Poissons Ratio (x) = 0.40023 0.36087
# Poissons Ratio (y) = 0.80830 -0.14440
# Poissons Ratio (z) = 0.39952 -0.07916
#
# Static dielectric constant tensor:
#      x y z
#    x 3.575650 0.000000 -0.184220 
#    y 0.000000 3.290230 0.000000 
#    z -0.184220 0.000000 3.480760 
# 
# 
# High freq. dielectric constant tensor:
#      x y z
#    x 1.756390 0.000000 -0.011790 
#    y 0.000000 1.737810 0.000000 
#    z -0.011790 0.000000 1.747420 
# 
# From -- ./inp_files/88138.got.cif
#   From: 2010.06.25/outbox.cif.g09.slc.cpg/sg12_45_cif.got.tgz:88138.got - 2010.06.28 00:19:55.
