data_PCOD8102021
_publ_section_title
;
Structure prediction by ZEFSAII (Michael W. Deem and Ramdas Pophale) SiO2 
 PCOD8102021
Probable space group: C 2/M
;
_chemical_formula_sum "Si O2"
_cell_formula_units_Z 56
_cell_length_a 19.404967
_cell_length_b 8.649599
_cell_length_c 18.584039
_cell_angle_alpha 90.000000
_cell_angle_beta 64.747040
_cell_angle_gamma 90.000000
_cell_volume 2821.145218
_symmetry_space_group_name_H-M "C 2/M"
_symmetry_group_IT_number 12
_symmetry_cell_setting 'monoclinic'
loop_
_space_group_symop_operation_xyz
x,y,z
-x,y,-z
-x,-y,-z
x,-y,z
1/2+x,1/2+y,z
1/2-x,1/2+y,-z
1/2-x,1/2-y,-z
1/2+x,1/2-y,z
loop_
_atom_site_type_symbol
_atom_site_label
_atom_site_fract_x
_atom_site_fract_y
_atom_site_fract_z
Si Si1 0.864523 0.180836 0.816079
Si Si2 0.659061 0.179067 0.721250
Si Si3 0.329064 0.320590 0.984165
Si Si4 0.777495 0.681563 0.562545
Si Si5 0.432761 0.320939 0.475016
Si Si6 0.202507 0.817814 0.849023
Si Si7 0.014959 0.678444 0.694142
O O1 0.791212 0.273437 0.820063
O O2 0.938310 0.223367 0.737211
O O3 0.847030 0.000000 0.814178
O O4 0.884247 0.221360 0.892111
O O5 0.717958 0.284376 0.651726
O O6 0.663969 0.222742 0.802402
O O7 0.573499 0.213551 0.732708
O O8 0.680069 0.000000 0.699873
O O9 0.315605 0.500000 0.993800
O O10 0.348742 0.269237 0.057357
O O11 0.250000 0.250000 0.000000
O O12 0.789036 0.500000 0.549387
O O13 0.750000 0.750000 0.500000
O O14 0.856943 0.761570 0.548299
O O15 0.500000 0.289508 0.500000
O O16 0.425250 0.500000 0.457513
O O17 0.444395 0.223599 0.397803
O O18 0.197831 0.000000 0.834721
O O19 0.991900 0.500000 0.702454
#
# Coordination Sequence:
#
# PCOD8102021 Si02
#       7
#     8   8   8   8   8   8   8
#     4  10  20  36  60  87 119 155 193 241 294 348
#     4  11  24  41  60  85 118 155 198 243 291 345
#     4   8  16  32  55  84 115 150 191 237 289 344
#     4  12  24  41  65  89 117 155 197 240 289 346
#     4  11  25  43  64  89 119 153 194 242 293 347
#     4  10  20  36  60  89 118 151 196 243 290 348
#     4  11  24  41  60  84 118 156 196 242 293 347
#
# _framework density 19.850093999999999
#
# number of rings (size 3 to 8) (size 9 to 14) (size 15 to 20)
#    0.000    1.571    1.429    3.429    2.000    4.000 
#    0.000    0.714    0.000    4.286    0.000    0.000 
#    0.000    0.000    0.000    0.000    0.000    0.000 
#
# Total GULP energy -347098.205535 kJ/mol
# GULP energy per Si atom -12396.364483 kJ/mol
# Density = 1.980491 g / cm^3
# Si number density = 19.850094 Si / 1000 Ang^3
#
#
#
# Elastic Constant Matrix: (Units=GPa)
#
#
# Indices 1 2 3 4 5 6 
#
# 1 71.7382 40.3424 11.3014 0.0001 10.7643 0.0003
# 2 40.3424 49.1777 15.7871 0.0002 8.8560 0.0006
# 3 11.3014 15.7871 55.6107 0.0000 19.4085 0.0001
# 4 0.0001 0.0002 0.0000 29.2069 0.0000 1.8837
# 5 10.7643 8.8560 19.4085 0.0000 33.1680 0.0001
# 6 0.0003 0.0006 0.0001 1.8837 0.0001 26.9564
#
#
#
# Elastic Compliance Matrix: (Units=1/GPa)
#
#
# Indices 1 2 3 4 5 6 
#
# 1 0.026340 -0.021579 0.002194 0.000000 -0.004070 0.000000
# 2 -0.021579 0.040266 -0.007210 0.000000 0.000471 -0.000001
# 3 0.002194 -0.007210 0.024077 0.000000 -0.012876 0.000000
# 4 0.000000 0.000000 0.000000 0.034393 0.000000 -0.002403
# 5 -0.004070 0.000471 -0.012876 0.000000 0.038879 0.000000
# 6 0.000000 -0.000001 0.000000 -0.002403 0.000000 0.037265
#
#
# Mechanical properties :
#
#
# Convention : Reuss Voigt Hill
#
# Bulk Modulus (GPa) = 26.67217 34.59874 30.63545
# Shear Modulus (GPa) = 18.73311 25.13933 21.93622
#
# Velocity S-wave (km/s) = 3.07535 3.56259 3.32790
# Velocity P-wave (km/s) = 5.10650 5.86435 5.49850
#
# Compressibility (1/GPa) = 0.03749227
#
# Stress axis : x y z
#
# Youngs Moduli (GPa) = 37.96565 24.83486 41.53372
#
# Poissons Ratio (x) = 0.53590 -0.09111
# Poissons Ratio (y) = 0.81925 0.29946
# Poissons Ratio (z) = -0.08328 0.17906
#
# Static dielectric constant tensor:
#      x y z
#    x 3.503850 0.000000 0.101750 
#    y 0.000000 3.620810 0.000000 
#    z 0.101750 0.000000 4.410260 
# 
# 
# High freq. dielectric constant tensor:
#      x y z
#    x 1.757760 0.000000 0.010160 
#    y 0.000000 1.786310 0.000000 
#    z 0.010160 0.000000 1.785620 
# 
# From -- ./inp_files/275704.got.cif
#   From: 2010.06.25/outbox.cif.g09.slc.cpg/sg12_138_cif.got.tgz:275704.got - 2010.06.28 00:19:55.
