data_PCOD8102343
_publ_section_title
;
Structure prediction by ZEFSAII (Michael W. Deem and Ramdas Pophale) SiO2 
 PCOD8102343
Probable space group: C 2/M
;
_chemical_formula_sum "Si O2"
_cell_formula_units_Z 44
_cell_length_a 5.268703
_cell_length_b 18.345225
_cell_length_c 22.265599
_cell_angle_alpha 90.000000
_cell_angle_beta 76.988740
_cell_angle_gamma 90.000000
_cell_volume 2096.840340
_symmetry_space_group_name_H-M "C 2/M"
_symmetry_group_IT_number 12
_symmetry_cell_setting 'monoclinic'
loop_
_space_group_symop_operation_xyz
x,y,z
-x,y,-z
-x,-y,-z
x,-y,z
1/2+x,1/2+y,z
1/2-x,1/2+y,-z
1/2-x,1/2-y,-z
1/2+x,1/2-y,z
loop_
_atom_site_type_symbol
_atom_site_label
_atom_site_fract_x
_atom_site_fract_y
_atom_site_fract_z
Si Si1 0.286029 0.000000 0.459241
Si Si2 0.431881 0.204676 0.071741
Si Si3 0.663354 0.086421 0.828203
Si Si4 0.737038 0.414055 0.755708
Si Si5 0.323824 0.918789 0.618706
Si Si6 0.822053 0.780541 0.430608
O O1 0.500000 0.000000 0.500000
O O2 0.365387 0.071456 0.414493
O O3 0.000000 0.000000 0.500000
O O4 0.664977 0.249804 0.089955
O O5 0.397435 0.127728 0.106850
O O6 0.500000 0.184710 0.000000
O O7 0.456003 0.114619 0.789915
O O8 0.950375 0.109739 0.791457
O O9 0.642048 0.000000 0.841314
O O10 0.762760 0.500000 0.750962
O O11 0.792543 0.382967 0.686066
O O12 0.187850 0.868268 0.575183
O O13 0.188851 0.000000 0.622607
O O14 0.750000 0.750000 0.500000
O O15 0.605645 0.748302 0.396335
#
# Coordination Sequence:
#
# PCOD8102343 Si02
#       6
#     4   8   8   8   8   8
#     4  10  24  38  62  96 114 138 203 252 289 352
#     4  10  21  38  59  88 127 169 209 249 295 350
#     4  10  20  36  62  90 121 157 202 253 302 352
#     4   9  19  37  60  89 118 153 200 252 302 354
#     4   9  22  44  64  89 114 159 200 247 294 376
#     4  10  23  42  59  82 117 147 180 236 304 355
#
# _framework density 20.983955000000002
#
# number of rings (size 3 to 8) (size 9 to 14) (size 15 to 20)
#    0.545    1.818    0.000    1.091    2.545    4.727 
#    0.000    7.273    0.000    6.545    0.000    0.000 
#    0.000    0.000    0.000    0.000    0.000    0.000 
#
# Total GULP energy -272560.928000 kJ/mol
# GULP energy per Si atom -12389.133091 kJ/mol
# Density = 2.093619 g / cm^3
# Si number density = 20.983955 Si / 1000 Ang^3
#
#
#
# Elastic Constant Matrix: (Units=GPa)
#
#
# Indices 1 2 3 4 5 6 
#
# 1 184.3619 48.9602 52.2906 0.0000 -3.2873 0.0000
# 2 48.9602 95.6785 58.9714 0.0000 2.9339 0.0000
# 3 52.2906 58.9714 127.0893 0.0000 -6.3211 0.0000
# 4 0.0000 0.0000 0.0000 33.9912 0.0000 5.5374
# 5 -3.2873 2.9339 -6.3211 0.0000 23.6230 0.0000
# 6 0.0000 0.0000 0.0000 5.5374 0.0000 18.6324
#
#
#
# Elastic Compliance Matrix: (Units=1/GPa)
#
#
# Indices 1 2 3 4 5 6 
#
# 1 0.006512 -0.002423 -0.001515 0.000000 0.000802 0.000000
# 2 -0.002423 0.015863 -0.006566 0.000000 -0.004064 0.000000
# 3 -0.001515 -0.006566 0.011725 0.000000 0.003742 0.000000
# 4 0.000000 0.000000 0.000000 0.030916 0.000000 -0.009188
# 5 0.000802 -0.004064 0.003742 0.000000 0.043949 0.000000
# 6 0.000000 0.000000 0.000000 -0.009188 0.000000 0.056401
#
#
# Mechanical properties :
#
#
# Convention : Reuss Voigt Hill
#
# Bulk Modulus (GPa) = 76.38526 80.84157 78.61341
# Shear Modulus (GPa) = 26.21413 31.70982 28.96198
#
# Velocity S-wave (km/s) = 3.53830 3.89156 3.71913
# Velocity P-wave (km/s) = 7.29202 7.66821 7.48248
#
# Compressibility (1/GPa) = 0.01309153
#
# Stress axis : x y z
#
# Youngs Moduli (GPa) = 153.57329 63.03967 85.29024
#
# Poissons Ratio (x) = 0.15274 0.12922
# Poissons Ratio (y) = 0.37208 0.56001
# Poissons Ratio (z) = 0.23267 0.41392
#
# Static dielectric constant tensor:
#      x y z
#    x 5.670830 0.000000 0.200340 
#    y 0.000000 3.594940 0.000000 
#    z 0.200340 0.000000 3.963160 
# 
# 
# High freq. dielectric constant tensor:
#      x y z
#    x 1.833810 0.000000 -0.000040 
#    y 0.000000 1.802300 0.000000 
#    z -0.000040 0.000000 1.808570 
# 
# From -- ./inp_files/297607.got.cif
#   From: 2010.06.25/outbox.cif.g09.slc.cpg/sg12_149_cif.got.tgz:297607.got - 2010.06.28 00:19:55.
