data_PCOD8102712
_publ_section_title
;
Structure prediction by ZEFSAII (Michael W. Deem and Ramdas Pophale) SiO2 
 PCOD8102712
Probable space group: C 2/M
;
_chemical_formula_sum "Si O2"
_cell_formula_units_Z 48
_cell_length_a 10.021948
_cell_length_b 27.640931
_cell_length_c 9.179364
_cell_angle_alpha 90.000000
_cell_angle_beta 80.615448
_cell_angle_gamma 90.000000
_cell_volume 2508.797619
_symmetry_space_group_name_H-M "C 2/M"
_symmetry_group_IT_number 12
_symmetry_cell_setting 'monoclinic'
loop_
_space_group_symop_operation_xyz
x,y,z
-x,y,-z
-x,-y,-z
x,-y,z
1/2+x,1/2+y,z
1/2-x,1/2+y,-z
1/2-x,1/2-y,-z
1/2+x,1/2-y,z
loop_
_atom_site_type_symbol
_atom_site_label
_atom_site_fract_x
_atom_site_fract_y
_atom_site_fract_z
Si Si1 0.608484 0.260234 0.103228
Si Si2 0.857879 0.444890 0.272945
Si Si3 0.958037 0.052968 0.672221
Si Si4 0.000000 0.610758 0.500000
Si Si5 0.500000 0.113627 0.000000
Si Si6 0.034345 0.143670 0.836327
Si Si7 0.654177 0.833233 0.225796
O O1 0.577692 0.313897 0.175349
O O2 0.600897 0.222177 0.237901
O O3 0.500000 0.248689 0.000000
O O4 0.750000 0.250000 0.000000
O O5 0.906726 0.500000 0.265197
O O6 0.699622 0.438958 0.288381
O O7 0.906055 0.421783 0.415329
O O8 0.913287 0.419764 0.120129
O O9 0.033304 0.097839 0.731501
O O10 0.000000 0.052956 0.500000
O O11 0.997492 0.000000 0.733444
O O12 0.097685 0.642442 0.381259
O O13 0.398760 0.144398 0.917115
O O14 0.183477 0.166345 0.803096
O O15 0.000000 0.122145 0.000000
#
# Coordination Sequence:
#
# PCOD8102712 Si02
#       7
#     8   8   8   4   4   8   8
#     4  11  21  37  62  89 117 155 197 246 304 354
#     4  10  20  37  58  85 116 156 202 248 299 354
#     4  10  22  40  61  86 120 161 197 240 302 365
#     4  10  23  36  58  84 124 158 195 242 304 360
#     4  10  21  34  62  84 120 154 201 248 302 348
#     4  11  22  38  63  89 120 152 208 250 301 349
#     4  11  21  39  57  89 120 160 197 249 298 368
#
# _framework density 19.132670999999998
#
# number of rings (size 3 to 8) (size 9 to 14) (size 15 to 20)
#    0.000    1.500    4.167    2.500    0.000    0.333 
#    1.500    5.000    0.000    0.000    0.000    0.000 
#    0.000    0.000    0.000    0.000    0.000    0.000 
#
# Total GULP energy -297430.506946 kJ/mol
# GULP energy per Si atom -12392.937789 kJ/mol
# Density = 1.908912 g / cm^3
# Si number density = 19.132671 Si / 1000 Ang^3
#
#
#
# Elastic Constant Matrix: (Units=GPa)
#
#
# Indices 1 2 3 4 5 6 
#
# 1 87.3170 51.7141 27.0643 0.0000 -6.5548 0.0000
# 2 51.7141 146.7824 48.5360 0.0000 6.1943 0.0000
# 3 27.0643 48.5360 90.1281 0.0000 -1.3067 0.0000
# 4 0.0000 0.0000 0.0000 -15.7280 0.0000 -4.1744
# 5 -6.5548 6.1943 -1.3067 0.0000 23.9605 0.0000
# 6 0.0000 0.0000 0.0000 -4.1744 0.0000 26.4956
#
#
#
# Elastic Compliance Matrix: (Units=1/GPa)
#
#
# Indices 1 2 3 4 5 6 
#
# 1 0.015422 -0.005058 -0.001829 0.000000 0.005427 0.000000
# 2 -0.005058 0.010086 -0.003974 0.000000 -0.004208 0.000000
# 3 -0.001829 -0.003974 0.013803 0.000000 0.001280 0.000000
# 4 0.000000 0.000000 0.000000 -0.061029 0.000000 -0.009615
# 5 0.005427 -0.004208 0.001280 0.000000 0.044378 0.000000
# 6 0.000000 0.000000 0.000000 -0.009615 0.000000 0.036227
#
#
# Mechanical properties :
#
#
# Convention : Reuss Voigt Hill
#
# Bulk Modulus (GPa) = 56.84797 64.31737 60.58267
# Shear Modulus (GPa) = 57.82213 20.07317 38.94765
#
# Velocity S-wave (km/s) = 5.50339 3.24258 4.51673
# Velocity P-wave (km/s) = 8.37616 6.90714 7.67687
#
# Compressibility (1/GPa) = 0.01759078
#
# Stress axis : x y z
#
# Youngs Moduli (GPa) = 64.84129 99.14314 72.44769
#
# Poissons Ratio (x) = 0.50146 0.13248
# Poissons Ratio (y) = 0.32796 0.28790
# Poissons Ratio (z) = 0.11857 0.39399
#
# Static dielectric constant tensor:
#      x y z
#    x 3.434170 0.000000 -0.152790 
#    y 0.000000 3.963570 0.000000 
#    z -0.152790 0.000000 3.728020 
# 
# 
# High freq. dielectric constant tensor:
#      x y z
#    x 1.753920 0.000000 -0.011260 
#    y 0.000000 1.761360 0.000000 
#    z -0.011260 0.000000 1.734540 
# 
# From -- ./inp_files/42296.got.cif
#   From: 2010.06.25/outbox.cif.g09.slc.cpg/sg12_22_cif.got.tgz:42296.got - 2010.06.28 00:19:55.
