data_PCOD8102380
_publ_section_title
;
Structure prediction by ZEFSAII (Michael W. Deem and Ramdas Pophale) SiO2 
 PCOD8102380
Probable space group: C 2/M
;
_chemical_formula_sum "Si O2"
_cell_formula_units_Z 52
_cell_length_a 16.860973
_cell_length_b 20.445713
_cell_length_c 9.839311
_cell_angle_alpha 90.000000
_cell_angle_beta 129.706064
_cell_angle_gamma 90.000000
_cell_volume 2609.536330
_symmetry_space_group_name_H-M "C 2/M"
_symmetry_group_IT_number 12
_symmetry_cell_setting 'monoclinic'
loop_
_space_group_symop_operation_xyz
x,y,z
-x,y,-z
-x,-y,-z
x,-y,z
1/2+x,1/2+y,z
1/2-x,1/2+y,-z
1/2-x,1/2-y,-z
1/2+x,1/2-y,z
loop_
_atom_site_type_symbol
_atom_site_label
_atom_site_fract_x
_atom_site_fract_y
_atom_site_fract_z
Si Si1 0.823075 0.809962 0.564321
Si Si2 0.914751 0.500000 0.289325
Si Si3 0.300119 0.363194 0.256533
Si Si4 0.940232 0.219169 0.210474
Si Si5 0.322608 0.360521 0.861198
Si Si6 0.111807 0.000000 0.682988
Si Si7 0.365720 0.862637 0.149044
Si Si8 0.670264 0.500000 0.054464
O O1 0.750000 0.750000 0.500000
O O2 0.773851 0.844527 0.380656
O O3 0.816096 0.850510 0.694389
O O4 0.940121 0.795058 0.656157
O O5 0.931283 0.430979 0.225719
O O6 0.794700 0.500000 0.200589
O O7 0.000000 0.500000 0.500000
O O8 0.385753 0.317941 0.276363
O O9 0.333452 0.436770 0.312311
O O10 0.195737 0.360882 0.058062
O O11 0.934263 0.297373 0.223817
O O12 0.891984 0.193897 0.014544
O O13 0.209337 0.358957 0.802963
O O14 0.371920 0.433153 0.926119
O O15 0.000000 0.000000 0.500000
O O16 0.119280 0.000000 0.851976
#
# Coordination Sequence:
#
# PCOD8102380 Si02
#       8
#     8   4   8   8   8   4   8   4
#     4  12  25  38  55  90 129 161 204 263 309 365
#     4  10  20  36  62  94 118 151 204 264 310 351
#     4  11  22  39  63  90 125 159 209 255 306 369
#     4  11  21  38  62  87 116 167 215 246 306 371
#     4  10  21  39  61  89 126 159 199 255 317 364
#     4  12  20  37  66  94 124 164 207 255 307 371
#     4  10  20  40  65  89 117 162 207 262 305 365
#     4  10  20  41  63  90 130 159 204 261 306 377
#
# _framework density 19.926911
#
# number of rings (size 3 to 8) (size 9 to 14) (size 15 to 20)
#    0.000    1.231    4.615    5.538    0.000    4.308 
#    0.000    2.308    0.000    0.923    0.000    8.615 
#    0.000    0.000    0.000    0.000    0.000    0.000 
#
# Total GULP energy -322171.123331 kJ/mol
# GULP energy per Si atom -12391.197051 kJ/mol
# Density = 1.988156 g / cm^3
# Si number density = 19.926911 Si / 1000 Ang^3
#
#
#
# Elastic Constant Matrix: (Units=GPa)
#
#
# Indices 1 2 3 4 5 6 
#
# 1 30.7139 30.3825 57.0823 0.0000 -25.3125 0.0000
# 2 30.3825 182.5570 54.4804 0.0000 -22.2537 0.0000
# 3 57.0823 54.4804 151.9602 0.0000 -28.6352 0.0000
# 4 0.0000 0.0000 0.0000 27.8264 0.0000 -11.9051
# 5 -25.3125 -22.2537 -28.6352 0.0000 35.7487 0.0000
# 6 0.0000 0.0000 0.0000 -11.9051 0.0000 13.3171
#
#
#
# Elastic Compliance Matrix: (Units=1/GPa)
#
#
# Indices 1 2 3 4 5 6 
#
# 1 0.458462 -0.012074 -0.127356 0.000000 0.215092 0.000000
# 2 -0.012074 0.006635 0.001559 0.000000 -0.003170 0.000000
# 3 -0.127356 0.001559 0.043639 0.000000 -0.054251 0.000000
# 4 0.000000 0.000000 0.000000 0.058195 0.000000 0.052024
# 5 0.215092 -0.003170 -0.054251 0.000000 0.134844 0.000000
# 6 0.000000 0.000000 0.000000 0.052024 0.000000 0.121599
#
#
# Mechanical properties :
#
#
# Convention : Reuss Voigt Hill
#
# Bulk Modulus (GPa) = 4.29196 72.12460 38.20828
# Shear Modulus (GPa) = 4.24888 30.26416 17.25652
#
# Velocity S-wave (km/s) = 1.46180 3.90135 2.94596
# Velocity P-wave (km/s) = 2.23778 7.52112 5.54864
#
# Compressibility (1/GPa) = 0.23299397
#
# Stress axis : x y z
#
# Youngs Moduli (GPa) = 2.18121 150.70512 22.91536
#
# Poissons Ratio (x) = 1.81961 2.91842
# Poissons Ratio (y) = 0.02634 -0.03573
# Poissons Ratio (z) = 0.27779 -0.23499
#
# Static dielectric constant tensor:
#      x y z
#    x 3.303890 0.000000 -0.032970 
#    y 0.000000 4.393330 0.000000 
#    z -0.032970 0.000000 3.674420 
# 
# 
# High freq. dielectric constant tensor:
#      x y z
#    x 1.739680 0.000000 -0.001100 
#    y 0.000000 1.803060 0.000000 
#    z -0.001100 0.000000 1.792170 
# 
# From -- ./inp_files/78106.got.cif
#   From: 2010.06.25/outbox.cif.g09.slc.cpg/sg12_40_cif.got.tgz:78106.got - 2010.06.28 00:19:55.
