data_PCOD8102291
_publ_section_title
;
Structure prediction by ZEFSAII (Michael W. Deem and Ramdas Pophale) SiO2 
 PCOD8102291
Probable space group: C 2/M
;
_chemical_formula_sum "Si O2"
_cell_formula_units_Z 44
_cell_length_a 13.786257
_cell_length_b 11.006527
_cell_length_c 17.149835
_cell_angle_alpha 90.000000
_cell_angle_beta 134.425525
_cell_angle_gamma 90.000000
_cell_volume 1858.457765
_symmetry_space_group_name_H-M "C 2/M"
_symmetry_group_IT_number 12
_symmetry_cell_setting 'monoclinic'
loop_
_space_group_symop_operation_xyz
x,y,z
-x,y,-z
-x,-y,-z
x,-y,z
1/2+x,1/2+y,z
1/2-x,1/2+y,-z
1/2-x,1/2-y,-z
1/2+x,1/2-y,z
loop_
_atom_site_type_symbol
_atom_site_label
_atom_site_fract_x
_atom_site_fract_y
_atom_site_fract_z
Si Si1 0.725306 0.766559 0.858004
Si Si2 0.760979 0.500000 0.228213
Si Si3 0.740722 0.135368 0.268871
Si Si4 0.932714 0.500000 0.609066
Si Si5 0.424761 0.137742 0.084582
Si Si6 0.829409 0.000000 0.650055
Si Si7 0.160607 0.259580 0.375021
O O1 0.781924 0.887193 0.849354
O O2 0.672256 0.682583 0.756150
O O3 0.602112 0.791248 0.848920
O O4 0.848907 0.703226 0.971766
O O5 0.678575 0.500000 0.261419
O O6 0.918560 0.500000 0.343957
O O7 0.583084 0.140433 0.155268
O O8 0.759592 0.219515 0.355783
O O9 0.789340 0.000000 0.316962
O O10 0.817189 0.500000 0.477565
O O11 0.931747 0.380374 0.665540
O O12 0.369823 0.000000 0.060858
O O13 0.909729 0.125288 0.673295
O O14 0.250000 0.250000 0.500000
#
# Coordination Sequence:
#
# PCOD8102291 Si02
#       7
#     8   4   8   4   8   4   8
#     4  11  22  36  61  89 122 149 202 260 300 349
#     4  12  21  38  60  87 117 159 203 246 303 367
#     4  11  21  39  66  88 116 165 210 245 302 377
#     4  10  21  38  66  85 118 166 205 238 300 379
#     4  10  22  41  63  85 116 161 209 250 303 370
#     4  10  21  38  61  93 122 150 199 262 304 347
#     4  10  20  36  61  93 121 155 198 250 303 358
#
# _framework density 23.675545
#
# number of rings (size 3 to 8) (size 9 to 14) (size 15 to 20)
#    0.000    1.455    3.636    2.455    0.000    1.455 
#    0.000    2.727   16.000    0.000    0.000   12.727 
#    0.000    0.000    0.000    0.000    0.000    0.000 
#
# Total GULP energy -272624.153475 kJ/mol
# GULP energy per Si atom -12392.006976 kJ/mol
# Density = 2.362166 g / cm^3
# Si number density = 23.675545 Si / 1000 Ang^3
#
#
#
# Elastic Constant Matrix: (Units=GPa)
#
#
# Indices 1 2 3 4 5 6 
#
# 1 56.8061 26.7357 19.7853 0.0000 -24.4326 0.0000
# 2 26.7357 202.9628 32.4706 0.0000 -17.2334 0.0000
# 3 19.7853 32.4706 90.7670 0.0000 -31.9693 0.0000
# 4 0.0000 0.0000 0.0000 42.5330 0.0000 -14.9360
# 5 -24.4326 -17.2334 -31.9693 0.0000 40.3734 0.0000
# 6 0.0000 0.0000 0.0000 -14.9360 0.0000 27.4352
#
#
#
# Elastic Compliance Matrix: (Units=1/GPa)
#
#
# Indices 1 2 3 4 5 6 
#
# 1 0.024606 -0.002093 0.000437 0.000000 0.014343 0.000000
# 2 -0.002093 0.005436 -0.001549 0.000000 -0.000173 0.000000
# 3 0.000437 -0.001549 0.015721 0.000000 0.012052 0.000000
# 4 0.000000 0.000000 0.000000 0.029068 0.000000 0.015825
# 5 0.014343 -0.000173 0.012052 0.000000 0.042918 0.000000
# 6 0.000000 0.000000 0.000000 0.015825 0.000000 0.045065
#
#
# Mechanical properties :
#
#
# Convention : Reuss Voigt Hill
#
# Bulk Modulus (GPa) = 25.41186 56.50212 40.95699
# Shear Modulus (GPa) = 27.42098 40.17126 33.79612
#
# Velocity S-wave (km/s) = 3.40692 4.12362 3.78229
# Velocity P-wave (km/s) = 5.12180 6.82564 6.03416
#
# Compressibility (1/GPa) = 0.03935170
#
# Stress axis : x y z
#
# Youngs Moduli (GPa) = 40.64084 183.96173 63.60926
#
# Poissons Ratio (x) = 0.38509 -0.02781
# Poissons Ratio (y) = 0.08507 0.09855
# Poissons Ratio (z) = -0.01777 0.28503
#
# Static dielectric constant tensor:
#      x y z
#    x 3.815770 0.000000 -0.413400 
#    y 0.000000 5.293280 0.000000 
#    z -0.413400 0.000000 4.135320 
# 
# 
# High freq. dielectric constant tensor:
#      x y z
#    x 1.905970 0.000000 -0.038780 
#    y 0.000000 1.965260 0.000000 
#    z -0.038780 0.000000 1.940260 
# 
# From -- ./inp_files/275899.got.cif
#   From: 2010.06.25/outbox.cif.g09.slc.cpg/sg12_138_cif.got.tgz:275899.got - 2010.06.28 00:19:55.
