data_PCOD8102694
_publ_section_title
;
Structure prediction by ZEFSAII (Michael W. Deem and Ramdas Pophale) SiO2 
 PCOD8102694
Probable space group: C 2/M
;
_chemical_formula_sum "Si O2"
_cell_formula_units_Z 52
_cell_length_a 11.659012
_cell_length_b 27.066522
_cell_length_c 8.746810
_cell_angle_alpha 90.000000
_cell_angle_beta 79.787639
_cell_angle_gamma 90.000000
_cell_volume 2716.492118
_symmetry_space_group_name_H-M "C 2/M"
_symmetry_group_IT_number 12
_symmetry_cell_setting 'monoclinic'
loop_
_space_group_symop_operation_xyz
x,y,z
-x,y,-z
-x,-y,-z
x,-y,z
1/2+x,1/2+y,z
1/2-x,1/2+y,-z
1/2-x,1/2-y,-z
1/2+x,1/2-y,z
loop_
_atom_site_type_symbol
_atom_site_label
_atom_site_fract_x
_atom_site_fract_y
_atom_site_fract_z
Si Si1 0.633891 0.192014 0.002554
Si Si2 0.696186 0.500000 0.639107
Si Si3 0.635560 0.685050 0.496615
Si Si4 0.366599 0.086344 0.081184
Si Si5 0.218069 0.000000 0.987878
Si Si6 0.927419 0.000000 0.699782
Si Si7 0.764020 0.921112 0.594696
Si Si8 0.751576 0.735033 0.745833
O O1 0.690641 0.139624 0.943894
O O2 0.675052 0.236303 0.886564
O O3 0.500000 0.185570 0.000000
O O4 0.659181 0.201588 0.176306
O O5 0.688411 0.500000 0.819333
O O6 0.561216 0.500000 0.616644
O O7 0.761011 0.451148 0.556868
O O8 0.500000 0.675328 0.500000
O O9 0.705450 0.635259 0.447112
O O10 0.665471 0.701526 0.663025
O O11 0.673341 0.728386 0.374582
O O12 0.349580 0.077121 0.267741
O O13 0.500000 0.081331 0.000000
O O14 0.294343 0.047752 0.001634
O O15 0.097029 0.000000 0.111645
O O16 0.869158 0.050330 0.652498
#
# Coordination Sequence:
#
# PCOD8102694 Si02
#       8
#     8   4   8   8   4   4   8   8
#     4  10  20  39  61  80 112 155 193 234 285 333
#     4  11  21  35  59  86 121 142 181 235 282 341
#     4  11  21  36  57  86 120 149 185 238 290 336
#     4  10  21  40  61  77 110 153 191 231 288 339
#     4  10  22  35  60  87 114 139 194 234 270 340
#     4   9  19  38  58  83 113 161 174 219 285 353
#     4  10  20  37  58  84 112 151 188 225 289 347
#     4  10  22  36  58  85 116 146 200 232 281 342
#
# _framework density 19.142333000000001
#
# number of rings (size 3 to 8) (size 9 to 14) (size 15 to 20)
#    0.000    1.846    1.538    3.692    2.154    0.000 
#    0.000    1.538    0.000    0.000    0.000    0.000 
#    0.000    0.000    0.000    0.000    0.000    0.000 
#
# Total GULP energy -322278.442772 kJ/mol
# GULP energy per Si atom -12395.324722 kJ/mol
# Density = 1.909876 g / cm^3
# Si number density = 19.142333 Si / 1000 Ang^3
#
#
#
# Elastic Constant Matrix: (Units=GPa)
#
#
# Indices 1 2 3 4 5 6 
#
# 1 58.4714 22.8551 25.3516 0.0000 -4.1409 0.0000
# 2 22.8551 104.8735 38.3120 0.0000 2.5216 0.0000
# 3 25.3516 38.3120 124.8104 0.0000 2.0404 0.0000
# 4 0.0000 0.0000 0.0000 57.5870 0.0000 18.6602
# 5 -4.1409 2.5216 2.0404 0.0000 35.8706 0.0000
# 6 0.0000 0.0000 0.0000 18.6602 0.0000 37.0766
#
#
#
# Elastic Compliance Matrix: (Units=1/GPa)
#
#
# Indices 1 2 3 4 5 6 
#
# 1 0.019912 -0.003278 -0.003082 0.000000 0.002704 0.000000
# 2 -0.003278 0.011291 -0.002783 0.000000 -0.001014 0.000000
# 3 -0.003082 -0.002783 0.009504 0.000000 -0.000701 0.000000
# 4 0.000000 0.000000 0.000000 0.020749 0.000000 -0.010443
# 5 0.002704 -0.001014 -0.000701 0.000000 0.028301 0.000000
# 6 0.000000 0.000000 0.000000 -0.010443 0.000000 0.032227
#
#
# Mechanical properties :
#
#
# Convention : Reuss Voigt Hill
#
# Bulk Modulus (GPa) = 44.60596 51.24365 47.92480
# Shear Modulus (GPa) = 33.84212 39.54928 36.69570
#
# Velocity S-wave (km/s) = 4.20923 4.55033 4.38310
# Velocity P-wave (km/s) = 6.85393 7.37802 7.12080
#
# Compressibility (1/GPa) = 0.02241853
#
# Stress axis : x y z
#
# Youngs Moduli (GPa) = 50.22159 88.56651 105.21768
#
# Poissons Ratio (x) = 0.29035 0.32432
# Poissons Ratio (y) = 0.16464 0.29286
# Poissons Ratio (z) = 0.15480 0.24652
#
# Static dielectric constant tensor:
#      x y z
#    x 3.274360 0.000000 -0.045340 
#    y 0.000000 3.905840 0.000000 
#    z -0.045340 0.000000 3.774940 
# 
# 
# High freq. dielectric constant tensor:
#      x y z
#    x 1.719070 0.000000 -0.010260 
#    y 0.000000 1.760540 0.000000 
#    z -0.010260 0.000000 1.761530 
# 
# From -- ./inp_files/52601.got.cif
#   From: 2010.06.25/outbox.cif.g09.slc.cpg/sg12_27_cif.got.tgz:52601.got - 2010.06.28 00:19:55.
