data_PCOD8102213
_publ_section_title
;
Structure prediction by ZEFSAII (Michael W. Deem and Ramdas Pophale) SiO2 
 PCOD8102213
Probable space group: C 2/M
;
_chemical_formula_sum "Si O2"
_cell_formula_units_Z 48
_cell_length_a 28.443492
_cell_length_b 18.362060
_cell_length_c 12.794033
_cell_angle_alpha 90.000000
_cell_angle_beta 21.125908
_cell_angle_gamma 90.000000
_cell_volume 2408.346765
_symmetry_space_group_name_H-M "C 2/M"
_symmetry_group_IT_number 12
_symmetry_cell_setting 'monoclinic'
loop_
_space_group_symop_operation_xyz
x,y,z
-x,y,-z
-x,-y,-z
x,-y,z
1/2+x,1/2+y,z
1/2-x,1/2+y,-z
1/2-x,1/2-y,-z
1/2+x,1/2-y,z
loop_
_atom_site_type_symbol
_atom_site_label
_atom_site_fract_x
_atom_site_fract_y
_atom_site_fract_z
Si Si1 0.337277 0.586327 0.951295
Si Si2 0.517325 0.716373 0.844750
Si Si3 0.819247 0.083451 0.537555
Si Si4 0.749769 0.818877 0.316322
Si Si5 0.366040 0.415537 0.665176
Si Si6 0.146465 0.583748 0.705823
O O1 0.312267 0.500000 0.020656
O O2 0.486475 0.610506 0.662598
O O3 0.302956 0.614319 0.903905
O O4 0.248587 0.632316 0.214471
O O5 0.561181 0.631992 0.751254
O O6 0.629131 0.763908 0.556996
O O7 0.500000 0.742295 0.000000
O O8 0.382942 0.726544 0.059138
O O9 0.781829 0.103098 0.736084
O O10 0.691177 0.095448 0.732812
O O11 0.868611 0.000000 0.428961
O O12 0.739908 0.871026 0.437145
O O13 0.376833 0.500000 0.665853
O O14 0.154465 0.500000 0.654923
O O15 0.000000 0.613578 0.000000
#
# Coordination Sequence:
#
# PCOD8102213 Si02
#       6
#     8   8   8   8   8   8
#     4   9  17  33  60  90 115 147 191 246 294 342
#     4  12  25  39  56  85 120 162 196 242 294 349
#     4  10  20  36  61  88 114 146 192 243 291 347
#     4  12  24  38  58  84 121 160 200 239 289 355
#     4   8  15  31  59  90 117 143 185 246 302 338
#     4  10  22  38  59  88 119 152 192 246 298 343
#
# _framework density 19.930685
#
# number of rings (size 3 to 8) (size 9 to 14) (size 15 to 20)
#    0.000    1.833    3.333    2.500    2.333    1.000 
#    0.000    0.833    0.000    1.000    0.000    5.833 
#    0.000    0.000    0.000    0.000    0.000    0.000 
#
# Total GULP energy -297513.069073 kJ/mol
# GULP energy per Si atom -12396.377878 kJ/mol
# Density = 1.988532 g / cm^3
# Si number density = 19.930685 Si / 1000 Ang^3
#
#
#
# Elastic Constant Matrix: (Units=GPa)
#
#
# Indices 1 2 3 4 5 6 
#
# 1 139.8618 40.3170 65.2873 -0.0002 16.5647 0.0000
# 2 40.3170 75.8024 52.3349 -0.0001 8.4752 0.0000
# 3 65.2873 52.3349 106.4622 -0.0004 -0.2480 0.0001
# 4 -0.0002 -0.0001 -0.0004 33.7296 0.0001 4.8316
# 5 16.5647 8.4752 -0.2480 0.0001 32.2790 0.0000
# 6 0.0000 0.0000 0.0001 4.8316 0.0000 11.5031
#
#
#
# Elastic Compliance Matrix: (Units=1/GPa)
#
#
# Indices 1 2 3 4 5 6 
#
# 1 0.011005 -0.000868 -0.006334 0.000000 -0.005468 0.000000
# 2 -0.000868 0.020995 -0.009800 0.000000 -0.005142 0.000000
# 3 -0.006334 -0.009800 0.018109 0.000000 0.005963 0.000000
# 4 0.000000 0.000000 0.000000 0.031546 0.000000 -0.013250
# 5 -0.005468 -0.005142 0.005963 0.000000 0.035182 0.000000
# 6 0.000000 0.000000 0.000000 -0.013250 0.000000 0.092498
#
#
# Mechanical properties :
#
#
# Convention : Reuss Voigt Hill
#
# Bulk Modulus (GPa) = 62.10095 70.88943 66.49519
# Shear Modulus (GPa) = 20.10380 26.44814 23.27597
#
# Velocity S-wave (km/s) = 3.17943 3.64676 3.42108
# Velocity P-wave (km/s) = 6.68614 7.30596 7.00291
#
# Compressibility (1/GPa) = 0.01610281
#
# Stress axis : x y z
#
# Youngs Moduli (GPa) = 90.86968 47.62977 55.22065
#
# Poissons Ratio (x) = 0.04136 0.34979
# Poissons Ratio (y) = 0.07891 0.54118
# Poissons Ratio (z) = 0.57561 0.46679
#
# Static dielectric constant tensor:
#      x y z
#    x 3.810990 0.000000 0.130700 
#    y 0.000000 3.529020 0.000000 
#    z 0.130700 0.000000 3.382880 
# 
# 
# High freq. dielectric constant tensor:
#      x y z
#    x 1.783600 0.000000 0.008730 
#    y 0.000000 1.769460 0.000000 
#    z 0.008730 0.000000 1.748020 
# 
# From -- ./inp_files/184763.got.cif
#   From: 2010.06.25/outbox.cif.g09.slc.cpg/sg12_93_cif.got.tgz:184763.got - 2010.06.28 00:19:55.
