data_PCOD8102966
_publ_section_title
;
Structure prediction by ZEFSAII (Michael W. Deem and Ramdas Pophale) SiO2 
 PCOD8102966
Probable space group: C 2/M
;
_chemical_formula_sum "Si O2"
_cell_formula_units_Z 56
_cell_length_a 20.368358
_cell_length_b 8.713239
_cell_length_c 32.306839
_cell_angle_alpha 90.000000
_cell_angle_beta 150.803823
_cell_angle_gamma 90.000000
_cell_volume 2796.875715
_symmetry_space_group_name_H-M "C 2/M"
_symmetry_group_IT_number 12
_symmetry_cell_setting 'monoclinic'
loop_
_space_group_symop_operation_xyz
x,y,z
-x,y,-z
-x,-y,-z
x,-y,z
1/2+x,1/2+y,z
1/2-x,1/2+y,-z
1/2-x,1/2-y,-z
1/2+x,1/2-y,z
loop_
_atom_site_type_symbol
_atom_site_label
_atom_site_fract_x
_atom_site_fract_y
_atom_site_fract_z
Si Si1 0.664303 0.682113 0.342226
Si Si2 0.874602 0.181764 0.307478
Si Si3 0.118096 0.821492 0.035418
Si Si4 0.669407 0.681953 0.493777
Si Si5 0.390821 0.679592 0.064717
Si Si6 0.123701 0.181742 0.784132
Si Si7 0.850684 0.317800 0.753940
O O1 0.672821 0.500000 0.348470
O O2 0.776971 0.751617 0.433918
O O3 0.517282 0.741724 0.275188
O O4 0.696864 0.742711 0.314742
O O5 0.858783 0.249790 0.252481
O O6 0.752128 0.243474 0.267778
O O7 0.014879 0.235109 0.404646
O O8 0.870241 0.000000 0.302544
O O9 0.257147 0.737076 0.120948
O O10 0.140902 0.000000 0.056488
O O11 0.077266 0.788265 0.965765
O O12 0.000000 0.756416 0.000000
O O13 0.683962 0.500000 0.501082
O O14 0.750000 0.750000 0.500000
O O15 0.391364 0.500000 0.075211
O O16 0.500813 0.762887 0.153103
O O17 0.250000 0.750000 0.000000
O O18 0.124309 0.000000 0.783601
O O19 0.847976 0.500000 0.748187
#
# Coordination Sequence:
#
# PCOD8102966 Si02
#       7
#     8   8   8   8   8   8   8
#     4  11  23  40  61  88 123 156 197 247 297 355
#     4   9  20  39  61  86 120 159 197 244 300 361
#     4  10  22  38  56  83 117 149 188 243 299 347
#     4  11  21  39  64  91 122 157 201 246 299 356
#     4  11  23  40  61  85 119 159 200 246 299 358
#     4  10  20  37  60  84 112 152 198 241 289 350
#     4  11  23  40  62  88 119 157 202 247 301 360
#
# _framework density 20.022341000000001
#
# number of rings (size 3 to 8) (size 9 to 14) (size 15 to 20)
#    0.000    1.571    1.429    3.429    0.000    5.429 
#    0.000    6.429    0.000    0.000    0.000    0.000 
#    0.000    0.000    0.000    0.000    0.000    0.000 
#
# Total GULP energy -347340.760139 kJ/mol
# GULP energy per Si atom -12405.027148 kJ/mol
# Density = 1.997677 g / cm^3
# Si number density = 20.022341 Si / 1000 Ang^3
#
#
#
# Elastic Constant Matrix: (Units=GPa)
#
#
# Indices 1 2 3 4 5 6 
#
# 1 90.0239 19.8342 13.1953 -0.0004 -3.6578 0.0006
# 2 19.8342 51.8577 22.6492 -0.0008 -0.2583 0.0027
# 3 13.1953 22.6492 102.9820 -0.0002 -4.7121 -0.0002
# 4 -0.0004 -0.0008 -0.0002 36.9147 0.0002 -3.9623
# 5 -3.6578 -0.2583 -4.7121 0.0002 39.1713 -0.0007
# 6 0.0006 0.0027 -0.0002 -3.9623 -0.0007 29.4583
#
#
#
# Elastic Compliance Matrix: (Units=1/GPa)
#
#
# Indices 1 2 3 4 5 6 
#
# 1 0.012205 -0.004426 -0.000543 0.000000 0.001045 0.000000
# 2 -0.004426 0.022945 -0.004516 0.000000 -0.000805 -0.000002
# 3 -0.000543 -0.004516 0.010829 0.000000 0.001222 0.000001
# 4 0.000000 0.000000 0.000000 0.027486 0.000000 0.003697
# 5 0.001045 -0.000805 0.001222 0.000000 0.025768 0.000001
# 6 0.000000 -0.000002 0.000001 0.003697 0.000001 0.034444
#
#
# Mechanical properties :
#
#
# Convention : Reuss Voigt Hill
#
# Bulk Modulus (GPa) = 37.02357 39.58010 38.30183
# Shear Modulus (GPa) = 30.93103 33.72119 32.32611
#
# Velocity S-wave (km/s) = 3.93469 4.10833 4.02245
# Velocity P-wave (km/s) = 6.25889 6.50502 6.38314
#
# Compressibility (1/GPa) = 0.02700982
#
# Stress axis : x y z
#
# Youngs Moduli (GPa) = 81.93147 43.58287 92.34360
#
# Poissons Ratio (x) = 0.19290 0.05011
# Poissons Ratio (y) = 0.36263 0.41703
# Poissons Ratio (z) = 0.04446 0.19682
#
# Static dielectric constant tensor:
#      x y z
#    x 3.904160 0.000000 -0.020110 
#    y 0.000000 3.514800 0.000000 
#    z -0.020110 0.000000 3.851070 
# 
# 
# High freq. dielectric constant tensor:
#      x y z
#    x 1.794040 0.000000 -0.003710 
#    y 0.000000 1.770410 0.000000 
#    z -0.003710 0.000000 1.795060 
# 
# From -- ./inp_files/281641.got.cif
#   From: 2010.06.25/outbox.cif.g09.slc.cpg/sg12_141_cif.got.tgz:281641.got - 2010.06.28 00:19:55.
