data_PCOD8102473
_publ_section_title
;
Structure prediction by ZEFSAII (Michael W. Deem and Ramdas Pophale) SiO2 
 PCOD8102473
Probable space group: C 2/M
;
_chemical_formula_sum "Si O2"
_cell_formula_units_Z 56
_cell_length_a 9.071680
_cell_length_b 17.991556
_cell_length_c 16.425447
_cell_angle_alpha 90.000000
_cell_angle_beta 70.912785
_cell_angle_gamma 90.000000
_cell_volume 2533.468561
_symmetry_space_group_name_H-M "C 2/M"
_symmetry_group_IT_number 12
_symmetry_cell_setting 'monoclinic'
loop_
_space_group_symop_operation_xyz
x,y,z
-x,y,-z
-x,-y,-z
x,-y,z
1/2+x,1/2+y,z
1/2-x,1/2+y,-z
1/2-x,1/2-y,-z
1/2+x,1/2-y,z
loop_
_atom_site_type_symbol
_atom_site_label
_atom_site_fract_x
_atom_site_fract_y
_atom_site_fract_z
Si Si1 0.858615 0.916045 0.072812
Si Si2 0.098268 0.704087 0.559779
Si Si3 0.026427 0.411650 0.087298
Si Si4 0.550682 0.415399 0.758562
Si Si5 0.754595 0.354560 0.249307
Si Si6 0.732719 0.794049 0.338624
Si Si7 0.674223 0.586091 0.442048
O O1 0.693582 0.877989 0.083402
O O2 0.889121 0.915444 0.161753
O O3 0.847984 0.000000 0.040395
O O4 0.000000 0.874690 0.000000
O O5 0.221167 0.763883 0.577321
O O6 0.193584 0.627798 0.528330
O O7 0.000000 0.733042 0.500000
O O8 0.950587 0.691094 0.646812
O O9 0.017994 0.500000 0.092825
O O10 0.906344 0.382368 0.175807
O O11 0.000000 0.383166 0.000000
O O12 0.533701 0.500000 0.728219
O O13 0.388527 0.370983 0.785229
O O14 0.677910 0.371659 0.682975
O O15 0.783486 0.267575 0.263302
O O16 0.709932 0.396115 0.341226
O O17 0.500000 0.611925 0.500000
O O18 0.695369 0.500000 0.456058
#
# Coordination Sequence:
#
# PCOD8102473 Si02
#       7
#     8   8   8   8   8   8   8
#     4   9  19  35  59  93 130 168 217 274 330 395
#     4  11  25  43  69  92 127 177 228 280 339 405
#     4  10  20  36  64  99 136 179 228 279 339 411
#     4  11  23  40  66  95 130 174 222 278 336 396
#     4  11  23  42  66  94 137 182 222 275 344 407
#     4  11  25  44  64  97 133 175 228 279 337 413
#     4  10  24  44  67 101 140 176 222 283 345 406
#
# _framework density 22.104082999999999
#
# number of rings (size 3 to 8) (size 9 to 14) (size 15 to 20)
#    0.000    1.571    1.429    2.571    6.000    5.429 
#    0.000    0.714    0.000    3.857    0.000    0.000 
#    0.000    0.000    0.000    0.000    0.000    0.000 
#
# Total GULP energy -347032.495648 kJ/mol
# GULP energy per Si atom -12394.017702 kJ/mol
# Density = 2.205377 g / cm^3
# Si number density = 22.104083 Si / 1000 Ang^3
#
#
#
# Elastic Constant Matrix: (Units=GPa)
#
#
# Indices 1 2 3 4 5 6 
#
# 1 191.8324 48.6727 64.3396 0.0000 -28.9303 0.0000
# 2 48.6727 90.1717 36.9231 0.0000 -10.1186 0.0000
# 3 64.3396 36.9231 128.9895 0.0000 -21.5274 0.0000
# 4 0.0000 0.0000 0.0000 33.0260 0.0000 -1.4189
# 5 -28.9303 -10.1186 -21.5274 0.0000 42.2371 0.0000
# 6 0.0000 0.0000 0.0000 -1.4189 0.0000 34.4361
#
#
#
# Elastic Compliance Matrix: (Units=1/GPa)
#
#
# Indices 1 2 3 4 5 6 
#
# 1 0.007092 -0.002543 -0.002296 0.000000 0.003079 0.000000
# 2 -0.002543 0.013538 -0.002575 0.000000 0.000189 0.000000
# 3 -0.002296 -0.002575 0.010131 0.000000 0.002974 0.000000
# 4 0.000000 0.000000 0.000000 0.030333 0.000000 0.001250
# 5 0.003079 0.000189 0.002974 0.000000 0.027346 0.000000
# 6 0.000000 0.000000 0.000000 0.001250 0.000000 0.029091
#
#
# Mechanical properties :
#
#
# Convention : Reuss Voigt Hill
#
# Bulk Modulus (GPa) = 62.76030 78.98495 70.87262
# Shear Modulus (GPa) = 36.31849 39.34372 37.83111
#
# Velocity S-wave (km/s) = 4.05787 4.22350 4.14151
# Velocity P-wave (km/s) = 7.09999 7.71976 7.41635
#
# Compressibility (1/GPa) = 0.01593364
#
# Stress axis : x y z
#
# Youngs Moduli (GPa) = 140.99633 73.86479 98.70295
#
# Poissons Ratio (x) = 0.18781 0.22663
# Poissons Ratio (y) = 0.35851 0.25421
# Poissons Ratio (z) = 0.32373 0.19024
#
# Static dielectric constant tensor:
#      x y z
#    x 4.585790 0.000000 -0.290420 
#    y 0.000000 3.937150 0.000000 
#    z -0.290420 0.000000 4.105020 
# 
# 
# High freq. dielectric constant tensor:
#      x y z
#    x 1.897080 0.000000 -0.009930 
#    y 0.000000 1.843060 0.000000 
#    z -0.009930 0.000000 1.876270 
# 
# From -- ./inp_files/256987.got.cif
#   From: 2010.06.25/outbox.cif.g09.slc.cpg/sg12_129_cif.got.tgz:256987.got - 2010.06.28 00:19:55.
