data_PCOD8102043
_publ_section_title
;
Structure prediction by ZEFSAII (Michael W. Deem and Ramdas Pophale) SiO2 
 PCOD8102043
Probable space group: C 2/M
;
_chemical_formula_sum "Si O2"
_cell_formula_units_Z 64
_cell_length_a 30.110508
_cell_length_b 8.937023
_cell_length_c 12.031706
_cell_angle_alpha 90.000000
_cell_angle_beta 92.133247
_cell_angle_gamma 90.000000
_cell_volume 3235.467805
_symmetry_space_group_name_H-M "C 2/M"
_symmetry_group_IT_number 12
_symmetry_cell_setting 'monoclinic'
loop_
_space_group_symop_operation_xyz
x,y,z
-x,y,-z
-x,-y,-z
x,-y,z
1/2+x,1/2+y,z
1/2-x,1/2+y,-z
1/2-x,1/2-y,-z
1/2+x,1/2-y,z
loop_
_atom_site_type_symbol
_atom_site_label
_atom_site_fract_x
_atom_site_fract_y
_atom_site_fract_z
Si Si1 0.284798 0.176972 0.585887
Si Si2 0.622260 0.326763 0.419422
Si Si3 0.520162 0.170253 0.788837
Si Si4 0.547699 0.170351 0.547731
Si Si5 0.317238 0.325322 0.035917
Si Si6 0.768829 0.325281 0.836419
Si Si7 0.429501 0.672821 0.808465
Si Si8 0.093739 0.324277 0.967722
O O1 0.250000 0.250000 0.500000
O O2 0.333633 0.231274 0.557596
O O3 0.272914 0.228161 0.709997
O O4 0.282189 0.000000 0.573250
O O5 0.633105 0.500000 0.440866
O O6 0.585890 0.276426 0.505251
O O7 0.604322 0.297743 0.294499
O O8 0.549468 0.181096 0.680706
O O9 0.478406 0.278937 0.775089
O O10 0.503371 0.000000 0.805867
O O11 0.550620 0.223827 0.893672
O O12 0.500000 0.227571 0.500000
O O13 0.555542 0.000000 0.507130
O O14 0.324378 0.500000 0.022656
O O15 0.304545 0.262209 0.913655
O O16 0.362937 0.252231 0.081432
O O17 0.280468 0.285926 0.124861
O O18 0.779176 0.500000 0.850375
O O19 0.430367 0.500000 0.844054
O O20 0.412758 0.772953 0.907391
O O21 0.100982 0.500000 0.963735
#
# Coordination Sequence:
#
# PCOD8102043 Si02
#       8
#     8   8   8   8   8   8   8   8
#     4  11  24  42  63  88 121 158 198 244 297 354
#     4  11  24  40  61  90 121 155 199 247 298 352
#     4  10  22  39  58  84 116 154 196 241 294 350
#     4  10  20  38  64  88 115 153 200 248 295 351
#     4  10  20  36  60  88 116 148 192 241 291 348
#     4   9  20  39  62  87 116 152 192 237 294 352
#     4  11  23  38  59  86 117 153 196 243 291 345
#     4  11  23  37  55  82 119 156 193 237 291 351
#
# _framework density 19.780756
#
# number of rings (size 3 to 8) (size 9 to 14) (size 15 to 20)
#    0.000    1.625    1.250    3.000    0.000    9.250 
#    0.000    2.500    0.000    0.000    0.000    0.000 
#    0.000    0.000    0.000    0.000    0.000    0.000 
#
# Total GULP energy -396995.601663 kJ/mol
# GULP energy per Si atom -12406.112552 kJ/mol
# Density = 1.973573 g / cm^3
# Si number density = 19.780756 Si / 1000 Ang^3
#
#
#
# Elastic Constant Matrix: (Units=GPa)
#
#
# Indices 1 2 3 4 5 6 
#
# 1 115.0266 43.7034 42.5056 0.0000 5.1679 0.0000
# 2 43.7034 61.5361 26.8486 0.0000 7.0306 0.0000
# 3 42.5056 26.8486 64.7348 0.0000 -4.0560 0.0000
# 4 0.0000 0.0000 0.0000 30.0560 0.0000 -0.1380
# 5 5.1679 7.0306 -4.0560 0.0000 28.3115 0.0000
# 6 0.0000 0.0000 0.0000 -0.1380 0.0000 39.8317
#
#
#
# Elastic Compliance Matrix: (Units=1/GPa)
#
#
# Indices 1 2 3 4 5 6 
#
# 1 0.013659 -0.006771 -0.006268 0.000000 -0.001710 0.000000
# 2 -0.006771 0.024323 -0.005997 0.000000 -0.005663 0.000000
# 3 -0.006268 -0.005997 0.022416 0.000000 0.005845 0.000000
# 4 0.000000 0.000000 0.000000 0.033272 0.000000 0.000115
# 5 -0.001710 -0.005663 0.005845 0.000000 0.037877 0.000000
# 6 0.000000 0.000000 0.000000 0.000115 0.000000 0.025106
#
#
# Mechanical properties :
#
#
# Convention : Reuss Voigt Hill
#
# Bulk Modulus (GPa) = 44.78750 51.93476 48.36113
# Shear Modulus (GPa) = 24.73211 28.18918 26.46064
#
# Velocity S-wave (km/s) = 3.53981 3.77912 3.66142
# Velocity P-wave (km/s) = 6.27679 6.73458 6.50971
#
# Compressibility (1/GPa) = 0.02232766
#
# Stress axis : x y z
#
# Youngs Moduli (GPa) = 73.21155 41.11368 44.61009
#
# Poissons Ratio (x) = 0.27837 0.27960
# Poissons Ratio (y) = 0.49570 0.26752
# Poissons Ratio (z) = 0.45886 0.24655
#
# Static dielectric constant tensor:
#      x y z
#    x 3.729070 0.000000 0.007690 
#    y 0.000000 3.623110 0.000000 
#    z 0.007690 0.000000 3.642720 
# 
# 
# High freq. dielectric constant tensor:
#      x y z
#    x 1.778790 0.000000 -0.003500 
#    y 0.000000 1.774740 0.000000 
#    z -0.003500 0.000000 1.773360 
# 
# From -- ./inp_files/187428.got.cif
#   From: 2010.06.25/outbox.cif.g09.slc.cpg/sg12_94_cif.got.tgz:187428.got - 2010.06.28 00:19:55.
