data_PCOD8102422
_publ_section_title
;
Structure prediction by ZEFSAII (Michael W. Deem and Ramdas Pophale) SiO2 
 PCOD8102422
Probable space group: C 2/M
;
_chemical_formula_sum "Si O2"
_cell_formula_units_Z 52
_cell_length_a 16.646930
_cell_length_b 16.266356
_cell_length_c 9.552389
_cell_angle_alpha 90.000000
_cell_angle_beta 90.130373
_cell_angle_gamma 90.000000
_cell_volume 2586.635905
_symmetry_space_group_name_H-M "C 2/M"
_symmetry_group_IT_number 12
_symmetry_cell_setting 'monoclinic'
loop_
_space_group_symop_operation_xyz
x,y,z
-x,y,-z
-x,-y,-z
x,-y,z
1/2+x,1/2+y,z
1/2-x,1/2+y,-z
1/2-x,1/2-y,-z
1/2+x,1/2-y,z
loop_
_atom_site_type_symbol
_atom_site_label
_atom_site_fract_x
_atom_site_fract_y
_atom_site_fract_z
Si Si1 0.391987 0.907480 0.369351
Si Si2 0.785451 0.853371 0.133146
Si Si3 0.254803 0.092856 0.581963
Si Si4 0.869674 0.158994 0.632080
Si Si5 0.226243 0.671653 0.838178
Si Si6 0.894109 0.000000 0.088500
Si Si7 0.000000 0.279650 0.500000
Si Si8 0.931145 0.000000 0.782256
O O1 0.340477 0.901012 0.509697
O O2 0.332849 0.890101 0.240238
O O3 0.460986 0.839043 0.381790
O O4 0.427489 0.000000 0.351966
O O5 0.727997 0.869753 0.265305
O O6 0.816909 0.759620 0.139423
O O7 0.858572 0.916259 0.151009
O O8 0.739256 0.870138 0.988676
O O9 0.185657 0.143980 0.503298
O O10 0.223554 0.000000 0.588699
O O11 0.811021 0.187011 0.758350
O O12 0.935257 0.225898 0.585270
O O13 0.916670 0.078389 0.684130
O O14 0.983178 0.000000 0.145239
O O15 0.875708 0.000000 0.920815
#
# Coordination Sequence:
#
# PCOD8102422 Si02
#       8
#     8   8   8   8   8   4   4   4
#     4  10  23  42  65  85 119 159 203 249 303 361
#     4  11  21  37  62  92 122 150 203 248 295 356
#     4  10  20  36  63  93 115 150 197 250 292 349
#     4  11  23  40  62  87 127 159 199 243 300 364
#     4  10  23  40  63  90 117 158 205 251 295 349
#     4  11  24  37  62  91 130 162 195 242 303 371
#     4  12  25  37  60  94 120 158 200 257 303 350
#     4  11  24  40  57  90 133 167 191 235 310 372
#
# _framework density 20.103332999999999
#
# number of rings (size 3 to 8) (size 9 to 14) (size 15 to 20)
#    0.000    1.385    3.077    2.077    6.462    2.769 
#    0.000    0.000    0.000    2.769    0.000   11.846 
#    0.000    0.000    0.000    0.000    0.000    0.000 
#
# Total GULP energy -322316.910572 kJ/mol
# GULP energy per Si atom -12396.804253 kJ/mol
# Density = 2.005758 g / cm^3
# Si number density = 20.103333 Si / 1000 Ang^3
#
#
#
# Elastic Constant Matrix: (Units=GPa)
#
#
# Indices 1 2 3 4 5 6 
#
# 1 59.7305 50.4659 32.2655 0.0000 12.9298 0.0000
# 2 50.4659 134.2941 37.2098 0.0000 4.9636 0.0000
# 3 32.2655 37.2098 131.4115 0.0000 -2.3714 0.0000
# 4 0.0000 0.0000 0.0000 32.0485 0.0000 4.2516
# 5 12.9298 4.9636 -2.3714 0.0000 10.2548 0.0000
# 6 0.0000 0.0000 0.0000 4.2516 0.0000 30.2578
#
#
#
# Elastic Compliance Matrix: (Units=1/GPa)
#
#
# Indices 1 2 3 4 5 6 
#
# 1 0.040951 -0.011498 -0.007662 0.000000 -0.047840 0.000000
# 2 -0.011498 0.011517 -0.000278 0.000000 0.008858 0.000000
# 3 -0.007662 -0.000278 0.009787 0.000000 0.012059 0.000000
# 4 0.000000 0.000000 0.000000 0.031795 0.000000 -0.004468
# 5 -0.047840 0.008858 0.012059 0.000000 0.156335 0.000000
# 6 0.000000 0.000000 0.000000 -0.004468 0.000000 0.033677
#
#
# Mechanical properties :
#
#
# Convention : Reuss Voigt Hill
#
# Bulk Modulus (GPa) = 42.77379 62.81318 52.79349
# Shear Modulus (GPa) = 15.11799 28.21188 21.66494
#
# Velocity S-wave (km/s) = 2.74526 3.75019 3.28636
# Velocity P-wave (km/s) = 5.60105 7.07565 6.38109
#
# Compressibility (1/GPa) = 0.02337880
#
# Stress axis : x y z
#
# Youngs Moduli (GPa) = 24.41938 86.83084 102.17198
#
# Poissons Ratio (x) = 0.99834 0.78289
# Poissons Ratio (y) = 0.28076 0.02842
# Poissons Ratio (z) = 0.18711 0.02415
#
# Static dielectric constant tensor:
#      x y z
#    x 3.433150 0.000000 -0.086490 
#    y 0.000000 3.837020 0.000000 
#    z -0.086490 0.000000 3.816500 
# 
# 
# High freq. dielectric constant tensor:
#      x y z
#    x 1.757600 0.000000 0.003010 
#    y 0.000000 1.803340 0.000000 
#    z 0.003010 0.000000 1.793700 
# 
# From -- ./inp_files/75344.got.cif
#   From: 2010.06.25/outbox.cif.g09.slc.cpg/sg12_38_cif.got.tgz:75344.got - 2010.06.28 00:19:55.
