data_PCOD8102040
_publ_section_title
;
Structure prediction by ZEFSAII (Michael W. Deem and Ramdas Pophale) SiO2 
 PCOD8102040
Probable space group: C 2/M
;
_chemical_formula_sum "Si O2"
_cell_formula_units_Z 60
_cell_length_a 14.543502
_cell_length_b 18.135309
_cell_length_c 14.347599
_cell_angle_alpha 90.000000
_cell_angle_beta 122.365304
_cell_angle_gamma 90.000000
_cell_volume 3196.326430
_symmetry_space_group_name_H-M "C 2/M"
_symmetry_group_IT_number 12
_symmetry_cell_setting 'monoclinic'
loop_
_space_group_symop_operation_xyz
x,y,z
-x,y,-z
-x,-y,-z
x,-y,z
1/2+x,1/2+y,z
1/2-x,1/2+y,-z
1/2-x,1/2-y,-z
1/2+x,1/2-y,z
loop_
_atom_site_type_symbol
_atom_site_label
_atom_site_fract_x
_atom_site_fract_y
_atom_site_fract_z
Si Si1 0.160813 0.298140 0.502023
Si Si2 0.000000 0.184581 0.500000
Si Si3 0.919839 0.283611 0.042469
Si Si4 0.220594 0.418586 0.825356
Si Si5 0.800084 0.858367 0.054959
Si Si6 0.969900 0.142019 0.287697
Si Si7 0.477122 0.813317 0.267244
Si Si8 0.691924 0.585026 0.321847
O O1 0.250000 0.250000 0.500000
O O2 0.209111 0.366205 0.585541
O O3 0.100092 0.240025 0.535569
O O4 0.083747 0.336672 0.382300
O O5 0.973787 0.127335 0.400950
O O6 0.874387 0.206215 0.053272
O O7 0.990843 0.322417 0.162960
O O8 0.814074 0.332806 0.961394
O O9 0.000000 0.273520 0.000000
O O10 0.168889 0.500000 0.790805
O O11 0.126156 0.360137 0.756422
O O12 0.309146 0.407838 0.791106
O O13 0.278871 0.412629 0.957260
O O14 0.869197 0.896005 0.176978
O O15 0.951744 0.229153 0.275805
O O16 0.079913 0.116699 0.298936
O O17 0.706902 0.500000 0.361389
#
# Coordination Sequence:
#
# PCOD8102040 Si02
#       8
#     8   4   8   8   8   8   8   8
#     4  11  20  36  60  86 116 154 197 238 287 344
#     4  10  20  36  60  88 114 150 202 248 292 328
#     4   9  18  32  54  87 114 145 190 252 290 330
#     4  10  22  38  58  85 121 156 188 241 299 352
#     4   9  20  34  53  83 116 151 194 230 293 352
#     4  10  20  37  55  85 117 153 195 242 282 345
#     4   9  19  36  56  85 113 151 198 242 290 335
#     4  11  23  37  56  88 123 154 189 236 294 355
#
# _framework density 18.771549
#
# number of rings (size 3 to 8) (size 9 to 14) (size 15 to 20)
#    0.000    2.133    2.667    2.400    3.733    2.133 
#    0.000    3.333    0.000    6.400    0.000    0.000 
#    0.000    0.000    0.000    0.000    0.000    0.000 
#
# Total GULP energy -371732.068378 kJ/mol
# GULP energy per Si atom -12391.068946 kJ/mol
# Density = 1.872882 g / cm^3
# Si number density = 18.771549 Si / 1000 Ang^3
#
#
#
# Elastic Constant Matrix: (Units=GPa)
#
#
# Indices 1 2 3 4 5 6 
#
# 1 123.0686 31.1572 51.0292 0.0000 -10.7521 0.0000
# 2 31.1572 70.6189 25.1924 0.0000 -5.1731 0.0000
# 3 51.0292 25.1924 145.7115 0.0000 1.5383 0.0000
# 4 0.0000 0.0000 0.0000 18.7213 0.0000 -5.2437
# 5 -10.7521 -5.1731 1.5383 0.0000 24.5894 0.0000
# 6 0.0000 0.0000 0.0000 -5.2437 0.0000 14.9375
#
#
#
# Elastic Compliance Matrix: (Units=1/GPa)
#
#
# Indices 1 2 3 4 5 6 
#
# 1 0.010643 -0.003245 -0.003210 0.000000 0.004172 0.000000
# 2 -0.003245 0.016360 -0.001715 0.000000 0.002130 0.000000
# 3 -0.003210 -0.001715 0.008308 0.000000 -0.002284 0.000000
# 4 0.000000 0.000000 0.000000 0.059240 0.000000 0.020796
# 5 0.004172 0.002130 -0.002284 0.000000 0.043083 0.000000
# 6 0.000000 0.000000 0.000000 0.020796 0.000000 0.074246
#
#
# Mechanical properties :
#
#
# Convention : Reuss Voigt Hill
#
# Bulk Modulus (GPa) = 52.71212 61.57296 57.14254
# Shear Modulus (GPa) = 21.31818 27.11764 24.21791
#
# Velocity S-wave (km/s) = 3.37362 3.80493 3.59575
# Velocity P-wave (km/s) = 6.58156 7.22328 6.90987
#
# Compressibility (1/GPa) = 0.01897097
#
# Stress axis : x y z
#
# Youngs Moduli (GPa) = 93.96235 61.12530 120.37090
#
# Poissons Ratio (x) = 0.19834 0.38641
# Poissons Ratio (y) = 0.30488 0.20639
# Poissons Ratio (z) = 0.30163 0.10481
#
# Static dielectric constant tensor:
#      x y z
#    x 3.255150 0.000000 -0.073360 
#    y 0.000000 3.259220 0.000000 
#    z -0.073360 0.000000 4.332230 
# 
# 
# High freq. dielectric constant tensor:
#      x y z
#    x 1.724330 0.000000 -0.005150 
#    y 0.000000 1.697860 0.000000 
#    z -0.005150 0.000000 1.747480 
# 
# From -- ./inp_files/207736.got.cif
#   From: 2010.06.25/outbox.cif.g09.slc.cpg/sg12_104_cif.got.tgz:207736.got - 2010.06.28 00:19:55.
