data_PCOD8102086
_publ_section_title
;
Structure prediction by ZEFSAII (Michael W. Deem and Ramdas Pophale) SiO2 
 PCOD8102086
Probable space group: C 2/M
;
_chemical_formula_sum "Si O2"
_cell_formula_units_Z 48
_cell_length_a 15.098486
_cell_length_b 8.713329
_cell_length_c 26.787965
_cell_angle_alpha 90.000000
_cell_angle_beta 135.125923
_cell_angle_gamma 90.000000
_cell_volume 2486.483935
_symmetry_space_group_name_H-M "C 2/M"
_symmetry_group_IT_number 12
_symmetry_cell_setting 'monoclinic'
loop_
_space_group_symop_operation_xyz
x,y,z
-x,y,-z
-x,-y,-z
x,-y,z
1/2+x,1/2+y,z
1/2-x,1/2+y,-z
1/2-x,1/2-y,-z
1/2+x,1/2-y,z
loop_
_atom_site_type_symbol
_atom_site_label
_atom_site_fract_x
_atom_site_fract_y
_atom_site_fract_z
Si Si1 0.319609 0.818784 0.575228
Si Si2 0.877424 0.181729 0.423903
Si Si3 0.088133 0.180746 0.673339
Si Si4 0.273720 0.321252 0.825016
Si Si5 0.254974 0.322696 0.081927
Si Si6 0.936844 0.177488 0.066037
O O1 0.250000 0.750000 0.500000
O O2 0.246022 0.765697 0.595602
O O3 0.459539 0.759778 0.638019
O O4 0.318884 0.000000 0.568850
O O5 0.870514 0.243024 0.364556
O O6 0.000000 0.252022 0.500000
O O7 0.888641 0.000000 0.428022
O O8 0.195815 0.222465 0.754949
O O9 0.066067 0.000000 0.664005
O O10 0.249412 0.500000 0.805815
O O11 0.229846 0.280036 0.863081
O O12 0.418242 0.276491 0.874105
O O13 0.248302 0.500000 0.094765
O O14 0.375092 0.287888 0.095063
O O15 0.127651 0.279404 0.002245
O O16 0.918287 0.000000 0.043764
#
# Coordination Sequence:
#
# PCOD8102086 Si02
#       6
#     8   8   8   8   8   8
#     4  11  21  37  61  87 114 146 186 232 284 340
#     4   9  18  36  60  83 111 146 184 229 283 340
#     4  11  23  40  59  83 114 151 193 238 288 343
#     4  11  23  39  57  81 118 156 191 235 289 343
#     4  10  20  36  60  89 117 150 194 239 283 338
#     4   9  20  38  59  84 117 155 193 237 285 336
#
# _framework density 19.304366999999999
#
# number of rings (size 3 to 8) (size 9 to 14) (size 15 to 20)
#    0.000    1.833    1.667    2.500    0.000    5.333 
#    0.000    7.500    0.000    0.000    0.000    0.000 
#    0.000    0.000    0.000    0.000    0.000    0.000 
#
# Total GULP energy -297689.836719 kJ/mol
# GULP energy per Si atom -12403.743197 kJ/mol
# Density = 1.926043 g / cm^3
# Si number density = 19.304367 Si / 1000 Ang^3
#
#
#
# Elastic Constant Matrix: (Units=GPa)
#
#
# Indices 1 2 3 4 5 6 
#
# 1 150.5057 38.6899 68.5148 0.0000 -8.8324 0.0000
# 2 38.6899 50.2481 18.5490 0.0000 3.6726 0.0000
# 3 68.5148 18.5490 102.4621 0.0000 -6.6943 0.0000
# 4 0.0000 0.0000 0.0000 35.3750 0.0000 1.3003
# 5 -8.8324 3.6726 -6.6943 0.0000 20.7528 0.0000
# 6 0.0000 0.0000 0.0000 1.3003 0.0000 27.6065
#
#
#
# Elastic Compliance Matrix: (Units=1/GPa)
#
#
# Indices 1 2 3 4 5 6 
#
# 1 0.011440 -0.006840 -0.006144 0.000000 0.004097 0.000000
# 2 -0.006840 0.025964 -0.000630 0.000000 -0.007709 0.000000
# 3 -0.006144 -0.000630 0.014116 0.000000 0.002050 0.000000
# 4 0.000000 0.000000 0.000000 0.028318 0.000000 -0.001334
# 5 0.004097 -0.007709 0.002050 0.000000 0.051956 0.000000
# 6 0.000000 0.000000 0.000000 -0.001334 0.000000 0.036286
#
#
# Mechanical properties :
#
#
# Convention : Reuss Voigt Hill
#
# Bulk Modulus (GPa) = 41.16583 61.63592 51.40087
# Shear Modulus (GPa) = 24.58159 28.57768 26.57964
#
# Velocity S-wave (km/s) = 3.57230 3.85174 3.71465
# Velocity P-wave (km/s) = 6.19565 7.19576 6.71435
#
# Compressibility (1/GPa) = 0.02429199
#
# Stress axis : x y z
#
# Youngs Moduli (GPa) = 87.41380 38.51494 70.84192
#
# Poissons Ratio (x) = 0.26344 0.43523
# Poissons Ratio (y) = 0.59791 0.04465
# Poissons Ratio (z) = 0.53704 0.02427
#
# Static dielectric constant tensor:
#      x y z
#    x 3.942170 0.000000 -0.002150 
#    y 0.000000 3.444380 0.000000 
#    z -0.002150 0.000000 3.505670 
# 
# 
# High freq. dielectric constant tensor:
#      x y z
#    x 1.768390 0.000000 -0.000620 
#    y 0.000000 1.744520 0.000000 
#    z -0.000620 0.000000 1.747110 
# 
# From -- ./inp_files/360228.got.cif
#   From: 2010.06.25/outbox.cif.g09.slc.cpg/sg12_181_cif.got.tgz:360228.got - 2010.06.28 00:19:55.
