data_PCOD8102804
_publ_section_title
;
Structure prediction by ZEFSAII (Michael W. Deem and Ramdas Pophale) SiO2 
 PCOD8102804
Probable space group: C 2/M
;
_chemical_formula_sum "Si O2"
_cell_formula_units_Z 56
_cell_length_a 18.631281
_cell_length_b 8.657387
_cell_length_c 26.563795
_cell_angle_alpha 90.000000
_cell_angle_beta 42.813896
_cell_angle_gamma 90.000000
_cell_volume 2911.959501
_symmetry_space_group_name_H-M "C 2/M"
_symmetry_group_IT_number 12
_symmetry_cell_setting 'monoclinic'
loop_
_space_group_symop_operation_xyz
x,y,z
-x,y,-z
-x,-y,-z
x,-y,z
1/2+x,1/2+y,z
1/2-x,1/2+y,-z
1/2-x,1/2-y,-z
1/2+x,1/2-y,z
loop_
_atom_site_type_symbol
_atom_site_label
_atom_site_fract_x
_atom_site_fract_y
_atom_site_fract_z
Si Si1 0.862340 0.321760 0.438812
Si Si2 0.264259 0.319448 0.736723
Si Si3 0.038664 0.683802 0.424416
Si Si4 0.059974 0.171298 0.802419
Si Si5 0.817381 0.183758 0.920185
Si Si6 0.684734 0.182840 0.182224
Si Si7 0.040162 0.827614 0.701221
O O1 0.853108 0.500000 0.454973
O O2 0.750000 0.250000 0.500000
O O3 0.948993 0.252292 0.432549
O O4 0.891373 0.285596 0.367195
O O5 0.285857 0.500000 0.727060
O O6 0.348445 0.248404 0.653301
O O7 0.143022 0.287771 0.784284
O O8 0.269697 0.252164 0.790046
O O9 0.049144 0.500000 0.417502
O O10 0.000000 0.738671 0.500000
O O11 0.939411 0.233523 0.867649
O O12 0.095843 0.157198 0.726120
O O13 0.068240 0.000000 0.823029
O O14 0.765044 0.254041 0.895871
O O15 0.810424 0.000000 0.919754
O O16 0.750000 0.250000 0.000000
O O17 0.567021 0.238396 0.237534
O O18 0.695438 0.000000 0.179447
O O19 0.025141 0.000000 0.685381
#
# Coordination Sequence:
#
# PCOD8102804 Si02
#       7
#     8   8   8   8   8   8   8
#     4  11  23  37  56  81 112 152 195 248 303 357
#     4  12  24  38  60  89 121 156 201 254 300 350
#     4  10  23  42  60  80 113 160 204 246 306 364
#     4   9  21  39  60  86 120 158 195 235 293 355
#     4  10  21  40  66  96 127 160 196 242 294 351
#     4  11  21  37  62  88 118 158 198 239 292 354
#     4  10  20  37  59  83 112 149 195 248 297 352
#
# _framework density 19.231034999999999
#
# number of rings (size 3 to 8) (size 9 to 14) (size 15 to 20)
#    0.000    1.571    1.429    4.714    2.000    4.286 
#    0.000    0.714    0.000    4.286    0.000    0.000 
#    0.000    0.000    0.000    0.000    0.000    0.000 
#
# Total GULP energy -346954.205687 kJ/mol
# GULP energy per Si atom -12391.221632 kJ/mol
# Density = 1.918726 g / cm^3
# Si number density = 19.231035 Si / 1000 Ang^3
#
#
#
# Elastic Constant Matrix: (Units=GPa)
#
#
# Indices 1 2 3 4 5 6 
#
# 1 108.3385 47.1684 58.4719 -0.0001 5.1355 -0.0009
# 2 47.1684 98.4982 42.5072 -0.0002 5.1252 -0.0023
# 3 58.4719 42.5072 161.4363 0.0000 19.7131 -0.0001
# 4 -0.0001 -0.0002 0.0000 33.0659 0.0000 2.4692
# 5 5.1355 5.1252 19.7131 0.0000 28.6231 0.0000
# 6 -0.0009 -0.0023 -0.0001 2.4692 0.0000 31.3660
#
#
#
# Elastic Compliance Matrix: (Units=1/GPa)
#
#
# Indices 1 2 3 4 5 6 
#
# 1 0.013254 -0.004823 -0.003653 0.000000 0.001001 0.000000
# 2 -0.004823 0.013209 -0.001690 0.000000 -0.000336 0.000001
# 3 -0.003653 -0.001690 0.008566 0.000000 -0.004941 0.000000
# 4 0.000000 0.000000 0.000000 0.030421 0.000000 -0.002395
# 5 0.001001 -0.000336 -0.004941 0.000000 0.038220 0.000000
# 6 0.000000 0.000001 0.000000 -0.002395 0.000000 0.032070
#
#
# Mechanical properties :
#
#
# Convention : Reuss Voigt Hill
#
# Bulk Modulus (GPa) = 68.04092 73.84086 70.94089
# Shear Modulus (GPa) = 31.06130 33.28606 32.17368
#
# Velocity S-wave (km/s) = 4.02327 4.16486 4.09468
# Velocity P-wave (km/s) = 7.55248 7.84909 7.70221
#
# Compressibility (1/GPa) = 0.01469704
#
# Stress axis : x y z
#
# Youngs Moduli (GPa) = 75.44784 75.70692 116.74113
#
# Poissons Ratio (x) = 0.36511 0.42646
# Poissons Ratio (y) = 0.36386 0.19731
# Poissons Ratio (z) = 0.27562 0.12796
#
# Static dielectric constant tensor:
#      x y z
#    x 3.743730 0.000000 -0.247170 
#    y 0.000000 3.613750 0.000000 
#    z -0.247170 0.000000 3.290450 
# 
# 
# High freq. dielectric constant tensor:
#      x y z
#    x 1.749800 0.000000 0.009100 
#    y 0.000000 1.753260 0.000000 
#    z 0.009100 0.000000 1.745330 
# 
# From -- ./inp_files/363025.got.cif
#   From: 2010.06.25/outbox.cif.g09.slc.cpg/sg12_182_cif.got.tgz:363025.got - 2010.06.28 00:19:55.
