data_PCOD8102247
_publ_section_title
;
Structure prediction by ZEFSAII (Michael W. Deem and Ramdas Pophale) SiO2 
 PCOD8102247
Probable space group: C 2/M
;
_chemical_formula_sum "Si O2"
_cell_formula_units_Z 64
_cell_length_a 22.840363
_cell_length_b 8.548643
_cell_length_c 29.594264
_cell_angle_alpha 90.000000
_cell_angle_beta 34.059379
_cell_angle_gamma 90.000000
_cell_volume 3236.204154
_symmetry_space_group_name_H-M "C 2/M"
_symmetry_group_IT_number 12
_symmetry_cell_setting 'monoclinic'
loop_
_space_group_symop_operation_xyz
x,y,z
-x,y,-z
-x,-y,-z
x,-y,z
1/2+x,1/2+y,z
1/2-x,1/2+y,-z
1/2-x,1/2-y,-z
1/2+x,1/2-y,z
loop_
_atom_site_type_symbol
_atom_site_label
_atom_site_fract_x
_atom_site_fract_y
_atom_site_fract_z
Si Si1 0.637253 0.814859 0.562500
Si Si2 0.626273 0.680020 0.381830
Si Si3 0.654314 0.818943 0.120690
Si Si4 0.094832 0.319492 0.489335
Si Si5 0.053859 0.678487 0.917593
Si Si6 0.272051 0.180873 0.766004
Si Si7 0.124821 0.682630 0.037134
Si Si8 0.433209 0.682677 0.734503
O O1 0.750000 0.750000 0.500000
O O2 0.619088 0.758786 0.523343
O O3 0.551261 0.737028 0.649832
O O4 0.630803 0.000000 0.572735
O O5 0.593283 0.500000 0.398681
O O6 0.663656 0.719175 0.409163
O O7 0.528340 0.793359 0.437476
O O8 0.713088 0.720783 0.289445
O O9 0.606567 0.779726 0.101771
O O10 0.592084 0.718129 0.197175
O O11 0.640026 0.000000 0.141894
O O12 0.776915 0.779224 0.044096
O O13 0.123389 0.500000 0.464879
O O14 0.089406 0.500000 0.886457
O O15 0.153704 0.789949 0.856461
O O16 0.976619 0.733339 0.926706
O O17 0.000000 0.695814 0.000000
O O18 0.352135 0.230063 0.753764
O O19 0.290587 0.000000 0.743949
O O20 0.149723 0.500000 0.013919
O O21 0.422400 0.500000 0.732043
#
# Coordination Sequence:
#
# PCOD8102247 Si02
#       8
#     8   8   8   8   8   8   8   8
#     4  11  24  42  64  89 121 157 197 246 302 358
#     4  11  21  35  60  89 117 154 197 240 292 352
#     4  10  20  36  61  90 121 160 203 247 295 350
#     4  10  20  37  61  87 119 153 191 242 296 350
#     4  10  21  38  60  88 123 160 198 242 296 356
#     4  12  24  39  60  88 121 156 198 250 303 357
#     4   9  19  37  60  88 124 162 200 243 294 353
#     4  12  24  40  63  88 117 154 202 251 299 358
#
# _framework density 19.776256
#
# number of rings (size 3 to 8) (size 9 to 14) (size 15 to 20)
#    0.000    1.375    1.250    6.000    0.000    3.750 
#    2.250    0.000    0.000    0.000    0.000    0.000 
#    0.000    0.000    0.000    0.000    0.000    0.000 
#
# Total GULP energy -396862.833397 kJ/mol
# GULP energy per Si atom -12401.963544 kJ/mol
# Density = 1.973124 g / cm^3
# Si number density = 19.776256 Si / 1000 Ang^3
#
#
#
# Elastic Constant Matrix: (Units=GPa)
#
#
# Indices 1 2 3 4 5 6 
#
# 1 85.1131 28.3025 59.7203 -0.0273 4.4087 0.1038
# 2 28.3025 71.4954 32.0373 -0.0245 6.4697 -0.0955
# 3 59.7203 32.0373 114.3908 0.0051 7.9310 0.0014
# 4 -0.0273 -0.0245 0.0051 35.5107 0.0086 0.2475
# 5 4.4087 6.4697 7.9310 0.0086 35.7241 -0.0460
# 6 0.1038 -0.0955 0.0014 0.2475 -0.0460 25.5507
#
#
#
# Elastic Compliance Matrix: (Units=1/GPa)
#
#
# Indices 1 2 3 4 5 6 
#
# 1 0.019311 -0.003595 -0.009095 0.000014 0.000287 -0.000091
# 2 -0.003595 0.016796 -0.002688 0.000009 -0.002001 0.000074
# 3 -0.009095 -0.002688 0.014352 -0.000011 -0.001577 0.000023
# 4 0.000014 0.000009 -0.000011 0.028162 -0.000008 -0.000273
# 5 0.000287 -0.002001 -0.001577 -0.000008 0.028669 0.000043
# 6 -0.000091 0.000074 0.000023 -0.000273 0.000043 0.039141
#
#
# Mechanical properties :
#
#
# Convention : Reuss Voigt Hill
#
# Bulk Modulus (GPa) = 50.75424 56.79106 53.77265
# Shear Modulus (GPa) = 27.20978 29.41972 28.31475
#
# Velocity S-wave (km/s) = 3.71331 3.86116 3.78796
# Velocity P-wave (km/s) = 6.64115 6.97547 6.81036
#
# Compressibility (1/GPa) = 0.01970279
#
# Stress axis : x y z
#
# Youngs Moduli (GPa) = 51.78295 59.53802 69.67480
#
# Poissons Ratio (x) = 0.21406 0.63368
# Poissons Ratio (y) = 0.18618 0.18730
# Poissons Ratio (z) = 0.47096 0.16005
#
# Static dielectric constant tensor:
#      x y z
#    x 3.527180 0.000770 0.221790 
#    y 0.000770 3.644870 0.000170 
#    z 0.221790 0.000170 3.619380 
# 
# 
# High freq. dielectric constant tensor:
#      x y z
#    x 1.771160 0.000000 0.020090 
#    y 0.000000 1.777730 0.000000 
#    z 0.020090 0.000000 1.770220 
# 
# From -- ./inp_files/382250.got.cif
#   From: 2010.06.25/outbox.cif.g09.slc.cpg/sg12_192_cif.got.tgz:382250.got - 2010.06.28 00:19:55.
