data_PCOD8102338
_publ_section_title
;
Structure prediction by ZEFSAII (Michael W. Deem and Ramdas Pophale) SiO2 
 PCOD8102338
Probable space group: C 2/M
;
_chemical_formula_sum "Si O2"
_cell_formula_units_Z 40
_cell_length_a 16.896201
_cell_length_b 10.125859
_cell_length_c 14.936170
_cell_angle_alpha 90.000000
_cell_angle_beta 132.386657
_cell_angle_gamma 90.000000
_cell_volume 1887.455656
_symmetry_space_group_name_H-M "C 2/M"
_symmetry_group_IT_number 12
_symmetry_cell_setting 'monoclinic'
loop_
_space_group_symop_operation_xyz
x,y,z
-x,y,-z
-x,-y,-z
x,-y,z
1/2+x,1/2+y,z
1/2-x,1/2+y,-z
1/2-x,1/2-y,-z
1/2+x,1/2-y,z
loop_
_atom_site_type_symbol
_atom_site_label
_atom_site_fract_x
_atom_site_fract_y
_atom_site_fract_z
Si Si1 0.568036 0.500000 0.797275
Si Si2 0.677051 0.500000 0.057975
Si Si3 0.300081 0.151604 0.467040
Si Si4 0.794050 0.500000 0.871725
Si Si5 0.402066 0.000000 0.132086
Si Si6 0.249139 0.225349 0.231518
Si Si7 0.025614 0.725212 0.694133
O O1 0.685445 0.500000 0.845006
O O2 0.503619 0.371880 0.714978
O O3 0.577788 0.500000 0.912902
O O4 0.784906 0.500000 0.083957
O O5 0.672236 0.630364 0.115356
O O6 0.250000 0.250000 0.500000
O O7 0.245846 0.179482 0.330771
O O8 0.426984 0.179256 0.557807
O O9 0.278247 0.000000 0.477859
O O10 0.798886 0.372205 0.812149
O O11 0.893168 0.500000 0.017397
O O12 0.464293 0.130434 0.211860
O O13 0.370218 0.217472 0.288242
#
# Coordination Sequence:
#
# PCOD8102338 Si02
#       7
#     4   4   8   4   4   8   8
#     4   9  18  31  55  94 126 147 178 231 292 339
#     4   9  16  31  57  90 122 149 184 231 284 339
#     4  12  27  43  60  80 112 155 196 241 291 341
#     4   9  18  31  55  94 126 147 178 231 292 339
#     4   9  16  31  57  90 122 149 184 231 284 339
#     4  10  20  36  62  90 117 150 191 237 282 336
#     4  10  20  36  62  90 117 150 191 237 282 336
#
# _framework density 21.192551000000002
#
# number of rings (size 3 to 8) (size 9 to 14) (size 15 to 20)
#    0.000    2.000    2.000    1.800    2.800    5.600 
#    0.000    3.000    0.000    7.200    0.000    0.000 
#    0.000    0.000    0.000    0.000    0.000    0.000 
#
# Total GULP energy -248030.840979 kJ/mol
# GULP energy per Si atom -12401.542049 kJ/mol
# Density = 2.114432 g / cm^3
# Si number density = 21.192551 Si / 1000 Ang^3
#
#
#
# Elastic Constant Matrix: (Units=GPa)
#
#
# Indices 1 2 3 4 5 6 
#
# 1 27.7327 21.9970 10.9582 0.0000 -16.0438 0.0000
# 2 21.9970 198.7058 44.8421 0.0000 -18.5712 0.0000
# 3 10.9582 44.8421 97.2215 0.0000 -26.0532 0.0000
# 4 0.0000 0.0000 0.0000 35.1327 0.0000 -2.6798
# 5 -16.0438 -18.5712 -26.0532 0.0000 19.9857 0.0000
# 6 0.0000 0.0000 0.0000 -2.6798 0.0000 21.8728
#
#
#
# Elastic Compliance Matrix: (Units=1/GPa)
#
#
# Indices 1 2 3 4 5 6 
#
# 1 0.078897 -0.004667 0.013940 0.000000 0.077171 0.000000
# 2 -0.004667 0.006000 -0.002691 0.000000 -0.001681 0.000000
# 3 0.013940 -0.002691 0.018880 0.000000 0.033301 0.000000
# 4 0.000000 0.000000 0.000000 0.028732 0.000000 0.003520
# 5 0.077171 -0.001681 0.033301 0.000000 0.153835 0.000000
# 6 0.000000 0.000000 0.000000 0.003520 0.000000 0.046150
#
#
# Mechanical properties :
#
#
# Convention : Reuss Voigt Hill
#
# Bulk Modulus (GPa) = 8.55149 53.25052 30.90101
# Shear Modulus (GPa) = 13.95435 31.78910 22.87172
#
# Velocity S-wave (km/s) = 2.56882 3.87720 3.28873
# Velocity P-wave (km/s) = 3.58362 6.72496 5.38830
#
# Compressibility (1/GPa) = 0.11693872
#
# Stress axis : x y z
#
# Youngs Moduli (GPa) = 12.67478 166.67817 52.96608
#
# Poissons Ratio (x) = 0.77796 -0.73835
# Poissons Ratio (y) = 0.05916 0.14256
# Poissons Ratio (z) = -0.17669 0.44861
#
# Static dielectric constant tensor:
#      x y z
#    x 3.292310 0.000000 0.014050 
#    y 0.000000 4.128150 0.000000 
#    z 0.014050 0.000000 3.988620 
# 
# 
# High freq. dielectric constant tensor:
#      x y z
#    x 1.781940 0.000000 -0.003700 
#    y 0.000000 1.850140 0.000000 
#    z -0.003700 0.000000 1.839930 
# 
# From -- ./inp_files/230664.got.cif
#   From: 2010.06.25/outbox.cif.g09.slc.cpg/sg12_116_cif.got.tgz:230664.got - 2010.06.28 00:19:55.
