data_PCOD8102808
_publ_section_title
;
Structure prediction by ZEFSAII (Michael W. Deem and Ramdas Pophale) SiO2 
 PCOD8102808
Probable space group: C 2/M
;
_chemical_formula_sum "Si O2"
_cell_formula_units_Z 56
_cell_length_a 27.352734
_cell_length_b 9.516718
_cell_length_c 17.758246
_cell_angle_alpha 90.000000
_cell_angle_beta 142.159636
_cell_angle_gamma 90.000000
_cell_volume 2835.807694
_symmetry_space_group_name_H-M "C 2/M"
_symmetry_group_IT_number 12
_symmetry_cell_setting 'monoclinic'
loop_
_space_group_symop_operation_xyz
x,y,z
-x,y,-z
-x,-y,-z
x,-y,z
1/2+x,1/2+y,z
1/2-x,1/2+y,-z
1/2-x,1/2-y,-z
1/2+x,1/2-y,z
loop_
_atom_site_type_symbol
_atom_site_label
_atom_site_fract_x
_atom_site_fract_y
_atom_site_fract_z
Si Si1 0.344174 0.657154 0.420488
Si Si2 0.929549 0.162783 0.109983
Si Si3 0.716069 0.834658 0.387246
Si Si4 0.609630 0.156467 0.660811
Si Si5 0.262865 0.347077 0.946263
Si Si6 0.464994 0.834550 0.876016
Si Si7 0.019485 0.842782 0.663469
O O1 0.327717 0.500000 0.368933
O O2 0.272328 0.705687 0.386042
O O3 0.353333 0.765123 0.364555
O O4 0.425621 0.659674 0.567096
O O5 0.939585 0.205777 0.209782
O O6 0.982896 0.259728 0.123376
O O7 0.952541 0.000000 0.123454
O O8 0.836283 0.197794 0.980678
O O9 0.750000 0.750000 0.500000
O O10 0.626996 0.791327 0.251749
O O11 0.720476 0.000000 0.411929
O O12 0.681293 0.145473 0.804607
O O13 0.538087 0.240019 0.615448
O O14 0.579446 0.000000 0.602134
O O15 0.286579 0.500000 0.007395
O O16 0.250000 0.250000 0.000000
O O17 0.475828 0.000000 0.879883
O O18 0.500000 0.786680 0.000000
O O19 0.047037 0.000000 0.673546
#
# Coordination Sequence:
#
# PCOD8102808 Si02
#       7
#     8   8   8   8   8   8   8
#     4  10  22  38  59  84 112 152 195 232 280 344
#     4  10  21  38  61  86 114 152 195 237 285 344
#     4  10  22  42  65  89 118 155 201 248 297 354
#     4  11  23  36  54  85 120 150 187 235 287 339
#     4  10  21  37  57  84 116 151 192 233 280 343
#     4  10  23  41  61  90 123 154 194 248 305 355
#     4  10  20  37  59  83 113 152 195 232 276 342
#
# _framework density 19.74746
#
# number of rings (size 3 to 8) (size 9 to 14) (size 15 to 20)
#    0.000    1.857    1.429    1.714    2.000    6.571 
#    0.000    0.000    0.000    0.000    0.000    0.000 
#    0.000    0.000    0.000    0.000    0.000    0.000 
#
# Total GULP energy -347083.270304 kJ/mol
# GULP energy per Si atom -12395.831082 kJ/mol
# Density = 1.970251 g / cm^3
# Si number density = 19.747460 Si / 1000 Ang^3
#
#
#
# Elastic Constant Matrix: (Units=GPa)
#
#
# Indices 1 2 3 4 5 6 
#
# 1 150.5268 69.8528 42.3275 0.0000 12.9874 0.0000
# 2 69.8528 90.1876 32.1921 0.0000 -4.6849 0.0000
# 3 42.3275 32.1921 79.9300 0.0000 8.4625 0.0000
# 4 0.0000 0.0000 0.0000 26.7245 0.0000 -3.3623
# 5 12.9874 -4.6849 8.4625 0.0000 37.5740 0.0000
# 6 0.0000 0.0000 0.0000 -3.3623 0.0000 41.7937
#
#
#
# Elastic Compliance Matrix: (Units=1/GPa)
#
#
# Indices 1 2 3 4 5 6 
#
# 1 0.011561 -0.008380 -0.002267 0.000000 -0.004530 0.000000
# 2 -0.008380 0.019331 -0.004005 0.000000 0.006209 0.000000
# 3 -0.002267 -0.004005 0.015668 0.000000 -0.003245 0.000000
# 4 0.000000 0.000000 0.000000 0.037802 0.000000 0.003041
# 5 -0.004530 0.006209 -0.003245 0.000000 0.029685 0.000000
# 6 0.000000 0.000000 0.000000 0.003041 0.000000 0.024172
#
#
# Mechanical properties :
#
#
# Convention : Reuss Voigt Hill
#
# Bulk Modulus (GPa) = 57.95568 67.70991 62.83279
# Shear Modulus (GPa) = 28.85605 32.96988 30.91297
#
# Velocity S-wave (km/s) = 3.82678 4.09048 3.96082
# Velocity P-wave (km/s) = 6.99556 7.52806 7.26669
#
# Compressibility (1/GPa) = 0.01725457
#
# Stress axis : x y z
#
# Youngs Moduli (GPa) = 86.50143 51.73128 63.82343
#
# Poissons Ratio (x) = 0.43351 0.14471
# Poissons Ratio (y) = 0.72488 0.25562
# Poissons Ratio (z) = 0.19612 0.20719
#
# Static dielectric constant tensor:
#      x y z
#    x 3.531850 0.000000 0.246420 
#    y 0.000000 3.812430 0.000000 
#    z 0.246420 0.000000 3.772930 
# 
# 
# High freq. dielectric constant tensor:
#      x y z
#    x 1.769040 0.000000 0.016000 
#    y 0.000000 1.767780 0.000000 
#    z 0.016000 0.000000 1.785100 
# 
# From -- ./inp_files/288463.got.cif
#   From: 2010.06.25/outbox.cif.g09.slc.cpg/sg12_145_cif.got.tgz:288463.got - 2010.06.28 00:19:55.
