data_PCOD8102421
_publ_section_title
;
Structure prediction by ZEFSAII (Michael W. Deem and Ramdas Pophale) SiO2 
 PCOD8102421
Probable space group: C 2/M
;
_chemical_formula_sum "Si O2"
_cell_formula_units_Z 52
_cell_length_a 9.490001
_cell_length_b 27.208161
_cell_length_c 15.876806
_cell_angle_alpha 90.000000
_cell_angle_beta 140.727586
_cell_angle_gamma 90.000000
_cell_volume 2595.003426
_symmetry_space_group_name_H-M "C 2/M"
_symmetry_group_IT_number 12
_symmetry_cell_setting 'monoclinic'
loop_
_space_group_symop_operation_xyz
x,y,z
-x,y,-z
-x,-y,-z
x,-y,z
1/2+x,1/2+y,z
1/2-x,1/2+y,-z
1/2-x,1/2-y,-z
1/2+x,1/2-y,z
loop_
_atom_site_type_symbol
_atom_site_label
_atom_site_fract_x
_atom_site_fract_y
_atom_site_fract_z
Si Si1 0.090485 0.192153 0.669166
Si Si2 0.727719 0.212422 0.640737
Si Si3 0.935238 0.444132 0.739715
Si Si4 0.014794 0.636266 0.915283
Si Si5 0.011305 0.844022 0.904183
Si Si6 0.878021 0.052183 0.855361
Si Si7 0.000000 0.110841 0.500000
O O1 0.155659 0.232395 0.630051
O O2 0.316729 0.175323 0.817851
O O3 0.983746 0.144698 0.575127
O O4 0.915751 0.213490 0.655717
O O5 0.500000 0.186323 0.500000
O O6 0.824744 0.188410 0.771195
O O7 0.908606 0.500000 0.760902
O O8 0.012658 0.408839 0.850428
O O9 0.709401 0.424857 0.595164
O O10 0.115299 0.441239 0.748858
O O11 0.000000 0.611906 0.000000
O O12 0.238412 0.668962 0.007117
O O13 0.969496 0.899857 0.850552
O O14 0.000000 0.838399 0.000000
O O15 0.919762 0.000000 0.825450
O O16 0.000000 0.048033 0.000000
#
# Coordination Sequence:
#
# PCOD8102421 Si02
#       7
#     8   8   8   8   8   8   4
#     4  11  26  43  65  91 122 171 211 270 317 385
#     4  12  27  43  66  92 129 163 222 262 326 382
#     4  10  20  36  63  92 124 168 211 255 309 383
#     4  11  22  41  59  92 132 158 208 268 323 364
#     4  11  23  40  67  94 124 171 210 266 321 380
#     4   9  17  33  59  89 117 155 213 255 298 371
#     4  10  23  40  64  86 132 164 215 258 320 380
#
# _framework density 20.038509000000001
#
# number of rings (size 3 to 8) (size 9 to 14) (size 15 to 20)
#    0.000    1.385    5.385    0.692    4.308    1.538 
#    0.000    0.000    0.000    0.462    0.000    0.000 
#    0.000    0.000    0.000    0.000    0.000    0.000 
#
# Total GULP energy -322241.769141 kJ/mol
# GULP energy per Si atom -12393.914198 kJ/mol
# Density = 1.999290 g / cm^3
# Si number density = 20.038509 Si / 1000 Ang^3
#
#
#
# Elastic Constant Matrix: (Units=GPa)
#
#
# Indices 1 2 3 4 5 6 
#
# 1 97.9595 24.3362 37.6816 0.0000 15.8246 0.0000
# 2 24.3362 77.8491 38.8477 0.0000 12.8269 0.0000
# 3 37.6816 38.8477 131.4520 0.0000 21.5350 0.0000
# 4 0.0000 0.0000 0.0000 23.7085 0.0000 4.0775
# 5 15.8246 12.8269 21.5350 0.0000 31.6195 0.0000
# 6 0.0000 0.0000 0.0000 4.0775 0.0000 19.3299
#
#
#
# Elastic Compliance Matrix: (Units=1/GPa)
#
#
# Indices 1 2 3 4 5 6 
#
# 1 0.012198 -0.002064 -0.002278 0.000000 -0.003716 0.000000
# 2 -0.002064 0.015762 -0.003589 0.000000 -0.002917 0.000000
# 3 -0.002278 -0.003589 0.010013 0.000000 -0.004224 0.000000
# 4 0.000000 0.000000 0.000000 0.043767 0.000000 -0.009232
# 5 -0.003716 -0.002917 -0.004224 0.000000 0.037546 0.000000
# 6 0.000000 0.000000 0.000000 -0.009232 0.000000 0.053681
#
#
# Mechanical properties :
#
#
# Convention : Reuss Voigt Hill
#
# Bulk Modulus (GPa) = 45.22563 56.55462 50.89012
# Shear Modulus (GPa) = 25.48463 28.69125 27.08794
#
# Velocity S-wave (km/s) = 3.57008 3.78803 3.68066
# Velocity P-wave (km/s) = 6.29383 6.88596 6.59654
#
# Compressibility (1/GPa) = 0.02211136
#
# Stress axis : x y z
#
# Youngs Moduli (GPa) = 81.98373 63.44384 99.87302
#
# Poissons Ratio (x) = 0.13096 0.22749
# Poissons Ratio (y) = 0.16923 0.35840
# Poissons Ratio (z) = 0.18674 0.22767
#
# Static dielectric constant tensor:
#      x y z
#    x 3.515490 0.000000 0.301600 
#    y 0.000000 3.869710 0.000000 
#    z 0.301600 0.000000 3.922640 
# 
# 
# High freq. dielectric constant tensor:
#      x y z
#    x 1.767230 0.000000 0.024690 
#    y 0.000000 1.781580 0.000000 
#    z 0.024690 0.000000 1.793090 
# 
# From -- ./inp_files/201364.got.cif
#   From: 2010.06.25/outbox.cif.g09.slc.cpg/sg12_101_cif.got.tgz:201364.got - 2010.06.28 00:19:55.
