data_PCOD8102518
_publ_section_title
;
Structure prediction by ZEFSAII (Michael W. Deem and Ramdas Pophale) SiO2 
 PCOD8102518
Probable space group: C 2/M
;
_chemical_formula_sum "Si O2"
_cell_formula_units_Z 56
_cell_length_a 30.127485
_cell_length_b 8.881003
_cell_length_c 16.730174
_cell_angle_alpha 90.000000
_cell_angle_beta 45.402902
_cell_angle_gamma 90.000000
_cell_volume 3187.446651
_symmetry_space_group_name_H-M "C 2/M"
_symmetry_group_IT_number 12
_symmetry_cell_setting 'monoclinic'
loop_
_space_group_symop_operation_xyz
x,y,z
-x,y,-z
-x,-y,-z
x,-y,z
1/2+x,1/2+y,z
1/2-x,1/2+y,-z
1/2-x,1/2-y,-z
1/2+x,1/2-y,z
loop_
_atom_site_type_symbol
_atom_site_label
_atom_site_fract_x
_atom_site_fract_y
_atom_site_fract_z
Si Si1 0.719589 0.822921 0.654573
Si Si2 0.803860 0.823346 0.984234
Si Si3 0.240292 0.321179 0.806138
Si Si4 0.874050 0.323454 0.641364
Si Si5 0.159071 0.174783 0.592858
Si Si6 0.922622 0.827099 0.731049
Si Si7 0.562452 0.673379 0.586491
O O1 0.715650 0.766574 0.750844
O O2 0.785414 0.767026 0.535081
O O3 0.662738 0.756577 0.674117
O O4 0.714715 0.000000 0.658148
O O5 0.804711 0.752535 0.071407
O O6 0.791051 0.000000 0.005733
O O7 0.750000 0.750000 0.000000
O O8 0.870438 0.785466 0.861719
O O9 0.239208 0.500000 0.816146
O O10 0.310392 0.267295 0.731915
O O11 0.860006 0.500000 0.660155
O O12 0.918111 0.279203 0.659651
O O13 0.909004 0.280998 0.516244
O O14 0.093808 0.212548 0.632203
O O15 0.166750 0.000000 0.600446
O O16 0.989115 0.798049 0.688457
O O17 0.916152 0.000000 0.711016
O O18 0.577526 0.500000 0.544176
#
# Coordination Sequence:
#
# PCOD8102518 Si02
#       7
#     8   8   8   8   8   8   8
#     4   9  18  32  51  77 105 134 169 213 265 315
#     4  11  22  36  55  80 105 138 181 224 265 308
#     4  11  21  36  56  77 107 143 178 218 265 316
#     4  12  23  33  51  80 111 141 175 219 264 313
#     4   9  17  31  52  77 105 134 170 213 257 312
#     4  10  22  38  56  74 104 146 182 215 259 316
#     4  10  20  37  56  76 106 146 180 210 259 320
#
# _framework density 17.568922000000001
#
# number of rings (size 3 to 8) (size 9 to 14) (size 15 to 20)
#    0.000    1.714    2.857    2.571    0.000    4.571 
#    0.000    0.000    0.000    0.857    0.000    6.000 
#    0.000    0.000    0.000    0.000    0.000    0.000 
#
# Total GULP energy -347273.699758 kJ/mol
# GULP energy per Si atom -12402.632134 kJ/mol
# Density = 1.752893 g / cm^3
# Si number density = 17.568922 Si / 1000 Ang^3
#
#
#
# Elastic Constant Matrix: (Units=GPa)
#
#
# Indices 1 2 3 4 5 6 
#
# 1 139.3530 34.1795 39.6834 0.0002 10.4272 0.0000
# 2 34.1795 55.6861 21.6978 0.0055 5.8667 -0.0019
# 3 39.6834 21.6978 59.0298 0.0012 1.6726 -0.0005
# 4 0.0002 0.0055 0.0012 25.5961 -0.0001 5.5077
# 5 10.4272 5.8667 1.6726 -0.0001 28.8482 -0.0001
# 6 0.0000 -0.0019 -0.0005 5.5077 -0.0001 28.9891
#
#
#
# Elastic Compliance Matrix: (Units=1/GPa)
#
#
# Indices 1 2 3 4 5 6 
#
# 1 0.009726 -0.003723 -0.005100 0.000001 -0.002463 -0.000001
# 2 -0.003723 0.022814 -0.005799 -0.000005 -0.002958 0.000002
# 3 -0.005100 -0.005799 0.022452 0.000000 0.001721 0.000000
# 4 0.000001 -0.000005 0.000000 0.040734 0.000001 -0.007739
# 5 -0.002463 -0.002958 0.001721 0.000001 0.036056 0.000000
# 6 -0.000001 0.000002 0.000000 -0.007739 0.000000 0.035966
#
#
# Mechanical properties :
#
#
# Convention : Reuss Voigt Hill
#
# Bulk Modulus (GPa) = 38.83877 49.46560 44.15218
# Shear Modulus (GPa) = 24.32206 27.25390 25.78798
#
# Velocity S-wave (km/s) = 3.72476 3.94287 3.83537
# Velocity P-wave (km/s) = 6.37597 6.99604 6.69319
#
# Compressibility (1/GPa) = 0.02574747
#
# Stress axis : x y z
#
# Youngs Moduli (GPa) = 102.81997 43.83244 44.53936
#
# Poissons Ratio (x) = 0.16318 0.22715
# Poissons Ratio (y) = 0.38279 0.25830
# Poissons Ratio (z) = 0.52438 0.25420
#
# Static dielectric constant tensor:
#      x y z
#    x 3.423570 0.000000 0.089890 
#    y 0.000000 3.255620 0.000000 
#    z 0.089890 0.000000 3.276140 
# 
# 
# High freq. dielectric constant tensor:
#      x y z
#    x 1.682470 0.000000 0.007830 
#    y 0.000000 1.680250 0.000000 
#    z 0.007830 0.000000 1.656660 
# 
# From -- ./inp_files/237837.got.cif
#   From: 2010.06.25/outbox.cif.g09.slc.cpg/sg12_119_cif.got.tgz:237837.got - 2010.06.28 00:19:55.
