data_PCOD8102914
_publ_section_title
;
Structure prediction by ZEFSAII (Michael W. Deem and Ramdas Pophale) SiO2 
 PCOD8102914
Probable space group: C 2/M
;
_chemical_formula_sum "Si O2"
_cell_formula_units_Z 64
_cell_length_a 15.048328
_cell_length_b 16.663916
_cell_length_c 12.596229
_cell_angle_alpha 90.000000
_cell_angle_beta 97.687193
_cell_angle_gamma 90.000000
_cell_volume 3130.295017
_symmetry_space_group_name_H-M "C 2/M"
_symmetry_group_IT_number 12
_symmetry_cell_setting 'monoclinic'
loop_
_space_group_symop_operation_xyz
x,y,z
-x,y,-z
-x,-y,-z
x,-y,z
1/2+x,1/2+y,z
1/2-x,1/2+y,-z
1/2-x,1/2-y,-z
1/2+x,1/2-y,z
loop_
_atom_site_type_symbol
_atom_site_label
_atom_site_fract_x
_atom_site_fract_y
_atom_site_fract_z
Si Si1 0.815118 0.590451 0.255660
Si Si2 0.289140 0.289249 0.901957
Si Si3 0.671108 0.815848 0.287896
Si Si4 0.010272 0.907643 0.737416
Si Si5 0.490147 0.906614 0.621154
Si Si6 0.408216 0.586518 0.037548
Si Si7 0.328464 0.652336 0.621353
Si Si8 0.667516 0.408899 0.608326
O O1 0.807600 0.500000 0.206810
O O2 0.788617 0.659791 0.168418
O O3 0.915746 0.608043 0.307205
O O4 0.750058 0.595283 0.347340
O O5 0.334657 0.221489 0.832894
O O6 0.250000 0.250000 0.000000
O O7 0.362195 0.352689 0.950366
O O8 0.581192 0.857471 0.318795
O O9 0.698257 0.744803 0.371611
O O10 0.753516 0.877714 0.302774
O O11 0.070715 0.873663 0.844175
O O12 0.070339 0.898954 0.643329
O O13 0.918563 0.859644 0.705669
O O14 0.984973 0.000000 0.756295
O O15 0.500000 0.876697 0.500000
O O16 0.461664 0.000000 0.617002
O O17 0.355847 0.500000 0.042239
O O18 0.500000 0.563402 0.000000
O O19 0.341877 0.638583 0.501134
O O20 0.690182 0.500000 0.585546
#
# Coordination Sequence:
#
# PCOD8102914 Si02
#       8
#     8   8   8   8   8   8   8   8
#     4  10  21  39  63  88 117 157 206 250 291 360
#     4  11  24  40  60  85 119 157 197 254 315 359
#     4  11  24  39  59  89 120 156 201 251 300 355
#     4  10  21  36  58  88 117 150 193 239 291 358
#     4  10  22  42  66  90 120 163 208 248 298 364
#     4  10  20  37  60  82 109 149 196 240 287 351
#     4  11  22  36  59  90 124 155 187 238 303 364
#     4  11  22  38  59  83 119 159 193 233 288 359
#
# _framework density 20.445357000000001
#
# number of rings (size 3 to 8) (size 9 to 14) (size 15 to 20)
#    0.000    1.500    0.000    5.625    0.000    9.000 
#    0.000    1.875    0.000    1.500    0.000    0.000 
#    0.000    0.000    0.000    0.000    0.000    0.000 
#
# Total GULP energy -396642.409755 kJ/mol
# GULP energy per Si atom -12395.075305 kJ/mol
# Density = 2.039882 g / cm^3
# Si number density = 20.445357 Si / 1000 Ang^3
#
#
#
# Elastic Constant Matrix: (Units=GPa)
#
#
# Indices 1 2 3 4 5 6 
#
# 1 91.4527 36.7700 22.3898 0.0000 -0.3456 0.0000
# 2 36.7700 67.5652 37.3642 0.0000 -10.2313 0.0000
# 3 22.3898 37.3642 121.0823 0.0000 -9.1802 0.0000
# 4 0.0000 0.0000 0.0000 32.6988 0.0000 -4.6098
# 5 -0.3456 -10.2313 -9.1802 0.0000 30.1018 0.0000
# 6 0.0000 0.0000 0.0000 -4.6098 0.0000 28.5430
#
#
#
# Elastic Compliance Matrix: (Units=1/GPa)
#
#
# Indices 1 2 3 4 5 6 
#
# 1 0.014202 -0.007917 -0.000383 0.000000 -0.002645 0.000000
# 2 -0.007917 0.022873 -0.005130 0.000000 0.006119 0.000000
# 3 -0.000383 -0.005130 0.010012 0.000000 0.001305 0.000000
# 4 0.000000 0.000000 0.000000 0.031295 0.000000 0.005054
# 5 -0.002645 0.006119 0.001305 0.000000 0.035668 0.000000
# 6 0.000000 0.000000 0.000000 0.005054 0.000000 0.035851
#
#
# Mechanical properties :
#
#
# Convention : Reuss Voigt Hill
#
# Bulk Modulus (GPa) = 49.44525 52.57202 51.00864
# Shear Modulus (GPa) = 27.24739 30.50712 28.87726
#
# Velocity S-wave (km/s) = 3.65457 3.86700 3.76228
# Velocity P-wave (km/s) = 6.48417 6.76073 6.62389
#
# Compressibility (1/GPa) = 0.02022439
#
# Stress axis : x y z
#
# Youngs Moduli (GPa) = 70.41381 43.71994 99.88162
#
# Poissons Ratio (x) = 0.34614 0.03830
# Poissons Ratio (y) = 0.55748 0.51242
# Poissons Ratio (z) = 0.02700 0.22430
#
# Static dielectric constant tensor:
#      x y z
#    x 3.608640 0.000000 -0.089220 
#    y 0.000000 4.194720 0.000000 
#    z -0.089220 0.000000 3.690310 
# 
# 
# High freq. dielectric constant tensor:
#      x y z
#    x 1.796380 0.000000 -0.001900 
#    y 0.000000 1.804280 0.000000 
#    z -0.001900 0.000000 1.804270 
# 
# From -- ./inp_files/146150.got.cif
#   From: 2010.06.25/outbox.cif.g09.slc.cpg/sg12_74_cif.got.tgz:146150.got - 2010.06.28 00:19:55.
