data_PCOD8102807
_publ_section_title
;
Structure prediction by ZEFSAII (Michael W. Deem and Ramdas Pophale) SiO2 
 PCOD8102807
Probable space group: C 2/M
;
_chemical_formula_sum "Si O2"
_cell_formula_units_Z 56
_cell_length_a 30.487551
_cell_length_b 14.457364
_cell_length_c 8.921932
_cell_angle_alpha 90.000000
_cell_angle_beta 132.323851
_cell_angle_gamma 90.000000
_cell_volume 2907.509569
_symmetry_space_group_name_H-M "C 2/M"
_symmetry_group_IT_number 12
_symmetry_cell_setting 'monoclinic'
loop_
_space_group_symop_operation_xyz
x,y,z
-x,y,-z
-x,-y,-z
x,-y,z
1/2+x,1/2+y,z
1/2-x,1/2+y,-z
1/2-x,1/2-y,-z
1/2+x,1/2-y,z
loop_
_atom_site_type_symbol
_atom_site_label
_atom_site_fract_x
_atom_site_fract_y
_atom_site_fract_z
Si Si1 0.641277 0.760015 0.378417
Si Si2 0.985015 0.765035 0.295300
Si Si3 0.149251 0.243295 0.056874
Si Si4 0.239736 0.309754 0.829980
Si Si5 0.941200 0.607799 0.640206
Si Si6 0.652653 0.899638 0.822488
Si Si7 0.948961 0.105821 0.760234
O O1 0.662823 0.772367 0.257819
O O2 0.698130 0.755344 0.616644
O O3 0.598691 0.846718 0.320807
O O4 0.608322 0.661544 0.315909
O O5 0.000000 0.748084 0.500000
O O6 0.998641 0.669149 0.235633
O O7 0.026840 0.848311 0.336302
O O8 0.917081 0.795063 0.113587
O O9 0.197745 0.167352 0.109821
O O10 0.160220 0.331450 0.977552
O O11 0.204767 0.398153 0.815155
O O12 0.250000 0.250000 0.000000
O O13 0.955091 0.500000 0.709978
O O14 0.908879 0.619011 0.405587
O O15 0.652441 0.000000 0.895833
O O16 0.930498 0.000000 0.686466
O O17 0.000000 0.113041 0.000000
#
# Coordination Sequence:
#
# PCOD8102807 Si02
#       7
#     8   8   8   8   8   8   8
#     4  10  20  37  59  83 113 147 189 232 278 337
#     4  11  21  35  58  85 115 145 188 228 274 334
#     4  11  20  34  56  84 108 148 187 228 279 328
#     4   9  20  37  58  78 107 148 186 228 281 334
#     4   9  19  34  55  82 117 152 179 219 274 329
#     4   9  18  35  55  80 110 146 186 226 272 328
#     4  10  21  39  60  82 114 149 184 234 288 333
#
# _framework density 19.260467999999999
#
# number of rings (size 3 to 8) (size 9 to 14) (size 15 to 20)
#    0.000    2.143    2.857    0.429    2.000    1.714 
#    0.000    5.000    0.000    1.714    0.000    0.000 
#    0.000    0.000    0.000    0.000    0.000    0.000 
#
# Total GULP energy -347006.454737 kJ/mol
# GULP energy per Si atom -12393.087669 kJ/mol
# Density = 1.921663 g / cm^3
# Si number density = 19.260468 Si / 1000 Ang^3
#
#
#
# Elastic Constant Matrix: (Units=GPa)
#
#
# Indices 1 2 3 4 5 6 
#
# 1 119.8259 35.3878 32.8106 0.0000 -2.0536 0.0000
# 2 35.3878 107.1362 8.3999 0.0000 -0.8971 0.0000
# 3 32.8106 8.3999 76.7608 0.0000 -3.5616 0.0000
# 4 0.0000 0.0000 0.0000 16.6385 0.0000 -1.6776
# 5 -2.0536 -0.8971 -3.5616 0.0000 38.4206 0.0000
# 6 0.0000 0.0000 0.0000 -1.6776 0.0000 12.8395
#
#
#
# Elastic Compliance Matrix: (Units=1/GPa)
#
#
# Indices 1 2 3 4 5 6 
#
# 1 0.010387 -0.003109 -0.004095 0.000000 0.000103 0.000000
# 2 -0.003109 0.010346 0.000201 0.000000 0.000094 0.000000
# 3 -0.004095 0.000201 0.014809 0.000000 0.001159 0.000000
# 4 0.000000 0.000000 0.000000 0.060904 0.000000 0.007958
# 5 0.000103 0.000094 0.001159 0.000000 0.026143 0.000000
# 6 0.000000 0.000000 0.000000 0.007958 0.000000 0.078924
#
#
# Mechanical properties :
#
#
# Convention : Reuss Voigt Hill
#
# Bulk Modulus (GPa) = 46.43179 50.76882 48.60030
# Shear Modulus (GPa) = 22.45209 28.72137 25.58673
#
# Velocity S-wave (km/s) = 3.41795 3.86581 3.64876
# Velocity P-wave (km/s) = 6.30366 6.80751 6.56043
#
# Compressibility (1/GPa) = 0.02153697
#
# Stress axis : x y z
#
# Youngs Moduli (GPa) = 96.27864 96.65753 67.52445
#
# Poissons Ratio (x) = 0.30049 0.27649
# Poissons Ratio (y) = 0.29931 -0.01358
# Poissons Ratio (z) = 0.39423 -0.01943
#
# Static dielectric constant tensor:
#      x y z
#    x 3.959530 0.000000 0.116800 
#    y 0.000000 3.386080 0.000000 
#    z 0.116800 0.000000 3.529120 
# 
# 
# High freq. dielectric constant tensor:
#      x y z
#    x 1.762050 0.000000 -0.003240 
#    y 0.000000 1.719850 0.000000 
#    z -0.003240 0.000000 1.749010 
# 
# From -- ./inp_files/111703.got.cif
#   From: 2010.06.25/outbox.cif.g09.slc.cpg/sg12_56_cif.got.tgz:111703.got - 2010.06.28 00:19:55.
