data_PCOD8102975
_publ_section_title
;
Structure prediction by ZEFSAII (Michael W. Deem and Ramdas Pophale) SiO2 
 PCOD8102975
Probable space group: C 2/M
;
_chemical_formula_sum "Si O2"
_cell_formula_units_Z 64
_cell_length_a 30.635793
_cell_length_b 8.800175
_cell_length_c 16.207317
_cell_angle_alpha 90.000000
_cell_angle_beta 134.271439
_cell_angle_gamma 90.000000
_cell_volume 3128.738935
_symmetry_space_group_name_H-M "C 2/M"
_symmetry_group_IT_number 12
_symmetry_cell_setting 'monoclinic'
loop_
_space_group_symop_operation_xyz
x,y,z
-x,y,-z
-x,-y,-z
x,-y,z
1/2+x,1/2+y,z
1/2-x,1/2+y,-z
1/2-x,1/2-y,-z
1/2+x,1/2-y,z
loop_
_atom_site_type_symbol
_atom_site_label
_atom_site_fract_x
_atom_site_fract_y
_atom_site_fract_z
Si Si1 0.434618 0.678445 0.376431
Si Si2 0.906169 0.175557 0.152158
Si Si3 0.721577 0.179967 0.043757
Si Si4 0.018872 0.175582 0.905206
Si Si5 0.415651 0.175580 0.867532
Si Si6 0.309851 0.166875 0.473450
Si Si7 0.814485 0.680014 0.292537
Si Si8 0.326214 0.665235 0.648876
O O1 0.500000 0.729651 0.500000
O O2 0.424513 0.500000 0.377556
O O3 0.430888 0.721058 0.274873
O O4 0.380877 0.768679 0.350231
O O5 0.962091 0.206105 0.163908
O O6 0.885466 0.000000 0.122668
O O7 0.849277 0.275553 0.046789
O O8 0.759173 0.241071 0.171309
O O9 0.727957 0.000000 0.049597
O O10 0.750000 0.250000 0.000000
O O11 0.961526 0.278662 0.854112
O O12 0.003302 0.000000 0.899648
O O13 0.074366 0.224452 0.037832
O O14 0.348829 0.213159 0.746097
O O15 0.422847 0.000000 0.899382
O O16 0.307478 0.232390 0.378071
O O17 0.345097 0.280711 0.581217
O O18 0.244665 0.149099 0.429674
O O19 0.341305 0.000000 0.513525
O O20 0.807812 0.500000 0.272890
O O21 0.357600 0.500000 0.701905
#
# Coordination Sequence:
#
# PCOD8102975 Si02
#       8
#     8   8   8   8   8   8   8   8
#     4  10  22  41  63  88 120 159 201 248 299 358
#     4  10  22  40  62  89 122 158 200 252 304 359
#     4  12  24  39  62  91 124 161 201 249 304 359
#     4  10  21  38  59  84 115 155 201 244 298 357
#     4  11  22  37  57  84 119 155 196 247 298 347
#     4   9  21  39  58  85 119 152 192 244 294 348
#     4  11  23  40  62  91 123 159 201 248 305 358
#     4  10  20  37  60  84 114 156 198 239 294 353
#
# _framework density 20.455524
#
# number of rings (size 3 to 8) (size 9 to 14) (size 15 to 20)
#    0.000    1.625    1.250    4.125    1.750    3.750 
#    0.000    1.250    0.000    0.000    0.000    0.000 
#    0.000    0.000    0.000    0.000    0.000    0.000 
#
# Total GULP energy -396741.589906 kJ/mol
# GULP energy per Si atom -12398.174685 kJ/mol
# Density = 2.040897 g / cm^3
# Si number density = 20.455524 Si / 1000 Ang^3
#
#
#
# Elastic Constant Matrix: (Units=GPa)
#
#
# Indices 1 2 3 4 5 6 
#
# 1 71.4656 26.0304 31.3824 0.0000 -27.2050 0.0000
# 2 26.0304 88.6346 27.0066 0.0000 -4.5222 0.0000
# 3 31.3824 27.0066 103.4569 0.0000 -9.0127 0.0000
# 4 0.0000 0.0000 0.0000 28.2224 0.0000 3.6374
# 5 -27.2050 -4.5222 -9.0127 0.0000 37.6805 0.0000
# 6 0.0000 0.0000 0.0000 3.6374 0.0000 29.5666
#
#
#
# Elastic Compliance Matrix: (Units=1/GPa)
#
#
# Indices 1 2 3 4 5 6 
#
# 1 0.023577 -0.004747 -0.004575 0.000000 0.015359 0.000000
# 2 -0.004747 0.013232 -0.002221 0.000000 -0.002370 0.000000
# 3 -0.004575 -0.002221 0.011563 0.000000 -0.000804 0.000000
# 4 0.000000 0.000000 0.000000 0.036004 0.000000 -0.004429
# 5 0.015359 -0.002370 -0.000804 0.000000 0.037151 0.000000
# 6 0.000000 0.000000 0.000000 -0.004429 0.000000 0.034367
#
#
# Mechanical properties :
#
#
# Convention : Reuss Voigt Hill
#
# Bulk Modulus (GPa) = 39.54439 48.04400 43.79419
# Shear Modulus (GPa) = 26.67978 31.03641 28.85810
#
# Velocity S-wave (km/s) = 3.61540 3.89943 3.76010
# Velocity P-wave (km/s) = 6.06647 6.61907 6.34879
#
# Compressibility (1/GPa) = 0.02528804
#
# Stress axis : x y z
#
# Youngs Moduli (GPa) = 42.41391 75.57429 86.48076
#
# Poissons Ratio (x) = 0.35872 0.39563
# Poissons Ratio (y) = 0.20132 0.19205
# Poissons Ratio (z) = 0.19404 0.16783
#
# Static dielectric constant tensor:
#      x y z
#    x 3.288160 0.000000 -0.781310 
#    y 0.000000 4.011120 0.000000 
#    z -0.781310 0.000000 2.462040 
# 
# 
# High freq. dielectric constant tensor:
#      x y z
#    x 1.792350 0.000000 -0.009440 
#    y 0.000000 1.804210 0.000000 
#    z -0.009440 0.000000 1.805810 
# 
# From -- ./inp_files/250045.got.cif
#   From: 2010.06.25/outbox.cif.g09.slc.cpg/sg12_126_cif.got.tgz:250045.got - 2010.06.28 00:19:55.
