data_PCOD8102181
_publ_section_title
;
Structure prediction by ZEFSAII (Michael W. Deem and Ramdas Pophale) SiO2 
 PCOD8102181
Probable space group: C 2/M
;
_chemical_formula_sum "Si O2"
_cell_formula_units_Z 56
_cell_length_a 10.933185
_cell_length_b 27.874080
_cell_length_c 15.507068
_cell_angle_alpha 90.000000
_cell_angle_beta 35.530926
_cell_angle_gamma 90.000000
_cell_volume 2746.372344
_symmetry_space_group_name_H-M "C 2/M"
_symmetry_group_IT_number 12
_symmetry_cell_setting 'monoclinic'
loop_
_space_group_symop_operation_xyz
x,y,z
-x,y,-z
-x,-y,-z
x,-y,z
1/2+x,1/2+y,z
1/2-x,1/2+y,-z
1/2-x,1/2-y,-z
1/2+x,1/2-y,z
loop_
_atom_site_type_symbol
_atom_site_label
_atom_site_fract_x
_atom_site_fract_y
_atom_site_fract_z
Si Si1 0.694243 0.390405 0.825144
Si Si2 0.259854 0.193848 0.664220
Si Si3 0.278361 0.300716 0.674595
Si Si4 0.976478 0.862879 0.344384
Si Si5 0.384193 0.884418 0.318562
Si Si6 0.032718 0.946112 0.183012
Si Si7 0.499198 0.945957 0.902474
O O1 0.709903 0.338259 0.774943
O O2 0.652985 0.430262 0.775300
O O3 0.913130 0.402478 0.745821
O O4 0.500000 0.390249 0.000000
O O5 0.500000 0.190486 0.500000
O O6 0.191739 0.246944 0.735441
O O7 0.135535 0.176061 0.652036
O O8 0.500000 0.296870 0.500000
O O9 0.325193 0.332525 0.732933
O O10 0.100182 0.328868 0.721587
O O11 0.824469 0.886193 0.503696
O O12 0.055342 0.909692 0.249298
O O13 0.357017 0.916528 0.247541
O O14 0.981490 0.000000 0.245275
O O15 0.258394 0.945033 0.005507
O O16 0.589424 0.000000 0.853112
O O17 0.500000 0.925153 0.000000
#
# Coordination Sequence:
#
# PCOD8102181 Si02
#       7
#     8   8   8   8   8   8   8
#     4  11  22  38  57  85 119 152 192 244 289 341
#     4  10  20  36  61  85 118 157 192 241 289 348
#     4   9  21  35  59  88 115 154 195 236 292 348
#     4  10  21  38  60  90 120 151 194 245 294 341
#     4  11  21  37  60  86 117 150 195 244 284 345
#     4  10  22  39  59  85 120 157 190 242 298 346
#     4  10  21  38  60  84 114 156 198 236 291 352
#
# _framework density 20.390533999999999
#
# number of rings (size 3 to 8) (size 9 to 14) (size 15 to 20)
#    0.000    1.857    2.857    0.857    2.000    3.143 
#    0.000    3.571    0.000    5.143    0.000    0.000 
#    0.000    0.000    0.000    0.000    0.000    0.000 
#
# Total GULP energy -346990.121511 kJ/mol
# GULP energy per Si atom -12392.504340 kJ/mol
# Density = 2.034412 g / cm^3
# Si number density = 20.390534 Si / 1000 Ang^3
#
#
#
# Elastic Constant Matrix: (Units=GPa)
#
#
# Indices 1 2 3 4 5 6 
#
# 1 78.5136 36.3105 12.8584 0.0000 11.2163 0.0000
# 2 36.3105 153.8265 38.6026 0.0000 17.1114 0.0000
# 3 12.8584 38.6026 61.1998 0.0000 16.7792 0.0000
# 4 0.0000 0.0000 0.0000 20.4100 0.0000 1.9989
# 5 11.2163 17.1114 16.7792 0.0000 32.3100 0.0000
# 6 0.0000 0.0000 0.0000 1.9989 0.0000 25.1695
#
#
#
# Elastic Compliance Matrix: (Units=1/GPa)
#
#
# Indices 1 2 3 4 5 6 
#
# 1 0.014655 -0.003023 -0.000253 0.000000 -0.003356 0.000000
# 2 -0.003023 0.008440 -0.004373 0.000000 -0.001149 0.000000
# 3 -0.000253 -0.004373 0.021563 0.000000 -0.008794 0.000000
# 4 0.000000 0.000000 0.000000 0.049380 0.000000 -0.003922
# 5 -0.003356 -0.001149 -0.008794 0.000000 0.037291 0.000000
# 6 0.000000 0.000000 0.000000 -0.003922 0.000000 0.040042
#
#
# Mechanical properties :
#
#
# Convention : Reuss Voigt Hill
#
# Bulk Modulus (GPa) = 34.05936 52.12030 43.08983
# Shear Modulus (GPa) = 25.45128 29.29579 27.37353
#
# Velocity S-wave (km/s) = 3.53681 3.79454 3.66794
# Velocity P-wave (km/s) = 5.78087 6.69437 6.25432
#
# Compressibility (1/GPa) = 0.02936051
#
# Stress axis : x y z
#
# Youngs Moduli (GPa) = 68.23467 118.48850 46.37667
#
# Poissons Ratio (x) = 0.35816 0.01171
# Poissons Ratio (y) = 0.20625 0.20282
# Poissons Ratio (z) = 0.01723 0.51818
#
# Static dielectric constant tensor:
#      x y z
#    x 3.857460 0.000000 0.047670 
#    y 0.000000 3.881610 0.000000 
#    z 0.047670 0.000000 3.455060 
# 
# 
# High freq. dielectric constant tensor:
#      x y z
#    x 1.811070 0.000000 0.005690 
#    y 0.000000 1.799870 0.000000 
#    z 0.005690 0.000000 1.770920 
# 
# From -- ./inp_files/209985.got.cif
#   From: 2010.06.25/outbox.cif.g09.slc.cpg/sg12_105_cif.got.tgz:209985.got - 2010.06.28 00:19:55.
