data_PCOD8102878
_publ_section_title
;
Structure prediction by ZEFSAII (Michael W. Deem and Ramdas Pophale) SiO2 
 PCOD8102878
Probable space group: C 2/M
;
_chemical_formula_sum "Si O2"
_cell_formula_units_Z 64
_cell_length_a 30.856757
_cell_length_b 13.198114
_cell_length_c 14.137003
_cell_angle_alpha 90.000000
_cell_angle_beta 34.105775
_cell_angle_gamma 90.000000
_cell_volume 3228.252185
_symmetry_space_group_name_H-M "C 2/M"
_symmetry_group_IT_number 12
_symmetry_cell_setting 'monoclinic'
loop_
_space_group_symop_operation_xyz
x,y,z
-x,y,-z
-x,-y,-z
x,-y,z
1/2+x,1/2+y,z
1/2-x,1/2+y,-z
1/2-x,1/2-y,-z
1/2+x,1/2-y,z
loop_
_atom_site_type_symbol
_atom_site_label
_atom_site_fract_x
_atom_site_fract_y
_atom_site_fract_z
Si Si1 0.302504 0.717639 0.491974
Si Si2 0.768244 0.881792 0.913375
Si Si3 0.300962 0.120796 0.159733
Si Si4 0.043418 0.732243 0.163325
Si Si5 0.112513 0.384664 0.546315
Si Si6 0.360163 0.884974 0.716132
Si Si7 0.963040 0.882697 0.167541
Si Si8 0.428060 0.704880 0.679173
O O1 0.250000 0.750000 0.500000
O O2 0.251357 0.655336 0.658412
O O3 0.336955 0.820292 0.472917
O O4 0.373071 0.647810 0.329830
O O5 0.741656 0.842015 0.858771
O O6 0.856117 0.859883 0.775440
O O7 0.754341 0.000000 0.940708
O O8 0.714741 0.837001 0.094509
O O9 0.312414 0.000000 0.143053
O O10 0.384500 0.174399 0.014106
O O11 0.067463 0.787261 0.216525
O O12 0.975799 0.651176 0.302484
O O13 0.013453 0.821172 0.151020
O O14 0.112893 0.500000 0.581838
O O15 0.153265 0.375055 0.370972
O O16 0.429758 0.816586 0.628113
O O17 0.378328 0.000000 0.712898
O O18 0.969636 0.000000 0.182871
O O19 0.000000 0.859095 0.000000
O O20 0.500000 0.647467 0.500000
#
# Coordination Sequence:
#
# PCOD8102878 Si02
#       8
#     8   8   8   8   8   8   8   8
#     4  11  24  42  66  94 122 154 204 252 311 366
#     4  10  23  39  58  86 124 166 204 244 294 357
#     4  11  23  40  64  91 123 162 203 250 305 363
#     4  11  23  38  63  92 124 159 207 252 301 359
#     4  10  22  39  62  91 126 161 203 252 301 356
#     4  10  20  37  59  87 121 162 204 243 290 349
#     4  10  23  46  68  88 119 159 200 252 312 370
#     4  12  23  36  58  87 124 167 203 244 294 347
#
# _framework density 19.82497
#
# number of rings (size 3 to 8) (size 9 to 14) (size 15 to 20)
#    0.000    1.375    2.500    2.625    3.500    2.500 
#    0.000    0.625    0.000    4.125    0.000    0.000 
#    0.000    0.000    0.000    0.000    0.000    0.000 
#
# Total GULP energy -396830.602070 kJ/mol
# GULP energy per Si atom -12400.956315 kJ/mol
# Density = 1.977985 g / cm^3
# Si number density = 19.824970 Si / 1000 Ang^3
#
#
#
# Elastic Constant Matrix: (Units=GPa)
#
#
# Indices 1 2 3 4 5 6 
#
# 1 129.3314 41.9971 55.2490 0.0000 -2.5830 0.0000
# 2 41.9971 64.5886 40.3094 0.0000 8.1280 0.0000
# 3 55.2490 40.3094 155.4823 0.0000 -3.2780 0.0000
# 4 0.0000 0.0000 0.0000 29.5347 0.0000 3.2224
# 5 -2.5830 8.1280 -3.2780 0.0000 32.7710 0.0000
# 6 0.0000 0.0000 0.0000 3.2224 0.0000 23.2191
#
#
#
# Elastic Compliance Matrix: (Units=1/GPa)
#
#
# Indices 1 2 3 4 5 6 
#
# 1 0.010594 -0.005753 -0.002230 0.000000 0.002039 0.000000
# 2 -0.005753 0.022477 -0.003918 0.000000 -0.006420 0.000000
# 3 -0.002230 -0.003918 0.008274 0.000000 0.001624 0.000000
# 4 0.000000 0.000000 0.000000 0.034379 0.000000 -0.004771
# 5 0.002039 -0.006420 0.001624 0.000000 0.032430 0.000000
# 6 0.000000 0.000000 0.000000 -0.004771 0.000000 0.043730
#
#
# Mechanical properties :
#
#
# Convention : Reuss Voigt Hill
#
# Bulk Modulus (GPa) = 57.00630 69.39036 63.19833
# Shear Modulus (GPa) = 27.54313 31.22806 29.38560
#
# Velocity S-wave (km/s) = 3.73140 3.97317 3.85418
# Velocity P-wave (km/s) = 6.88343 7.49170 7.19400
#
# Compressibility (1/GPa) = 0.01754192
#
# Stress axis : x y z
#
# Youngs Moduli (GPa) = 94.39725 44.49046 120.86088
#
# Poissons Ratio (x) = 0.25596 0.26949
# Poissons Ratio (y) = 0.54308 0.47356
# Poissons Ratio (z) = 0.21049 0.17432
#
# Static dielectric constant tensor:
#      x y z
#    x 3.599960 0.000000 0.140720 
#    y 0.000000 3.644000 0.000000 
#    z 0.140720 0.000000 4.002780 
# 
# 
# High freq. dielectric constant tensor:
#      x y z
#    x 1.770240 0.000000 -0.003120 
#    y 0.000000 1.780990 0.000000 
#    z -0.003120 0.000000 1.792700 
# 
# From -- ./inp_files/183775.got.cif
#   From: 2010.06.25/outbox.cif.g09.slc.cpg/sg12_92_cif.got.tgz:183775.got - 2010.06.28 00:19:55.
