data_PCOD8102083
_publ_section_title
;
Structure prediction by ZEFSAII (Michael W. Deem and Ramdas Pophale) SiO2 
 PCOD8102083
Probable space group: C 2/M
;
_chemical_formula_sum "Si O2"
_cell_formula_units_Z 64
_cell_length_a 16.408893
_cell_length_b 9.064940
_cell_length_c 21.759687
_cell_angle_alpha 90.000000
_cell_angle_beta 89.530258
_cell_angle_gamma 90.000000
_cell_volume 3236.549585
_symmetry_space_group_name_H-M "C 2/M"
_symmetry_group_IT_number 12
_symmetry_cell_setting 'monoclinic'
loop_
_space_group_symop_operation_xyz
x,y,z
-x,y,-z
-x,-y,-z
x,-y,z
1/2+x,1/2+y,z
1/2-x,1/2+y,-z
1/2-x,1/2-y,-z
1/2+x,1/2-y,z
loop_
_atom_site_type_symbol
_atom_site_label
_atom_site_fract_x
_atom_site_fract_y
_atom_site_fract_z
Si Si1 0.332420 0.673381 0.360197
Si Si2 0.667464 0.833572 0.000042
Si Si3 0.324489 0.833214 0.237316
Si Si4 0.164697 0.671723 0.218747
Si Si5 0.080683 0.170735 0.108117
Si Si6 0.996314 0.173168 0.430226
Si Si7 0.854123 0.670620 0.639268
Si Si8 0.570842 0.160970 0.880106
O O1 0.332371 0.500000 0.344195
O O2 0.357229 0.765439 0.300291
O O3 0.404586 0.714248 0.407586
O O4 0.238990 0.716667 0.381727
O O5 0.608121 0.750529 0.046355
O O6 0.677798 0.000000 0.023670
O O7 0.750000 0.750000 0.000000
O O8 0.641506 0.829160 0.929538
O O9 0.255374 0.730435 0.209220
O O10 0.397592 0.832204 0.189197
O O11 0.292343 0.000000 0.248608
O O12 0.161930 0.500000 0.203124
O O13 0.110031 0.758590 0.171243
O O14 0.135901 0.703325 0.288432
O O15 0.984517 0.196710 0.108725
O O16 0.104416 0.000000 0.105690
O O17 0.072968 0.243316 0.394318
O O18 0.000000 0.229103 0.500000
O O19 0.009925 0.000000 0.424899
O O20 0.867282 0.500000 0.624093
O O21 0.526484 0.000000 0.888650
#
# Coordination Sequence:
#
# PCOD8102083 Si02
#       8
#     8   8   8   8   8   8   8   8
#     4   9  20  39  59  84 122 164 202 246 307 366
#     4  11  23  41  63  83 112 153 195 243 298 354
#     4  10  20  36  60  89 117 147 194 246 294 355
#     4  10  21  39  61  85 118 155 192 240 301 357
#     4  12  25  38  57  86 117 151 196 244 292 352
#     4  10  22  39  60  88 123 161 203 250 299 358
#     4   9  20  38  60  86 119 158 200 250 304 365
#     4  10  23  40  57  82 116 152 190 241 298 352
#
# _framework density 19.774145000000001
#
# number of rings (size 3 to 8) (size 9 to 14) (size 15 to 20)
#    0.000    1.875    0.000    4.125    1.750    8.250 
#    0.000    0.000    0.000    0.000    0.000    0.000 
#    0.000    0.000    0.000    0.000    0.000    0.000 
#
# Total GULP energy -396617.365998 kJ/mol
# GULP energy per Si atom -12394.292687 kJ/mol
# Density = 1.972914 g / cm^3
# Si number density = 19.774145 Si / 1000 Ang^3
#
#
#
# Elastic Constant Matrix: (Units=GPa)
#
#
# Indices 1 2 3 4 5 6 
#
# 1 88.9727 33.5001 36.5512 0.0000 4.0487 0.0000
# 2 33.5001 102.8982 40.5292 0.0000 -0.0671 0.0000
# 3 36.5512 40.5292 88.0000 0.0000 2.7563 0.0000
# 4 0.0000 0.0000 0.0000 11.7011 0.0000 -6.6943
# 5 4.0487 -0.0671 2.7563 0.0000 28.5690 0.0000
# 6 0.0000 0.0000 0.0000 -6.6943 0.0000 36.9958
#
#
#
# Elastic Compliance Matrix: (Units=1/GPa)
#
#
# Indices 1 2 3 4 5 6 
#
# 1 0.014257 -0.002846 -0.004561 0.000000 -0.001587 0.000000
# 2 -0.002846 0.012449 -0.004579 0.000000 0.000874 0.000000
# 3 -0.004561 -0.004579 0.015394 0.000000 -0.000849 0.000000
# 4 0.000000 0.000000 0.000000 0.095331 0.000000 0.017250
# 5 -0.001587 0.000874 -0.000849 0.000000 0.035312 0.000000
# 6 0.000000 0.000000 0.000000 0.017250 0.000000 0.030151
#
#
# Mechanical properties :
#
#
# Convention : Reuss Voigt Hill
#
# Bulk Modulus (GPa) = 55.16491 55.67021 55.41756
# Shear Modulus (GPa) = 21.46770 26.73922 24.10346
#
# Velocity S-wave (km/s) = 3.29849 3.68126 3.49512
# Velocity P-wave (km/s) = 6.51650 6.80316 6.66137
#
# Compressibility (1/GPa) = 0.01812747
#
# Stress axis : x y z
#
# Youngs Moduli (GPa) = 70.14075 80.32813 64.96225
#
# Poissons Ratio (x) = 0.22862 0.29631
# Poissons Ratio (y) = 0.19963 0.29744
# Poissons Ratio (z) = 0.31993 0.36780
#
# Static dielectric constant tensor:
#      x y z
#    x 3.632830 0.000000 0.225480 
#    y 0.000000 3.767680 0.000000 
#    z 0.225480 0.000000 3.351130 
# 
# 
# High freq. dielectric constant tensor:
#      x y z
#    x 1.774470 0.000000 0.004440 
#    y 0.000000 1.775660 0.000000 
#    z 0.004440 0.000000 1.772850 
# 
# From -- ./inp_files/314157.got.cif
#   From: 2010.06.25/outbox.cif.g09.slc.cpg/sg12_158_cif.got.tgz:314157.got - 2010.06.28 00:19:55.
