data_PCOD8102069
_publ_section_title
;
Structure prediction by ZEFSAII (Michael W. Deem and Ramdas Pophale) SiO2 
 PCOD8102069
Probable space group: C 2/M
;
_chemical_formula_sum "Si O2"
_cell_formula_units_Z 64
_cell_length_a 8.695382
_cell_length_b 18.595788
_cell_length_c 28.890810
_cell_angle_alpha 90.000000
_cell_angle_beta 43.902976
_cell_angle_gamma 90.000000
_cell_volume 3239.450831
_symmetry_space_group_name_H-M "C 2/M"
_symmetry_group_IT_number 12
_symmetry_cell_setting 'monoclinic'
loop_
_space_group_symop_operation_xyz
x,y,z
-x,y,-z
-x,-y,-z
x,-y,z
1/2+x,1/2+y,z
1/2-x,1/2+y,-z
1/2-x,1/2-y,-z
1/2+x,1/2-y,z
loop_
_atom_site_type_symbol
_atom_site_label
_atom_site_fract_x
_atom_site_fract_y
_atom_site_fract_z
Si Si1 0.278840 0.919110 0.785237
Si Si2 0.721515 0.415490 0.980711
Si Si3 0.867418 0.662383 0.680842
Si Si4 0.896197 0.171926 0.906318
Si Si5 0.707070 0.582836 0.424795
Si Si6 0.710559 0.580198 0.317000
Si Si7 0.893491 0.321151 0.123458
Si Si8 0.943793 0.195158 0.719298
O O1 0.264350 0.902648 0.733515
O O2 0.529095 0.908870 0.748248
O O3 0.130312 0.866377 0.847392
O O4 0.193827 0.000000 0.811584
O O5 0.737439 0.500000 0.986981
O O6 0.942516 0.389591 0.905633
O O7 0.500000 0.396679 0.000000
O O8 0.731072 0.372158 0.026721
O O9 0.917296 0.724810 0.706749
O O10 0.695940 0.690375 0.680759
O O11 0.086075 0.634040 0.607046
O O12 0.748667 0.173299 0.892357
O O13 0.948288 0.251716 0.912638
O O14 0.500000 0.608929 0.500000
O O15 0.768314 0.500000 0.422510
O O16 0.647941 0.592598 0.383906
O O17 0.639497 0.500000 0.317194
O O18 0.577221 0.637266 0.316390
O O19 0.729584 0.319613 0.202390
#
# Coordination Sequence:
#
# PCOD8102069 Si02
#       8
#     8   8   8   8   8   8   8   8
#     4  10  20  36  60  88 120 157 199 249 304 361
#     4  11  27  47  65  88 122 160 205 260 314 376
#     4  11  21  38  60  92 126 161 207 251 302 358
#     4  12  24  42  64  92 118 160 206 255 313 371
#     4   9  19  40  67  92 125 169 208 246 301 367
#     4   9  21  37  59  89 125 163 202 252 305 359
#     4  12  25  42  65  89 122 165 207 252 314 375
#     4  12  23  39  61  93 128 165 204 259 307 362
#
# _framework density 19.756436000000001
#
# number of rings (size 3 to 8) (size 9 to 14) (size 15 to 20)
#    0.000    1.250    2.500    4.500    3.500    3.000 
#    0.000    3.125    0.000    2.250    0.000    0.000 
#    0.000    0.000    0.000    0.000    0.000    0.000 
#
# Total GULP energy -396908.573235 kJ/mol
# GULP energy per Si atom -12403.392914 kJ/mol
# Density = 1.971147 g / cm^3
# Si number density = 19.756436 Si / 1000 Ang^3
#
#
#
# Elastic Constant Matrix: (Units=GPa)
#
#
# Indices 1 2 3 4 5 6 
#
# 1 106.2603 44.4178 41.0721 -0.0022 -6.5042 0.0037
# 2 44.4178 89.0361 45.0386 -0.0029 -3.3934 0.0031
# 3 41.0721 45.0386 123.6907 0.0051 -12.7085 0.0025
# 4 -0.0022 -0.0029 0.0051 34.6382 0.0091 -0.1688
# 5 -6.5042 -3.3934 -12.7085 0.0091 18.3557 -0.0035
# 6 0.0037 0.0031 0.0025 -0.1688 -0.0035 33.4241
#
#
#
# Elastic Compliance Matrix: (Units=1/GPa)
#
#
# Indices 1 2 3 4 5 6 
#
# 1 0.012466 -0.005091 -0.002076 0.000000 0.002039 -0.000001
# 2 -0.005091 0.015863 -0.004274 0.000002 -0.001830 -0.000001
# 3 -0.002076 -0.004274 0.010953 -0.000004 0.006057 0.000000
# 4 0.000000 0.000002 -0.000004 0.028871 -0.000016 0.000146
# 5 0.002039 -0.001830 0.006057 -0.000016 0.059057 0.000006
# 6 -0.000001 -0.000001 0.000000 0.000146 0.000006 0.029919
#
#
# Mechanical properties :
#
#
# Convention : Reuss Voigt Hill
#
# Bulk Modulus (GPa) = 60.97544 64.44936 62.71240
# Shear Modulus (GPa) = 26.95741 29.84750 28.40246
#
# Velocity S-wave (km/s) = 3.69790 3.89108 3.79572
# Velocity P-wave (km/s) = 7.01165 7.27187 7.14295
#
# Compressibility (1/GPa) = 0.01640005
#
# Stress axis : x y z
#
# Youngs Moduli (GPa) = 80.21615 63.03843 91.30254
#
# Poissons Ratio (x) = 0.32094 0.18956
# Poissons Ratio (y) = 0.40839 0.39020
# Poissons Ratio (z) = 0.16655 0.26941
#
# Static dielectric constant tensor:
#      x y z
#    x 3.512340 -0.000010 -0.053340 
#    y -0.000010 3.776840 0.000000 
#    z -0.053340 0.000000 3.630380 
# 
# 
# High freq. dielectric constant tensor:
#      x y z
#    x 1.764210 0.000000 -0.002790 
#    y 0.000000 1.783790 0.000000 
#    z -0.002790 0.000000 1.764900 
# 
# From -- ./inp_files/372941.got.cif
#   From: 2010.06.25/outbox.cif.g09.slc.cpg/sg12_187_cif.got.tgz:372941.got - 2010.06.28 00:19:55.
