data_PCOD8102672
_publ_section_title
;
Structure prediction by ZEFSAII (Michael W. Deem and Ramdas Pophale) SiO2 
 PCOD8102672
Probable space group: C 2/M
;
_chemical_formula_sum "Si O2"
_cell_formula_units_Z 64
_cell_length_a 14.597504
_cell_length_b 8.885266
_cell_length_c 26.579030
_cell_angle_alpha 90.000000
_cell_angle_beta 106.933761
_cell_angle_gamma 90.000000
_cell_volume 3297.901382
_symmetry_space_group_name_H-M "C 2/M"
_symmetry_group_IT_number 12
_symmetry_cell_setting 'monoclinic'
loop_
_space_group_symop_operation_xyz
x,y,z
-x,y,-z
-x,-y,-z
x,-y,z
1/2+x,1/2+y,z
1/2-x,1/2+y,-z
1/2-x,1/2-y,-z
1/2+x,1/2-y,z
loop_
_atom_site_type_symbol
_atom_site_label
_atom_site_fract_x
_atom_site_fract_y
_atom_site_fract_z
Si Si1 0.307050 0.325182 0.758901
Si Si2 0.997683 0.675636 0.058365
Si Si3 0.456143 0.822857 0.417009
Si Si4 0.314607 0.325162 0.875825
Si Si5 0.123487 0.822149 0.694246
Si Si6 0.650770 0.176320 0.500445
Si Si7 0.980060 0.821142 0.222657
Si Si8 0.360725 0.322045 0.107572
O O1 0.301143 0.500000 0.744299
O O2 0.283797 0.296356 0.813529
O O3 0.231659 0.238439 0.712059
O O4 0.411743 0.259835 0.762605
O O5 0.011875 0.500000 0.071938
O O6 0.896915 0.734993 0.063861
O O7 0.077179 0.772320 0.099836
O O8 0.000000 0.710528 0.000000
O O9 0.431868 0.732670 0.363368
O O10 0.381063 0.774744 0.448514
O O11 0.564549 0.777772 0.449264
O O12 0.448698 0.000000 0.405919
O O13 0.305956 0.500000 0.888583
O O14 0.249011 0.225069 0.901771
O O15 0.068105 0.758785 0.734288
O O16 0.126301 0.000000 0.694890
O O17 0.750000 0.250000 0.500000
O O18 0.666930 0.000000 0.501254
O O19 0.921683 0.763043 0.165036
O O20 0.979869 0.000000 0.221575
O O21 0.367717 0.500000 0.100485
#
# Coordination Sequence:
#
# PCOD8102672 Si02
#       8
#     8   8   8   8   8   8   8   8
#     4  10  20  37  58  82 113 153 193 233 286 351
#     4  11  25  43  62  88 120 153 195 248 300 354
#     4   9  20  39  57  80 117 158 191 231 289 348
#     4  11  22  38  63  91 117 153 197 239 295 357
#     4  11  22  36  56  86 120 152 192 243 289 337
#     4   9  19  37  62  85 112 151 195 239 288 341
#     4   9  19  36  56  81 113 150 190 232 287 342
#     4  11  21  39  64  88 118 154 193 243 294 351
#
# _framework density 19.406279999999999
#
# number of rings (size 3 to 8) (size 9 to 14) (size 15 to 20)
#    0.000    1.875    2.500    2.250    0.000    4.000 
#    0.000    6.250    0.000    0.000    0.000    0.000 
#    0.000    0.000    0.000    0.000    0.000    0.000 
#
# Total GULP energy -396891.434330 kJ/mol
# GULP energy per Si atom -12402.857323 kJ/mol
# Density = 1.936211 g / cm^3
# Si number density = 19.406280 Si / 1000 Ang^3
#
#
#
# Elastic Constant Matrix: (Units=GPa)
#
#
# Indices 1 2 3 4 5 6 
#
# 1 104.7847 23.5591 7.7587 0.0000 -1.0136 0.0000
# 2 23.5591 57.3175 35.0782 0.0000 -2.3265 0.0000
# 3 7.7587 35.0782 57.4011 0.0000 -6.3949 0.0000
# 4 0.0000 0.0000 0.0000 31.2943 0.0000 1.5358
# 5 -1.0136 -2.3265 -6.3949 0.0000 27.0470 0.0000
# 6 0.0000 0.0000 0.0000 1.5358 0.0000 36.3679
#
#
#
# Elastic Compliance Matrix: (Units=1/GPa)
#
#
# Indices 1 2 3 4 5 6 
#
# 1 0.010658 -0.005607 0.002030 0.000000 0.000397 0.000000
# 2 -0.005607 0.030894 -0.018332 0.000000 -0.001887 0.000000
# 3 0.002030 -0.018332 0.028945 0.000000 0.005343 0.000000
# 4 0.000000 0.000000 0.000000 0.032021 0.000000 -0.001352
# 5 0.000397 -0.001887 0.005343 0.000000 0.038089 0.000000
# 6 0.000000 0.000000 0.000000 -0.001352 0.000000 0.027554
#
#
# Mechanical properties :
#
#
# Convention : Reuss Voigt Hill
#
# Bulk Modulus (GPa) = 37.48268 39.14392 38.31330
# Shear Modulus (GPa) = 22.63788 29.14899 25.89344
#
# Velocity S-wave (km/s) = 3.41915 3.87982 3.65674
# Velocity P-wave (km/s) = 5.91135 6.34706 6.13308
#
# Compressibility (1/GPa) = 0.02667899
#
# Stress axis : x y z
#
# Youngs Moduli (GPa) = 93.83064 32.36926 34.54872
#
# Poissons Ratio (x) = 0.18149 -0.07014
# Poissons Ratio (y) = 0.52609 0.63333
# Poissons Ratio (z) = -0.19048 0.59338
#
# Static dielectric constant tensor:
#      x y z
#    x 3.783840 0.000000 -0.030540 
#    y 0.000000 3.324310 0.000000 
#    z -0.030540 0.000000 3.493970 
# 
# 
# High freq. dielectric constant tensor:
#      x y z
#    x 1.768660 0.000000 0.000740 
#    y 0.000000 1.744690 0.000000 
#    z 0.000740 0.000000 1.750500 
# 
# From -- ./inp_files/375075.got.cif
#   From: 2010.06.25/outbox.cif.g09.slc.cpg/sg12_188_cif.got.tgz:375075.got - 2010.06.28 00:19:55.
