data_PCOD8102144
_publ_section_title
;
Structure prediction by ZEFSAII (Michael W. Deem and Ramdas Pophale) SiO2 
 PCOD8102144
Probable space group: C 2/M
;
_chemical_formula_sum "Si O2"
_cell_formula_units_Z 56
_cell_length_a 15.074206
_cell_length_b 22.186720
_cell_length_c 14.975288
_cell_angle_alpha 90.000000
_cell_angle_beta 32.948113
_cell_angle_gamma 90.000000
_cell_volume 2723.988513
_symmetry_space_group_name_H-M "C 2/M"
_symmetry_group_IT_number 12
_symmetry_cell_setting 'monoclinic'
loop_
_space_group_symop_operation_xyz
x,y,z
-x,y,-z
-x,-y,-z
x,-y,z
1/2+x,1/2+y,z
1/2-x,1/2+y,-z
1/2-x,1/2-y,-z
1/2+x,1/2-y,z
loop_
_atom_site_type_symbol
_atom_site_label
_atom_site_fract_x
_atom_site_fract_y
_atom_site_fract_z
Si Si1 0.290572 0.636960 0.426922
Si Si2 0.404336 0.567741 0.784486
Si Si3 0.782153 0.636271 0.920943
Si Si4 0.102407 0.668864 0.746993
Si Si5 0.492998 0.069408 0.609140
Si Si6 0.809527 0.930978 0.675037
Si Si7 0.482375 0.295483 0.116974
O O1 0.438111 0.609806 0.359537
O O2 0.201862 0.683037 0.571086
O O3 0.166321 0.583421 0.507718
O O4 0.348227 0.667225 0.286147
O O5 0.469441 0.500000 0.731082
O O6 0.281203 0.577685 0.805242
O O7 0.316751 0.581329 0.951682
O O8 0.918914 0.653246 0.876150
O O9 0.853371 0.612278 0.767678
O O10 0.661962 0.693584 0.007781
O O11 0.188451 0.614217 0.726718
O O12 0.084421 0.727348 0.824290
O O13 0.500000 0.085325 0.500000
O O14 0.449107 0.000000 0.663641
O O15 0.000000 0.915988 0.500000
O O16 0.770589 0.000000 0.678135
O O17 0.500000 0.317381 0.000000
#
# Coordination Sequence:
#
# PCOD8102144 Si02
#       7
#     8   8   8   8   8   8   8
#     4  10  21  39  61  86 120 159 207 250 304 362
#     4  10  20  36  60  90 127 162 196 244 309 371
#     4  10  23  39  59  88 126 158 204 254 308 363
#     4  11  23  40  63  88 121 161 209 251 307 369
#     4  10  20  36  61  91 122 155 201 252 307 365
#     4  10  21  38  62  95 128 159 198 254 308 371
#     4  11  24  42  62  84 118 163 209 259 307 357
#
# _framework density 20.558088999999999
#
# number of rings (size 3 to 8) (size 9 to 14) (size 15 to 20)
#    0.000    1.714    1.429    2.571    2.000    2.857 
#    0.000    3.571    0.000    6.857    0.000    0.000 
#    0.000    0.000    0.000    0.000    0.000    0.000 
#
# Total GULP energy -347073.338346 kJ/mol
# GULP energy per Si atom -12395.476370 kJ/mol
# Density = 2.051130 g / cm^3
# Si number density = 20.558089 Si / 1000 Ang^3
#
#
#
# Elastic Constant Matrix: (Units=GPa)
#
#
# Indices 1 2 3 4 5 6 
#
# 1 98.7493 40.5028 39.6023 -0.0597 0.0236 0.0418
# 2 40.5028 99.0443 43.5296 0.0326 0.4288 -0.0286
# 3 39.6023 43.5296 103.1907 0.1866 2.8330 -0.0929
# 4 -0.0597 0.0326 0.1866 22.2963 -0.1096 -0.0966
# 5 0.0236 0.4288 2.8330 -0.1096 36.3097 0.0439
# 6 0.0418 -0.0286 -0.0929 -0.0966 0.0439 33.7929
#
#
#
# Elastic Compliance Matrix: (Units=1/GPa)
#
#
# Indices 1 2 3 4 5 6 
#
# 1 0.013070 -0.003852 -0.003399 0.000070 0.000302 -0.000029
# 2 -0.003852 0.013532 -0.004235 0.000006 0.000173 0.000004
# 3 -0.003399 -0.004235 0.012808 -0.000115 -0.000948 0.000037
# 4 0.000070 0.000006 -0.000115 0.044853 0.000144 0.000128
# 5 0.000302 0.000173 -0.000948 0.000144 0.027613 -0.000038
# 6 -0.000029 0.000004 0.000037 0.000128 -0.000038 0.029593
#
#
# Mechanical properties :
#
#
# Convention : Reuss Voigt Hill
#
# Bulk Modulus (GPa) = 60.83634 60.91706 60.87670
# Shear Modulus (GPa) = 29.42556 30.30310 29.86433
#
# Velocity S-wave (km/s) = 3.78741 3.84347 3.81554
# Velocity P-wave (km/s) = 6.98445 7.02797 7.00624
#
# Compressibility (1/GPa) = 0.01643754
#
# Stress axis : x y z
#
# Youngs Moduli (GPa) = 76.51166 73.89802 78.07569
#
# Poissons Ratio (x) = 0.28466 0.26542
# Poissons Ratio (y) = 0.29473 0.33063
# Poissons Ratio (z) = 0.26010 0.31294
#
# Static dielectric constant tensor:
#      x y z
#    x 3.730690 -0.000050 0.130670 
#    y -0.000050 3.551400 0.000170 
#    z 0.130670 0.000170 3.929860 
# 
# 
# High freq. dielectric constant tensor:
#      x y z
#    x 1.805260 0.000000 0.009580 
#    y 0.000000 1.788340 0.000010 
#    z 0.009580 0.000010 1.819030 
# 
# From -- ./inp_files/218662.got.cif
#   From: 2010.06.25/outbox.cif.g09.slc.cpg/sg12_110_cif.got.tgz:218662.got - 2010.06.28 00:19:55.
