data_PCOD8102621
_publ_section_title
;
Structure prediction by ZEFSAII (Michael W. Deem and Ramdas Pophale) SiO2 
 PCOD8102621
Probable space group: C 2/M
;
_chemical_formula_sum "Si O2"
_cell_formula_units_Z 64
_cell_length_a 20.335297
_cell_length_b 8.984085
_cell_length_c 20.322081
_cell_angle_alpha 90.000000
_cell_angle_beta 60.263050
_cell_angle_gamma 90.000000
_cell_volume 3223.801250
_symmetry_space_group_name_H-M "C 2/M"
_symmetry_group_IT_number 12
_symmetry_cell_setting 'monoclinic'
loop_
_space_group_symop_operation_xyz
x,y,z
-x,y,-z
-x,-y,-z
x,-y,z
1/2+x,1/2+y,z
1/2-x,1/2+y,-z
1/2-x,1/2-y,-z
1/2+x,1/2-y,z
loop_
_atom_site_type_symbol
_atom_site_label
_atom_site_fract_x
_atom_site_fract_y
_atom_site_fract_z
Si Si1 0.679710 0.172678 0.410302
Si Si2 0.146037 0.172837 0.669052
Si Si3 0.346944 0.323587 0.822802
Si Si4 0.176170 0.675981 0.912880
Si Si5 0.911651 0.171664 0.157836
Si Si6 0.583956 0.676653 0.347426
Si Si7 0.572419 0.173277 0.583831
Si Si8 0.413420 0.673881 0.926460
O O1 0.766533 0.220383 0.376499
O O2 0.645136 0.272542 0.370220
O O3 0.638337 0.206789 0.499147
O O4 0.672647 0.000000 0.393586
O O5 0.111796 0.210506 0.756756
O O6 0.098124 0.267139 0.641410
O O7 0.135650 0.000000 0.656544
O O8 0.345727 0.500000 0.820333
O O9 0.261588 0.261769 0.868016
O O10 0.389186 0.263004 0.737072
O O11 0.392234 0.267722 0.864319
O O12 0.174249 0.500000 0.918721
O O13 0.135269 0.724608 0.866873
O O14 0.136362 0.740148 0.996542
O O15 0.999316 0.208248 0.103422
O O16 0.894178 0.000000 0.149999
O O17 0.577190 0.500000 0.352550
O O18 0.502772 0.745774 0.404549
O O19 0.554463 0.000000 0.598351
O O20 0.395466 0.500000 0.942115
#
# Coordination Sequence:
#
# PCOD8102621 Si02
#       8
#     8   8   8   8   8   8   8   8
#     4  10  22  39  58  84 118 151 185 232 286 335
#     4  10  21  39  62  85 111 148 194 235 275 334
#     4   9  20  38  58  81 109 142 182 230 278 322
#     4  11  22  36  56  83 113 142 178 227 277 326
#     4  10  21  37  58  82 109 145 185 225 271 325
#     4  11  22  38  61  85 111 149 195 235 276 334
#     4  11  23  38  57  84 119 152 184 231 288 337
#     4  10  20  37  58  78 107 146 184 222 269 326
#
# _framework density 19.852340000000002
#
# number of rings (size 3 to 8) (size 9 to 14) (size 15 to 20)
#    0.000    1.750    0.000    4.125    0.000    7.500 
#    0.000    5.000    0.000    0.000    0.000    0.000 
#    0.000    0.000    0.000    0.000    0.000    0.000 
#
# Total GULP energy -396980.449102 kJ/mol
# GULP energy per Si atom -12405.639034 kJ/mol
# Density = 1.980715 g / cm^3
# Si number density = 19.852340 Si / 1000 Ang^3
#
#
#
# Elastic Constant Matrix: (Units=GPa)
#
#
# Indices 1 2 3 4 5 6 
#
# 1 74.1566 27.6664 4.9971 -0.0001 10.1985 0.0001
# 2 27.6664 57.8299 27.5763 -0.0002 3.6588 0.0006
# 3 4.9971 27.5763 70.1717 -0.0001 -4.0448 -0.0002
# 4 -0.0001 -0.0002 -0.0001 29.1264 -0.0001 4.1876
# 5 10.1985 3.6588 -4.0448 -0.0001 38.9889 -0.0001
# 6 0.0001 0.0006 -0.0002 4.1876 -0.0001 35.8291
#
#
#
# Elastic Compliance Matrix: (Units=1/GPa)
#
#
# Indices 1 2 3 4 5 6 
#
# 1 0.017175 -0.009011 0.002121 0.000000 -0.003427 0.000000
# 2 -0.009011 0.026334 -0.009772 0.000000 -0.001128 0.000000
# 3 0.002121 -0.009772 0.018069 0.000000 0.002237 0.000000
# 4 0.000000 0.000000 0.000000 0.034920 0.000000 -0.004081
# 5 -0.003427 -0.001128 0.002237 0.000000 0.026883 0.000000
# 6 0.000000 0.000000 0.000000 -0.004081 0.000000 0.028387
#
#
# Mechanical properties :
#
#
# Convention : Reuss Voigt Hill
#
# Bulk Modulus (GPa) = 35.39451 35.84864 35.62158
# Shear Modulus (GPa) = 25.70536 30.25011 27.97774
#
# Velocity S-wave (km/s) = 3.60228 3.90777 3.75813
# Velocity P-wave (km/s) = 5.93038 6.20143 6.06742
#
# Compressibility (1/GPa) = 0.02825297
#
# Stress axis : x y z
#
# Youngs Moduli (GPa) = 58.22319 37.97311 55.34336
#
# Poissons Ratio (x) = 0.34218 -0.11736
# Poissons Ratio (y) = 0.52466 0.54083
# Poissons Ratio (z) = -0.12347 0.37108
#
# Static dielectric constant tensor:
#      x y z
#    x 3.757660 0.000000 -0.055860 
#    y 0.000000 3.461930 0.000000 
#    z -0.055860 0.000000 3.824290 
# 
# 
# High freq. dielectric constant tensor:
#      x y z
#    x 1.790120 0.000000 -0.002490 
#    y 0.000000 1.758680 0.000000 
#    z -0.002490 0.000000 1.792560 
# 
# From -- ./inp_files/319782.got.cif
#   From: 2010.06.25/outbox.cif.g09.slc.cpg/sg12_160_cif.got.tgz:319782.got - 2010.06.28 00:19:55.
