data_PCOD8102956
_publ_section_title
;
Structure prediction by ZEFSAII (Michael W. Deem and Ramdas Pophale) SiO2 
 PCOD8102956
Probable space group: C 2/M
;
_chemical_formula_sum "Si O2"
_cell_formula_units_Z 64
_cell_length_a 20.717322
_cell_length_b 19.930176
_cell_length_c 9.522791
_cell_angle_alpha 90.000000
_cell_angle_beta 54.483810
_cell_angle_gamma 90.000000
_cell_volume 3200.423686
_symmetry_space_group_name_H-M "C 2/M"
_symmetry_group_IT_number 12
_symmetry_cell_setting 'monoclinic'
loop_
_space_group_symop_operation_xyz
x,y,z
-x,y,-z
-x,-y,-z
x,-y,z
1/2+x,1/2+y,z
1/2-x,1/2+y,-z
1/2-x,1/2-y,-z
1/2+x,1/2-y,z
loop_
_atom_site_type_symbol
_atom_site_label
_atom_site_fract_x
_atom_site_fract_y
_atom_site_fract_z
Si Si1 0.072783 0.077362 0.607571
Si Si2 0.156441 0.701757 0.237064
Si Si3 0.341989 0.320352 0.293579
Si Si4 0.336722 0.692457 0.987497
Si Si5 0.959185 0.424854 0.189844
Si Si6 0.657531 0.814751 0.545696
Si Si7 0.106134 0.076319 0.250207
Si Si8 0.932396 0.426070 0.690157
O O1 0.109012 0.124885 0.680776
O O2 0.114754 0.090700 0.405069
O O3 0.980496 0.093267 0.701380
O O4 0.084686 0.000000 0.638578
O O5 0.248822 0.718906 0.126397
O O6 0.123862 0.710635 0.437179
O O7 0.140995 0.624898 0.213189
O O8 0.117713 0.752830 0.170629
O O9 0.376110 0.318998 0.090700
O O10 0.355692 0.245881 0.332128
O O11 0.248848 0.338531 0.418244
O O12 0.332112 0.622633 0.909676
O O13 0.924412 0.500000 0.206544
O O14 0.889380 0.378742 0.337281
O O15 0.032423 0.430107 0.201169
O O16 0.000000 0.393957 0.000000
O O17 0.128511 0.000000 0.189903
O O18 0.902713 0.500000 0.677871
O O19 0.000000 0.398787 0.500000
#
# Coordination Sequence:
#
# PCOD8102956 Si02
#       8
#     8   8   8   8   8   8   8   8
#     4   9  19  38  60  81 110 148 188 228 279 343
#     4  10  21  38  58  81 114 154 189 230 283 336
#     4  10  22  37  57  85 113 148 190 233 283 337
#     4  10  22  37  56  85 117 145 188 241 281 331
#     4  10  22  39  58  84 116 148 187 237 286 333
#     4  10  21  39  58  78 116 155 186 231 282 339
#     4   9  19  38  60  81 110 146 185 233 281 335
#     4  10  20  37  60  84 110 146 193 234 275 337
#
# _framework density 19.997353
#
# number of rings (size 3 to 8) (size 9 to 14) (size 15 to 20)
#    0.000    2.250    1.250    1.500    1.750    4.000 
#    2.250    3.750    0.000    0.000    0.000    0.000 
#    0.000    0.000    0.000    0.000    0.000    0.000 
#
# Total GULP energy -396647.396692 kJ/mol
# GULP energy per Si atom -12395.231147 kJ/mol
# Density = 1.995184 g / cm^3
# Si number density = 19.997353 Si / 1000 Ang^3
#
#
#
# Elastic Constant Matrix: (Units=GPa)
#
#
# Indices 1 2 3 4 5 6 
#
# 1 55.8830 32.9355 26.7203 0.0000 24.1557 0.0000
# 2 32.9355 111.2473 56.8196 0.0000 14.5475 0.0000
# 3 26.7203 56.8196 123.4603 0.0000 28.1382 0.0000
# 4 0.0000 0.0000 0.0000 32.6009 0.0000 5.7269
# 5 24.1557 14.5475 28.1382 0.0000 28.5482 0.0000
# 6 0.0000 0.0000 0.0000 5.7269 0.0000 25.5935
#
#
#
# Elastic Compliance Matrix: (Units=1/GPa)
#
#
# Indices 1 2 3 4 5 6 
#
# 1 0.032303 -0.007349 0.002279 0.000000 -0.025834 0.000000
# 2 -0.007349 0.013439 -0.005740 0.000000 0.005028 0.000000
# 3 0.002279 -0.005740 0.012925 0.000000 -0.011742 0.000000
# 4 0.000000 0.000000 0.000000 0.031929 0.000000 -0.007145
# 5 -0.025834 0.005028 -0.011742 0.000000 0.065899 0.000000
# 6 0.000000 0.000000 0.000000 -0.007145 0.000000 0.040671
#
#
# Mechanical properties :
#
#
# Convention : Reuss Voigt Hill
#
# Bulk Modulus (GPa) = 26.99392 58.17126 42.58259
# Shear Modulus (GPa) = 21.63226 28.95620 25.29423
#
# Velocity S-wave (km/s) = 3.29257 3.80939 3.56037
# Velocity P-wave (km/s) = 5.28988 6.96428 6.18401
#
# Compressibility (1/GPa) = 0.03704538
#
# Stress axis : x y z
#
# Youngs Moduli (GPa) = 30.95665 74.40904 77.37163
#
# Poissons Ratio (x) = 0.54686 -0.17633
# Poissons Ratio (y) = 0.22751 0.44415
# Poissons Ratio (z) = -0.07055 0.42714
#
# Static dielectric constant tensor:
#      x y z
#    x 3.465430 0.000000 0.297580 
#    y 0.000000 3.670100 0.000000 
#    z 0.297580 0.000000 3.766030 
# 
# 
# High freq. dielectric constant tensor:
#      x y z
#    x 1.758020 0.000000 0.021090 
#    y 0.000000 1.785170 0.000000 
#    z 0.021090 0.000000 1.786690 
# 
# From -- ./inp_files/98838.got.cif
#   From: 2010.06.25/outbox.cif.g09.slc.cpg/sg12_50_cif.got.tgz:98838.got - 2010.06.28 00:19:55.
