data_PCOD8102414
_publ_section_title
;
Structure prediction by ZEFSAII (Michael W. Deem and Ramdas Pophale) SiO2 
 PCOD8102414
Probable space group: C 2/M
;
_chemical_formula_sum "Si O2"
_cell_formula_units_Z 56
_cell_length_a 29.485641
_cell_length_b 14.137471
_cell_length_c 8.925445
_cell_angle_alpha 90.000000
_cell_angle_beta 130.107314
_cell_angle_gamma 90.000000
_cell_volume 2845.655355
_symmetry_space_group_name_H-M "C 2/M"
_symmetry_group_IT_number 12
_symmetry_cell_setting 'monoclinic'
loop_
_space_group_symop_operation_xyz
x,y,z
-x,y,-z
-x,-y,-z
x,-y,z
1/2+x,1/2+y,z
1/2-x,1/2+y,-z
1/2-x,1/2-y,-z
1/2+x,1/2-y,z
loop_
_atom_site_type_symbol
_atom_site_label
_atom_site_fract_x
_atom_site_fract_y
_atom_site_fract_z
Si Si1 0.883917 0.108654 0.952360
Si Si2 0.516970 0.264682 0.702384
Si Si3 0.269054 0.892196 0.864715
Si Si4 0.665757 0.608215 0.837956
Si Si5 0.389677 0.767358 0.470858
Si Si6 0.695359 0.701776 0.466208
Si Si7 0.894136 0.388390 0.205565
O O1 0.852057 0.154814 0.743172
O O2 0.898745 0.000000 0.947236
O O3 0.945446 0.159228 0.124678
O O4 0.838453 0.118032 0.993205
O O5 0.500000 0.303077 0.500000
O O6 0.457452 0.244570 0.672621
O O7 0.551759 0.165491 0.757580
O O8 0.232673 0.860878 0.935626
O O9 0.227346 0.877607 0.633164
O O10 0.286255 0.000000 0.914984
O O11 0.334264 0.845087 0.998640
O O12 0.652809 0.500000 0.758443
O O13 0.619933 0.676743 0.657683
O O14 0.342389 0.772620 0.506442
O O15 0.386903 0.863158 0.366478
O O16 0.750000 0.750000 0.500000
O O17 0.905013 0.500000 0.210161
#
# Coordination Sequence:
#
# PCOD8102414 Si02
#       7
#     8   8   8   8   8   8   8
#     4  11  22  37  59  90 122 155 196 237 290 354
#     4  10  20  38  59  86 117 152 196 249 292 340
#     4   9  19  36  57  81 112 149 191 238 292 347
#     4   9  18  33  58  85 114 147 188 238 286 348
#     4  10  22  38  58  84 118 152 199 238 290 349
#     4  11  24  37  56  83 121 160 188 235 293 351
#     4  10  20  36  63  91 114 149 202 256 299 341
#
# _framework density 19.679123000000001
#
# number of rings (size 3 to 8) (size 9 to 14) (size 15 to 20)
#    0.000    2.000    2.857    1.286    2.000    5.714 
#    0.000    1.429    0.000    0.857    0.000    7.000 
#    0.000    0.000    0.000    0.000    0.000    0.000 
#
# Total GULP energy -346980.238151 kJ/mol
# GULP energy per Si atom -12392.151363 kJ/mol
# Density = 1.963433 g / cm^3
# Si number density = 19.679123 Si / 1000 Ang^3
#
#
#
# Elastic Constant Matrix: (Units=GPa)
#
#
# Indices 1 2 3 4 5 6 
#
# 1 115.4542 23.7829 33.9016 0.0000 16.2573 0.0000
# 2 23.7829 79.3404 28.4814 0.0000 7.9182 0.0000
# 3 33.9016 28.4814 117.3165 0.0000 19.7873 0.0000
# 4 0.0000 0.0000 0.0000 29.1085 0.0000 -1.0632
# 5 16.2573 7.9182 19.7873 0.0000 31.4559 0.0000
# 6 0.0000 0.0000 0.0000 -1.0632 0.0000 20.6741
#
#
#
# Elastic Compliance Matrix: (Units=1/GPa)
#
#
# Indices 1 2 3 4 5 6 
#
# 1 0.010118 -0.002019 -0.001832 0.000000 -0.003569 0.000000
# 2 -0.002019 0.014276 -0.002743 0.000000 -0.000824 0.000000
# 3 -0.001832 -0.002743 0.010564 0.000000 -0.005008 0.000000
# 4 0.000000 0.000000 0.000000 0.034419 0.000000 0.001770
# 5 -0.003569 -0.000824 -0.005008 0.000000 0.036993 0.000000
# 6 0.000000 0.000000 0.000000 0.001770 0.000000 0.048461
#
#
# Mechanical properties :
#
#
# Convention : Reuss Voigt Hill
#
# Bulk Modulus (GPa) = 45.93580 53.82701 49.88140
# Shear Modulus (GPa) = 28.52656 31.31070 29.91863
#
# Velocity S-wave (km/s) = 3.81147 3.99314 3.90336
# Velocity P-wave (km/s) = 6.53933 6.97653 6.76146
#
# Compressibility (1/GPa) = 0.02176951
#
# Stress axis : x y z
#
# Youngs Moduli (GPa) = 98.83632 70.04626 94.66151
#
# Poissons Ratio (x) = 0.14144 0.17339
# Poissons Ratio (y) = 0.19957 0.25969
# Poissons Ratio (z) = 0.18103 0.19216
#
# Static dielectric constant tensor:
#      x y z
#    x 3.828240 0.000000 0.155990 
#    y 0.000000 3.486360 0.000000 
#    z 0.155990 0.000000 3.680140 
# 
# 
# High freq. dielectric constant tensor:
#      x y z
#    x 1.770290 0.000000 0.021610 
#    y 0.000000 1.757570 0.000000 
#    z 0.021610 0.000000 1.760750 
# 
# From -- ./inp_files/111700.got.cif
#   From: 2010.06.25/outbox.cif.g09.slc.cpg/sg12_56_cif.got.tgz:111700.got - 2010.06.28 00:19:55.
