data_PCOD8102163
_publ_section_title
;
Structure prediction by ZEFSAII (Michael W. Deem and Ramdas Pophale) SiO2 
 PCOD8102163
Probable space group: C 2/M
;
_chemical_formula_sum "Si O2"
_cell_formula_units_Z 48
_cell_length_a 16.922477
_cell_length_b 21.093689
_cell_length_c 8.375714
_cell_angle_alpha 90.000000
_cell_angle_beta 130.772696
_cell_angle_gamma 90.000000
_cell_volume 2264.174584
_symmetry_space_group_name_H-M "C 2/M"
_symmetry_group_IT_number 12
_symmetry_cell_setting 'monoclinic'
loop_
_space_group_symop_operation_xyz
x,y,z
-x,y,-z
-x,-y,-z
x,-y,z
1/2+x,1/2+y,z
1/2-x,1/2+y,-z
1/2-x,1/2-y,-z
1/2+x,1/2-y,z
loop_
_atom_site_type_symbol
_atom_site_label
_atom_site_fract_x
_atom_site_fract_y
_atom_site_fract_z
Si Si1 0.921676 0.239429 0.038708
Si Si2 0.285644 0.716805 0.352568
Si Si3 0.407550 0.636836 0.265398
Si Si4 0.039269 0.360926 0.725049
Si Si5 0.768885 0.427863 0.145675
Si Si6 0.322248 0.154958 0.511574
O O1 0.956852 0.177272 0.184630
O O2 0.905037 0.301539 0.123272
O O3 0.806594 0.233356 0.812895
O O4 0.000000 0.251579 0.000000
O O5 0.337142 0.686126 0.268350
O O6 0.360039 0.770943 0.528868
O O7 0.249476 0.659488 0.424081
O O8 0.500000 0.608880 0.500000
O O9 0.334383 0.581483 0.099921
O O10 0.126693 0.415732 0.822743
O O11 0.000000 0.339872 0.500000
O O12 0.934222 0.381256 0.686232
O O13 0.770506 0.500000 0.207187
O O14 0.761927 0.381886 0.290153
#
# Coordination Sequence:
#
# PCOD8102163 Si02
#       6
#     8   8   8   8   8   8
#     4  12  21  36  64 100 130 161 195 256 323 388
#     4  11  21  38  63  96 132 160 192 258 328 387
#     4  12  25  39  61  91 128 166 212 257 315 371
#     4  10  20  36  60  92 125 158 200 252 314 376
#     4  11  24  43  63  86 123 174 223 259 301 359
#     4  10  21  37  62  96 125 159 200 256 319 382
#
# _framework density 21.199778999999999
#
# number of rings (size 3 to 8) (size 9 to 14) (size 15 to 20)
#    0.000    1.000    5.000    4.000    2.333    3.333 
#    0.000    0.833    0.000    5.000    0.000    0.000 
#    0.000    0.000    0.000    0.000    0.000    0.000 
#
# Total GULP energy -297398.517706 kJ/mol
# GULP energy per Si atom -12391.604904 kJ/mol
# Density = 2.115153 g / cm^3
# Si number density = 21.199779 Si / 1000 Ang^3
#
#
#
# Elastic Constant Matrix: (Units=GPa)
#
#
# Indices 1 2 3 4 5 6 
#
# 1 74.7165 33.4257 27.3990 0.0000 2.2236 0.0000
# 2 33.4257 92.7774 30.7537 0.0000 -4.7981 0.0000
# 3 27.3990 30.7537 95.8787 0.0000 10.0840 0.0000
# 4 0.0000 0.0000 0.0000 20.2992 0.0000 -1.7161
# 5 2.2236 -4.7981 10.0840 0.0000 27.1191 0.0000
# 6 0.0000 0.0000 0.0000 -1.7161 0.0000 20.0362
#
#
#
# Elastic Compliance Matrix: (Units=1/GPa)
#
#
# Indices 1 2 3 4 5 6 
#
# 1 0.016822 -0.005110 -0.003047 0.000000 -0.001150 0.000000
# 2 -0.005110 0.013984 -0.003465 0.000000 0.004182 0.000000
# 3 -0.003047 -0.003465 0.012957 0.000000 -0.005181 0.000000
# 4 0.000000 0.000000 0.000000 0.049622 0.000000 0.004250
# 5 -0.001150 0.004182 -0.005181 0.000000 0.039635 0.000000
# 6 0.000000 0.000000 0.000000 0.004250 0.000000 0.050274
#
#
# Mechanical properties :
#
#
# Convention : Reuss Voigt Hill
#
# Bulk Modulus (GPa) = 48.73593 49.61438 49.17516
# Shear Modulus (GPa) = 23.43264 24.94386 24.18825
#
# Velocity S-wave (km/s) = 3.32825 3.43390 3.38148
# Velocity P-wave (km/s) = 6.14886 6.25909 6.20422
#
# Compressibility (1/GPa) = 0.02051874
#
# Stress axis : x y z
#
# Youngs Moduli (GPa) = 59.44770 71.50856 77.17851
#
# Poissons Ratio (x) = 0.36540 0.23516
# Poissons Ratio (y) = 0.30377 0.26743
# Poissons Ratio (z) = 0.18114 0.24779
#
# Static dielectric constant tensor:
#      x y z
#    x 4.045760 0.000000 0.111470 
#    y 0.000000 3.212950 0.000000 
#    z 0.111470 0.000000 4.140970 
# 
# 
# High freq. dielectric constant tensor:
#      x y z
#    x 1.836120 0.000000 0.009810 
#    y 0.000000 1.771340 0.000000 
#    z 0.009810 0.000000 1.849780 
# 
# From -- ./inp_files/77697.got.cif
#   From: 2010.06.25/outbox.cif.g09.slc.cpg/sg12_39_cif.got.tgz:77697.got - 2010.06.28 00:19:55.
