data_PCOD8102215
_publ_section_title
;
Structure prediction by ZEFSAII (Michael W. Deem and Ramdas Pophale) SiO2 
 PCOD8102215
Probable space group: C 2/M
;
_chemical_formula_sum "Si O2"
_cell_formula_units_Z 56
_cell_length_a 18.501337
_cell_length_b 9.060675
_cell_length_c 18.151610
_cell_angle_alpha 90.000000
_cell_angle_beta 111.549453
_cell_angle_gamma 90.000000
_cell_volume 2830.146242
_symmetry_space_group_name_H-M "C 2/M"
_symmetry_group_IT_number 12
_symmetry_cell_setting 'monoclinic'
loop_
_space_group_symop_operation_xyz
x,y,z
-x,y,-z
-x,-y,-z
x,-y,z
1/2+x,1/2+y,z
1/2-x,1/2+y,-z
1/2-x,1/2-y,-z
1/2+x,1/2-y,z
loop_
_atom_site_type_symbol
_atom_site_label
_atom_site_fract_x
_atom_site_fract_y
_atom_site_fract_z
Si Si1 0.219434 0.174955 0.133226
Si Si2 0.432042 0.663522 0.531398
Si Si3 0.075072 0.825178 0.982328
Si Si4 0.111264 0.670787 0.847511
Si Si5 0.213858 0.329568 0.555683
Si Si6 0.532285 0.170915 0.305231
Si Si7 0.665148 0.671621 0.271054
O O1 0.303744 0.237404 0.140593
O O2 0.195645 0.234070 0.204732
O O3 0.224487 0.000000 0.138677
O O4 0.154008 0.228726 0.051540
O O5 0.500000 0.645032 0.500000
O O6 0.400421 0.500000 0.541793
O O7 0.369380 0.756878 0.462492
O O8 0.458775 0.743941 0.615237
O O9 0.072889 0.756673 0.900761
O O10 0.072860 0.000000 0.973710
O O11 0.000000 0.770056 0.000000
O O12 0.118064 0.500000 0.872444
O O13 0.055738 0.691186 0.756057
O O14 0.203028 0.500000 0.533483
O O15 0.250000 0.250000 0.500000
O O16 0.265743 0.302504 0.646089
O O17 0.590180 0.235541 0.265772
O O18 0.552364 0.000000 0.325735
O O19 0.641222 0.500000 0.256913
#
# Coordination Sequence:
#
# PCOD8102215 Si02
#       7
#     8   8   8   8   8   8   8
#     4   9  19  37  59  85 116 151 192 236 285 347
#     4  11  25  42  60  84 118 158 200 249 302 352
#     4  10  20  36  61  88 114 151 193 233 283 345
#     4  10  22  38  58  85 118 152 189 237 290 344
#     4  11  22  37  62  90 118 156 199 246 298 353
#     4  11  23  38  59  85 115 153 196 244 296 353
#     4  10  21  38  62  85 114 154 195 240 291 350
#
# _framework density 19.786964000000001
#
# number of rings (size 3 to 8) (size 9 to 14) (size 15 to 20)
#    0.000    1.714    1.429    2.571    2.000    4.286 
#    0.000    1.429    0.000    0.000    0.000    0.000 
#    0.000    0.000    0.000    0.000    0.000    0.000 
#
# Total GULP energy -347268.063420 kJ/mol
# GULP energy per Si atom -12402.430836 kJ/mol
# Density = 1.974193 g / cm^3
# Si number density = 19.786964 Si / 1000 Ang^3
#
#
#
# Elastic Constant Matrix: (Units=GPa)
#
#
# Indices 1 2 3 4 5 6 
#
# 1 121.8440 37.6743 32.3558 0.0000 6.1778 0.0000
# 2 37.6743 78.4425 37.6477 0.0000 5.9826 0.0000
# 3 32.3558 37.6477 84.3009 0.0000 0.1503 0.0000
# 4 0.0000 0.0000 0.0000 19.1861 0.0000 10.1991
# 5 6.1778 5.9826 0.1503 0.0000 40.4603 0.0000
# 6 0.0000 0.0000 0.0000 10.1991 0.0000 14.2777
#
#
#
# Elastic Compliance Matrix: (Units=1/GPa)
#
#
# Indices 1 2 3 4 5 6 
#
# 1 0.009971 -0.003664 -0.002189 0.000000 -0.000973 0.000000
# 2 -0.003664 0.017803 -0.006541 0.000000 -0.002049 0.000000
# 3 -0.002189 -0.006541 0.015621 0.000000 0.001243 0.000000
# 4 0.000000 0.000000 0.000000 0.084030 0.000000 -0.060026
# 5 -0.000973 -0.002049 0.001243 0.000000 0.025162 0.000000
# 6 0.000000 0.000000 0.000000 -0.060026 0.000000 0.112917
#
#
# Mechanical properties :
#
#
# Convention : Reuss Voigt Hill
#
# Bulk Modulus (GPa) = 53.74054 55.54921 54.64487
# Shear Modulus (GPa) = 16.86369 26.57881 21.72125
#
# Velocity S-wave (km/s) = 2.92252 3.66901 3.31683
# Velocity P-wave (km/s) = 6.21343 6.78848 6.50731
#
# Compressibility (1/GPa) = 0.01860793
#
# Stress axis : x y z
#
# Youngs Moduli (GPa) = 100.29388 56.16911 64.01560
#
# Poissons Ratio (x) = 0.20581 0.14012
# Poissons Ratio (y) = 0.36748 0.41871
# Poissons Ratio (z) = 0.21953 0.36739
#
# Static dielectric constant tensor:
#      x y z
#    x 3.569740 0.000000 -0.220910 
#    y 0.000000 3.609550 0.000000 
#    z -0.220910 0.000000 3.256450 
# 
# 
# High freq. dielectric constant tensor:
#      x y z
#    x 1.784150 0.000000 0.005120 
#    y 0.000000 1.758410 0.000000 
#    z 0.005120 0.000000 1.781700 
# 
# From -- ./inp_files/275693.got.cif
#   From: 2010.06.25/outbox.cif.g09.slc.cpg/sg12_138_cif.got.tgz:275693.got - 2010.06.28 00:19:55.
