data_PCOD8102822
_publ_section_title
;
Structure prediction by ZEFSAII (Michael W. Deem and Ramdas Pophale) SiO2 
 PCOD8102822
Probable space group: C 2/M
;
_chemical_formula_sum "Si O2"
_cell_formula_units_Z 48
_cell_length_a 8.182918
_cell_length_b 31.847778
_cell_length_c 12.170628
_cell_angle_alpha 90.000000
_cell_angle_beta 132.645432
_cell_angle_gamma 90.000000
_cell_volume 2333.020251
_symmetry_space_group_name_H-M "C 2/M"
_symmetry_group_IT_number 12
_symmetry_cell_setting 'monoclinic'
loop_
_space_group_symop_operation_xyz
x,y,z
-x,y,-z
-x,-y,-z
x,-y,z
1/2+x,1/2+y,z
1/2-x,1/2+y,-z
1/2-x,1/2-y,-z
1/2+x,1/2-y,z
loop_
_atom_site_type_symbol
_atom_site_label
_atom_site_fract_x
_atom_site_fract_y
_atom_site_fract_z
Si Si1 0.877461 0.953986 0.329361
Si Si2 0.247428 0.596108 0.592977
Si Si3 0.345484 0.877025 0.688581
Si Si4 0.317760 0.650211 0.837986
Si Si5 0.518958 0.266539 0.844839
Si Si6 0.143115 0.796657 0.667844
O O1 0.671821 0.921470 0.253350
O O2 0.000000 0.957820 0.500000
O O3 0.060433 0.939297 0.322428
O O4 0.785345 0.000000 0.251988
O O5 0.245211 0.620538 0.476765
O O6 0.307964 0.628838 0.715191
O O7 0.000000 0.576297 0.500000
O O8 0.589680 0.857156 0.799783
O O9 0.179743 0.846476 0.677678
O O10 0.383262 0.699601 0.857082
O O11 0.500000 0.628510 0.000000
O O12 0.381329 0.224562 0.770788
O O13 0.531070 0.287758 0.732130
O O14 0.750000 0.250000 0.000000
O O15 0.000000 0.779604 0.500000
#
# Coordination Sequence:
#
# PCOD8102822 Si02
#       6
#     8   8   8   8   8   8
#     4   9  17  33  59  89 116 143 182 231 283 337
#     4   9  19  35  58  87 116 148 187 233 279 333
#     4  10  20  37  59  84 113 146 187 235 286 339
#     4  11  22  38  57  79 111 151 193 232 281 338
#     4  12  25  40  56  81 115 150 193 242 288 339
#     4  12  23  37  58  82 111 147 190 236 287 340
#
# _framework density 20.574189000000001
#
# number of rings (size 3 to 8) (size 9 to 14) (size 15 to 20)
#    0.000    1.500    0.000    7.500    0.000    2.333 
#    0.000    5.000    0.000    3.000    0.000    0.000 
#    0.000    0.000    0.000    0.000    0.000    0.000 
#
# Total GULP energy -297447.484683 kJ/mol
# GULP energy per Si atom -12393.645195 kJ/mol
# Density = 2.052736 g / cm^3
# Si number density = 20.574189 Si / 1000 Ang^3
#
#
#
# Elastic Constant Matrix: (Units=GPa)
#
#
# Indices 1 2 3 4 5 6 
#
# 1 94.5265 54.5057 20.5127 0.0000 12.1482 0.0000
# 2 54.5057 127.8640 33.2037 0.0000 17.6073 0.0000
# 3 20.5127 33.2037 93.4123 0.0000 12.9611 0.0000
# 4 0.0000 0.0000 0.0000 15.6429 0.0000 9.0487
# 5 12.1482 17.6073 12.9611 0.0000 33.1979 0.0000
# 6 0.0000 0.0000 0.0000 9.0487 0.0000 32.0689
#
#
#
# Elastic Compliance Matrix: (Units=1/GPa)
#
#
# Indices 1 2 3 4 5 6 
#
# 1 0.014229 -0.005575 -0.000878 0.000000 -0.001907 0.000000
# 2 -0.005575 0.011219 -0.002348 0.000000 -0.002994 0.000000
# 3 -0.000878 -0.002348 0.012175 0.000000 -0.003186 0.000000
# 4 0.000000 0.000000 0.000000 0.076396 0.000000 -0.021556
# 5 -0.001907 -0.002994 -0.003186 0.000000 0.033652 0.000000
# 6 0.000000 0.000000 0.000000 -0.021556 0.000000 0.037265
#
#
# Mechanical properties :
#
#
# Convention : Reuss Voigt Hill
#
# Bulk Modulus (GPa) = 49.94947 59.13856 54.54402
# Shear Modulus (GPa) = 23.89897 30.02066 26.95981
#
# Velocity S-wave (km/s) = 3.41192 3.82402 3.62383
# Velocity P-wave (km/s) = 6.31285 6.95010 6.63913
#
# Compressibility (1/GPa) = 0.02002023
#
# Stress axis : x y z
#
# Youngs Moduli (GPa) = 70.27706 89.13187 82.13569
#
# Poissons Ratio (x) = 0.49691 0.07215
# Poissons Ratio (y) = 0.39179 0.19289
# Poissons Ratio (z) = 0.06173 0.20931
#
# Static dielectric constant tensor:
#      x y z
#    x 3.961960 0.000000 0.093210 
#    y 0.000000 3.920270 0.000000 
#    z 0.093210 0.000000 3.622860 
# 
# 
# High freq. dielectric constant tensor:
#      x y z
#    x 1.822220 0.000000 0.006330 
#    y 0.000000 1.791960 0.000000 
#    z 0.006330 0.000000 1.787100 
# 
# From -- ./inp_files/200798.got.cif
#   From: 2010.06.25/outbox.cif.g09.slc.cpg/sg12_101_cif.got.tgz:200798.got - 2010.06.28 00:19:55.
