data_PCOD8102681
_publ_section_title
;
Structure prediction by ZEFSAII (Michael W. Deem and Ramdas Pophale) SiO2 
 PCOD8102681
Probable space group: C 2/M
;
_chemical_formula_sum "Si O2"
_cell_formula_units_Z 56
_cell_length_a 27.058476
_cell_length_b 8.801530
_cell_length_c 12.541144
_cell_angle_alpha 90.000000
_cell_angle_beta 68.156656
_cell_angle_gamma 90.000000
_cell_volume 2772.313806
_symmetry_space_group_name_H-M "C 2/M"
_symmetry_group_IT_number 12
_symmetry_cell_setting 'monoclinic'
loop_
_space_group_symop_operation_xyz
x,y,z
-x,y,-z
-x,-y,-z
x,-y,z
1/2+x,1/2+y,z
1/2-x,1/2+y,-z
1/2-x,1/2-y,-z
1/2+x,1/2-y,z
loop_
_atom_site_type_symbol
_atom_site_label
_atom_site_fract_x
_atom_site_fract_y
_atom_site_fract_z
Si Si1 0.440316 0.818818 0.533909
Si Si2 0.945949 0.821256 0.099204
Si Si3 0.860368 0.322016 0.775664
Si Si4 0.139253 0.323199 0.984025
Si Si5 0.709663 0.326432 0.612168
Si Si6 0.756868 0.825710 0.173575
Si Si7 0.902520 0.679723 0.334268
O O1 0.500000 0.754833 0.500000
O O2 0.402983 0.751665 0.658302
O O3 0.417628 0.760333 0.439379
O O4 0.440959 0.000000 0.537800
O O5 0.945102 0.742109 0.215140
O O6 0.943636 0.000000 0.118179
O O7 0.895737 0.774507 0.068433
O O8 0.000000 0.767305 0.000000
O O9 0.856471 0.500000 0.756603
O O10 0.879741 0.288090 0.880221
O O11 0.801285 0.255315 0.804356
O O12 0.132759 0.500000 0.961258
O O13 0.200750 0.276101 0.923751
O O14 0.699620 0.500000 0.586851
O O15 0.750000 0.250000 0.500000
O O16 0.734805 0.314207 0.707682
O O17 0.654859 0.237052 0.654077
O O18 0.761960 0.000000 0.130277
O O19 0.903384 0.500000 0.330307
#
# Coordination Sequence:
#
# PCOD8102681 Si02
#       7
#     8   8   8   8   8   8   8
#     4   9  19  36  59  88 121 155 194 243 302 358
#     4  11  25  43  62  85 120 164 202 244 305 366
#     4   9  19  35  56  86 122 159 197 241 296 354
#     4  11  22  36  61  92 120 151 199 254 295 349
#     4  11  22  36  59  87 122 165 203 245 297 355
#     4  10  20  37  58  82 121 164 196 236 301 365
#     4  11  22  38  64  94 121 153 200 252 301 357
#
# _framework density 20.199732999999998
#
# number of rings (size 3 to 8) (size 9 to 14) (size 15 to 20)
#    0.000    1.714    1.429    3.000    2.000    4.000 
#    0.000    0.714    0.000    5.143    0.000    0.000 
#    0.000    0.000    0.000    0.000    0.000    0.000 
#
# Total GULP energy -347296.220041 kJ/mol
# GULP energy per Si atom -12403.436430 kJ/mol
# Density = 2.015376 g / cm^3
# Si number density = 20.199733 Si / 1000 Ang^3
#
#
#
# Elastic Constant Matrix: (Units=GPa)
#
#
# Indices 1 2 3 4 5 6 
#
# 1 72.5834 6.1903 28.7782 0.0000 -10.5090 0.0000
# 2 6.1903 51.9506 34.7333 0.0000 -3.8871 0.0000
# 3 28.7782 34.7333 142.5296 0.0000 -12.6947 0.0000
# 4 0.0000 0.0000 0.0000 24.8998 0.0000 -2.6033
# 5 -10.5090 -3.8871 -12.6947 0.0000 37.1685 0.0000
# 6 0.0000 0.0000 0.0000 -2.6033 0.0000 11.9942
#
#
#
# Elastic Compliance Matrix: (Units=1/GPa)
#
#
# Indices 1 2 3 4 5 6 
#
# 1 0.015385 0.000353 -0.002890 0.000000 0.003400 0.000000
# 2 0.000353 0.023013 -0.005627 0.000000 0.000585 0.000000
# 3 -0.002890 -0.005627 0.009123 0.000000 0.001710 0.000000
# 4 0.000000 0.000000 0.000000 0.041094 0.000000 0.008919
# 5 0.003400 0.000585 0.001710 0.000000 0.028511 0.000000
# 6 0.000000 0.000000 0.000000 0.008919 0.000000 0.085309
#
#
# Mechanical properties :
#
#
# Convention : Reuss Voigt Hill
#
# Bulk Modulus (GPa) = 32.05782 45.16303 38.61042
# Shear Modulus (GPa) = 21.81872 27.96996 24.89434
#
# Velocity S-wave (km/s) = 3.29013 3.72515 3.51438
# Velocity P-wave (km/s) = 5.50801 6.39602 5.96855
#
# Compressibility (1/GPa) = 0.03119364
#
# Stress axis : x y z
#
# Youngs Moduli (GPa) = 64.99795 43.45360 109.61057
#
# Poissons Ratio (x) = -0.01534 0.31673
# Poissons Ratio (y) = -0.02295 0.61681
# Poissons Ratio (z) = 0.18782 0.24453
#
# Static dielectric constant tensor:
#      x y z
#    x 3.706540 0.000000 -0.054830 
#    y 0.000000 3.389580 0.000000 
#    z -0.054830 0.000000 3.886300 
# 
# 
# High freq. dielectric constant tensor:
#      x y z
#    x 1.794920 0.000000 -0.001480 
#    y 0.000000 1.761970 0.000000 
#    z -0.001480 0.000000 1.808710 
# 
# From -- ./inp_files/180752.got.cif
#   From: 2010.06.25/outbox.cif.g09.slc.cpg/sg12_91_cif.got.tgz:180752.got - 2010.06.28 00:19:55.
