data_PCOD8102073
_publ_section_title
;
Structure prediction by ZEFSAII (Michael W. Deem and Ramdas Pophale) SiO2 
 PCOD8102073
Probable space group: C 2/M
;
_chemical_formula_sum "Si O2"
_cell_formula_units_Z 64
_cell_length_a 23.734691
_cell_length_b 8.937829
_cell_length_c 15.200003
_cell_angle_alpha 90.000000
_cell_angle_beta 91.953200
_cell_angle_gamma 90.000000
_cell_volume 3222.603680
_symmetry_space_group_name_H-M "C 2/M"
_symmetry_group_IT_number 12
_symmetry_cell_setting 'monoclinic'
loop_
_space_group_symop_operation_xyz
x,y,z
-x,y,-z
-x,-y,-z
x,-y,z
1/2+x,1/2+y,z
1/2-x,1/2+y,-z
1/2-x,1/2-y,-z
1/2+x,1/2-y,z
loop_
_atom_site_type_symbol
_atom_site_label
_atom_site_fract_x
_atom_site_fract_y
_atom_site_fract_z
Si Si1 0.556903 0.323689 0.734731
Si Si2 0.867516 0.174821 0.099234
Si Si3 0.070147 0.177243 0.241076
Si Si4 0.874332 0.672331 0.406745
Si Si5 0.251091 0.823599 0.346300
Si Si6 0.746604 0.828933 0.163908
Si Si7 0.873153 0.672583 0.919855
Si Si8 0.142632 0.673378 0.395873
O O1 0.559998 0.500000 0.727462
O O2 0.596841 0.266646 0.815603
O O3 0.493719 0.268079 0.748752
O O4 0.577614 0.259100 0.643170
O O5 0.802091 0.211635 0.111939
O O6 0.877812 0.000000 0.083048
O O7 0.889228 0.264229 0.015955
O O8 0.091080 0.238684 0.149684
O O9 0.107214 0.238793 0.322250
O O10 0.075288 0.000000 0.240584
O O11 0.878095 0.500000 0.380056
O O12 0.812633 0.734134 0.377920
O O13 0.885902 0.695643 0.510681
O O14 0.239978 0.783120 0.244560
O O15 0.205824 0.738028 0.404130
O O16 0.244175 0.000000 0.360145
O O17 0.693423 0.804313 0.098098
O O18 0.749642 0.000000 0.198966
O O19 0.890382 0.500000 0.915398
O O20 0.145268 0.500000 0.368971
#
# Coordination Sequence:
#
# PCOD8102073 Si02
#       8
#     8   8   8   8   8   8   8   8
#     4  10  23  42  64  87 116 157 204 252 298 347
#     4  10  21  39  62  88 119 158 196 240 296 354
#     4  11  24  42  62  87 117 155 205 254 298 348
#     4  10  23  40  61  91 123 156 196 244 298 355
#     4  11  21  35  60  92 122 156 195 240 294 352
#     4  10  20  36  60  88 121 156 193 237 295 357
#     4  11  23  38  60  91 122 157 196 241 298 356
#     4  11  23  40  61  88 123 160 197 241 298 359
#
# _framework density 19.859718000000001
#
# number of rings (size 3 to 8) (size 9 to 14) (size 15 to 20)
#    0.000    1.500    2.500    2.250    0.000    5.000 
#    0.000    5.000    0.000    0.000    0.000    0.000 
#    0.000    0.000    0.000    0.000    0.000    0.000 
#
# Total GULP energy -396984.675368 kJ/mol
# GULP energy per Si atom -12405.771105 kJ/mol
# Density = 1.981452 g / cm^3
# Si number density = 19.859718 Si / 1000 Ang^3
#
#
#
# Elastic Constant Matrix: (Units=GPa)
#
#
# Indices 1 2 3 4 5 6 
#
# 1 116.2901 38.1450 36.9090 0.0000 -29.0878 0.0000
# 2 38.1450 64.9941 33.1942 0.0000 -14.1437 0.0000
# 3 36.9090 33.1942 103.3805 0.0000 -23.5959 0.0000
# 4 0.0000 0.0000 0.0000 35.7712 0.0000 -6.5961
# 5 -29.0878 -14.1437 -23.5959 0.0000 18.7943 0.0000
# 6 0.0000 0.0000 0.0000 -6.5961 0.0000 25.2527
#
#
#
# Elastic Compliance Matrix: (Units=1/GPa)
#
#
# Indices 1 2 3 4 5 6 
#
# 1 0.015117 -0.004783 0.000921 0.000000 0.020953 0.000000
# 2 -0.004783 0.021075 -0.004386 0.000000 0.002952 0.000000
# 3 0.000921 -0.004386 0.014471 0.000000 0.016293 0.000000
# 4 0.000000 0.000000 0.000000 0.029370 0.000000 0.007672
# 5 0.020953 0.002952 0.016293 0.000000 0.108313 0.000000
# 6 0.000000 0.000000 0.000000 0.007672 0.000000 0.041604
#
#
# Mechanical properties :
#
#
# Convention : Reuss Voigt Hill
#
# Bulk Modulus (GPa) = 29.26678 55.68458 42.47568
# Shear Modulus (GPa) = 19.39228 27.72473 23.55850
#
# Velocity S-wave (km/s) = 3.12823 3.74040 3.44793
# Velocity P-wave (km/s) = 5.27414 6.83769 6.10616
#
# Compressibility (1/GPa) = 0.03416843
#
# Stress axis : x y z
#
# Youngs Moduli (GPa) = 66.15233 47.44893 69.10276
#
# Poissons Ratio (x) = 0.22693 -0.06365
# Poissons Ratio (y) = 0.31639 0.30307
# Poissons Ratio (z) = -0.06093 0.20810
#
# Static dielectric constant tensor:
#      x y z
#    x 3.760270 0.000000 -0.022270 
#    y 0.000000 3.562260 0.000000 
#    z -0.022270 0.000000 3.545880 
# 
# 
# High freq. dielectric constant tensor:
#      x y z
#    x 1.775820 0.000000 -0.004120 
#    y 0.000000 1.774160 0.000000 
#    z -0.004120 0.000000 1.781580 
# 
# From -- ./inp_files/238684.got.cif
#   From: 2010.06.25/outbox.cif.g09.slc.cpg/sg12_120_cif.got.tgz:238684.got - 2010.06.28 00:19:55.
