data_PCOD8102859
_publ_section_title
;
Structure prediction by ZEFSAII (Michael W. Deem and Ramdas Pophale) SiO2 
 PCOD8102859
Probable space group: C 2/M
;
_chemical_formula_sum "Si O2"
_cell_formula_units_Z 64
_cell_length_a 25.351178
_cell_length_b 28.794089
_cell_length_c 9.574498
_cell_angle_alpha 90.000000
_cell_angle_beta 26.252966
_cell_angle_gamma 90.000000
_cell_volume 3091.497645
_symmetry_space_group_name_H-M "C 2/M"
_symmetry_group_IT_number 12
_symmetry_cell_setting 'monoclinic'
loop_
_space_group_symop_operation_xyz
x,y,z
-x,y,-z
-x,-y,-z
x,-y,z
1/2+x,1/2+y,z
1/2-x,1/2+y,-z
1/2-x,1/2-y,-z
1/2+x,1/2-y,z
loop_
_atom_site_type_symbol
_atom_site_label
_atom_site_fract_x
_atom_site_fract_y
_atom_site_fract_z
Si Si1 0.416670 0.448010 0.080465
Si Si2 0.875785 0.634689 0.258268
Si Si3 0.995944 0.880672 0.343534
Si Si4 0.831812 0.656807 0.659866
Si Si5 0.277819 0.116668 0.062308
Si Si6 0.396475 0.711348 0.853089
Si Si7 0.664432 0.052314 0.825854
Si Si8 0.603107 0.190211 0.040586
O O1 0.460641 0.500000 0.940762
O O2 0.287419 0.447799 0.452187
O O3 0.500000 0.424916 0.000000
O O4 0.421949 0.418990 0.925806
O O5 0.803345 0.633291 0.575309
O O6 0.910933 0.585818 0.097310
O O7 0.821612 0.669676 0.270812
O O8 0.000000 0.658611 0.000000
O O9 0.051325 0.830485 0.177296
O O10 0.000000 0.889501 0.500000
O O11 0.864486 0.883307 0.591174
O O12 0.961281 0.680217 0.367200
O O13 0.817872 0.614485 0.804449
O O14 0.725767 0.694841 0.934633
O O15 0.326222 0.073372 0.039541
O O16 0.338049 0.164988 0.966564
O O17 0.500000 0.726685 0.500000
O O18 0.370296 0.755207 0.013730
O O19 0.611634 0.000000 0.962257
#
# Coordination Sequence:
#
# PCOD8102859 Si02
#       8
#     8   8   8   8   8   8   8   8
#     4  10  20  37  59  85 117 158 197 237 298 358
#     4   9  21  42  63  86 119 161 203 245 303 360
#     4  11  22  37  56  88 123 155 198 251 293 349
#     4  11  21  40  63  83 124 162 197 251 300 358
#     4  11  21  38  59  86 120 157 199 243 307 355
#     4  11  22  36  58  90 123 154 202 248 296 349
#     4  10  21  38  63  89 119 157 203 250 298 363
#     4  10  24  39  61  88 115 163 208 242 301 361
#
# _framework density 20.701941999999999
#
# number of rings (size 3 to 8) (size 9 to 14) (size 15 to 20)
#    0.000    1.625    3.750    1.875    1.750    2.000 
#    0.000    2.500    0.000    9.750    0.000    0.000 
#    0.000    0.000    0.000    0.000    0.000    0.000 
#
# Total GULP energy -396428.932422 kJ/mol
# GULP energy per Si atom -12388.404138 kJ/mol
# Density = 2.065482 g / cm^3
# Si number density = 20.701942 Si / 1000 Ang^3
#
#
#
# Elastic Constant Matrix: (Units=GPa)
#
#
# Indices 1 2 3 4 5 6 
#
# 1 96.0377 46.3150 34.2363 -0.0012 22.9461 0.0005
# 2 46.3150 128.8687 21.5238 0.0017 36.8377 -0.0009
# 3 34.2363 21.5238 58.5138 0.0002 17.3068 -0.0006
# 4 -0.0012 0.0017 0.0002 44.7170 0.0004 -6.5903
# 5 22.9461 36.8377 17.3068 0.0004 44.9470 0.0001
# 6 0.0005 -0.0009 -0.0006 -6.5903 0.0001 19.4841
#
#
#
# Elastic Compliance Matrix: (Units=1/GPa)
#
#
# Indices 1 2 3 4 5 6 
#
# 1 0.015146 -0.003710 -0.006895 0.000001 -0.002037 -0.000001
# 2 -0.003710 0.011150 0.000239 0.000000 -0.007337 0.000001
# 3 -0.006895 0.000239 0.022630 0.000000 -0.005390 0.000001
# 4 0.000001 0.000000 0.000000 0.023536 0.000000 0.007961
# 5 -0.002037 -0.007337 -0.005390 0.000000 0.031377 -0.000001
# 6 -0.000001 0.000001 0.000001 0.007961 -0.000001 0.054017
#
#
# Mechanical properties :
#
#
# Convention : Reuss Voigt Hill
#
# Bulk Modulus (GPa) = 35.46617 54.17451 44.82034
# Shear Modulus (GPa) = 26.59764 33.91929 30.25847
#
# Velocity S-wave (km/s) = 3.58829 4.05218 3.82727
# Velocity P-wave (km/s) = 5.85975 6.93680 6.42090
#
# Compressibility (1/GPa) = 0.02819589
#
# Stress axis : x y z
#
# Youngs Moduli (GPa) = 66.02285 89.68273 44.18828
#
# Poissons Ratio (x) = 0.33268 0.30468
# Poissons Ratio (y) = 0.24492 -0.01056
# Poissons Ratio (z) = 0.45523 -0.02143
#
# Static dielectric constant tensor:
#      x y z
#    x 2.523120 -0.000030 0.174700 
#    y -0.000030 3.904150 0.000000 
#    z 0.174700 0.000000 3.814370 
# 
# 
# High freq. dielectric constant tensor:
#      x y z
#    x 1.819950 0.000000 -0.000500 
#    y 0.000000 1.790850 0.000000 
#    z -0.000500 0.000000 1.807250 
# 
# From -- ./inp_files/100200.got.cif
#   From: 2010.06.25/outbox.cif.g09.slc.cpg/sg12_51_cif.got.tgz:100200.got - 2010.06.28 00:19:55.
