data_PCOD8102469
_publ_section_title
;
Structure prediction by ZEFSAII (Michael W. Deem and Ramdas Pophale) SiO2 
 PCOD8102469
Probable space group: C 2/M
;
_chemical_formula_sum "Si O2"
_cell_formula_units_Z 44
_cell_length_a 21.956813
_cell_length_b 11.352005
_cell_length_c 11.371421
_cell_angle_alpha 90.000000
_cell_angle_beta 45.973852
_cell_angle_gamma 90.000000
_cell_volume 2037.976726
_symmetry_space_group_name_H-M "C 2/M"
_symmetry_group_IT_number 12
_symmetry_cell_setting 'monoclinic'
loop_
_space_group_symop_operation_xyz
x,y,z
-x,y,-z
-x,-y,-z
x,-y,z
1/2+x,1/2+y,z
1/2-x,1/2+y,-z
1/2-x,1/2-y,-z
1/2+x,1/2-y,z
loop_
_atom_site_type_symbol
_atom_site_label
_atom_site_fract_x
_atom_site_fract_y
_atom_site_fract_z
Si Si1 0.967223 0.500000 0.674670
Si Si2 0.360564 0.000000 0.436535
Si Si3 0.098852 0.500000 0.881644
Si Si4 0.442036 0.260716 0.737418
Si Si5 0.614858 0.637958 0.414932
Si Si6 0.414529 0.253529 0.037823
Si Si7 0.243907 0.718335 0.373437
O O1 0.039971 0.500000 0.675079
O O2 0.000000 0.500000 0.500000
O O3 0.916610 0.622034 0.761867
O O4 0.349057 0.000000 0.311006
O O5 0.319464 0.889509 0.555822
O O6 0.119629 0.618706 0.924449
O O7 0.000000 0.500000 0.000000
O O8 0.382331 0.334149 0.728741
O O9 0.540050 0.284725 0.573766
O O10 0.428453 0.304588 0.889018
O O11 0.597844 0.500000 0.458129
O O12 0.704263 0.673234 0.352679
O O13 0.336732 0.321807 0.203413
O O14 0.500000 0.267614 0.000000
O O15 0.250000 0.750000 0.500000
#
# Coordination Sequence:
#
# PCOD8102469 Si02
#       7
#     4   4   4   8   8   8   8
#     4  12  18  36  68  99 129 166 215 276 329 381
#     4  12  22  42  63 100 135 166 224 267 330 393
#     4  10  20  36  64  96 133 164 208 271 321 388
#     4  11  21  42  68  96 135 172 221 270 323 397
#     4  11  25  44  69  94 129 179 219 265 331 396
#     4  11  23  41  64  99 130 172 222 271 328 384
#     4  12  25  43  68  95 133 174 216 274 327 393
#
# _framework density 21.590039999999998
#
# number of rings (size 3 to 8) (size 9 to 14) (size 15 to 20)
#    0.000    0.727    5.455    4.909    2.545    0.727 
#    3.273    0.455    0.000    0.000    0.000    0.000 
#    0.000    0.000    0.000    0.000    0.000    0.000 
#
# Total GULP energy -272744.291659 kJ/mol
# GULP energy per Si atom -12397.467803 kJ/mol
# Density = 2.154090 g / cm^3
# Si number density = 21.590040 Si / 1000 Ang^3
#
#
#
# Elastic Constant Matrix: (Units=GPa)
#
#
# Indices 1 2 3 4 5 6 
#
# 1 133.0103 17.2259 52.3068 0.0000 20.0909 0.0000
# 2 17.2259 93.2931 12.0012 0.0000 -1.8950 0.0000
# 3 52.3068 12.0012 123.5260 0.0000 23.7521 0.0000
# 4 0.0000 0.0000 0.0000 14.1910 0.0000 8.9077
# 5 20.0909 -1.8950 23.7521 0.0000 43.9265 0.0000
# 6 0.0000 0.0000 0.0000 8.9077 0.0000 21.3417
#
#
#
# Elastic Compliance Matrix: (Units=1/GPa)
#
#
# Indices 1 2 3 4 5 6 
#
# 1 0.009399 -0.001355 -0.003360 0.000000 -0.002540 0.000000
# 2 -0.001355 0.011103 -0.000799 0.000000 0.001531 0.000000
# 3 -0.003360 -0.000799 0.010387 0.000000 -0.004114 0.000000
# 4 0.000000 0.000000 0.000000 0.095483 0.000000 -0.039853
# 5 -0.002540 0.001531 -0.004114 0.000000 0.026218 0.000000
# 6 0.000000 0.000000 0.000000 -0.039853 0.000000 0.063491
#
#
# Mechanical properties :
#
#
# Convention : Reuss Voigt Hill
#
# Bulk Modulus (GPa) = 50.35066 56.98858 53.66962
# Shear Modulus (GPa) = 21.39239 33.77819 27.58529
#
# Velocity S-wave (km/s) = 3.15118 3.95970 3.57835
# Velocity P-wave (km/s) = 6.05077 6.88177 6.47960
#
# Compressibility (1/GPa) = 0.01986071
#
# Stress axis : x y z
#
# Youngs Moduli (GPa) = 106.39855 90.06581 96.27512
#
# Poissons Ratio (x) = 0.12202 0.32346
# Poissons Ratio (y) = 0.14415 0.07696
# Poissons Ratio (z) = 0.35747 0.07200
#
# Static dielectric constant tensor:
#      x y z
#    x 3.940920 0.000000 0.085220 
#    y 0.000000 4.885010 0.000000 
#    z 0.085220 0.000000 3.884960 
# 
# 
# High freq. dielectric constant tensor:
#      x y z
#    x 1.846960 0.000000 0.012920 
#    y 0.000000 1.840900 0.000000 
#    z 0.012920 0.000000 1.839070 
# 
# From -- ./inp_files/175132.got.cif
#   From: 2010.06.25/outbox.cif.g09.slc.cpg/sg12_88_cif.got.tgz:175132.got - 2010.06.28 00:19:55.
