data_PCOD8102502
_publ_section_title
;
Structure prediction by ZEFSAII (Michael W. Deem and Ramdas Pophale) SiO2 
 PCOD8102502
Probable space group: C 2/M
;
_chemical_formula_sum "Si O2"
_cell_formula_units_Z 56
_cell_length_a 11.805990
_cell_length_b 16.434442
_cell_length_c 18.311622
_cell_angle_alpha 90.000000
_cell_angle_beta 127.279356
_cell_angle_gamma 90.000000
_cell_volume 2827.021134
_symmetry_space_group_name_H-M "C 2/M"
_symmetry_group_IT_number 12
_symmetry_cell_setting 'monoclinic'
loop_
_space_group_symop_operation_xyz
x,y,z
-x,y,-z
-x,-y,-z
x,-y,z
1/2+x,1/2+y,z
1/2-x,1/2+y,-z
1/2-x,1/2-y,-z
1/2+x,1/2-y,z
loop_
_atom_site_type_symbol
_atom_site_label
_atom_site_fract_x
_atom_site_fract_y
_atom_site_fract_z
Si Si1 0.758407 0.903368 0.212264
Si Si2 0.638545 0.096996 0.594145
Si Si3 0.436877 0.589534 0.679869
Si Si4 0.186486 0.404403 0.778991
Si Si5 0.483777 0.362418 0.854599
Si Si6 0.286487 0.093692 0.972562
Si Si7 0.510386 0.825194 0.837371
O O1 0.718034 0.879378 0.113620
O O2 0.647577 0.863446 0.224254
O O3 0.918198 0.868440 0.294452
O O4 0.757436 0.000000 0.220764
O O5 0.500000 0.133708 0.500000
O O6 0.782134 0.133355 0.609987
O O7 0.635903 0.120835 0.678123
O O8 0.643470 0.000000 0.588467
O O9 0.427256 0.500000 0.641155
O O10 0.458925 0.578978 0.775688
O O11 0.169091 0.500000 0.787835
O O12 0.350373 0.376433 0.856633
O O13 0.088458 0.354478 0.795382
O O14 0.632664 0.389151 0.950132
O O15 0.494562 0.270750 0.830100
O O16 0.330507 0.000000 0.999671
O O17 0.405483 0.147665 0.057597
#
# Coordination Sequence:
#
# PCOD8102502 Si02
#       7
#     8   8   8   8   8   8   8
#     4   9  18  33  52  70  98 139 180 215 256 314
#     4   8  14  29  57  87 106 129 173 220 256 309
#     4   8  15  31  55  76  98 133 175 210 254 315
#     4  10  21  37  55  79 109 139 173 217 275 325
#     4  10  21  34  51  74 105 139 176 223 264 312
#     4  10  20  37  55  70  98 141 188 224 260 310
#     4  12  23  32  51  77 108 138 178 228 269 306
#
# _framework density 19.808837
#
# number of rings (size 3 to 8) (size 9 to 14) (size 15 to 20)
#    0.000    2.429    0.000    5.143    4.000    1.714 
#    2.571    1.429    0.000    4.286    0.000    5.000 
#    0.000    0.000    0.000    0.000    0.000    0.000 
#
# Total GULP energy -346947.286059 kJ/mol
# GULP energy per Si atom -12390.974502 kJ/mol
# Density = 1.976375 g / cm^3
# Si number density = 19.808837 Si / 1000 Ang^3
#
#
#
# Elastic Constant Matrix: (Units=GPa)
#
#
# Indices 1 2 3 4 5 6 
#
# 1 148.9413 17.6078 26.2806 0.0000 23.3031 0.0000
# 2 17.6078 58.6886 10.5645 0.0000 -2.5382 0.0000
# 3 26.2806 10.5645 33.7294 0.0000 20.5700 0.0000
# 4 0.0000 0.0000 0.0000 -21.3258 0.0000 -23.3708
# 5 23.3031 -2.5382 20.5700 0.0000 33.3536 0.0000
# 6 0.0000 0.0000 0.0000 -23.3708 0.0000 9.9589
#
#
#
# Elastic Compliance Matrix: (Units=1/GPa)
#
#
# Indices 1 2 3 4 5 6 
#
# 1 0.008138 -0.001978 -0.003466 0.000000 -0.003699 0.000000
# 2 -0.001978 0.019897 -0.010350 0.000000 0.009279 0.000000
# 3 -0.003466 -0.010350 0.055448 0.000000 -0.032562 0.000000
# 4 0.000000 0.000000 0.000000 -0.013128 0.000000 -0.030809
# 5 -0.003699 0.009279 -0.032562 0.000000 0.053354 0.000000
# 6 0.000000 0.000000 0.000000 -0.030809 0.000000 0.028113
#
#
# Mechanical properties :
#
#
# Convention : Reuss Voigt Hill
#
# Bulk Modulus (GPa) = 19.26904 38.91835 29.09369
# Shear Modulus (GPa) = 24.91202 16.85778 20.88490
#
# Velocity S-wave (km/s) = 3.55014 2.92039 3.25056
# Velocity P-wave (km/s) = 5.15299 5.57326 5.36724
#
# Compressibility (1/GPa) = 0.05189673
#
# Stress axis : x y z
#
# Youngs Moduli (GPa) = 122.87871 50.25935 18.03498
#
# Poissons Ratio (x) = 0.09940 0.06250
# Poissons Ratio (y) = 0.24302 0.18666
# Poissons Ratio (z) = 0.42584 0.52017
#
# Static dielectric constant tensor:
#      x y z
#    x 4.040740 0.000000 0.475520 
#    y 0.000000 3.298160 0.000000 
#    z 0.475520 0.000000 3.402750 
# 
# 
# High freq. dielectric constant tensor:
#      x y z
#    x 1.791970 0.000000 0.030620 
#    y 0.000000 1.749090 0.000000 
#    z 0.030620 0.000000 1.724870 
# 
# From -- ./inp_files/263415.got.cif
#   From: 2010.06.25/outbox.cif.g09.slc.cpg/sg12_132_cif.got.tgz:263415.got - 2010.06.28 00:19:55.
