data_PCOD8102560
_publ_section_title
;
Structure prediction by ZEFSAII (Michael W. Deem and Ramdas Pophale) SiO2 
 PCOD8102560
Probable space group: C 2/M
;
_chemical_formula_sum "Si O2"
_cell_formula_units_Z 56
_cell_length_a 18.610759
_cell_length_b 29.506736
_cell_length_c 9.017705
_cell_angle_alpha 90.000000
_cell_angle_beta 36.235555
_cell_angle_gamma 90.000000
_cell_volume 2927.162812
_symmetry_space_group_name_H-M "C 2/M"
_symmetry_group_IT_number 12
_symmetry_cell_setting 'monoclinic'
loop_
_space_group_symop_operation_xyz
x,y,z
-x,y,-z
-x,-y,-z
x,-y,z
1/2+x,1/2+y,z
1/2-x,1/2+y,-z
1/2-x,1/2-y,-z
1/2+x,1/2-y,z
loop_
_atom_site_type_symbol
_atom_site_label
_atom_site_fract_x
_atom_site_fract_y
_atom_site_fract_z
Si Si1 0.629610 0.099492 0.706513
Si Si2 0.290905 0.680322 0.510022
Si Si3 0.386065 0.744187 0.113739
Si Si4 0.967307 0.550199 0.395275
Si Si5 0.279260 0.049580 0.181319
Si Si6 0.372149 0.368581 0.657766
Si Si7 0.123459 0.222596 0.199732
O O1 0.688408 0.148806 0.608416
O O2 0.623627 0.082255 0.546060
O O3 0.714662 0.064649 0.656930
O O4 0.500000 0.103792 0.000000
O O5 0.366324 0.699690 0.247796
O O6 0.228626 0.722146 0.702277
O O7 0.374402 0.652831 0.487984
O O8 0.500000 0.770231 0.000000
O O9 0.422484 0.726806 0.891376
O O10 0.909084 0.500000 0.517662
O O11 0.000000 0.572469 0.500000
O O12 0.085751 0.544564 0.100606
O O13 0.215302 0.088025 0.188163
O O14 0.214376 0.000000 0.278892
O O15 0.500000 0.387858 0.500000
O O16 0.335060 0.328643 0.832551
O O17 0.000000 0.236547 0.500000
O O18 0.250000 0.250000 0.000000
#
# Coordination Sequence:
#
# PCOD8102560 Si02
#       7
#     8   8   8   8   8   8   8
#     4   9  17  32  52  76 110 142 185 233 279 346
#     4  10  21  36  55  80 107 146 190 232 289 342
#     4  11  22  36  59  79 110 148 191 238 291 352
#     4   9  17  30  50  76 109 143 178 229 289 339
#     4   9  18  32  53  79 107 147 190 230 281 344
#     4  10  20  37  57  79 114 148 189 239 289 346
#     4  11  23  41  61  86 119 158 198 244 298 352
#
# _framework density 19.131153000000001
#
# number of rings (size 3 to 8) (size 9 to 14) (size 15 to 20)
#    0.000    2.143    1.429    2.571    2.000    3.143 
#    0.000    0.714    0.000    0.000    0.000    0.000 
#    0.000   21.714    0.000    0.000    0.000    0.000 
#
# Total GULP energy -346899.437742 kJ/mol
# GULP energy per Si atom -12389.265634 kJ/mol
# Density = 1.908761 g / cm^3
# Si number density = 19.131153 Si / 1000 Ang^3
#
#
#
# Elastic Constant Matrix: (Units=GPa)
#
#
# Indices 1 2 3 4 5 6 
#
# 1 127.4304 40.6813 30.0210 0.0000 14.8550 0.0000
# 2 40.6813 97.6587 23.7935 0.0000 -0.6884 0.0000
# 3 30.0210 23.7935 68.5928 0.0000 8.3176 0.0000
# 4 0.0000 0.0000 0.0000 12.0451 0.0000 2.7575
# 5 14.8550 -0.6884 8.3176 0.0000 38.3128 0.0000
# 6 0.0000 0.0000 0.0000 2.7575 0.0000 28.1016
#
#
#
# Elastic Compliance Matrix: (Units=1/GPa)
#
#
# Indices 1 2 3 4 5 6 
#
# 1 0.010011 -0.003523 -0.002754 0.000000 -0.003347 0.000000
# 2 -0.003523 0.012468 -0.003056 0.000000 0.002253 0.000000
# 3 -0.002754 -0.003056 0.017173 0.000000 -0.002716 0.000000
# 4 0.000000 0.000000 0.000000 0.084929 0.000000 -0.008334
# 5 -0.003347 0.002253 -0.002716 0.000000 0.028029 0.000000
# 6 0.000000 0.000000 0.000000 -0.008334 0.000000 0.036403
#
#
# Mechanical properties :
#
#
# Convention : Reuss Voigt Hill
#
# Bulk Modulus (GPa) = 47.64930 53.63038 50.63984
# Shear Modulus (GPa) = 23.29111 28.97097 26.13104
#
# Velocity S-wave (km/s) = 3.49297 3.89567 3.69980
# Velocity P-wave (km/s) = 6.42095 6.95189 6.69169
#
# Compressibility (1/GPa) = 0.02098667
#
# Stress axis : x y z
#
# Youngs Moduli (GPa) = 99.89029 80.20670 58.22960
#
# Poissons Ratio (x) = 0.28256 0.16034
# Poissons Ratio (y) = 0.35191 0.17796
# Poissons Ratio (z) = 0.27506 0.24513
#
# Static dielectric constant tensor:
#      x y z
#    x 3.758250 0.000000 0.015960 
#    y 0.000000 3.613030 0.000000 
#    z 0.015960 0.000000 3.260810 
# 
# 
# High freq. dielectric constant tensor:
#      x y z
#    x 1.761010 0.000000 0.004250 
#    y 0.000000 1.739750 0.000000 
#    z 0.004250 0.000000 1.710650 
# 
# From -- ./inp_files/54161.got.cif
#   From: 2010.06.25/outbox.cif.g09.slc.cpg/sg12_28_cif.got.tgz:54161.got - 2010.06.28 00:19:55.
