data_PCOD8102014
_publ_section_title
;
Structure prediction by ZEFSAII (Michael W. Deem and Ramdas Pophale) SiO2 
 PCOD8102014
Probable space group: C 2/M
;
_chemical_formula_sum "Si O2"
_cell_formula_units_Z 64
_cell_length_a 20.154338
_cell_length_b 8.800279
_cell_length_c 19.880524
_cell_angle_alpha 90.000000
_cell_angle_beta 68.140422
_cell_angle_gamma 90.000000
_cell_volume 3272.556759
_symmetry_space_group_name_H-M "C 2/M"
_symmetry_group_IT_number 12
_symmetry_cell_setting 'monoclinic'
loop_
_space_group_symop_operation_xyz
x,y,z
-x,y,-z
-x,-y,-z
x,-y,z
1/2+x,1/2+y,z
1/2-x,1/2+y,-z
1/2-x,1/2-y,-z
1/2+x,1/2-y,z
loop_
_atom_site_type_symbol
_atom_site_label
_atom_site_fract_x
_atom_site_fract_y
_atom_site_fract_z
Si Si1 0.079023 0.679328 0.664358
Si Si2 0.484234 0.819930 0.578403
Si Si3 0.689188 0.321445 0.191756
Si Si4 0.727428 0.322643 0.578949
Si Si5 0.954638 0.322997 0.810401
Si Si6 0.174497 0.322575 0.333783
Si Si7 0.062151 0.675618 0.028665
Si Si8 0.210930 0.821361 0.951832
O O1 0.091875 0.500000 0.658269
O O2 0.154977 0.760393 0.639354
O O3 0.042076 0.738133 0.609931
O O4 0.028590 0.726096 0.746277
O O5 0.500000 0.745782 0.500000
O O6 0.406860 0.768214 0.631290
O O7 0.487603 0.000000 0.571893
O O8 0.693386 0.500000 0.179695
O O9 0.611879 0.266101 0.195820
O O10 0.706787 0.277456 0.261783
O O11 0.753329 0.243216 0.128091
O O12 0.719198 0.500000 0.569548
O O13 0.750000 0.250000 0.500000
O O14 0.788822 0.284876 0.609371
O O15 0.939624 0.500000 0.802314
O O16 0.963502 0.286993 0.885942
O O17 0.181812 0.500000 0.313055
O O18 0.085282 0.500000 0.014186
O O19 0.127796 0.781252 0.983979
O O20 0.000000 0.715659 0.000000
O O21 0.221352 0.000000 0.950621
O O22 0.250000 0.750000 0.000000
#
# Coordination Sequence:
#
# PCOD8102014 Si02
#       8
#     8   8   8   8   8   8   8   8
#     4  10  20  36  60  87 117 161 205 245 303 368
#     4   9  16  30  56  85 111 147 197 241 284 351
#     4  12  24  38  62  94 126 160 203 263 319 368
#     4  11  24  41  63  89 124 166 205 255 309 367
#     4  10  20  38  63  87 121 166 204 249 305 372
#     4  10  21  40  62  86 119 161 206 249 301 366
#     4  10  22  40  63  94 130 167 208 254 308 371
#     4  12  24  40  64  93 126 168 215 261 313 372
#
# _framework density 19.556574999999999
#
# number of rings (size 3 to 8) (size 9 to 14) (size 15 to 20)
#    0.000    1.500    2.500    3.375    0.000    4.750 
#    0.000    1.250    0.000    1.500    0.000    0.000 
#    0.000    0.000    0.000    0.000    0.000    0.000 
#
# Total GULP energy -396874.048034 kJ/mol
# GULP energy per Si atom -12402.314001 kJ/mol
# Density = 1.951206 g / cm^3
# Si number density = 19.556575 Si / 1000 Ang^3
#
#
#
# Elastic Constant Matrix: (Units=GPa)
#
#
# Indices 1 2 3 4 5 6 
#
# 1 73.5069 37.0959 24.8566 0.0000 3.2147 -0.0001
# 2 37.0959 97.5418 47.4222 -0.0002 -0.1778 -0.0004
# 3 24.8566 47.4222 125.0286 0.0001 3.0972 0.0000
# 4 0.0000 -0.0002 0.0001 29.1153 0.0000 -3.6761
# 5 3.2147 -0.1778 3.0972 0.0000 35.7087 -0.0001
# 6 -0.0001 -0.0004 0.0000 -3.6761 -0.0001 28.7692
#
#
#
# Elastic Compliance Matrix: (Units=1/GPa)
#
#
# Indices 1 2 3 4 5 6 
#
# 1 0.017042 -0.005952 -0.001094 0.000000 -0.001469 0.000000
# 2 -0.005952 0.014657 -0.004400 0.000000 0.000990 0.000000
# 3 -0.001094 -0.004400 0.009904 0.000000 -0.000782 0.000000
# 4 0.000000 0.000000 0.000000 0.034909 0.000000 0.004461
# 5 -0.001469 0.000990 -0.000782 0.000000 0.028209 0.000000
# 6 0.000000 0.000000 0.000000 0.004461 0.000000 0.035329
#
#
# Mechanical properties :
#
#
# Convention : Reuss Voigt Hill
#
# Bulk Modulus (GPa) = 53.44771 57.20297 55.32534
# Shear Modulus (GPa) = 29.55414 31.16547 30.35980
#
# Velocity S-wave (km/s) = 3.89165 3.99633 3.94434
# Velocity P-wave (km/s) = 6.89800 7.11391 7.00678
#
# Compressibility (1/GPa) = 0.01870988
#
# Stress axis : x y z
#
# Youngs Moduli (GPa) = 58.67812 68.22792 100.96803
#
# Poissons Ratio (x) = 0.40609 0.11048
# Poissons Ratio (y) = 0.34925 0.44430
# Poissons Ratio (z) = 0.06420 0.30023
#
# Static dielectric constant tensor:
#      x y z
#    x 3.551980 0.000000 0.038850 
#    y 0.000000 3.366990 0.000000 
#    z 0.038850 0.000000 3.863670 
# 
# 
# High freq. dielectric constant tensor:
#      x y z
#    x 1.763200 0.000000 0.000470 
#    y 0.000000 1.744650 0.000000 
#    z 0.000470 0.000000 1.782320 
# 
# From -- ./inp_files/319829.got.cif
#   From: 2010.06.25/outbox.cif.g09.slc.cpg/sg12_160_cif.got.tgz:319829.got - 2010.06.28 00:19:55.
