data_PCOD8102317
_publ_section_title
;
Structure prediction by ZEFSAII (Michael W. Deem and Ramdas Pophale) SiO2 
 PCOD8102317
Probable space group: C 2/M
;
_chemical_formula_sum "Si O2"
_cell_formula_units_Z 60
_cell_length_a 16.952354
_cell_length_b 21.843725
_cell_length_c 9.216833
_cell_angle_alpha 90.000000
_cell_angle_beta 66.623185
_cell_angle_gamma 90.000000
_cell_volume 3132.860238
_symmetry_space_group_name_H-M "C 2/M"
_symmetry_group_IT_number 12
_symmetry_cell_setting 'monoclinic'
loop_
_space_group_symop_operation_xyz
x,y,z
-x,y,-z
-x,-y,-z
x,-y,z
1/2+x,1/2+y,z
1/2-x,1/2+y,-z
1/2-x,1/2-y,-z
1/2+x,1/2-y,z
loop_
_atom_site_type_symbol
_atom_site_label
_atom_site_fract_x
_atom_site_fract_y
_atom_site_fract_z
Si Si1 0.854920 0.672031 0.780107
Si Si2 0.758030 0.739582 0.324623
Si Si3 0.924122 0.866560 0.860514
Si Si4 0.500000 0.230590 0.500000
Si Si5 0.613029 0.341073 0.433666
Si Si6 0.905652 0.070713 0.289848
Si Si7 0.775177 0.929204 0.130464
Si Si8 0.409423 0.764763 0.018222
O O1 0.783983 0.708063 0.741986
O O2 0.819368 0.602440 0.799743
O O3 0.950513 0.684734 0.646325
O O4 0.857505 0.692079 0.945752
O O5 0.750000 0.750000 0.500000
O O6 0.711631 0.675041 0.323349
O O7 0.856893 0.738547 0.206196
O O8 0.935175 0.861105 0.678049
O O9 0.009027 0.902965 0.851330
O O10 0.836766 0.902676 0.959623
O O11 0.923550 0.800689 0.934172
O O12 0.569494 0.276964 0.524531
O O13 0.612885 0.395302 0.547259
O O14 0.823727 0.081172 0.247268
O O15 0.920842 0.000000 0.313722
O O16 0.758302 0.000000 0.111122
O O17 0.500000 0.793582 0.000000
#
# Coordination Sequence:
#
# PCOD8102317 Si02
#       8
#     8   8   8   4   8   8   8   8
#     4  11  22  41  60  85 124 153 199 251 301 360
#     4  11  23  36  60  87 122 161 196 244 303 357
#     4  12  21  37  58  88 126 159 194 238 294 363
#     4  10  20  36  62  86 114 152 192 242 306 348
#     4  11  21  37  58  86 124 155 198 239 294 356
#     4  11  23  39  56  87 125 163 202 240 286 357
#     4  11  24  40  60  83 114 160 208 247 289 350
#     4  12  24  38  61  92 127 156 195 249 311 362
#
# _framework density 19.151827999999998
#
# number of rings (size 3 to 8) (size 9 to 14) (size 15 to 20)
#    0.000    0.800    5.333    3.600    5.600    2.667 
#    0.000    0.333    0.000    0.400    0.000    0.000 
#    0.000    0.000    0.000    0.000    0.000    0.000 
#
# Total GULP energy -371912.155109 kJ/mol
# GULP energy per Si atom -12397.071837 kJ/mol
# Density = 1.910824 g / cm^3
# Si number density = 19.151828 Si / 1000 Ang^3
#
#
#
# Elastic Constant Matrix: (Units=GPa)
#
#
# Indices 1 2 3 4 5 6 
#
# 1 85.2346 50.3035 34.6890 0.0000 -4.8071 0.0000
# 2 50.3035 114.2913 33.0445 0.0000 -3.4587 0.0000
# 3 34.6890 33.0445 92.8698 0.0000 -5.6134 0.0000
# 4 0.0000 0.0000 0.0000 23.1341 0.0000 -2.5283
# 5 -4.8071 -3.4587 -5.6134 0.0000 33.6488 0.0000
# 6 0.0000 0.0000 0.0000 -2.5283 0.0000 33.6043
#
#
#
# Elastic Compliance Matrix: (Units=1/GPa)
#
#
# Indices 1 2 3 4 5 6 
#
# 1 0.017217 -0.006358 -0.004101 0.000000 0.001122 0.000000
# 2 -0.006358 0.012107 -0.001932 0.000000 0.000014 0.000000
# 3 -0.004101 -0.001932 0.013071 0.000000 0.001396 0.000000
# 4 0.000000 0.000000 0.000000 0.043585 0.000000 0.003279
# 5 0.001122 0.000014 0.001396 0.000000 0.030113 0.000000
# 6 0.000000 0.000000 0.000000 0.003279 0.000000 0.030005
#
#
# Mechanical properties :
#
#
# Convention : Reuss Voigt Hill
#
# Bulk Modulus (GPa) = 56.77541 58.71884 57.74713
# Shear Modulus (GPa) = 28.28832 29.70137 28.99484
#
# Velocity S-wave (km/s) = 3.84742 3.94234 3.89517
# Velocity P-wave (km/s) = 7.03179 7.17279 7.10264
#
# Compressibility (1/GPa) = 0.01761326
#
# Stress axis : x y z
#
# Youngs Moduli (GPa) = 58.08212 82.59642 76.50311
#
# Poissons Ratio (x) = 0.52516 0.31372
# Poissons Ratio (y) = 0.36930 0.14781
# Poissons Ratio (z) = 0.23818 0.15959
#
# Static dielectric constant tensor:
#      x y z
#    x 3.696380 0.000000 -0.109870 
#    y 0.000000 3.471100 0.000000 
#    z -0.109870 0.000000 3.577460 
# 
# 
# High freq. dielectric constant tensor:
#      x y z
#    x 1.747600 0.000000 -0.001950 
#    y 0.000000 1.715720 0.000000 
#    z -0.001950 0.000000 1.755200 
# 
# From -- ./inp_files/78733.got.cif
#   From: 2010.06.25/outbox.cif.g09.slc.cpg/sg12_40_cif.got.tgz:78733.got - 2010.06.28 00:19:55.
