data_PCOD8102593
_publ_section_title
;
Structure prediction by ZEFSAII (Michael W. Deem and Ramdas Pophale) SiO2 
 PCOD8102593
Probable space group: C 2/M
;
_chemical_formula_sum "Si O2"
_cell_formula_units_Z 56
_cell_length_a 28.934432
_cell_length_b 9.083512
_cell_length_c 11.117128
_cell_angle_alpha 90.000000
_cell_angle_beta 110.531461
_cell_angle_gamma 90.000000
_cell_volume 2736.275062
_symmetry_space_group_name_H-M "C 2/M"
_symmetry_group_IT_number 12
_symmetry_cell_setting 'monoclinic'
loop_
_space_group_symop_operation_xyz
x,y,z
-x,y,-z
-x,-y,-z
x,-y,z
1/2+x,1/2+y,z
1/2-x,1/2+y,-z
1/2-x,1/2-y,-z
1/2+x,1/2-y,z
loop_
_atom_site_type_symbol
_atom_site_label
_atom_site_fract_x
_atom_site_fract_y
_atom_site_fract_z
Si Si1 0.129252 0.331671 0.998964
Si Si2 0.330378 0.673899 0.745221
Si Si3 0.220233 0.325841 0.635688
Si Si4 0.028868 0.828333 0.403572
Si Si5 0.123988 0.674726 0.416648
Si Si6 0.973015 0.170706 0.102461
Si Si7 0.709733 0.167459 0.888463
O O1 0.128045 0.500000 0.044966
O O2 0.163654 0.230649 0.114212
O O3 0.074518 0.271949 0.937660
O O4 0.154767 0.321929 0.892117
O O5 0.338385 0.500000 0.747164
O O6 0.275691 0.720868 0.646961
O O7 0.375190 0.753771 0.715201
O O8 0.216086 0.500000 0.633034
O O9 0.176599 0.264631 0.512916
O O10 0.208439 0.260509 0.755934
O O11 0.079467 0.736864 0.455319
O O12 0.000000 0.783502 0.500000
O O13 0.002832 0.788738 0.252109
O O14 0.041399 0.000000 0.418533
O O15 0.119586 0.500000 0.406572
O O16 0.957721 0.000000 0.092174
O O17 0.000000 0.205287 0.000000
O O18 0.727863 0.000000 0.896749
O O19 0.750000 0.250000 0.000000
#
# Coordination Sequence:
#
# PCOD8102593 Si02
#       7
#     8   8   8   8   8   8   8
#     4  11  23  36  60  93 123 152 195 251 301 354
#     4  11  21  38  62  86 122 165 200 237 292 358
#     4   9  20  37  58  85 120 160 197 238 292 356
#     4  10  23  43  63  88 122 160 207 256 303 365
#     4  11  23  39  62  89 120 155 200 251 302 354
#     4  10  22  41  64  87 116 159 206 251 305 367
#     4  10  20  37  57  84 120 157 196 241 293 351
#
# _framework density 20.465778
#
# number of rings (size 3 to 8) (size 9 to 14) (size 15 to 20)
#    0.000    1.714    1.429    2.571    2.000    2.857 
#    0.000    3.571    0.000    0.000    0.000    0.000 
#    0.000    0.000    0.000    0.000    0.000    0.000 
#
# Total GULP energy -347061.927010 kJ/mol
# GULP energy per Si atom -12395.068822 kJ/mol
# Density = 2.041920 g / cm^3
# Si number density = 20.465778 Si / 1000 Ang^3
#
#
#
# Elastic Constant Matrix: (Units=GPa)
#
#
# Indices 1 2 3 4 5 6 
#
# 1 142.0748 63.4348 47.2599 0.0000 -9.0584 0.0000
# 2 63.4348 80.1128 28.3902 0.0000 1.4279 0.0000
# 3 47.2599 28.3902 87.2827 0.0000 -8.6179 0.0000
# 4 0.0000 0.0000 0.0000 23.4447 0.0000 3.3934
# 5 -9.0584 1.4279 -8.6179 0.0000 37.3703 0.0000
# 6 0.0000 0.0000 0.0000 3.3934 0.0000 36.9502
#
#
#
# Elastic Compliance Matrix: (Units=1/GPa)
#
#
# Indices 1 2 3 4 5 6 
#
# 1 0.012130 -0.008370 -0.003605 0.000000 0.002429 0.000000
# 2 -0.008370 0.019983 -0.002296 0.000000 -0.003322 0.000000
# 3 -0.003605 -0.002296 0.014406 0.000000 0.002536 0.000000
# 4 0.000000 0.000000 0.000000 0.043228 0.000000 -0.003970
# 5 0.002429 -0.003322 0.002536 0.000000 0.028060 0.000000
# 6 0.000000 0.000000 0.000000 -0.003970 0.000000 0.027428
#
#
# Mechanical properties :
#
#
# Convention : Reuss Voigt Hill
#
# Bulk Modulus (GPa) = 55.62851 65.29334 60.46093
# Shear Modulus (GPa) = 27.81330 30.91205 29.36267
#
# Velocity S-wave (km/s) = 3.69048 3.89064 3.79188
# Velocity P-wave (km/s) = 6.73794 7.22189 6.98411
#
# Compressibility (1/GPa) = 0.01797639
#
# Stress axis : x y z
#
# Youngs Moduli (GPa) = 82.44032 50.04277 69.41399
#
# Poissons Ratio (x) = 0.41887 0.25027
# Poissons Ratio (y) = 0.69005 0.15935
# Poissons Ratio (z) = 0.29724 0.11488
#
# Static dielectric constant tensor:
#      x y z
#    x 3.960830 0.000000 -0.222140 
#    y 0.000000 3.597300 0.000000 
#    z -0.222140 0.000000 4.076000 
# 
# 
# High freq. dielectric constant tensor:
#      x y z
#    x 1.812890 0.000000 -0.009980 
#    y 0.000000 1.787510 0.000000 
#    z -0.009980 0.000000 1.805060 
# 
# From -- ./inp_files/180657.got.cif
#   From: 2010.06.25/outbox.cif.g09.slc.cpg/sg12_91_cif.got.tgz:180657.got - 2010.06.28 00:19:55.
