data_PCOD8102855
_publ_section_title
;
Structure prediction by ZEFSAII (Michael W. Deem and Ramdas Pophale) SiO2 
 PCOD8102855
Probable space group: C 2/M
;
_chemical_formula_sum "Si O2"
_cell_formula_units_Z 56
_cell_length_a 29.042916
_cell_length_b 8.560284
_cell_length_c 20.236946
_cell_angle_alpha 90.000000
_cell_angle_beta 32.687547
_cell_angle_gamma 90.000000
_cell_volume 2717.147991
_symmetry_space_group_name_H-M "C 2/M"
_symmetry_group_IT_number 12
_symmetry_cell_setting 'monoclinic'
loop_
_space_group_symop_operation_xyz
x,y,z
-x,y,-z
-x,-y,-z
x,-y,z
1/2+x,1/2+y,z
1/2-x,1/2+y,-z
1/2-x,1/2-y,-z
1/2+x,1/2-y,z
loop_
_atom_site_type_symbol
_atom_site_label
_atom_site_fract_x
_atom_site_fract_y
_atom_site_fract_z
Si Si1 0.950898 0.183335 0.738168
Si Si2 0.235822 0.819569 0.806084
Si Si3 0.134163 0.182978 0.556169
Si Si4 0.802409 0.683084 0.285024
Si Si5 0.606216 0.817619 0.059451
Si Si6 0.918498 0.318405 0.639470
Si Si7 0.932328 0.182678 0.224084
O O1 0.897847 0.270422 0.858937
O O2 0.910767 0.221410 0.716148
O O3 0.048964 0.243905 0.622200
O O4 0.946645 0.000000 0.758371
O O5 0.201275 0.714524 0.788181
O O6 0.335468 0.783788 0.696224
O O7 0.221001 0.000000 0.806677
O O8 0.185393 0.774935 0.932936
O O9 0.218336 0.257957 0.421684
O O10 0.128543 0.226784 0.640395
O O11 0.141131 0.000000 0.537122
O O12 0.811173 0.500000 0.287985
O O13 0.885420 0.768035 0.213849
O O14 0.520578 0.774650 0.123316
O O15 0.623611 0.000000 0.032123
O O16 0.927055 0.500000 0.647437
O O17 0.000000 0.259134 0.500000
O O18 0.953916 0.000000 0.197695
#
# Coordination Sequence:
#
# PCOD8102855 Si02
#       7
#     8   8   8   8   8   8   8
#     4  10  20  37  62  89 118 154 192 234 287 341
#     4  11  24  41  59  82 115 153 192 237 287 339
#     4   8  17  33  55  85 119 151 187 232 281 339
#     4  11  21  35  56  85 118 153 194 237 285 339
#     4  11  23  41  62  85 113 148 194 242 287 337
#     4  10  22  40  62  90 121 152 189 233 283 340
#     4  10  20  37  59  85 117 153 192 235 287 342
#
# _framework density 20.609846999999998
#
# number of rings (size 3 to 8) (size 9 to 14) (size 15 to 20)
#    0.000    1.857    0.000    5.143    0.000    2.571 
#    0.000   10.000    0.000    0.000    0.000    0.000 
#    0.000    0.000    0.000    0.000    0.000    0.000 
#
# Total GULP energy -347330.755625 kJ/mol
# GULP energy per Si atom -12404.669844 kJ/mol
# Density = 2.056294 g / cm^3
# Si number density = 20.609847 Si / 1000 Ang^3
#
#
#
# Elastic Constant Matrix: (Units=GPa)
#
#
# Indices 1 2 3 4 5 6 
#
# 1 102.5322 20.2785 20.4761 -0.0030 9.7274 0.0010
# 2 20.2785 50.0242 13.0407 -0.0249 -3.0479 0.0011
# 3 20.4761 13.0407 101.6743 -0.0190 4.6027 0.0007
# 4 -0.0030 -0.0249 -0.0190 27.8230 0.0056 2.8135
# 5 9.7274 -3.0479 4.6027 0.0056 19.1467 -0.0024
# 6 0.0010 0.0011 0.0007 2.8135 -0.0024 31.6234
#
#
#
# Elastic Compliance Matrix: (Units=1/GPa)
#
#
# Indices 1 2 3 4 5 6 
#
# 1 0.011565 -0.004694 -0.001443 -0.000003 -0.006276 0.000000
# 2 -0.004694 0.022891 -0.002288 0.000017 0.006579 -0.000002
# 3 -0.001443 -0.002288 0.010517 0.000005 -0.002159 -0.000001
# 4 -0.000003 0.000017 0.000005 0.036268 -0.000008 -0.003227
# 5 -0.006276 0.006579 -0.002159 -0.000008 0.056983 0.000005
# 6 0.000000 -0.000002 -0.000001 -0.003227 0.000005 0.031909
#
#
# Mechanical properties :
#
#
# Convention : Reuss Voigt Hill
#
# Bulk Modulus (GPa) = 35.55980 40.20236 37.88108
# Shear Modulus (GPa) = 25.46367 29.08100 27.27234
#
# Velocity S-wave (km/s) = 3.51880 3.76044 3.64162
# Velocity P-wave (km/s) = 5.81382 6.19703 6.00848
#
# Compressibility (1/GPa) = 0.02812164
#
# Stress axis : x y z
#
# Youngs Moduli (GPa) = 86.46757 43.68587 95.08264
#
# Poissons Ratio (x) = 0.20508 0.13719
# Poissons Ratio (y) = 0.40591 0.21758
# Poissons Ratio (z) = 0.12476 0.09997
#
# Static dielectric constant tensor:
#      x y z
#    x 3.593740 -0.000020 -0.063480 
#    y -0.000020 3.523550 0.000040 
#    z -0.063480 0.000040 3.852080 
# 
# 
# High freq. dielectric constant tensor:
#      x y z
#    x 1.807090 0.000000 -0.000200 
#    y 0.000000 1.797500 0.000000 
#    z -0.000200 0.000000 1.808150 
# 
# From -- ./inp_files/329529.got.cif
#   From: 2010.06.25/outbox.cif.g09.slc.cpg/sg12_165_cif.got.tgz:329529.got - 2010.06.28 00:19:55.
