data_PCOD8102553
_publ_section_title
;
Structure prediction by ZEFSAII (Michael W. Deem and Ramdas Pophale) SiO2 
 PCOD8102553
Probable space group: C 2/M
;
_chemical_formula_sum "Si O2"
_cell_formula_units_Z 40
_cell_length_a 16.336500
_cell_length_b 18.866090
_cell_length_c 8.758338
_cell_angle_alpha 90.000000
_cell_angle_beta 135.095655
_cell_angle_gamma 90.000000
_cell_volume 1905.554430
_symmetry_space_group_name_H-M "C 2/M"
_symmetry_group_IT_number 12
_symmetry_cell_setting 'monoclinic'
loop_
_space_group_symop_operation_xyz
x,y,z
-x,y,-z
-x,-y,-z
x,-y,z
1/2+x,1/2+y,z
1/2-x,1/2+y,-z
1/2-x,1/2-y,-z
1/2+x,1/2-y,z
loop_
_atom_site_type_symbol
_atom_site_label
_atom_site_fract_x
_atom_site_fract_y
_atom_site_fract_z
Si Si1 0.163100 0.159544 0.418401
Si Si2 0.272847 0.225572 0.284338
Si Si3 0.285370 0.846240 0.016952
Si Si4 0.628420 0.081536 0.140493
Si Si5 0.546014 0.579977 0.731597
O O1 0.181776 0.181174 0.267156
O O2 0.140398 0.230548 0.490882
O O3 0.280217 0.123457 0.635715
O O4 0.054132 0.107663 0.286830
O O5 0.202962 0.278822 0.080620
O O6 0.341101 0.172539 0.257088
O O7 0.347051 0.910549 0.009342
O O8 0.153388 0.867219 0.880782
O O9 0.638314 0.000000 0.199990
O O10 0.500000 0.111374 0.000000
O O11 0.500000 0.579524 0.500000
O O12 0.579570 0.500000 0.826212
#
# Coordination Sequence:
#
# PCOD8102553 Si02
#       5
#     8   8   8   8   8
#     4  10  20  39  55  87 108 150 183 231 280 332
#     4   9  20  38  54  79 119 143 187 217 282 330
#     4  10  20  39  55  87 108 150 183 231 280 332
#     4  10  20  37  57  78 108 147 188 223 267 329
#     4  11  20  35  63  87 113 147 185 241 286 334
#
# _framework density 20.991267000000001
#
# number of rings (size 3 to 8) (size 9 to 14) (size 15 to 20)
#    0.000    2.000    4.000    1.200    0.000    0.800 
#   36.000    5.000    0.000    2.400    0.000    0.000 
#    0.000    0.000    0.000    0.000    0.000    0.000 
#
# Total GULP energy -247848.751324 kJ/mol
# GULP energy per Si atom -12392.437566 kJ/mol
# Density = 2.094349 g / cm^3
# Si number density = 20.991267 Si / 1000 Ang^3
#
#
#
# Elastic Constant Matrix: (Units=GPa)
#
#
# Indices 1 2 3 4 5 6 
#
# 1 145.3051 54.2675 53.9807 0.0000 -7.2473 0.0000
# 2 54.2675 91.3537 29.3092 0.0000 -0.9162 0.0000
# 3 53.9807 29.3092 51.0525 0.0000 -6.0568 0.0000
# 4 0.0000 0.0000 0.0000 7.1503 0.0000 5.5259
# 5 -7.2473 -0.9162 -6.0568 0.0000 45.9732 0.0000
# 6 0.0000 0.0000 0.0000 5.5259 0.0000 131.9794
#
#
#
# Elastic Compliance Matrix: (Units=1/GPa)
#
#
# Indices 1 2 3 4 5 6 
#
# 1 0.012361 -0.003876 -0.010792 0.000000 0.000450 0.000000
# 2 -0.003876 0.014660 -0.004424 0.000000 -0.000902 0.000000
# 3 -0.010792 -0.004424 0.033855 0.000000 0.002671 0.000000
# 4 0.000000 0.000000 0.000000 0.144530 0.000000 -0.006051
# 5 0.000450 -0.000902 0.002671 0.000000 0.022157 0.000000
# 6 0.000000 0.000000 0.000000 -0.006051 0.000000 0.007830
#
#
# Mechanical properties :
#
#
# Convention : Reuss Voigt Hill
#
# Bulk Modulus (GPa) = 44.06947 62.53623 53.30285
# Shear Modulus (GPa) = 17.78466 47.03085 32.40775
#
# Velocity S-wave (km/s) = 2.91390 4.73852 3.93347
# Velocity P-wave (km/s) = 5.68866 7.73268 6.78805
#
# Compressibility (1/GPa) = 0.02269145
#
# Stress axis : x y z
#
# Youngs Moduli (GPa) = 80.89828 68.21485 29.53765
#
# Poissons Ratio (x) = 0.26442 0.31876
# Poissons Ratio (y) = 0.31358 0.13069
# Poissons Ratio (z) = 0.87301 0.30181
#
# Static dielectric constant tensor:
#      x y z
#    x 4.118680 0.000000 -0.303160 
#    y 0.000000 4.116520 0.000000 
#    z -0.303160 0.000000 3.497510 
# 
# 
# High freq. dielectric constant tensor:
#      x y z
#    x 1.831190 0.000000 -0.019490 
#    y 0.000000 1.828580 0.000000 
#    z -0.019490 0.000000 1.777960 
# 
# From -- ./inp_files/62940.got.cif
#   From: 2010.06.25/outbox.cif.g09.slc.cpg/sg12_32_cif.got.tgz:62940.got - 2010.06.28 00:19:55.
