data_PCOD8102119
_publ_section_title
;
Structure prediction by ZEFSAII (Michael W. Deem and Ramdas Pophale) SiO2 
 PCOD8102119
Probable space group: C 2/M
;
_chemical_formula_sum "Si O2"
_cell_formula_units_Z 56
_cell_length_a 15.075619
_cell_length_b 8.817879
_cell_length_c 22.396377
_cell_angle_alpha 90.000000
_cell_angle_beta 71.199755
_cell_angle_gamma 90.000000
_cell_volume 2818.418788
_symmetry_space_group_name_H-M "C 2/M"
_symmetry_group_IT_number 12
_symmetry_cell_setting 'monoclinic'
loop_
_space_group_symop_operation_xyz
x,y,z
-x,y,-z
-x,-y,-z
x,-y,z
1/2+x,1/2+y,z
1/2-x,1/2+y,-z
1/2-x,1/2-y,-z
1/2+x,1/2-y,z
loop_
_atom_site_type_symbol
_atom_site_label
_atom_site_fract_x
_atom_site_fract_y
_atom_site_fract_z
Si Si1 0.160773 0.326177 0.366276
Si Si2 0.346804 0.179118 0.288587
Si Si3 0.582228 0.322166 0.844917
Si Si4 0.955730 0.673238 0.382721
Si Si5 0.657041 0.678814 0.493971
Si Si6 0.189206 0.675977 0.926375
Si Si7 0.616472 0.675790 0.057457
O O1 0.186992 0.500000 0.374183
O O2 0.243460 0.249998 0.310746
O O3 0.140263 0.240917 0.431968
O O4 0.066815 0.313566 0.346895
O O5 0.404892 0.238090 0.220110
O O6 0.401202 0.231506 0.336253
O O7 0.337877 0.000000 0.286802
O O8 0.592030 0.500000 0.832446
O O9 0.661379 0.269983 0.874148
O O10 0.479473 0.276687 0.890228
O O11 0.927361 0.500000 0.403426
O O12 0.929297 0.776563 0.444962
O O13 0.667477 0.500000 0.488270
O O14 0.750000 0.750000 0.500000
O O15 0.171669 0.500000 0.917532
O O16 0.298113 0.710860 0.916151
O O17 0.125375 0.725798 0.995844
O O18 0.616435 0.500000 0.038367
#
# Coordination Sequence:
#
# PCOD8102119 Si02
#       7
#     8   8   8   8   8   8   8
#     4  11  23  41  64  90 120 156 195 243 300 358
#     4  11  24  42  61  84 117 157 200 246 291 349
#     4  11  23  39  59  83 117 158 198 240 291 349
#     4  10  23  42  63  88 120 155 195 245 300 355
#     4  12  23  37  62  92 122 156 195 245 299 352
#     4  10  20  36  60  90 120 151 192 242 291 345
#     4   9  20  38  59  86 120 156 192 237 291 348
#
# _framework density 19.869297
#
# number of rings (size 3 to 8) (size 9 to 14) (size 15 to 20)
#    0.000    1.429    1.429    3.857    0.000    8.000 
#    0.000    2.857    0.000    0.000    0.000    0.000 
#    0.000    0.000    0.000    0.000    0.000    0.000 
#
# Total GULP energy -347367.976851 kJ/mol
# GULP energy per Si atom -12405.999173 kJ/mol
# Density = 1.982407 g / cm^3
# Si number density = 19.869297 Si / 1000 Ang^3
#
#
#
# Elastic Constant Matrix: (Units=GPa)
#
#
# Indices 1 2 3 4 5 6 
#
# 1 80.1654 33.4523 33.2510 0.0000 -9.0663 0.0000
# 2 33.4523 100.1346 36.6583 0.0000 -2.9942 0.0000
# 3 33.2510 36.6583 91.1849 0.0000 -4.6978 0.0000
# 4 0.0000 0.0000 0.0000 39.3058 0.0000 -0.1016
# 5 -9.0663 -2.9942 -4.6978 0.0000 19.8054 0.0000
# 6 0.0000 0.0000 0.0000 -0.1016 0.0000 29.5199
#
#
#
# Elastic Compliance Matrix: (Units=1/GPa)
#
#
# Indices 1 2 3 4 5 6 
#
# 1 0.016463 -0.003795 -0.004170 0.000000 0.005973 0.000000
# 2 -0.003795 0.012593 -0.003716 0.000000 -0.000715 0.000000
# 3 -0.004170 -0.003716 0.014025 0.000000 0.000856 0.000000
# 4 0.000000 0.000000 0.000000 0.025442 0.000000 0.000088
# 5 0.005973 -0.000715 0.000856 0.000000 0.053321 0.000000
# 6 0.000000 0.000000 0.000000 0.000088 0.000000 0.033876
#
#
# Mechanical properties :
#
#
# Convention : Reuss Voigt Hill
#
# Bulk Modulus (GPa) = 50.70871 53.13425 51.92148
# Shear Modulus (GPa) = 26.93184 28.93446 27.93315
#
# Velocity S-wave (km/s) = 3.68564 3.82021 3.75353
# Velocity P-wave (km/s) = 6.60972 6.80137 6.70623
#
# Compressibility (1/GPa) = 0.01972048
#
# Stress axis : x y z
#
# Youngs Moduli (GPa) = 60.74280 79.40799 71.29975
#
# Poissons Ratio (x) = 0.30132 0.29732
# Poissons Ratio (y) = 0.23049 0.26494
# Poissons Ratio (z) = 0.25330 0.29507
#
# Static dielectric constant tensor:
#      x y z
#    x 3.785040 0.000000 -0.030210 
#    y 0.000000 3.716930 0.000000 
#    z -0.030210 0.000000 3.541800 
# 
# 
# High freq. dielectric constant tensor:
#      x y z
#    x 1.787640 0.000000 -0.004320 
#    y 0.000000 1.783850 0.000000 
#    z -0.004320 0.000000 1.767860 
# 
# From -- ./inp_files/338429.got.cif
#   From: 2010.06.25/outbox.cif.g09.slc.cpg/sg12_170_cif.got.tgz:338429.got - 2010.06.28 00:19:55.
