data_PCOD8102732
_publ_section_title
;
Structure prediction by ZEFSAII (Michael W. Deem and Ramdas Pophale) SiO2 
 PCOD8102732
Probable space group: C 2/M
;
_chemical_formula_sum "Si O2"
_cell_formula_units_Z 64
_cell_length_a 17.001649
_cell_length_b 14.592769
_cell_length_c 14.890543
_cell_angle_alpha 90.000000
_cell_angle_beta 111.502243
_cell_angle_gamma 90.000000
_cell_volume 3437.245035
_symmetry_space_group_name_H-M "C 2/M"
_symmetry_group_IT_number 12
_symmetry_cell_setting 'monoclinic'
loop_
_space_group_symop_operation_xyz
x,y,z
-x,y,-z
-x,-y,-z
x,-y,z
1/2+x,1/2+y,z
1/2-x,1/2+y,-z
1/2-x,1/2-y,-z
1/2+x,1/2-y,z
loop_
_atom_site_type_symbol
_atom_site_label
_atom_site_fract_x
_atom_site_fract_y
_atom_site_fract_z
Si Si1 0.278618 0.108812 0.765012
Si Si2 0.021237 0.398042 0.366059
Si Si3 0.095231 0.899752 0.002080
Si Si4 0.862440 0.603017 0.421961
Si Si5 0.419561 0.227944 0.909740
Si Si6 0.392725 0.397533 0.205755
Si Si7 0.276023 0.741841 0.613570
Si Si8 0.458809 0.272496 0.734033
O O1 0.358492 0.144676 0.856371
O O2 0.196057 0.132947 0.788805
O O3 0.274515 0.161456 0.667246
O O4 0.287845 0.000000 0.751494
O O5 0.041010 0.500000 0.340231
O O6 0.092445 0.366056 0.466758
O O7 0.024224 0.333455 0.281773
O O8 0.929162 0.393469 0.370207
O O9 0.136100 0.807827 0.062852
O O10 0.133587 0.000000 0.047127
O O11 0.108082 0.890268 0.901545
O O12 0.000000 0.895899 0.000000
O O13 0.826890 0.500000 0.417359
O O14 0.787384 0.671351 0.364940
O O15 0.459466 0.279649 0.841060
O O16 0.500000 0.189946 0.000000
O O17 0.413769 0.500000 0.245672
O O18 0.467658 0.335050 0.277340
O O19 0.250000 0.750000 0.500000
O O20 0.368688 0.696438 0.656438
#
# Coordination Sequence:
#
# PCOD8102732 Si02
#       8
#     8   8   8   8   8   8   8   8
#     4  10  24  41  58  82 119 159 190 230 288 349
#     4   9  18  33  56  79 105 144 184 226 285 339
#     4   9  16  32  59  84 114 147 183 230 282 337
#     4   9  18  35  56  80 107 138 183 237 283 332
#     4  10  20  37  58  89 114 147 194 236 285 339
#     4  10  20  37  59  84 115 154 190 229 290 346
#     4  11  22  37  57  84 114 151 192 234 285 339
#     4  11  20  33  58  83 113 147 187 237 283 335
#
# _framework density 18.619564
#
# number of rings (size 3 to 8) (size 9 to 14) (size 15 to 20)
#    0.000    2.125    3.750    1.500    0.000    3.750 
#    0.000    1.875    0.000    2.250    0.000    0.000 
#    0.000    0.000    0.000    0.000    0.000    0.000 
#
# Total GULP energy -396545.607098 kJ/mol
# GULP energy per Si atom -12392.050222 kJ/mol
# Density = 1.857718 g / cm^3
# Si number density = 18.619564 Si / 1000 Ang^3
#
#
#
# Elastic Constant Matrix: (Units=GPa)
#
#
# Indices 1 2 3 4 5 6 
#
# 1 94.0657 49.5432 44.6556 0.0000 14.8197 0.0000
# 2 49.5432 116.8395 41.3302 0.0000 14.7982 0.0000
# 3 44.6556 41.3302 95.4390 0.0000 6.8433 0.0000
# 4 0.0000 0.0000 0.0000 31.6261 0.0000 1.4474
# 5 14.8197 14.7982 6.8433 0.0000 28.7637 0.0000
# 6 0.0000 0.0000 0.0000 1.4474 0.0000 28.9355
#
#
#
# Elastic Compliance Matrix: (Units=1/GPa)
#
#
# Indices 1 2 3 4 5 6 
#
# 1 0.016243 -0.004380 -0.005356 0.000000 -0.004841 0.000000
# 2 -0.004380 0.011821 -0.002844 0.000000 -0.003148 0.000000
# 3 -0.005356 -0.002844 0.014154 0.000000 0.000855 0.000000
# 4 0.000000 0.000000 0.000000 0.031692 0.000000 -0.001585
# 5 -0.004841 -0.003148 0.000855 0.000000 0.038677 0.000000
# 6 0.000000 0.000000 0.000000 -0.001585 0.000000 0.034639
#
#
# Mechanical properties :
#
#
# Convention : Reuss Voigt Hill
#
# Bulk Modulus (GPa) = 58.62305 64.15580 61.38942
# Shear Modulus (GPa) = 28.07861 29.25275 28.66568
#
# Velocity S-wave (km/s) = 3.88753 3.96798 3.92796
# Velocity P-wave (km/s) = 7.19052 7.45145 7.32215
#
# Compressibility (1/GPa) = 0.01705814
#
# Stress axis : x y z
#
# Youngs Moduli (GPa) = 61.56467 84.59808 70.64955
#
# Poissons Ratio (x) = 0.37051 0.37842
# Poissons Ratio (y) = 0.26963 0.20093
# Poissons Ratio (z) = 0.32976 0.24060
#
# Static dielectric constant tensor:
#      x y z
#    x 3.526140 0.000000 -0.058830 
#    y 0.000000 3.656680 0.000000 
#    z -0.058830 0.000000 3.232750 
# 
# 
# High freq. dielectric constant tensor:
#      x y z
#    x 1.726750 0.000000 -0.012140 
#    y 0.000000 1.727710 0.000000 
#    z -0.012140 0.000000 1.702330 
# 
# From -- ./inp_files/225325.got.cif
#   From: 2010.06.25/outbox.cif.g09.slc.cpg/sg12_113_cif.got.tgz:225325.got - 2010.06.28 00:19:55.
