data_PCOD8102303
_publ_section_title
;
Structure prediction by ZEFSAII (Michael W. Deem and Ramdas Pophale) SiO2 
 PCOD8102303
Probable space group: C 2/M
;
_chemical_formula_sum "Si O2"
_cell_formula_units_Z 64
_cell_length_a 18.417833
_cell_length_b 13.074074
_cell_length_c 15.467453
_cell_angle_alpha 90.000000
_cell_angle_beta 48.982909
_cell_angle_gamma 90.000000
_cell_volume 2810.188742
_symmetry_space_group_name_H-M "C 2/M"
_symmetry_group_IT_number 12
_symmetry_cell_setting 'monoclinic'
loop_
_space_group_symop_operation_xyz
x,y,z
-x,y,-z
-x,-y,-z
x,-y,z
1/2+x,1/2+y,z
1/2-x,1/2+y,-z
1/2-x,1/2-y,-z
1/2+x,1/2-y,z
loop_
_atom_site_type_symbol
_atom_site_label
_atom_site_fract_x
_atom_site_fract_y
_atom_site_fract_z
Si Si1 0.484195 0.884615 0.418672
Si Si2 0.194309 0.616658 0.546706
Si Si3 0.748820 0.385306 0.180308
Si Si4 0.106979 0.887318 0.886708
Si Si5 0.387263 0.379125 0.316604
Si Si6 0.073896 0.218803 0.238616
Si Si7 0.894347 0.721704 0.972464
Si Si8 0.400523 0.121367 0.206436
O O1 0.500000 0.833255 0.500000
O O2 0.370547 0.880374 0.488437
O O3 0.542668 0.828423 0.298341
O O4 0.523864 0.000000 0.387822
O O5 0.213981 0.500000 0.561477
O O6 0.296427 0.669305 0.441498
O O7 0.132702 0.667016 0.673980
O O8 0.713560 0.500000 0.214127
O O9 0.649730 0.323658 0.248441
O O10 0.810383 0.353659 0.216106
O O11 0.820388 0.372028 0.042319
O O12 0.109092 0.840971 0.786625
O O13 0.159535 0.000000 0.850002
O O14 0.145574 0.804222 0.925161
O O15 0.000000 0.907866 0.000000
O O16 0.373516 0.500000 0.323013
O O17 0.482251 0.354842 0.297396
O O18 0.123736 0.231571 0.107089
O O19 0.004200 0.682183 0.900054
O O20 0.424833 0.000000 0.189897
#
# Coordination Sequence:
#
# PCOD8102303 Si02
#       8
#     8   8   8   8   8   8   8   8
#     4  10  23  44  66  94 135 175 218 279 341 396
#     4   9  19  40  68  98 126 164 223 276 328 395
#     4  11  26  43  63  96 137 177 221 277 344 408
#     4  10  20  36  61  94 132 173 220 273 329 391
#     4  10  22  40  66  98 135 179 223 277 339 397
#     4  12  25  41  64  96 133 178 222 273 336 411
#     4  12  23  41  67  97 127 176 230 283 333 397
#     4  10  21  41  71  98 127 167 221 286 338 394
#
# _framework density 22.774270999999999
#
# number of rings (size 3 to 8) (size 9 to 14) (size 15 to 20)
#    0.000    1.500    2.500    2.250    0.000    4.500 
#    0.000    1.875    0.000    4.500    0.000    0.000 
#    0.000    0.000    0.000    0.000    0.000    0.000 
#
# Total GULP energy -396667.757363 kJ/mol
# GULP energy per Si atom -12395.867418 kJ/mol
# Density = 2.272244 g / cm^3
# Si number density = 22.774271 Si / 1000 Ang^3
#
#
#
# Elastic Constant Matrix: (Units=GPa)
#
#
# Indices 1 2 3 4 5 6 
#
# 1 114.7843 28.0064 43.2982 0.0000 0.5979 0.0000
# 2 28.0064 45.5822 32.9584 0.0000 8.3640 0.0000
# 3 43.2982 32.9584 125.6913 0.0000 -0.2621 0.0000
# 4 0.0000 0.0000 0.0000 39.8715 0.0000 1.3050
# 5 0.5979 8.3640 -0.2621 0.0000 29.1828 0.0000
# 6 0.0000 0.0000 0.0000 1.3050 0.0000 31.8545
#
#
#
# Elastic Compliance Matrix: (Units=1/GPa)
#
#
# Indices 1 2 3 4 5 6 
#
# 1 0.010869 -0.005183 -0.002382 0.000000 0.001241 0.000000
# 2 -0.005183 0.031455 -0.006481 0.000000 -0.008967 0.000000
# 3 -0.002382 -0.006481 0.010480 0.000000 0.002000 0.000000
# 4 0.000000 0.000000 0.000000 0.025114 0.000000 -0.001029
# 5 0.001241 -0.008967 0.002000 0.000000 0.036829 0.000000
# 6 0.000000 0.000000 0.000000 -0.001029 0.000000 0.031435
#
#
# Mechanical properties :
#
#
# Convention : Reuss Voigt Hill
#
# Bulk Modulus (GPa) = 40.46886 54.95375 47.71131
# Shear Modulus (GPa) = 27.39543 32.30144 29.84844
#
# Velocity S-wave (km/s) = 3.47206 3.77016 3.62418
# Velocity P-wave (km/s) = 5.82080 6.56767 6.20548
#
# Compressibility (1/GPa) = 0.02471036
#
# Stress axis : x y z
#
# Youngs Moduli (GPa) = 92.00607 31.79190 95.41704
#
# Poissons Ratio (x) = 0.16478 0.22732
# Poissons Ratio (y) = 0.47688 0.61841
# Poissons Ratio (z) = 0.21920 0.20605
#
# Static dielectric constant tensor:
#      x y z
#    x 4.001120 0.000000 0.140720 
#    y 0.000000 4.439330 0.000000 
#    z 0.140720 0.000000 4.203360 
# 
# 
# High freq. dielectric constant tensor:
#      x y z
#    x 1.881640 0.000000 0.006040 
#    y 0.000000 1.918820 0.000000 
#    z 0.006040 0.000000 1.897350 
# 
# From -- ./inp_files/225698.got.cif
#   From: 2010.06.25/outbox.cif.g09.slc.cpg/sg12_113_cif.got.tgz:225698.got - 2010.06.28 00:19:55.
