data_PCOD8102997
_publ_section_title
;
Structure prediction by ZEFSAII (Michael W. Deem and Ramdas Pophale) SiO2 
 PCOD8102997
Probable space group: C 2/M
;
_chemical_formula_sum "Si O2"
_cell_formula_units_Z 40
_cell_length_a 27.011883
_cell_length_b 8.393089
_cell_length_c 9.614903
_cell_angle_alpha 90.000000
_cell_angle_beta 69.103107
_cell_angle_gamma 90.000000
_cell_volume 2036.444276
_symmetry_space_group_name_H-M "C 2/M"
_symmetry_group_IT_number 12
_symmetry_cell_setting 'monoclinic'
loop_
_space_group_symop_operation_xyz
x,y,z
-x,y,-z
-x,-y,-z
x,-y,z
1/2+x,1/2+y,z
1/2-x,1/2+y,-z
1/2-x,1/2-y,-z
1/2+x,1/2-y,z
loop_
_atom_site_type_symbol
_atom_site_label
_atom_site_fract_x
_atom_site_fract_y
_atom_site_fract_z
Si Si1 0.545821 0.317212 0.045496
Si Si2 0.451858 0.316500 0.639425
Si Si3 0.337619 0.816000 0.752494
Si Si4 0.248738 0.314624 0.656519
Si Si5 0.162426 0.187486 0.947927
O O1 0.548726 0.500000 0.995562
O O2 0.529433 0.297997 0.221433
O O3 0.500000 0.230400 0.000000
O O4 0.604485 0.243879 0.961926
O O5 0.500000 0.248161 0.500000
O O6 0.439551 0.500000 0.614668
O O7 0.399405 0.215221 0.662777
O O8 0.304907 0.714249 0.673626
O O9 0.324349 0.000000 0.742127
O O10 0.319727 0.769281 0.926138
O O11 0.235090 0.500000 0.669135
O O12 0.250000 0.250000 0.500000
O O13 0.203271 0.221933 0.785329
O O14 0.158320 0.000000 0.982641
#
# Coordination Sequence:
#
# PCOD8102997 Si02
#       5
#     8   8   8   8   8
#     4   8  15  29  51  79 108 140 180 223 267 321
#     4   9  18  33  54  80 110 146 188 232 280 333
#     4  11  22  38  59  83 113 151 193 235 282 336
#     4  12  25  41  59  83 114 146 185 234 289 343
#     4  10  20  37  60  85 113 149 192 234 279 335
#
# _framework density 19.642078000000001
#
# number of rings (size 3 to 8) (size 9 to 14) (size 15 to 20)
#    0.000    2.000    0.000    6.000    0.000    2.000 
#    0.000    4.000    0.000   15.000    0.000    0.000 
#    0.000    0.000    0.000    0.000    0.000    0.000 
#
# Total GULP energy -248014.643389 kJ/mol
# GULP energy per Si atom -12400.732169 kJ/mol
# Density = 1.959737 g / cm^3
# Si number density = 19.642078 Si / 1000 Ang^3
#
#
#
# Elastic Constant Matrix: (Units=GPa)
#
#
# Indices 1 2 3 4 5 6 
#
# 1 115.7946 9.5161 63.2946 0.0000 10.4704 0.0000
# 2 9.5161 55.3108 5.5389 0.0000 0.8162 0.0000
# 3 63.2946 5.5389 116.4160 0.0000 -9.6459 0.0000
# 4 0.0000 0.0000 0.0000 24.6906 0.0000 -0.9887
# 5 10.4704 0.8162 -9.6459 0.0000 39.8050 0.0000
# 6 0.0000 0.0000 0.0000 -0.9887 0.0000 24.1170
#
#
#
# Elastic Compliance Matrix: (Units=1/GPa)
#
#
# Indices 1 2 3 4 5 6 
#
# 1 0.013441 -0.001464 -0.007683 0.000000 -0.005367 0.000000
# 2 -0.001464 0.018339 -0.000077 0.000000 -0.000010 0.000000
# 3 -0.007683 -0.000077 0.013203 0.000000 0.005222 0.000000
# 4 0.000000 0.000000 0.000000 0.040568 0.000000 0.001663
# 5 -0.005367 -0.000010 0.005222 0.000000 0.027800 0.000000
# 6 0.000000 0.000000 0.000000 0.001663 0.000000 0.041533
#
#
# Mechanical properties :
#
#
# Convention : Reuss Voigt Hill
#
# Bulk Modulus (GPa) = 37.68554 49.35784 43.52169
# Shear Modulus (GPa) = 27.44564 31.66732 29.55648
#
# Velocity S-wave (km/s) = 3.74209 4.01960 3.88332
# Velocity P-wave (km/s) = 6.15619 6.83565 6.50480
#
# Compressibility (1/GPa) = 0.02653538
#
# Stress axis : x y z
#
# Youngs Moduli (GPa) = 74.39813 54.52733 75.73792
#
# Poissons Ratio (x) = 0.07982 0.58189
# Poissons Ratio (y) = 0.10891 0.00587
# Poissons Ratio (z) = 0.57160 0.00422
#
# Static dielectric constant tensor:
#      x y z
#    x 3.894340 0.000000 0.008280 
#    y 0.000000 3.385170 0.000000 
#    z 0.008280 0.000000 3.567890 
# 
# 
# High freq. dielectric constant tensor:
#      x y z
#    x 1.778810 0.000000 -0.002500 
#    y 0.000000 1.747560 0.000000 
#    z -0.002500 0.000000 1.762140 
# 
# From -- ./inp_files/101031.got.cif
#   From: 2010.06.25/outbox.cif.g09.slc.cpg/sg12_51_cif.got.tgz:101031.got - 2010.06.28 00:19:55.
