data_PCOD8102121
_publ_section_title
;
Structure prediction by ZEFSAII (Michael W. Deem and Ramdas Pophale) SiO2 
 PCOD8102121
Probable space group: C 2/M
;
_chemical_formula_sum "Si O2"
_cell_formula_units_Z 48
_cell_length_a 19.402301
_cell_length_b 13.665352
_cell_length_c 9.763717
_cell_angle_alpha 90.000000
_cell_angle_beta 109.569619
_cell_angle_gamma 90.000000
_cell_volume 2439.206480
_symmetry_space_group_name_H-M "C 2/M"
_symmetry_group_IT_number 12
_symmetry_cell_setting 'monoclinic'
loop_
_space_group_symop_operation_xyz
x,y,z
-x,y,-z
-x,-y,-z
x,-y,z
1/2+x,1/2+y,z
1/2-x,1/2+y,-z
1/2-x,1/2-y,-z
1/2+x,1/2-y,z
loop_
_atom_site_type_symbol
_atom_site_label
_atom_site_fract_x
_atom_site_fract_y
_atom_site_fract_z
Si Si1 0.444781 0.391752 0.585408
Si Si2 0.418909 0.887051 0.936544
Si Si3 0.190844 0.615088 0.371670
Si Si4 0.956831 0.886117 0.107410
Si Si5 0.835022 0.740176 0.086722
Si Si6 0.322781 0.746887 0.392082
O O1 0.500000 0.403049 0.500000
O O2 0.413134 0.500000 0.601491
O O3 0.489785 0.345695 0.740128
O O4 0.379982 0.319606 0.509439
O O5 0.367286 0.849994 0.024145
O O6 0.426849 0.000000 0.973320
O O7 0.500000 0.837925 0.000000
O O8 0.384249 0.869085 0.762972
O O9 0.212653 0.500000 0.388546
O O10 0.249890 0.681608 0.331552
O O11 0.185607 0.653886 0.524503
O O12 0.877447 0.836405 0.062130
O O13 0.940778 0.000000 0.115379
O O14 0.000000 0.860682 0.000000
O O15 0.848389 0.723287 0.257560
O O16 0.750000 0.750000 0.000000
#
# Coordination Sequence:
#
# PCOD8102121 Si02
#       6
#     8   8   8   8   8   8
#     4  10  20  36  60  90 120 155 195 246 309 367
#     4  10  23  43  65  88 121 169 211 249 301 363
#     4  10  23  42  62  87 123 163 205 250 306 371
#     4  10  23  40  62  93 128 163 201 251 310 368
#     4  12  24  39  62  93 125 161 205 256 305 360
#     4  11  23  38  62  93 122 158 202 254 315 360
#
# _framework density 19.678531
#
# number of rings (size 3 to 8) (size 9 to 14) (size 15 to 20)
#    0.000    1.500    3.333    1.000    4.667    2.000 
#    0.000    1.667    0.000    3.500    0.000    0.000 
#    0.000    0.000    0.000    0.000    0.000    0.000 
#
# Total GULP energy -297571.075280 kJ/mol
# GULP energy per Si atom -12398.794803 kJ/mol
# Density = 1.963374 g / cm^3
# Si number density = 19.678531 Si / 1000 Ang^3
#
#
#
# Elastic Constant Matrix: (Units=GPa)
#
#
# Indices 1 2 3 4 5 6 
#
# 1 121.1722 30.6881 54.6448 0.0000 11.2208 0.0000
# 2 30.6881 74.1789 40.7755 0.0000 8.8183 0.0000
# 3 54.6448 40.7755 121.9016 0.0000 1.3541 0.0000
# 4 0.0000 0.0000 0.0000 -422.3443 0.0000 -276.0257
# 5 11.2208 8.8183 1.3541 0.0000 39.5056 0.0000
# 6 0.0000 0.0000 0.0000 -276.0257 0.0000 -147.1171
#
#
#
# Elastic Compliance Matrix: (Units=1/GPa)
#
#
# Indices 1 2 3 4 5 6 
#
# 1 0.010862 -0.001878 -0.004213 0.000000 -0.002521 0.000000
# 2 -0.001878 0.017341 -0.004923 0.000000 -0.003169 0.000000
# 3 -0.004213 -0.004923 0.011718 0.000000 0.001894 0.000000
# 4 0.000000 0.000000 0.000000 0.010466 0.000000 -0.019637
# 5 -0.002521 -0.003169 0.001894 0.000000 0.026671 0.000000
# 6 0.000000 0.000000 0.000000 -0.019637 0.000000 0.030047
#
#
# Mechanical properties :
#
#
# Convention : Reuss Voigt Hill
#
# Bulk Modulus (GPa) = 55.89153 63.27441 59.58297
# Shear Modulus (GPa) = 37.01034 -93.24822 -28.11894
#
# Velocity S-wave (km/s) = 4.34146 -6.89120 -3.78420
# Velocity P-wave (km/s) = 7.32086 5.57623 3.35415
#
# Compressibility (1/GPa) = 0.01789180
#
# Stress axis : x y z
#
# Youngs Moduli (GPa) = 92.06692 57.66713 85.34176
#
# Poissons Ratio (x) = 0.10830 0.35952
# Poissons Ratio (y) = 0.17291 0.42017
# Poissons Ratio (z) = 0.38785 0.28392
#
# Static dielectric constant tensor:
#      x y z
#    x 3.289480 0.000000 -0.011990 
#    y 0.000000 3.618920 0.000000 
#    z -0.011990 0.000000 3.738400 
# 
# 
# High freq. dielectric constant tensor:
#      x y z
#    x 1.767900 0.000000 0.004820 
#    y 0.000000 1.766000 0.000000 
#    z 0.004820 0.000000 1.779210 
# 
# From -- ./inp_files/85932.got.cif
#   From: 2010.06.25/outbox.cif.g09.slc.cpg/sg12_43_cif.got.tgz:85932.got - 2010.06.28 00:19:55.
