data_PCOD8102535
_publ_section_title
;
Structure prediction by ZEFSAII (Michael W. Deem and Ramdas Pophale) SiO2 
 PCOD8102535
Probable space group: C 2/M
;
_chemical_formula_sum "Si O2"
_cell_formula_units_Z 64
_cell_length_a 29.088248
_cell_length_b 14.539166
_cell_length_c 8.777167
_cell_angle_alpha 90.000000
_cell_angle_beta 120.162104
_cell_angle_gamma 90.000000
_cell_volume 3209.447875
_symmetry_space_group_name_H-M "C 2/M"
_symmetry_group_IT_number 12
_symmetry_cell_setting 'monoclinic'
loop_
_space_group_symop_operation_xyz
x,y,z
-x,y,-z
-x,-y,-z
x,-y,z
1/2+x,1/2+y,z
1/2-x,1/2+y,-z
1/2-x,1/2-y,-z
1/2+x,1/2-y,z
loop_
_atom_site_type_symbol
_atom_site_label
_atom_site_fract_x
_atom_site_fract_y
_atom_site_fract_z
Si Si1 0.859483 0.108773 0.718734
Si Si2 0.783246 0.227850 0.406973
Si Si3 0.058877 0.401446 0.663795
Si Si4 0.248604 0.105828 0.917281
Si Si5 0.971987 0.097206 0.803950
Si Si6 0.541222 0.709379 0.707397
Si Si7 0.332748 0.104332 0.312444
Si Si8 0.354788 0.392398 0.057123
O O1 0.823495 0.150757 0.528466
O O2 0.916450 0.142184 0.755628
O O3 0.852643 0.000000 0.704572
O O4 0.848645 0.145300 0.873103
O O5 0.750000 0.250000 0.500000
O O6 0.749090 0.178938 0.216744
O O7 0.812212 0.321472 0.400481
O O8 0.071968 0.500000 0.767052
O O9 0.059203 0.313998 0.775828
O O10 0.103836 0.383825 0.608557
O O11 0.000000 0.408261 0.500000
O O12 0.198710 0.131343 0.941926
O O13 0.244067 0.000000 0.852166
O O14 0.302595 0.120038 0.101998
O O15 0.009115 0.173861 0.795805
O O16 0.965740 0.000000 0.697606
O O17 0.000000 0.063323 0.000000
O O18 0.500000 0.702306 0.500000
O O19 0.595251 0.652134 0.770548
O O20 0.320277 0.000000 0.351123
O O21 0.366532 0.500000 0.070952
#
# Coordination Sequence:
#
# PCOD8102535 Si02
#       8
#     8   8   8   8   8   8   8   8
#     4  10  22  39  59  83 121 162 196 237 298 364
#     4  12  25  38  60  91 124 158 200 248 300 362
#     4   9  20  38  60  84 111 149 198 251 299 345
#     4  10  22  40  63  88 118 155 198 248 302 359
#     4  10  20  37  56  83 124 164 191 226 293 371
#     4  11  22  33  57  89 118 153 202 252 291 351
#     4  10  22  42  65  87 119 160 205 255 306 358
#     4  10  20  37  59  87 122 160 197 239 296 365
#
# _framework density 19.941123000000001
#
# number of rings (size 3 to 8) (size 9 to 14) (size 15 to 20)
#    0.000    1.750    1.250    2.625    5.250    4.000 
#    0.000    0.000    0.000    1.125    0.000    0.000 
#    0.000    0.000    0.000    0.000    0.000    0.000 
#
# Total GULP energy -396460.704055 kJ/mol
# GULP energy per Si atom -12389.397002 kJ/mol
# Density = 1.989574 g / cm^3
# Si number density = 19.941123 Si / 1000 Ang^3
#
#
#
# Elastic Constant Matrix: (Units=GPa)
#
#
# Indices 1 2 3 4 5 6 
#
# 1 127.5752 54.0862 34.4942 0.0000 -1.7304 0.0000
# 2 54.0862 108.4086 35.0025 0.0000 -19.7381 0.0000
# 3 34.4942 35.0025 61.3246 0.0000 6.9783 0.0000
# 4 0.0000 0.0000 0.0000 17.6446 0.0000 1.6549
# 5 -1.7304 -19.7381 6.9783 0.0000 31.6763 0.0000
# 6 0.0000 0.0000 0.0000 1.6549 0.0000 19.8596
#
#
#
# Elastic Compliance Matrix: (Units=1/GPa)
#
#
# Indices 1 2 3 4 5 6 
#
# 1 0.010608 -0.004541 -0.003199 0.000000 -0.001545 0.000000
# 2 -0.004541 0.016187 -0.008005 0.000000 0.011602 0.000000
# 3 -0.003199 -0.008005 0.023861 0.000000 -0.010420 0.000000
# 4 0.000000 0.000000 0.000000 0.057121 0.000000 -0.004760
# 5 -0.001545 0.011602 -0.010420 0.000000 0.041010 0.000000
# 6 0.000000 0.000000 0.000000 -0.004760 0.000000 0.050750
#
#
# Mechanical properties :
#
#
# Convention : Reuss Voigt Hill
#
# Bulk Modulus (GPa) = 52.17716 60.49714 56.33715
# Shear Modulus (GPa) = 21.06024 25.41780 23.23902
#
# Velocity S-wave (km/s) = 3.25333 3.57409 3.41747
# Velocity P-wave (km/s) = 6.35095 6.88737 6.62459
#
# Compressibility (1/GPa) = 0.01916547
#
# Stress axis : x y z
#
# Youngs Moduli (GPa) = 94.27234 61.77889 41.90952
#
# Poissons Ratio (x) = 0.28052 0.13407
# Poissons Ratio (y) = 0.42806 0.33549
# Poissons Ratio (z) = 0.30159 0.49455
#
# Static dielectric constant tensor:
#      x y z
#    x 3.685560 0.000000 0.111270 
#    y 0.000000 4.096290 0.000000 
#    z 0.111270 0.000000 3.359940 
# 
# 
# High freq. dielectric constant tensor:
#      x y z
#    x 1.787080 0.000000 0.018570 
#    y 0.000000 1.793700 0.000000 
#    z 0.018570 0.000000 1.750710 
# 
# From -- ./inp_files/104653.got.cif
#   From: 2010.06.25/outbox.cif.g09.slc.cpg/sg12_53_cif.got.tgz:104653.got - 2010.06.28 00:19:55.
