data_PCOD8102751
_publ_section_title
;
Structure prediction by ZEFSAII (Michael W. Deem and Ramdas Pophale) SiO2 
 PCOD8102751
Probable space group: C 2/M
;
_chemical_formula_sum "Si O2"
_cell_formula_units_Z 56
_cell_length_a 14.788804
_cell_length_b 8.900990
_cell_length_c 26.337071
_cell_angle_alpha 90.000000
_cell_angle_beta 54.907778
_cell_angle_gamma 90.000000
_cell_volume 2836.697688
_symmetry_space_group_name_H-M "C 2/M"
_symmetry_group_IT_number 12
_symmetry_cell_setting 'monoclinic'
loop_
_space_group_symop_operation_xyz
x,y,z
-x,y,-z
-x,-y,-z
x,-y,z
1/2+x,1/2+y,z
1/2-x,1/2+y,-z
1/2-x,1/2-y,-z
1/2+x,1/2-y,z
loop_
_atom_site_type_symbol
_atom_site_label
_atom_site_fract_x
_atom_site_fract_y
_atom_site_fract_z
Si Si1 0.262507 0.825050 0.615887
Si Si2 0.918410 0.321560 0.845911
Si Si3 0.546711 0.176562 0.368048
Si Si4 0.491352 0.677913 0.920940
Si Si5 0.901103 0.168619 0.492277
Si Si6 0.510830 0.322791 0.715164
Si Si7 0.827621 0.822390 0.058808
O O1 0.343519 0.780064 0.635912
O O2 0.293842 0.739158 0.553848
O O3 0.139472 0.778074 0.670789
O O4 0.273730 0.000000 0.600251
O O5 0.920967 0.500000 0.841507
O O6 0.995642 0.265042 0.866523
O O7 0.795351 0.257476 0.896324
O O8 0.961018 0.253755 0.780315
O O9 0.436504 0.233564 0.432304
O O10 0.555710 0.259870 0.311515
O O11 0.536940 0.000000 0.362312
O O12 0.488656 0.500000 0.911918
O O13 0.601281 0.727944 0.915405
O O14 0.385203 0.732817 0.988096
O O15 0.000000 0.170052 0.500000
O O16 0.873783 0.000000 0.482803
O O17 0.494411 0.500000 0.723634
O O18 0.825966 0.000000 0.057907
#
# Coordination Sequence:
#
# PCOD8102751 Si02
#       7
#     8   8   8   8   8   8   8
#     4   9  20  38  58  78 105 141 180 221 267 319
#     4  11  22  36  53  79 112 143 176 220 269 314
#     4  10  20  37  59  81 106 138 177 224 272 317
#     4   9  17  35  60  83 106 140 181 217 258 314
#     4   9  17  31  55  85 111 136 171 218 271 322
#     4  11  24  40  55  76 106 145 188 222 260 317
#     4   8  17  34  58  83 109 141 177 215 262 319
#
# _framework density 19.741264000000001
#
# number of rings (size 3 to 8) (size 9 to 14) (size 15 to 20)
#    0.000    2.429    0.000    3.000    0.000    5.143 
#    0.000    9.286    0.000    0.000    0.000    0.000 
#    0.000    0.000    0.000    0.000    0.000    0.000 
#
# Total GULP energy -347239.483778 kJ/mol
# GULP energy per Si atom -12401.410135 kJ/mol
# Density = 1.969633 g / cm^3
# Si number density = 19.741264 Si / 1000 Ang^3
#
#
#
# Elastic Constant Matrix: (Units=GPa)
#
#
# Indices 1 2 3 4 5 6 
#
# 1 55.3891 18.0644 23.4827 0.0000 8.6472 0.0000
# 2 18.0644 63.7328 27.6376 0.0000 4.1134 0.0000
# 3 23.4827 27.6376 94.6377 0.0000 19.1931 0.0000
# 4 0.0000 0.0000 0.0000 19.6469 0.0000 -9.9310
# 5 8.6472 4.1134 19.1931 0.0000 31.8581 0.0000
# 6 0.0000 0.0000 0.0000 -9.9310 0.0000 14.4402
#
#
#
# Elastic Compliance Matrix: (Units=1/GPa)
#
#
# Indices 1 2 3 4 5 6 
#
# 1 0.021423 -0.004399 -0.003380 0.000000 -0.003211 0.000000
# 2 -0.004399 0.018895 -0.004755 0.000000 0.001619 0.000000
# 3 -0.003380 -0.004755 0.014221 0.000000 -0.007036 0.000000
# 4 0.000000 0.000000 0.000000 0.078021 0.000000 0.053658
# 5 -0.003211 0.001619 -0.007036 0.000000 0.036291 0.000000
# 6 0.000000 0.000000 0.000000 0.053658 0.000000 0.106153
#
#
# Mechanical properties :
#
#
# Convention : Reuss Voigt Hill
#
# Bulk Modulus (GPa) = 33.93172 39.12544 36.52858
# Shear Modulus (GPa) = 16.13452 22.82736 19.48094
#
# Velocity S-wave (km/s) = 2.86195 3.40417 3.14477
# Velocity P-wave (km/s) = 5.30533 5.94250 5.63293
#
# Compressibility (1/GPa) = 0.02947095
#
# Stress axis : x y z
#
# Youngs Moduli (GPa) = 46.67882 52.92459 70.31963
#
# Poissons Ratio (x) = 0.23283 0.23767
# Poissons Ratio (y) = 0.20535 0.33435
# Poissons Ratio (z) = 0.15777 0.25164
#
# Static dielectric constant tensor:
#      x y z
#    x 3.738020 0.000000 -0.098210 
#    y 0.000000 3.460000 0.000000 
#    z -0.098210 0.000000 3.674710 
# 
# 
# High freq. dielectric constant tensor:
#      x y z
#    x 1.771890 0.000000 0.005430 
#    y 0.000000 1.759000 0.000000 
#    z 0.005430 0.000000 1.769840 
# 
# From -- ./inp_files/359657.got.cif
#   From: 2010.06.25/outbox.cif.g09.slc.cpg/sg12_180_cif.got.tgz:359657.got - 2010.06.28 00:19:55.
