data_PCOD8102955
_publ_section_title
;
Structure prediction by ZEFSAII (Michael W. Deem and Ramdas Pophale) SiO2 
 PCOD8102955
Probable space group: C 2/M
;
_chemical_formula_sum "Si O2"
_cell_formula_units_Z 48
_cell_length_a 15.404011
_cell_length_b 9.014358
_cell_length_c 28.252935
_cell_angle_alpha 90.000000
_cell_angle_beta 142.365357
_cell_angle_gamma 90.000000
_cell_volume 2395.554919
_symmetry_space_group_name_H-M "C 2/M"
_symmetry_group_IT_number 12
_symmetry_cell_setting 'monoclinic'
loop_
_space_group_symop_operation_xyz
x,y,z
-x,y,-z
-x,-y,-z
x,-y,z
1/2+x,1/2+y,z
1/2-x,1/2+y,-z
1/2-x,1/2-y,-z
1/2+x,1/2-y,z
loop_
_atom_site_type_symbol
_atom_site_label
_atom_site_fract_x
_atom_site_fract_y
_atom_site_fract_z
Si Si1 0.161535 0.828342 0.666611
Si Si2 0.595803 0.163642 0.994756
Si Si3 0.845767 0.176824 0.161197
Si Si4 0.885065 0.675998 0.581710
Si Si5 0.387631 0.828770 0.690805
Si Si6 0.838487 0.675917 0.831241
O O1 0.228975 0.805391 0.643632
O O2 0.283564 0.776321 0.756151
O O3 0.023281 0.727567 0.612492
O O4 0.119182 0.000000 0.657108
O O5 0.496834 0.244262 0.911837
O O6 0.634778 0.000000 0.993251
O O7 0.500000 0.151921 0.000000
O O8 0.746662 0.239746 0.074808
O O9 0.777309 0.232204 0.180967
O O10 0.003074 0.243525 0.227709
O O11 0.853995 0.000000 0.162289
O O12 0.870537 0.500000 0.572445
O O13 0.750000 0.750000 0.500000
O O14 0.891924 0.731414 0.639046
O O15 0.430491 0.000000 0.710782
O O16 0.853632 0.500000 0.842555
#
# Coordination Sequence:
#
# PCOD8102955 Si02
#       6
#     8   8   8   8   8   8
#     4  10  20  37  60  84 110 145 184 219 263 323
#     4   7  11  20  40  74 106 134 181 233 263 290
#     4   9  15  27  51  78 105 143 190 230 259 304
#     4  11  24  42  62  84 110 140 173 218 273 328
#     4  10  22  37  55  82 116 145 172 219 280 326
#     4   8  13  25  49  77 104 140 186 227 259 304
#
# _framework density 20.037112
#
# number of rings (size 3 to 8) (size 9 to 14) (size 15 to 20)
#    0.000    2.833    1.667    2.500    0.000    2.000 
#    0.000    4.167    0.000    5.500    0.000    0.000 
#    0.000    0.000    0.000    0.000    0.000    0.000 
#
# Total GULP energy -297318.814055 kJ/mol
# GULP energy per Si atom -12388.283919 kJ/mol
# Density = 1.999151 g / cm^3
# Si number density = 20.037112 Si / 1000 Ang^3
#
#
#
# Elastic Constant Matrix: (Units=GPa)
#
#
# Indices 1 2 3 4 5 6 
#
# 1 75.9763 23.0926 38.1439 0.0000 17.0325 0.0000
# 2 23.0926 40.0904 39.6741 0.0000 9.1893 0.0000
# 3 38.1439 39.6741 143.2149 0.0000 24.9608 0.0000
# 4 0.0000 0.0000 0.0000 23.6825 0.0000 5.8242
# 5 17.0325 9.1893 24.9608 0.0000 15.3637 0.0000
# 6 0.0000 0.0000 0.0000 5.8242 0.0000 22.3251
#
#
#
# Elastic Compliance Matrix: (Units=1/GPa)
#
#
# Indices 1 2 3 4 5 6 
#
# 1 0.019135 -0.006938 -0.000279 0.000000 -0.016609 0.000000
# 2 -0.006938 0.037444 -0.008317 0.000000 -0.001191 0.000000
# 3 -0.000279 -0.008317 0.011774 0.000000 -0.013844 0.000000
# 4 0.000000 0.000000 0.000000 0.045120 0.000000 -0.011771
# 5 -0.016609 -0.001191 -0.013844 0.000000 0.106706 0.000000
# 6 0.000000 0.000000 0.000000 -0.011771 0.000000 0.047864
#
#
# Mechanical properties :
#
#
# Convention : Reuss Voigt Hill
#
# Bulk Modulus (GPa) = 26.82218 51.23362 39.02790
# Shear Modulus (GPa) = 16.04932 22.83232 19.44082
#
# Velocity S-wave (km/s) = 2.83323 3.37931 3.11825
# Velocity P-wave (km/s) = 4.91103 6.39150 5.69954
#
# Compressibility (1/GPa) = 0.03728257
#
# Stress axis : x y z
#
# Youngs Moduli (GPa) = 52.26139 26.70640 84.93330
#
# Poissons Ratio (x) = 0.18529 0.02374
# Poissons Ratio (y) = 0.36260 0.70643
# Poissons Ratio (z) = 0.01461 0.22213
#
# Static dielectric constant tensor:
#      x y z
#    x 3.485480 0.000000 0.024130 
#    y 0.000000 3.137700 0.000000 
#    z 0.024130 0.000000 4.017880 
# 
# 
# High freq. dielectric constant tensor:
#      x y z
#    x 1.764460 0.000000 0.005270 
#    y 0.000000 1.731440 0.000000 
#    z 0.005270 0.000000 1.797740 
# 
# From -- ./inp_files/360312.got.cif
#   From: 2010.06.25/outbox.cif.g09.slc.cpg/sg12_181_cif.got.tgz:360312.got - 2010.06.28 00:19:55.
