data_PCOD8102388
_publ_section_title
;
Structure prediction by ZEFSAII (Michael W. Deem and Ramdas Pophale) SiO2 
 PCOD8102388
Probable space group: C 2/M
;
_chemical_formula_sum "Si O2"
_cell_formula_units_Z 56
_cell_length_a 21.428645
_cell_length_b 14.283078
_cell_length_c 9.375980
_cell_angle_alpha 90.000000
_cell_angle_beta 89.556847
_cell_angle_gamma 90.000000
_cell_volume 2869.592311
_symmetry_space_group_name_H-M "C 2/M"
_symmetry_group_IT_number 12
_symmetry_cell_setting 'monoclinic'
loop_
_space_group_symop_operation_xyz
x,y,z
-x,y,-z
-x,-y,-z
x,-y,z
1/2+x,1/2+y,z
1/2-x,1/2+y,-z
1/2-x,1/2-y,-z
1/2+x,1/2-y,z
loop_
_atom_site_type_symbol
_atom_site_label
_atom_site_fract_x
_atom_site_fract_y
_atom_site_fract_z
Si Si1 0.885899 0.107151 0.260791
Si Si2 0.381354 0.109171 0.250998
Si Si3 0.755068 0.394144 0.692241
Si Si4 0.745284 0.391866 0.370499
Si Si5 0.572093 0.748131 0.968725
Si Si6 0.571501 0.246367 0.523703
Si Si7 0.149818 0.752871 0.247910
O O1 0.812078 0.111786 0.231363
O O2 0.922700 0.157820 0.133168
O O3 0.898577 0.160295 0.408707
O O4 0.908905 0.000000 0.272702
O O5 0.308566 0.126297 0.282837
O O6 0.398202 0.159191 0.102392
O O7 0.421804 0.155714 0.375756
O O8 0.398227 0.000000 0.241307
O O9 0.780267 0.500000 0.688871
O O10 0.752316 0.352330 0.531351
O O11 0.803013 0.332865 0.783308
O O12 0.727508 0.500000 0.381133
O O13 0.689150 0.344229 0.287274
O O14 0.500000 0.768116 0.000000
O O15 0.609053 0.724599 0.111130
O O16 0.500000 0.268386 0.500000
O O17 0.603685 0.222912 0.374418
#
# Coordination Sequence:
#
# PCOD8102388 Si02
#       7
#     8   8   8   8   8   8   8
#     4  10  22  42  63  85 121 161 197 247 305 354
#     4  10  22  42  63  85 121 161 197 247 305 354
#     4  10  20  36  62  96 124 148 191 251 311 363
#     4  10  20  36  62  96 124 148 191 251 311 363
#     4  11  26  44  58  85 125 167 207 243 288 356
#     4  11  22  37  60  90 118 155 210 252 286 351
#     4  12  21  36  64  89 121 160 197 247 308 347
#
# _framework density 19.514966999999999
#
# number of rings (size 3 to 8) (size 9 to 14) (size 15 to 20)
#    0.000    1.429    2.857    3.857    0.000    4.571 
#    0.000    5.714    0.000    0.000    0.000    0.000 
#    0.000    0.000    0.000    0.000    0.000    0.000 
#
# Total GULP energy -347328.752408 kJ/mol
# GULP energy per Si atom -12404.598300 kJ/mol
# Density = 1.947055 g / cm^3
# Si number density = 19.514967 Si / 1000 Ang^3
#
#
#
# Elastic Constant Matrix: (Units=GPa)
#
#
# Indices 1 2 3 4 5 6 
#
# 1 86.7377 17.0598 12.5053 0.0000 -2.7631 0.0000
# 2 17.0598 99.3480 13.5465 0.0000 0.1959 0.0000
# 3 12.5053 13.5465 72.8447 0.0000 -4.7259 0.0000
# 4 0.0000 0.0000 0.0000 19.4282 0.0000 -9.2508
# 5 -2.7631 0.1959 -4.7259 0.0000 27.5948 0.0000
# 6 0.0000 0.0000 0.0000 -9.2508 0.0000 17.7621
#
#
#
# Elastic Compliance Matrix: (Units=1/GPa)
#
#
# Indices 1 2 3 4 5 6 
#
# 1 0.012168 -0.001862 -0.001681 0.000000 0.000944 0.000000
# 2 -0.001862 0.010617 -0.001690 0.000000 -0.000551 0.000000
# 3 -0.001681 -0.001690 0.014482 0.000000 0.002324 0.000000
# 4 0.000000 0.000000 0.000000 0.068445 0.000000 0.035647
# 5 0.000944 -0.000551 0.002324 0.000000 0.036735 0.000000
# 6 0.000000 0.000000 0.000000 0.035647 0.000000 0.074865
#
#
# Mechanical properties :
#
#
# Convention : Reuss Voigt Hill
#
# Bulk Modulus (GPa) = 37.31542 38.35039 37.83291
# Shear Modulus (GPa) = 21.12268 27.34493 24.23380
#
# Velocity S-wave (km/s) = 3.29353 3.74736 3.52775
# Velocity P-wave (km/s) = 5.79880 6.19823 6.00184
#
# Compressibility (1/GPa) = 0.02679857
#
# Stress axis : x y z
#
# Youngs Moduli (GPa) = 82.18472 94.18894 69.05315
#
# Poissons Ratio (x) = 0.17538 0.11610
# Poissons Ratio (y) = 0.15303 0.11673
# Poissons Ratio (z) = 0.13818 0.15922
#
# Static dielectric constant tensor:
#      x y z
#    x 3.542950 0.000000 -0.107200 
#    y 0.000000 3.665830 0.000000 
#    z -0.107200 0.000000 3.498780 
# 
# 
# High freq. dielectric constant tensor:
#      x y z
#    x 1.763470 0.000000 -0.010620 
#    y 0.000000 1.766160 0.000000 
#    z -0.010620 0.000000 1.751010 
# 
# From -- ./inp_files/86330.got.cif
#   From: 2010.06.25/outbox.cif.g09.slc.cpg/sg12_44_cif.got.tgz:86330.got - 2010.06.28 00:19:55.
