data_PCOD8102104
_publ_section_title
;
Structure prediction by ZEFSAII (Michael W. Deem and Ramdas Pophale) SiO2 
 PCOD8102104
Probable space group: C 2/M
;
_chemical_formula_sum "Si O2"
_cell_formula_units_Z 64
_cell_length_a 8.385272
_cell_length_b 19.277685
_cell_length_c 22.915408
_cell_angle_alpha 90.000000
_cell_angle_beta 56.849095
_cell_angle_gamma 90.000000
_cell_volume 3101.316346
_symmetry_space_group_name_H-M "C 2/M"
_symmetry_group_IT_number 12
_symmetry_cell_setting 'monoclinic'
loop_
_space_group_symop_operation_xyz
x,y,z
-x,y,-z
-x,-y,-z
x,-y,z
1/2+x,1/2+y,z
1/2-x,1/2+y,-z
1/2-x,1/2-y,-z
1/2+x,1/2-y,z
loop_
_atom_site_type_symbol
_atom_site_label
_atom_site_fract_x
_atom_site_fract_y
_atom_site_fract_z
Si Si1 0.105717 0.917858 0.920156
Si Si2 0.075109 0.307609 0.320749
Si Si3 0.146031 0.076025 0.711000
Si Si4 0.345516 0.823990 0.480912
Si Si5 0.957759 0.416872 0.154125
Si Si6 0.229858 0.662226 0.704504
Si Si7 0.651984 0.576467 0.132043
Si Si8 0.449975 0.580096 0.403524
O O1 0.324112 0.890065 0.881384
O O2 0.979747 0.885140 0.891076
O O3 0.118727 0.000000 0.909892
O O4 0.000000 0.895331 0.000000
O O5 0.241724 0.362812 0.280263
O O6 0.136910 0.228474 0.312283
O O7 0.945772 0.334617 0.399435
O O8 0.963331 0.309812 0.283273
O O9 0.119434 0.094016 0.648604
O O10 0.949017 0.073207 0.784888
O O11 0.246862 0.000000 0.696478
O O12 0.500000 0.829401 0.500000
O O13 0.250000 0.750000 0.500000
O O14 0.187730 0.883156 0.522435
O O15 0.946347 0.500000 0.164782
O O16 0.821507 0.379646 0.227685
O O17 0.864727 0.395676 0.108561
O O18 0.338828 0.612587 0.636231
O O19 0.682223 0.500000 0.099528
O O20 0.456552 0.500000 0.419146
#
# Coordination Sequence:
#
# PCOD8102104 Si02
#       8
#     8   8   8   8   8   8   8   8
#     4   9  18  32  52  89 135 168 200 245 299 367
#     4  12  25  39  61  86 116 156 199 252 312 376
#     4  10  20  38  61  89 118 150 196 252 311 364
#     4  12  24  41  61  81 113 157 200 247 309 375
#     4  10  20  36  60  89 121 163 209 255 311 365
#     4  12  24  40  60  87 119 154 204 259 311 362
#     4   9  17  31  56  84 120 162 197 247 307 356
#     4  11  23  40  62  85 116 155 200 257 312 367
#
# _framework density 20.636399000000001
#
# number of rings (size 3 to 8) (size 9 to 14) (size 15 to 20)
#    0.000    1.375    3.750    2.625    0.000    3.250 
#    0.000    3.125    0.000    0.000    0.000    3.500 
#    0.000    0.000    0.000    0.000    0.000    0.000 
#
# Total GULP energy -396465.600180 kJ/mol
# GULP energy per Si atom -12389.550006 kJ/mol
# Density = 2.058943 g / cm^3
# Si number density = 20.636399 Si / 1000 Ang^3
#
#
#
# Elastic Constant Matrix: (Units=GPa)
#
#
# Indices 1 2 3 4 5 6 
#
# 1 133.1174 23.7435 23.8208 0.0000 1.9060 0.0000
# 2 23.7435 94.6832 17.8325 0.0000 -8.4349 0.0000
# 3 23.8208 17.8325 73.8231 0.0000 0.7483 0.0000
# 4 0.0000 0.0000 0.0000 17.7504 0.0000 -0.9474
# 5 1.9060 -8.4349 0.7483 0.0000 27.2924 0.0000
# 6 0.0000 0.0000 0.0000 -0.9474 0.0000 23.9475
#
#
#
# Elastic Compliance Matrix: (Units=1/GPa)
#
#
# Indices 1 2 3 4 5 6 
#
# 1 0.008236 -0.001740 -0.002227 0.000000 -0.001052 0.000000
# 2 -0.001740 0.011776 -0.002322 0.000000 0.003825 0.000000
# 3 -0.002227 -0.002322 0.014835 0.000000 -0.000969 0.000000
# 4 0.000000 0.000000 0.000000 0.056456 0.000000 0.002234
# 5 -0.001052 0.003825 -0.000969 0.000000 0.037922 0.000000
# 6 0.000000 0.000000 0.000000 0.002234 0.000000 0.041846
#
#
# Mechanical properties :
#
#
# Convention : Reuss Voigt Hill
#
# Bulk Modulus (GPa) = 44.90277 48.04638 46.47458
# Shear Modulus (GPa) = 26.16824 29.54653 27.85739
#
# Velocity S-wave (km/s) = 3.56485 3.78798 3.67811
# Velocity P-wave (km/s) = 6.22499 6.51648 6.37240
#
# Compressibility (1/GPa) = 0.02227034
#
# Stress axis : x y z
#
# Youngs Moduli (GPa) = 121.41866 84.91986 67.40780
#
# Poissons Ratio (x) = 0.14773 0.15009
# Poissons Ratio (y) = 0.21123 0.15652
# Poissons Ratio (z) = 0.27036 0.19718
#
# Static dielectric constant tensor:
#      x y z
#    x 4.133980 0.000000 -0.125960 
#    y 0.000000 3.514580 0.000000 
#    z -0.125960 0.000000 3.646740 
# 
# 
# High freq. dielectric constant tensor:
#      x y z
#    x 1.827200 0.000000 -0.004240 
#    y 0.000000 1.775910 0.000000 
#    z -0.004240 0.000000 1.793650 
# 
# From -- ./inp_files/333710.got.cif
#   From: 2010.06.25/outbox.cif.g09.slc.cpg/sg12_167_cif.got.tgz:333710.got - 2010.06.28 00:19:55.
