data_PCOD8102434
_publ_section_title
;
Structure prediction by ZEFSAII (Michael W. Deem and Ramdas Pophale) SiO2 
 PCOD8102434
Probable space group: C 2/M
;
_chemical_formula_sum "Si O2"
_cell_formula_units_Z 64
_cell_length_a 20.802608
_cell_length_b 28.109643
_cell_length_c 14.455643
_cell_angle_alpha 90.000000
_cell_angle_beta 21.326790
_cell_angle_gamma 90.000000
_cell_volume 3074.242330
_symmetry_space_group_name_H-M "C 2/M"
_symmetry_group_IT_number 12
_symmetry_cell_setting 'monoclinic'
loop_
_space_group_symop_operation_xyz
x,y,z
-x,y,-z
-x,-y,-z
x,-y,z
1/2+x,1/2+y,z
1/2-x,1/2+y,-z
1/2-x,1/2-y,-z
1/2+x,1/2-y,z
loop_
_atom_site_type_symbol
_atom_site_label
_atom_site_fract_x
_atom_site_fract_y
_atom_site_fract_z
Si Si1 0.598408 0.946810 0.961832
Si Si2 0.340015 0.368084 0.589728
Si Si3 0.748061 0.664881 0.483086
Si Si4 0.358233 0.309946 0.023041
Si Si5 0.198672 0.117314 0.738641
Si Si6 0.873673 0.702108 0.010747
Si Si7 0.758064 0.860735 0.973574
Si Si8 0.004059 0.445147 0.292413
O O1 0.765520 0.912171 0.748800
O O2 0.671659 0.000000 0.853294
O O3 0.500000 0.931292 0.000000
O O4 0.478300 0.941579 0.214842
O O5 0.285368 0.372576 0.555288
O O6 0.251840 0.319684 0.743014
O O7 0.548008 0.367089 0.328821
O O8 0.774531 0.635570 0.540461
O O9 0.569717 0.695569 0.730249
O O10 0.920330 0.697812 0.234776
O O11 0.296846 0.338944 0.195693
O O12 0.298202 0.255463 0.106146
O O13 0.265718 0.336991 0.063409
O O14 0.331077 0.073323 0.581077
O O15 0.000000 0.096794 0.000000
O O16 0.854151 0.674611 0.940021
O O17 0.669281 0.912630 0.101759
O O18 0.039601 0.500000 0.273331
#
# Coordination Sequence:
#
# PCOD8102434 Si02
#       8
#     8   8   8   8   8   8   8   8
#     4  10  20  36  63  95 123 158 204 255 321 382
#     4  11  22  37  60  92 130 161 199 254 317 374
#     4  10  21  39  64  90 129 161 205 264 315 361
#     4  10  25  40  61  89 122 170 214 256 310 359
#     4  10  21  42  64  91 123 157 210 266 307 367
#     4  12  21  39  63  90 124 167 208 255 310 377
#     4  11  24  43  57  89 130 163 205 259 303 374
#     4  11  23  42  67  91 123 168 207 260 322 372
#
# _framework density 20.818138000000001
#
# number of rings (size 3 to 8) (size 9 to 14) (size 15 to 20)
#    0.000    1.375    2.500    3.000    0.000    6.250 
#    4.500    2.500    0.000    4.500    0.000    0.000 
#    0.000    0.000    0.000    0.000    0.000    0.000 
#
# Total GULP energy -396705.358393 kJ/mol
# GULP energy per Si atom -12397.042450 kJ/mol
# Density = 2.077076 g / cm^3
# Si number density = 20.818138 Si / 1000 Ang^3
#
#
#
# Elastic Constant Matrix: (Units=GPa)
#
#
# Indices 1 2 3 4 5 6 
#
# 1 66.1343 35.9912 35.1268 -0.0846 -11.1948 0.0206
# 2 35.9912 160.2625 73.8399 -0.2004 -5.1560 -0.0231
# 3 35.1268 73.8399 125.3976 -0.5022 -0.6821 -0.1563
# 4 -0.0846 -0.2004 -0.5022 22.3559 -0.0619 0.9974
# 5 -11.1948 -5.1560 -0.6821 -0.0619 25.3592 0.0345
# 6 0.0206 -0.0231 -0.1563 0.9974 0.0345 25.3185
#
#
#
# Elastic Compliance Matrix: (Units=1/GPa)
#
#
# Indices 1 2 3 4 5 6 
#
# 1 0.019998 -0.002285 -0.004211 -0.000014 0.008250 -0.000055
# 2 -0.002285 0.008890 -0.004591 -0.000029 0.000675 -0.000018
# 3 -0.004211 -0.004591 0.011845 0.000199 -0.002474 0.000068
# 4 -0.000014 -0.000029 0.000199 0.044814 0.000105 -0.001764
# 5 0.008250 0.000675 -0.002474 0.000105 0.043146 -0.000084
# 6 -0.000055 -0.000018 0.000068 -0.001764 -0.000084 0.039567
#
#
# Mechanical properties :
#
#
# Convention : Reuss Voigt Hill
#
# Bulk Modulus (GPa) = 53.88689 71.30113 62.59401
# Shear Modulus (GPa) = 25.42951 28.39583 26.91267
#
# Velocity S-wave (km/s) = 3.49880 3.69724 3.59939
# Velocity P-wave (km/s) = 6.50099 7.24913 6.88523
#
# Compressibility (1/GPa) = 0.01855739
#
# Stress axis : x y z
#
# Youngs Moduli (GPa) = 50.00548 112.48596 84.42195
#
# Poissons Ratio (x) = 0.25706 0.35554
# Poissons Ratio (y) = 0.11428 0.38759
# Poissons Ratio (z) = 0.21059 0.51644
#
# Static dielectric constant tensor:
#      x y z
#    x 3.806270 -0.000570 0.030960 
#    y -0.000570 3.676580 0.001030 
#    z 0.030960 0.001030 3.806450 
# 
# 
# High freq. dielectric constant tensor:
#      x y z
#    x 1.817100 -0.000040 0.004530 
#    y -0.000040 1.806290 0.000090 
#    z 0.004530 0.000090 1.817320 
# 
# From -- ./inp_files/235971.got.cif
#   From: 2010.06.25/outbox.cif.g09.slc.cpg/sg12_118_cif.got.tgz:235971.got - 2010.06.28 00:19:55.
