data_PCOD8102733
_publ_section_title
;
Structure prediction by ZEFSAII (Michael W. Deem and Ramdas Pophale) SiO2 
 PCOD8102733
Probable space group: C 2/M
;
_chemical_formula_sum "Si O2"
_cell_formula_units_Z 40
_cell_length_a 27.684990
_cell_length_b 16.435331
_cell_length_c 8.161488
_cell_angle_alpha 90.000000
_cell_angle_beta 31.312097
_cell_angle_gamma 90.000000
_cell_volume 1929.942967
_symmetry_space_group_name_H-M "C 2/M"
_symmetry_group_IT_number 12
_symmetry_cell_setting 'monoclinic'
loop_
_space_group_symop_operation_xyz
x,y,z
-x,y,-z
-x,-y,-z
x,-y,z
1/2+x,1/2+y,z
1/2-x,1/2+y,-z
1/2-x,1/2-y,-z
1/2+x,1/2-y,z
loop_
_atom_site_type_symbol
_atom_site_label
_atom_site_fract_x
_atom_site_fract_y
_atom_site_fract_z
Si Si1 0.104679 0.641211 0.515834
Si Si2 0.910240 0.203848 0.648151
Si Si3 0.284366 0.798901 0.245854
Si Si4 0.791468 0.906616 0.791249
Si Si5 0.404249 0.091284 0.104579
O O1 0.072823 0.729762 0.543296
O O2 0.127159 0.643855 0.644848
O O3 0.190865 0.604872 0.166841
O O4 0.014934 0.583448 0.758544
O O5 0.876135 0.120012 0.664188
O O6 0.000000 0.187697 0.500000
O O7 0.824494 0.232867 0.005796
O O8 0.250000 0.750000 0.500000
O O9 0.204218 0.850324 0.384660
O O10 0.362911 0.864262 0.066205
O O11 0.806929 0.000000 0.698805
O O12 0.363659 0.000000 0.236983
#
# Coordination Sequence:
#
# PCOD8102733 Si02
#       5
#     8   8   8   8   8
#     4  10  20  37  58  89 121 157 194 237 295 359
#     4  11  22  41  60  84 117 160 203 238 289 354
#     4  11  22  39  60  88 118 156 199 241 294 358
#     4  11  23  39  61  86 119 155 199 248 293 346
#     4  11  20  33  59  92 126 152 187 246 305 349
#
# _framework density 20.726001
#
# number of rings (size 3 to 8) (size 9 to 14) (size 15 to 20)
#    0.000    1.200    2.000    7.800    0.000    0.400 
#    0.000    4.000    0.000    1.200    0.000    0.000 
#    0.000    0.000    0.000    0.000    0.000    0.000 
#
# Total GULP energy -247982.164983 kJ/mol
# GULP energy per Si atom -12399.108249 kJ/mol
# Density = 2.067883 g / cm^3
# Si number density = 20.726001 Si / 1000 Ang^3
#
#
#
# Elastic Constant Matrix: (Units=GPa)
#
#
# Indices 1 2 3 4 5 6 
#
# 1 122.6090 67.9019 16.6912 0.0000 -5.1947 0.0000
# 2 67.9019 117.3952 40.4681 0.0000 -1.6035 0.0000
# 3 16.6912 40.4681 45.1917 0.0000 10.8696 0.0000
# 4 0.0000 0.0000 0.0000 22.1688 0.0000 -5.6649
# 5 -5.1947 -1.6035 10.8696 0.0000 30.3502 0.0000
# 6 0.0000 0.0000 0.0000 -5.6649 0.0000 22.6357
#
#
#
# Elastic Compliance Matrix: (Units=1/GPa)
#
#
# Indices 1 2 3 4 5 6 
#
# 1 0.012230 -0.007862 0.002319 0.000000 0.000847 0.000000
# 2 -0.007862 0.018122 -0.014478 0.000000 0.004797 0.000000
# 3 0.002319 -0.014478 0.037560 0.000000 -0.013819 0.000000
# 4 0.000000 0.000000 0.000000 0.048190 0.000000 0.012060
# 5 0.000847 0.004797 -0.013819 0.000000 0.038296 0.000000
# 6 0.000000 0.000000 0.000000 0.012060 0.000000 0.047196
#
#
# Mechanical properties :
#
#
# Convention : Reuss Voigt Hill
#
# Bulk Modulus (GPa) = 35.87966 59.47981 47.67974
# Shear Modulus (GPa) = 19.92623 25.70657 22.81640
#
# Velocity S-wave (km/s) = 3.10403 3.52562 3.32152
# Velocity P-wave (km/s) = 5.49506 6.73304 6.14530
#
# Compressibility (1/GPa) = 0.02787094
#
# Stress axis : x y z
#
# Youngs Moduli (GPa) = 81.76511 55.18229 26.62436
#
# Poissons Ratio (x) = 0.43384 -0.06175
# Poissons Ratio (y) = 0.64283 0.38546
# Poissons Ratio (z) = -0.18963 0.79891
#
# Static dielectric constant tensor:
#      x y z
#    x 4.115470 0.000000 0.107940 
#    y 0.000000 3.612670 0.000000 
#    z 0.107940 0.000000 3.466230 
# 
# 
# High freq. dielectric constant tensor:
#      x y z
#    x 1.831220 0.000000 0.005020 
#    y 0.000000 1.803930 0.000000 
#    z 0.005020 0.000000 1.783350 
# 
# From -- ./inp_files/61371.got.cif
#   From: 2010.06.25/outbox.cif.g09.slc.cpg/sg12_31_cif.got.tgz:61371.got - 2010.06.28 00:19:55.
