data_PCOD8102355
_publ_section_title
;
Structure prediction by ZEFSAII (Michael W. Deem and Ramdas Pophale) SiO2 
 PCOD8102355
Probable space group: C 2/M
;
_chemical_formula_sum "Si O2"
_cell_formula_units_Z 56
_cell_length_a 30.938146
_cell_length_b 8.693270
_cell_length_c 11.763505
_cell_angle_alpha 90.000000
_cell_angle_beta 63.231452
_cell_angle_gamma 90.000000
_cell_volume 2824.779288
_symmetry_space_group_name_H-M "C 2/M"
_symmetry_group_IT_number 12
_symmetry_cell_setting 'monoclinic'
loop_
_space_group_symop_operation_xyz
x,y,z
-x,y,-z
-x,-y,-z
x,-y,z
1/2+x,1/2+y,z
1/2-x,1/2+y,-z
1/2-x,1/2-y,-z
1/2+x,1/2-y,z
loop_
_atom_site_type_symbol
_atom_site_label
_atom_site_fract_x
_atom_site_fract_y
_atom_site_fract_z
Si Si1 0.369255 0.820995 0.556106
Si Si2 0.709753 0.678316 0.202254
Si Si3 0.978517 0.320787 0.808765
Si Si4 0.417668 0.677510 0.291713
Si Si5 0.809142 0.179388 0.031972
Si Si6 0.551864 0.675545 0.382052
Si Si7 0.904851 0.822422 0.049324
O O1 0.317682 0.774368 0.668968
O O2 0.377296 0.729441 0.429395
O O3 0.411220 0.783015 0.595580
O O4 0.369603 0.000000 0.528082
O O5 0.704580 0.500000 0.237521
O O6 0.765798 0.724374 0.138435
O O7 0.686337 0.716527 0.107167
O O8 0.974509 0.500000 0.787921
O O9 0.950391 0.227257 0.745121
O O10 0.034407 0.276980 0.747903
O O11 0.951551 0.277189 0.957793
O O12 0.431372 0.500000 0.296381
O O13 0.395479 0.704700 0.193572
O O14 0.857900 0.233830 0.036034
O O15 0.798576 0.000000 0.064680
O O16 0.500000 0.694497 0.500000
O O17 0.570484 0.500000 0.365398
O O18 0.916345 0.000000 0.009885
#
# Coordination Sequence:
#
# PCOD8102355 Si02
#       7
#     8   8   8   8   8   8   8
#     4  12  24  38  59  87 120 154 193 241 294 347
#     4  10  20  36  62  91 120 152 186 230 291 357
#     4  12  24  37  58  87 119 154 195 243 293 345
#     4  11  23  40  59  81 114 158 203 242 287 346
#     4   9  19  38  62  89 117 145 187 241 291 339
#     4  11  22  37  59  83 114 153 191 235 285 343
#     4  10  22  40  62  84 113 156 201 243 289 346
#
# _framework density 19.824556999999999
#
# number of rings (size 3 to 8) (size 9 to 14) (size 15 to 20)
#    0.000    1.286    1.429    5.143    0.000    5.714 
#    0.000    0.714    0.000    0.000    0.000    0.000 
#    0.000    0.000    0.000    0.000    0.000    0.000 
#
# Total GULP energy -347401.760243 kJ/mol
# GULP energy per Si atom -12407.205723 kJ/mol
# Density = 1.977944 g / cm^3
# Si number density = 19.824557 Si / 1000 Ang^3
#
#
#
# Elastic Constant Matrix: (Units=GPa)
#
#
# Indices 1 2 3 4 5 6 
#
# 1 56.2062 20.9812 36.7056 0.0000 1.2918 0.0000
# 2 20.9812 64.5895 34.4968 0.0000 -3.9653 0.0000
# 3 36.7056 34.4968 123.5949 0.0000 -1.8962 0.0000
# 4 0.0000 0.0000 0.0000 30.6869 0.0000 -7.2498
# 5 1.2918 -3.9653 -1.8962 0.0000 24.7765 0.0000
# 6 0.0000 0.0000 0.0000 -7.2498 0.0000 26.7846
#
#
#
# Elastic Compliance Matrix: (Units=1/GPa)
#
#
# Indices 1 2 3 4 5 6 
#
# 1 0.023284 -0.004698 -0.005640 0.000000 -0.002398 0.000000
# 2 -0.004698 0.019302 -0.003946 0.000000 0.003032 0.000000
# 3 -0.005640 -0.003946 0.010875 0.000000 0.000495 0.000000
# 4 0.000000 0.000000 0.000000 0.034813 0.000000 0.009423
# 5 -0.002398 0.003032 0.000495 0.000000 0.041009 0.000000
# 6 0.000000 0.000000 0.000000 0.009423 0.000000 0.039885
#
#
# Mechanical properties :
#
#
# Convention : Reuss Voigt Hill
#
# Bulk Modulus (GPa) = 40.17282 47.63975 43.90628
# Shear Modulus (GPa) = 24.26776 26.59674 25.43225
#
# Velocity S-wave (km/s) = 3.50255 3.66677 3.58560
# Velocity P-wave (km/s) = 6.05519 6.48149 6.27196
#
# Compressibility (1/GPa) = 0.02489245
#
# Stress axis : x y z
#
# Youngs Moduli (GPa) = 42.94785 51.80802 91.95475
#
# Poissons Ratio (x) = 0.24341 0.51866
# Poissons Ratio (y) = 0.20178 0.36282
# Poissons Ratio (z) = 0.24224 0.20441
#
# Static dielectric constant tensor:
#      x y z
#    x 3.503490 0.000000 0.030800 
#    y 0.000000 3.600450 0.000000 
#    z 0.030800 0.000000 3.765370 
# 
# 
# High freq. dielectric constant tensor:
#      x y z
#    x 1.758760 0.000000 -0.002380 
#    y 0.000000 1.777100 0.000000 
#    z -0.002380 0.000000 1.782970 
# 
# From -- ./inp_files/187261.got.cif
#   From: 2010.06.25/outbox.cif.g09.slc.cpg/sg12_94_cif.got.tgz:187261.got - 2010.06.28 00:19:55.
