data_PCOD8102896
_publ_section_title
;
Structure prediction by ZEFSAII (Michael W. Deem and Ramdas Pophale) SiO2 
 PCOD8102896
Probable space group: C 2/M
;
_chemical_formula_sum "Si O2"
_cell_formula_units_Z 56
_cell_length_a 18.469910
_cell_length_b 9.062722
_cell_length_c 22.679066
_cell_angle_alpha 90.000000
_cell_angle_beta 51.522631
_cell_angle_gamma 90.000000
_cell_volume 2971.866977
_symmetry_space_group_name_H-M "C 2/M"
_symmetry_group_IT_number 12
_symmetry_cell_setting 'monoclinic'
loop_
_space_group_symop_operation_xyz
x,y,z
-x,y,-z
-x,-y,-z
x,-y,z
1/2+x,1/2+y,z
1/2-x,1/2+y,-z
1/2-x,1/2-y,-z
1/2+x,1/2-y,z
loop_
_atom_site_type_symbol
_atom_site_label
_atom_site_fract_x
_atom_site_fract_y
_atom_site_fract_z
Si Si1 0.742054 0.330342 0.942833
Si Si2 0.121474 0.667638 0.228478
Si Si3 0.555735 0.674647 0.642924
Si Si4 0.077965 0.325846 0.507565
Si Si5 0.775395 0.174927 0.362437
Si Si6 0.105403 0.667790 0.928625
Si Si7 0.703926 0.673520 0.780818
O O1 0.718540 0.500000 0.965973
O O2 0.836500 0.313228 0.858009
O O3 0.658027 0.260523 0.950591
O O4 0.750000 0.250000 0.000000
O O5 0.087580 0.500000 0.256013
O O6 0.197657 0.709138 0.238976
O O7 0.035846 0.778143 0.275798
O O8 0.557993 0.500000 0.635195
O O9 0.553564 0.747291 0.580392
O O10 0.644799 0.732106 0.634203
O O11 0.079834 0.500000 0.517662
O O12 0.176667 0.265527 0.434934
O O13 0.000000 0.282420 0.500000
O O14 0.794043 0.233339 0.287017
O O15 0.772689 0.000000 0.361807
O O16 0.141629 0.500000 0.909405
O O17 0.122421 0.739445 0.855718
O O18 0.000000 0.675266 0.000000
O O19 0.682336 0.500000 0.795699
#
# Coordination Sequence:
#
# PCOD8102896 Si02
#       7
#     8   8   8   8   8   8   8
#     4  10  21  37  58  82 109 143 184 230 277 327
#     4   9  19  36  56  77 103 140 182 218 258 316
#     4  11  22  34  52  81 113 139 168 216 270 316
#     4  10  20  37  60  78  99 139 182 216 257 313
#     4   9  19  35  54  79 108 136 172 218 267 319
#     4  10  21  36  54  80 114 147 182 226 273 325
#     4   9  18  36  59  78 100 137 186 229 264 314
#
# _framework density 18.843373
#
# number of rings (size 3 to 8) (size 9 to 14) (size 15 to 20)
#    0.000    2.286    0.000    3.429    0.000    7.714 
#    0.000    5.714    0.000    0.000    0.000    0.000 
#    0.000    0.000    0.000    0.000    0.000    0.000 
#
# Total GULP energy -347260.762287 kJ/mol
# GULP energy per Si atom -12402.170082 kJ/mol
# Density = 1.880048 g / cm^3
# Si number density = 18.843373 Si / 1000 Ang^3
#
#
#
# Elastic Constant Matrix: (Units=GPa)
#
#
# Indices 1 2 3 4 5 6 
#
# 1 116.3819 50.5930 68.3249 0.0000 6.7846 0.0001
# 2 50.5930 82.2619 54.3946 0.0000 2.4623 0.0001
# 3 68.3249 54.3946 119.0428 0.0000 6.5353 0.0000
# 4 0.0000 0.0000 0.0000 33.8039 0.0000 -2.0959
# 5 6.7846 2.4623 6.5353 0.0000 34.8931 0.0000
# 6 0.0001 0.0001 0.0000 -2.0959 0.0000 23.9048
#
#
#
# Elastic Compliance Matrix: (Units=1/GPa)
#
#
# Indices 1 2 3 4 5 6 
#
# 1 0.014219 -0.004810 -0.005890 0.000000 -0.001322 0.000000
# 2 -0.004810 0.019049 -0.005982 0.000000 0.000712 0.000000
# 3 -0.005890 -0.005982 0.014578 0.000000 -0.001163 0.000000
# 4 0.000000 0.000000 0.000000 0.029744 0.000000 0.002608
# 5 -0.001322 0.000712 -0.001163 0.000000 0.029084 0.000000
# 6 0.000000 0.000000 0.000000 0.002608 0.000000 0.042061
#
#
# Mechanical properties :
#
#
# Convention : Reuss Voigt Hill
#
# Bulk Modulus (GPa) = 69.05894 73.81240 71.43567
# Shear Modulus (GPa) = 26.74826 28.14530 27.44678
#
# Velocity S-wave (km/s) = 3.77172 3.86896 3.82065
# Velocity P-wave (km/s) = 7.46300 7.69513 7.57995
#
# Compressibility (1/GPa) = 0.01448038
#
# Stress axis : x y z
#
# Youngs Moduli (GPa) = 70.33035 52.49546 68.59448
#
# Poissons Ratio (x) = 0.25252 0.40404
# Poissons Ratio (y) = 0.33832 0.41036
# Poissons Ratio (z) = 0.41426 0.31405
#
# Static dielectric constant tensor:
#      x y z
#    x 3.472530 0.000000 0.005860 
#    y 0.000000 3.515660 0.000000 
#    z 0.005860 0.000000 3.558900 
# 
# 
# High freq. dielectric constant tensor:
#      x y z
#    x 1.731660 0.000000 0.003800 
#    y 0.000000 1.720940 0.000000 
#    z 0.003800 0.000000 1.745420 
# 
# From -- ./inp_files/342332.got.cif
#   From: 2010.06.25/outbox.cif.g09.slc.cpg/sg12_172_cif.got.tgz:342332.got - 2010.06.28 00:19:55.
