data_PCOD8102753
_publ_section_title
;
Structure prediction by ZEFSAII (Michael W. Deem and Ramdas Pophale) SiO2 
 PCOD8102753
Probable space group: C 2/M
;
_chemical_formula_sum "Si O2"
_cell_formula_units_Z 36
_cell_length_a 18.414364
_cell_length_b 21.830324
_cell_length_c 5.120016
_cell_angle_alpha 90.000000
_cell_angle_beta 59.869397
_cell_angle_gamma 90.000000
_cell_volume 1780.105735
_symmetry_space_group_name_H-M "C 2/M"
_symmetry_group_IT_number 12
_symmetry_cell_setting 'monoclinic'
loop_
_space_group_symop_operation_xyz
x,y,z
-x,y,-z
-x,-y,-z
x,-y,z
1/2+x,1/2+y,z
1/2-x,1/2+y,-z
1/2-x,1/2-y,-z
1/2+x,1/2-y,z
loop_
_atom_site_type_symbol
_atom_site_label
_atom_site_fract_x
_atom_site_fract_y
_atom_site_fract_z
Si Si1 0.680302 0.312744 0.876242
Si Si2 0.362515 0.753629 0.548444
Si Si3 0.233802 0.430941 0.323969
Si Si4 0.876747 0.430792 0.985240
Si Si5 0.000000 0.342718 0.500000
O O1 0.626647 0.280881 0.745433
O O2 0.775707 0.289840 0.712981
O O3 0.685534 0.385950 0.818916
O O4 0.634049 0.297230 0.229477
O O5 0.436934 0.801574 0.447129
O O6 0.265749 0.500000 0.320246
O O7 0.190923 0.425420 0.121177
O O8 0.167370 0.410887 0.665947
O O9 0.912260 0.500000 0.940711
O O10 0.953498 0.385169 0.796185
#
# Coordination Sequence:
#
# PCOD8102753 Si02
#       5
#     8   8   8   8   4
#     4  10  20  40  52  81 105 148 180 242 260 330
#     4  10  23  33  58  75 113 145 189 216 285 308
#     4  10  20  37  59  81 107 147 188 226 273 326
#     4  10  22  35  53  81 117 150 182 219 263 328
#     4  12  23  38  54  86 111 162 180 226 264 346
#
# _framework density 20.223517000000001
#
# number of rings (size 3 to 8) (size 9 to 14) (size 15 to 20)
#    0.000    1.778    2.222    1.667    6.222    3.556 
#    0.000    3.333    0.000    0.000    0.000    4.667 
#    0.000    0.000    0.000    0.000    0.000    0.000 
#
# Total GULP energy -223257.892363 kJ/mol
# GULP energy per Si atom -12403.216242 kJ/mol
# Density = 2.017749 g / cm^3
# Si number density = 20.223517 Si / 1000 Ang^3
#
#
#
# Elastic Constant Matrix: (Units=GPa)
#
#
# Indices 1 2 3 4 5 6 
#
# 1 71.6593 42.4916 28.7099 0.0000 10.9317 0.0000
# 2 42.4916 138.2344 46.1848 0.0000 -6.6263 0.0000
# 3 28.7099 46.1848 64.0193 0.0000 20.2102 0.0000
# 4 0.0000 0.0000 0.0000 34.7169 0.0000 -9.9900
# 5 10.9317 -6.6263 20.2102 0.0000 23.4109 0.0000
# 6 0.0000 0.0000 0.0000 -9.9900 0.0000 23.8593
#
#
#
# Elastic Compliance Matrix: (Units=1/GPa)
#
#
# Indices 1 2 3 4 5 6 
#
# 1 0.019540 -0.006000 -0.001400 0.000000 -0.009614 0.000000
# 2 -0.006000 0.014579 -0.013766 0.000000 0.018812 0.000000
# 3 -0.001400 -0.013766 0.037394 0.000000 -0.035524 0.000000
# 4 0.000000 0.000000 0.000000 0.032750 0.000000 0.013713
# 5 -0.009614 0.018812 -0.035524 0.000000 0.083197 0.000000
# 6 0.000000 0.000000 0.000000 0.013713 0.000000 0.047654
#
#
# Mechanical properties :
#
#
# Convention : Reuss Voigt Hill
#
# Bulk Modulus (GPa) = 34.26708 56.52062 45.39385
# Shear Modulus (GPa) = 17.41119 26.83253 22.12186
#
# Velocity S-wave (km/s) = 2.93736 3.64648 3.31096
# Velocity P-wave (km/s) = 5.33714 6.76296 6.09191
#
# Compressibility (1/GPa) = 0.02918253
#
# Stress axis : x y z
#
# Youngs Moduli (GPa) = 51.17757 68.59009 26.74247
#
# Poissons Ratio (x) = 0.41151 0.03743
# Poissons Ratio (y) = 0.30704 0.36814
# Poissons Ratio (z) = 0.07162 0.94422
#
# Static dielectric constant tensor:
#      x y z
#    x 3.409710 0.000000 0.298240 
#    y 0.000000 4.022980 0.000000 
#    z 0.298240 0.000000 3.670830 
# 
# 
# High freq. dielectric constant tensor:
#      x y z
#    x 1.758300 0.000000 0.037150 
#    y 0.000000 1.798720 0.000000 
#    z 0.037150 0.000000 1.785480 
# 
# From -- ./inp_files/15715.got.cif
#   From: 2010.06.25/outbox.cif.g09.slc.cpg/sg12_8_cif.got.tgz:15715.got - 2010.06.28 00:19:55.
