data_PCOD8102521
_publ_section_title
;
Structure prediction by ZEFSAII (Michael W. Deem and Ramdas Pophale) SiO2 
 PCOD8102521
Probable space group: C 2/M
;
_chemical_formula_sum "Si O2"
_cell_formula_units_Z 64
_cell_length_a 15.912032
_cell_length_b 21.959686
_cell_length_c 14.268715
_cell_angle_alpha 90.000000
_cell_angle_beta 40.735798
_cell_angle_gamma 90.000000
_cell_volume 3253.606579
_symmetry_space_group_name_H-M "C 2/M"
_symmetry_group_IT_number 12
_symmetry_cell_setting 'monoclinic'
loop_
_space_group_symop_operation_xyz
x,y,z
-x,y,-z
-x,-y,-z
x,-y,z
1/2+x,1/2+y,z
1/2-x,1/2+y,-z
1/2-x,1/2-y,-z
1/2+x,1/2-y,z
loop_
_atom_site_type_symbol
_atom_site_label
_atom_site_fract_x
_atom_site_fract_y
_atom_site_fract_z
Si Si1 0.637049 0.571628 0.914092
Si Si2 0.999636 0.241448 0.605642
Si Si3 0.810529 0.426994 0.939271
Si Si4 0.740716 0.930249 0.374075
Si Si5 0.312921 0.641062 0.796021
Si Si6 0.555646 0.432909 0.651044
Si Si7 0.219064 0.859108 0.391316
Si Si8 0.557043 0.860210 0.663689
O O1 0.618689 0.500000 0.925245
O O2 0.691165 0.589673 0.970736
O O3 0.745519 0.590190 0.745689
O O4 0.500000 0.602413 0.000000
O O5 0.119939 0.194258 0.505770
O O6 0.008519 0.294463 0.673355
O O7 0.000000 0.268020 0.500000
O O8 0.861205 0.211108 0.750799
O O9 0.811905 0.500000 0.961758
O O10 0.944431 0.408467 0.778501
O O11 0.799547 0.381852 0.039111
O O12 0.884209 0.922718 0.296747
O O13 0.640320 0.886382 0.508260
O O14 0.693653 0.000000 0.424409
O O15 0.436010 0.607902 0.731692
O O16 0.270619 0.625483 0.726679
O O17 0.501520 0.500000 0.685553
O O18 0.668955 0.421412 0.480290
O O19 0.360777 0.846653 0.312010
#
# Coordination Sequence:
#
# PCOD8102521 Si02
#       8
#     8   8   8   8   8   8   8   8
#     4   9  18  34  54  78 112 150 186 229 280 332
#     4   9  20  38  63  86 103 141 197 247 286 327
#     4  11  24  37  55  85 120 156 190 226 281 351
#     4   9  18  32  53  81 117 149 180 235 294 344
#     4  10  20  37  56  77 113 149 192 237 283 323
#     4   9  16  29  54  85 107 138 191 241 289 338
#     4   9  20  37  55  82 112 149 186 237 287 335
#     4  11  22  36  58  83 117 151 191 228 283 348
#
# _framework density 19.670479
#
# number of rings (size 3 to 8) (size 9 to 14) (size 15 to 20)
#    0.000    2.375    0.000    3.000    1.750    5.000 
#    0.000    2.500    0.000    0.000    0.000    0.000 
#    0.000    0.000    0.000    0.000    0.000    0.000 
#
# Total GULP energy -396447.553050 kJ/mol
# GULP energy per Si atom -12388.986033 kJ/mol
# Density = 1.962571 g / cm^3
# Si number density = 19.670479 Si / 1000 Ang^3
#
#
#
# Elastic Constant Matrix: (Units=GPa)
#
#
# Indices 1 2 3 4 5 6 
#
# 1 -1.9873 -29.6560 8.8216 -0.0117 23.1237 -0.0012
# 2 -29.6560 17.3422 6.6220 -0.0092 16.5590 -0.0075
# 3 8.8216 6.6220 53.7297 -0.0064 10.3693 -0.0059
# 4 -0.0117 -0.0092 -0.0064 21.6036 0.0062 -0.3376
# 5 23.1237 16.5590 10.3693 0.0062 32.6958 0.0014
# 6 -0.0012 -0.0075 -0.0059 -0.3376 0.0014 18.3752
#
#
#
# Elastic Compliance Matrix: (Units=1/GPa)
#
#
# Indices 1 2 3 4 5 6 
#
# 1 -0.004748 -0.022042 0.000739 -0.000016 0.014287 -0.000010
# 2 -0.022042 0.009787 0.000384 -0.000011 0.010511 0.000002
# 3 0.000739 0.000384 0.019793 0.000009 -0.006994 0.000007
# 4 -0.000016 -0.000011 0.000009 0.046302 0.000005 0.000851
# 5 0.014287 0.010511 -0.006994 0.000005 0.017376 0.000002
# 6 -0.000010 0.000002 0.000007 0.000851 0.000002 0.054437
#
#
# Mechanical properties :
#
#
# Convention : Reuss Voigt Hill
#
# Bulk Modulus (GPa) = -58.80336 4.51776 -27.14280
# Shear Modulus (GPa) = 27.91485 20.08805 24.00145
#
# Velocity S-wave (km/s) = 3.77121 3.19913 3.49689
# Velocity P-wave (km/s) = 3.31608 3.99345 1.57341
#
# Compressibility (1/GPa) = -0.01700583
#
# Stress axis : x y z
#
# Youngs Moduli (GPa) = -210.63387 102.17809 50.52331
#
# Poissons Ratio (x) = 2.25223 -0.03733
# Poissons Ratio (y) = -4.64284 -0.01942
# Poissons Ratio (z) = 0.15563 -0.03927
#
# Static dielectric constant tensor:
#      x y z
#    x 3.717970 -0.000010 0.090770 
#    y -0.000010 3.615630 0.000020 
#    z 0.090770 0.000020 3.765910 
# 
# 
# High freq. dielectric constant tensor:
#      x y z
#    x 1.774750 0.000000 0.006330 
#    y 0.000000 1.743750 0.000000 
#    z 0.006330 0.000000 1.757620 
# 
# From -- ./inp_files/218493.got.cif
#   From: 2010.06.25/outbox.cif.g09.slc.cpg/sg12_110_cif.got.tgz:218493.got - 2010.06.28 00:19:55.
