data_PCOD8102795
_publ_section_title
;
Structure prediction by ZEFSAII (Michael W. Deem and Ramdas Pophale) SiO2 
 PCOD8102795
Probable space group: C 2/M
;
_chemical_formula_sum "Si O2"
_cell_formula_units_Z 64
_cell_length_a 19.631364
_cell_length_b 9.173218
_cell_length_c 18.381840
_cell_angle_alpha 90.000000
_cell_angle_beta 90.111370
_cell_angle_gamma 90.000000
_cell_volume 3310.246625
_symmetry_space_group_name_H-M "C 2/M"
_symmetry_group_IT_number 12
_symmetry_cell_setting 'monoclinic'
loop_
_space_group_symop_operation_xyz
x,y,z
-x,y,-z
-x,-y,-z
x,-y,z
1/2+x,1/2+y,z
1/2-x,1/2+y,-z
1/2-x,1/2-y,-z
1/2+x,1/2-y,z
loop_
_atom_site_type_symbol
_atom_site_label
_atom_site_fract_x
_atom_site_fract_y
_atom_site_fract_z
Si Si1 0.943195 0.671221 0.559400
Si Si2 0.252369 0.170510 0.212459
Si Si3 0.929273 0.668531 0.971130
Si Si4 0.101965 0.168369 0.175498
Si Si5 0.999250 0.169243 0.697369
Si Si6 0.820880 0.828223 0.486811
Si Si7 0.653186 0.332974 0.679252
Si Si8 0.202966 0.668201 0.943668
O O1 0.926676 0.500000 0.562462
O O2 0.969763 0.724491 0.636796
O O3 0.874961 0.759724 0.542149
O O4 0.000000 0.707932 0.500000
O O5 0.172537 0.211549 0.215207
O O6 0.289003 0.241900 0.280832
O O7 0.285045 0.229846 0.137337
O O8 0.264460 0.000000 0.219905
O O9 0.938725 0.500000 0.951501
O O10 0.904239 0.744842 0.898599
O O11 0.875462 0.692306 0.035693
O O12 0.000000 0.736314 0.000000
O O13 0.039238 0.205099 0.227923
O O14 0.103466 0.000000 0.153844
O O15 0.078604 0.205029 0.710303
O O16 0.989359 0.000000 0.674007
O O17 0.750000 0.750000 0.500000
O O18 0.846291 0.794848 0.405728
O O19 0.814050 0.000000 0.502178
O O20 0.671596 0.500000 0.692613
O O21 0.224561 0.500000 0.946814
O O22 0.250000 0.750000 0.000000
#
# Coordination Sequence:
#
# PCOD8102795 Si02
#       8
#     8   8   8   8   8   8   8   8
#     4  11  23  40  64  93 120 155 203 249 297 358
#     4  10  22  38  58  85 118 152 194 244 295 348
#     4  10  22  38  58  85 117 152 193 240 292 346
#     4  10  22  40  60  86 116 152 197 241 290 351
#     4  10  22  41  62  86 119 159 199 241 296 355
#     4  11  24  42  64  90 123 159 201 251 301 356
#     4  10  23  41  60  86 119 155 197 240 290 354
#     4  10  20  37  59  83 111 149 192 236 286 344
#
# _framework density 19.333907
#
# number of rings (size 3 to 8) (size 9 to 14) (size 15 to 20)
#    0.000    1.750    2.500    0.750    3.500    3.750 
#    0.000    0.000    0.000    0.000    0.000    0.000 
#    0.000    0.000    0.000    0.000    0.000    0.000 
#
# Total GULP energy -396938.979771 kJ/mol
# GULP energy per Si atom -12404.343118 kJ/mol
# Density = 1.928990 g / cm^3
# Si number density = 19.333907 Si / 1000 Ang^3
#
#
#
# Elastic Constant Matrix: (Units=GPa)
#
#
# Indices 1 2 3 4 5 6 
#
# 1 112.9221 36.2054 19.1066 0.0000 -2.6496 0.0000
# 2 36.2054 60.3707 25.6795 0.0000 3.6467 0.0000
# 3 19.1066 25.6795 52.3712 0.0000 0.8813 0.0000
# 4 0.0000 0.0000 0.0000 31.7024 0.0000 3.0183
# 5 -2.6496 3.6467 0.8813 0.0000 39.5257 0.0000
# 6 0.0000 0.0000 0.0000 3.0183 0.0000 30.7224
#
#
#
# Elastic Compliance Matrix: (Units=1/GPa)
#
#
# Indices 1 2 3 4 5 6 
#
# 1 0.011075 -0.006311 -0.000968 0.000000 0.001346 0.000000
# 2 -0.006311 0.024641 -0.009738 0.000000 -0.002479 0.000000
# 3 -0.000968 -0.009738 0.024218 0.000000 0.000294 0.000000
# 4 0.000000 0.000000 0.000000 0.031841 0.000000 -0.003128
# 5 0.001346 -0.002479 0.000294 0.000000 0.025612 0.000000
# 6 0.000000 0.000000 0.000000 -0.003128 0.000000 0.032857
#
#
# Mechanical properties :
#
#
# Convention : Reuss Voigt Hill
#
# Bulk Modulus (GPa) = 38.61285 43.07191 40.84238
# Shear Modulus (GPa) = 25.91845 30.03490 27.97668
#
# Velocity S-wave (km/s) = 3.66535 3.94570 3.80811
# Velocity P-wave (km/s) = 6.15857 6.56387 6.36445
#
# Compressibility (1/GPa) = 0.02589811
#
# Stress axis : x y z
#
# Youngs Moduli (GPa) = 90.29699 40.58231 41.29168
#
# Poissons Ratio (x) = 0.25611 0.03999
# Poissons Ratio (y) = 0.56986 0.40211
# Poissons Ratio (z) = 0.08745 0.39521
#
# Static dielectric constant tensor:
#      x y z
#    x 3.814800 0.000000 -0.183150 
#    y 0.000000 3.493810 0.000000 
#    z -0.183150 0.000000 3.569400 
# 
# 
# High freq. dielectric constant tensor:
#      x y z
#    x 1.768990 0.000000 -0.005480 
#    y 0.000000 1.747650 0.000000 
#    z -0.005480 0.000000 1.753870 
# 
# From -- ./inp_files/281345.got.cif
#   From: 2010.06.25/outbox.cif.g09.slc.cpg/sg12_141_cif.got.tgz:281345.got - 2010.06.28 00:19:55.
