data_PCOD8102799
_publ_section_title
;
Structure prediction by ZEFSAII (Michael W. Deem and Ramdas Pophale) SiO2 
 PCOD8102799
Probable space group: C 2/M
;
_chemical_formula_sum "Si O2"
_cell_formula_units_Z 64
_cell_length_a 15.400276
_cell_length_b 9.132342
_cell_length_c 23.929117
_cell_angle_alpha 90.000000
_cell_angle_beta 90.059640
_cell_angle_gamma 90.000000
_cell_volume 3365.403246
_symmetry_space_group_name_H-M "C 2/M"
_symmetry_group_IT_number 12
_symmetry_cell_setting 'monoclinic'
loop_
_space_group_symop_operation_xyz
x,y,z
-x,y,-z
-x,-y,-z
x,-y,z
1/2+x,1/2+y,z
1/2-x,1/2+y,-z
1/2-x,1/2-y,-z
1/2+x,1/2-y,z
loop_
_atom_site_type_symbol
_atom_site_label
_atom_site_fract_x
_atom_site_fract_y
_atom_site_fract_z
Si Si1 0.597328 0.668058 0.134368
Si Si2 0.496315 0.173202 0.435715
Si Si3 0.905746 0.168285 0.123575
Si Si4 0.151017 0.672524 0.238628
Si Si5 0.148420 0.173947 0.635150
Si Si6 0.743239 0.173926 0.940817
Si Si7 0.656062 0.328910 0.758189
Si Si8 0.845387 0.326949 0.637049
O O1 0.614478 0.500000 0.148867
O O2 0.504798 0.688163 0.102942
O O3 0.590409 0.752825 0.192741
O O4 0.673750 0.728006 0.094793
O O5 0.500000 0.219434 0.500000
O O6 0.412220 0.246751 0.409075
O O7 0.584512 0.234410 0.406993
O O8 0.487873 0.000000 0.427990
O O9 0.845159 0.275890 0.088769
O O10 0.905129 0.210645 0.189648
O O11 0.874407 0.000000 0.115460
O O12 0.142457 0.500000 0.230859
O O13 0.248371 0.731994 0.227650
O O14 0.123980 0.722485 0.300992
O O15 0.121821 0.229085 0.698032
O O16 0.247625 0.226685 0.623358
O O17 0.138241 0.000000 0.628173
O O18 0.742433 0.000000 0.948428
O O19 0.750000 0.250000 0.000000
O O20 0.667528 0.500000 0.749162
O O21 0.843252 0.500000 0.635020
#
# Coordination Sequence:
#
# PCOD8102799 Si02
#       8
#     8   8   8   8   8   8   8   8
#     4  10  22  36  55  85 116 141 174 224 278 317
#     4  10  21  36  52  74 108 147 184 224 275 327
#     4  10  20  37  59  83 112 147 180 218 272 328
#     4   9  16  31  56  80 106 142 182 217 263 330
#     4   9  18  34  55  78 104 139 184 227 266 320
#     4  11  24  42  60  82 112 148 186 226 267 314
#     4   8  15  30  54  80 106 139 175 213 266 327
#     4   8  17  34  53  75 106 144 179 219 273 327
#
# _framework density 19.017036999999998
#
# number of rings (size 3 to 8) (size 9 to 14) (size 15 to 20)
#    0.000    2.625    1.250    1.875    1.750    2.250 
#    0.000    6.250    0.000    0.000    0.000    0.000 
#    0.000    0.000    0.000    0.000    0.000    0.000 
#
# Total GULP energy -396647.237840 kJ/mol
# GULP energy per Si atom -12395.226182 kJ/mol
# Density = 1.897375 g / cm^3
# Si number density = 19.017037 Si / 1000 Ang^3
#
#
#
# Elastic Constant Matrix: (Units=GPa)
#
#
# Indices 1 2 3 4 5 6 
#
# 1 118.8800 34.5084 71.9254 0.0000 3.0074 0.0000
# 2 34.5084 42.1919 45.0022 0.0000 5.4292 0.0000
# 3 71.9254 45.0022 139.1164 0.0000 4.5595 0.0000
# 4 0.0000 0.0000 0.0000 25.0372 0.0000 8.0046
# 5 3.0074 5.4292 4.5595 0.0000 24.0429 0.0000
# 6 0.0000 0.0000 0.0000 8.0046 0.0000 27.3534
#
#
#
# Elastic Compliance Matrix: (Units=1/GPa)
#
#
# Indices 1 2 3 4 5 6 
#
# 1 0.012973 -0.005354 -0.004993 0.000000 0.000533 0.000000
# 2 -0.005354 0.039274 -0.009728 0.000000 -0.006354 0.000000
# 3 -0.004993 -0.009728 0.012904 0.000000 0.000374 0.000000
# 4 0.000000 0.000000 0.000000 0.044063 0.000000 -0.012894
# 5 0.000533 -0.006354 0.000374 0.000000 0.042890 0.000000
# 6 0.000000 0.000000 0.000000 -0.012894 0.000000 0.040332
#
#
# Mechanical properties :
#
#
# Convention : Reuss Voigt Hill
#
# Bulk Modulus (GPa) = 39.99769 67.00671 53.50220
# Shear Modulus (GPa) = 20.75375 25.20352 22.97863
#
# Velocity S-wave (km/s) = 3.30710 3.64443 3.47986
# Velocity P-wave (km/s) = 5.97167 7.28154 6.65889
#
# Compressibility (1/GPa) = 0.02500145
#
# Stress axis : x y z
#
# Youngs Moduli (GPa) = 77.08100 25.46216 77.49282
#
# Poissons Ratio (x) = 0.13632 0.38692
# Poissons Ratio (y) = 0.41267 0.75388
# Poissons Ratio (z) = 0.38487 0.24770
#
# Static dielectric constant tensor:
#      x y z
#    x 3.603310 0.000000 -0.161720 
#    y 0.000000 3.119870 0.000000 
#    z -0.161720 0.000000 3.706160 
# 
# 
# High freq. dielectric constant tensor:
#      x y z
#    x 1.744640 0.000000 -0.003030 
#    y 0.000000 1.705580 0.000000 
#    z -0.003030 0.000000 1.740570 
# 
# From -- ./inp_files/338781.got.cif
#   From: 2010.06.25/outbox.cif.g09.slc.cpg/sg12_170_cif.got.tgz:338781.got - 2010.06.28 00:19:55.
