data_PCOD8102039
_publ_section_title
;
Structure prediction by ZEFSAII (Michael W. Deem and Ramdas Pophale) SiO2 
 PCOD8102039
Probable space group: C 2/M
;
_chemical_formula_sum "Si O2"
_cell_formula_units_Z 48
_cell_length_a 19.752093
_cell_length_b 19.490215
_cell_length_c 12.204474
_cell_angle_alpha 90.000000
_cell_angle_beta 32.044777
_cell_angle_gamma 90.000000
_cell_volume 2492.879083
_symmetry_space_group_name_H-M "C 2/M"
_symmetry_group_IT_number 12
_symmetry_cell_setting 'monoclinic'
loop_
_space_group_symop_operation_xyz
x,y,z
-x,y,-z
-x,-y,-z
x,-y,z
1/2+x,1/2+y,z
1/2-x,1/2+y,-z
1/2-x,1/2-y,-z
1/2+x,1/2-y,z
loop_
_atom_site_type_symbol
_atom_site_label
_atom_site_fract_x
_atom_site_fract_y
_atom_site_fract_z
Si Si1 0.748290 0.578230 0.997263
Si Si2 0.854608 0.316732 0.687200
Si Si3 0.260703 0.333448 0.597933
Si Si4 0.676805 0.189700 0.944756
Si Si5 0.529979 0.577028 0.577526
Si Si6 0.612937 0.807365 0.600500
O O1 0.798320 0.500000 0.942486
O O2 0.827744 0.614436 0.791897
O O3 0.763330 0.619261 0.090964
O O4 0.598318 0.578639 0.173188
O O5 0.763462 0.255831 0.856562
O O6 0.833600 0.335253 0.588308
O O7 0.000000 0.291420 0.500000
O O8 0.167201 0.314293 0.826606
O O9 0.358239 0.390634 0.504248
O O10 0.345395 0.270605 0.440097
O O11 0.171456 0.355228 0.617415
O O12 0.539456 0.195257 0.188581
O O13 0.500000 0.612767 0.500000
O O14 0.575735 0.500000 0.489749
#
# Coordination Sequence:
#
# PCOD8102039 Si02
#       6
#     8   8   8   8   8   8
#     4  11  23  38  59  89 120 151 196 251 297 346
#     4  11  23  37  61  89 121 159 201 244 294 357
#     4  10  21  36  61  83 122 151 191 252 293 355
#     4  11  21  36  62  87 119 151 202 247 298 349
#     4  10  20  36  60  88 114 149 196 248 300 345
#     4  10  22  38  54  89 118 160 194 233 306 352
#
# _framework density 19.254845
#
# number of rings (size 3 to 8) (size 9 to 14) (size 15 to 20)
#    0.000    1.500    3.333    2.000    4.667    0.333 
#    0.000    4.167    0.000    4.000    0.000    0.000 
#    0.000    0.000    0.000    0.000    0.000    0.000 
#
# Total GULP energy -297503.336786 kJ/mol
# GULP energy per Si atom -12395.972366 kJ/mol
# Density = 1.921102 g / cm^3
# Si number density = 19.254845 Si / 1000 Ang^3
#
#
#
# Elastic Constant Matrix: (Units=GPa)
#
#
# Indices 1 2 3 4 5 6 
#
# 1 104.1268 50.7072 39.5388 0.0001 5.8959 -0.0001
# 2 50.7072 103.1611 39.7216 0.0000 1.4956 0.0000
# 3 39.5388 39.7216 94.5553 0.0001 -3.3510 0.0000
# 4 0.0001 0.0000 0.0001 25.0785 0.0000 -3.0147
# 5 5.8959 1.4956 -3.3510 0.0000 30.7267 0.0000
# 6 -0.0001 0.0000 0.0000 -3.0147 0.0000 24.6665
#
#
#
# Elastic Compliance Matrix: (Units=1/GPa)
#
#
# Indices 1 2 3 4 5 6 
#
# 1 0.013716 -0.005315 -0.003600 0.000000 -0.002766 0.000000
# 2 -0.005315 0.013661 -0.003517 0.000000 -0.000029 0.000000
# 3 -0.003600 -0.003517 0.013642 0.000000 0.002350 0.000000
# 4 0.000000 0.000000 0.000000 0.040469 0.000000 0.004946
# 5 -0.002766 -0.000029 0.002350 0.000000 0.033333 0.000000
# 6 0.000000 0.000000 0.000000 0.004946 0.000000 0.041145
#
#
# Mechanical properties :
#
#
# Convention : Reuss Voigt Hill
#
# Bulk Modulus (GPa) = 61.90803 62.41981 62.16392
# Shear Modulus (GPa) = 26.85030 27.55269 27.20150
#
# Velocity S-wave (km/s) = 3.73831 3.78689 3.76268
# Velocity P-wave (km/s) = 7.13127 7.18393 7.15765
#
# Compressibility (1/GPa) = 0.01615299
#
# Stress axis : x y z
#
# Youngs Moduli (GPa) = 72.90795 73.20131 73.30214
#
# Poissons Ratio (x) = 0.38910 0.26392
# Poissons Ratio (y) = 0.38754 0.25781
# Poissons Ratio (z) = 0.26250 0.25746
#
# Static dielectric constant tensor:
#      x y z
#    x 3.833440 0.000000 0.085300 
#    y 0.000000 3.314290 0.000000 
#    z 0.085300 0.000000 3.607380 
# 
# 
# High freq. dielectric constant tensor:
#      x y z
#    x 1.745380 0.000000 0.003310 
#    y 0.000000 1.723050 0.000000 
#    z 0.003310 0.000000 1.764730 
# 
# From -- ./inp_files/169588.got.cif
#   From: 2010.06.25/outbox.cif.g09.slc.cpg/sg12_85_cif.got.tgz:169588.got - 2010.06.28 00:19:55.
