data_PCOD8102160
_publ_section_title
;
Structure prediction by ZEFSAII (Michael W. Deem and Ramdas Pophale) SiO2 
 PCOD8102160
Probable space group: C 2/M
;
_chemical_formula_sum "Si O2"
_cell_formula_units_Z 56
_cell_length_a 9.895475
_cell_length_b 27.183226
_cell_length_c 18.756572
_cell_angle_alpha 90.000000
_cell_angle_beta 34.679072
_cell_angle_gamma 90.000000
_cell_volume 2870.697894
_symmetry_space_group_name_H-M "C 2/M"
_symmetry_group_IT_number 12
_symmetry_cell_setting 'monoclinic'
loop_
_space_group_symop_operation_xyz
x,y,z
-x,y,-z
-x,-y,-z
x,-y,z
1/2+x,1/2+y,z
1/2-x,1/2+y,-z
1/2-x,1/2-y,-z
1/2+x,1/2-y,z
loop_
_atom_site_type_symbol
_atom_site_label
_atom_site_fract_x
_atom_site_fract_y
_atom_site_fract_z
Si Si1 0.976223 0.500000 0.593348
Si Si2 0.307836 0.094519 0.259988
Si Si3 0.233654 0.748429 0.590001
Si Si4 0.562249 0.853968 0.652957
Si Si5 0.599110 0.646708 0.630866
Si Si6 0.320076 0.405266 0.261469
Si Si7 0.993556 0.000000 0.585722
Si Si8 0.167900 0.442570 0.994972
O O1 0.836201 0.453297 0.683473
O O2 0.000000 0.500000 0.500000
O O3 0.237803 0.500000 0.508676
O O4 0.360815 0.107942 0.318932
O O5 0.553277 0.081790 0.114613
O O6 0.171983 0.138235 0.276793
O O7 0.137363 0.047577 0.326941
O O8 0.500000 0.741944 0.500000
O O9 0.250000 0.750000 0.500000
O O10 0.076107 0.701084 0.680826
O O11 0.115080 0.800153 0.663886
O O12 0.737955 0.859497 0.509534
O O13 0.295980 0.863748 0.739718
O O14 0.687811 0.608229 0.651515
O O15 0.589378 0.413523 0.121768
O O16 0.000000 0.000000 0.500000
O O17 0.218922 0.500000 0.985794
O O18 0.000000 0.434774 0.000000
#
# Coordination Sequence:
#
# PCOD8102160 Si02
#       8
#     4   8   8   8   8   8   4   8
#     4  12  24  33  55  91 121 148 189 249 315 351
#     4  12  23  40  62  88 122 168 205 252 297 368
#     4  10  20  36  60  91 128 165 195 242 306 381
#     4  11  23  38  61  95 129 155 199 252 319 365
#     4  11  21  38  64  94 126 158 203 247 311 371
#     4  12  23  40  61  89 122 162 205 258 293 363
#     4  12  24  37  55  89 129 158 185 239 319 375
#     4  11  24  45  65  83 117 170 227 249 294 361
#
# _framework density 19.507451
#
# number of rings (size 3 to 8) (size 9 to 14) (size 15 to 20)
#    0.000    0.714    2.857    8.571    0.000    0.571 
#    0.000    0.714    0.000    5.143    0.000    0.000 
#    0.000    0.000    0.000    0.000    0.000    0.000 
#
# Total GULP energy -347205.641149 kJ/mol
# GULP energy per Si atom -12400.201470 kJ/mol
# Density = 1.946305 g / cm^3
# Si number density = 19.507451 Si / 1000 Ang^3
#
#
#
# Elastic Constant Matrix: (Units=GPa)
#
#
# Indices 1 2 3 4 5 6 
#
# 1 145.7427 51.1641 49.3893 -0.0038 -14.0623 0.0013
# 2 51.1641 111.5036 62.5621 0.0020 -8.2895 -0.0003
# 3 49.3893 62.5621 108.0333 0.0153 -13.9484 -0.0024
# 4 -0.0038 0.0020 0.0153 -14.2336 -0.0038 -1.2766
# 5 -14.0623 -8.2895 -13.9484 -0.0038 28.5876 0.0002
# 6 0.0013 -0.0003 -0.0024 -1.2766 0.0002 32.2038
#
#
#
# Elastic Compliance Matrix: (Units=1/GPa)
#
#
# Indices 1 2 3 4 5 6 
#
# 1 0.008754 -0.002617 -0.002165 -0.000006 0.002491 -0.000001
# 2 -0.002617 0.014067 -0.007033 -0.000005 -0.000640 0.000000
# 3 -0.002165 -0.007033 0.014854 0.000014 0.004143 0.000002
# 4 -0.000006 -0.000005 0.000014 -0.070007 -0.000006 -0.002775
# 5 0.002491 -0.000640 0.004143 -0.000006 0.038042 0.000000
# 6 -0.000001 0.000000 0.000002 -0.002775 0.000000 0.030942
#
#
# Mechanical properties :
#
#
# Convention : Reuss Voigt Hill
#
# Bulk Modulus (GPa) = 71.19428 76.83453 74.01441
# Shear Modulus (GPa) = 76.96666 22.78914 49.87790
#
# Velocity S-wave (km/s) = 6.28814 3.42164 5.06203
# Velocity P-wave (km/s) = 9.44966 7.42179 8.49644
#
# Compressibility (1/GPa) = 0.01404607
#
# Stress axis : x y z
#
# Youngs Moduli (GPa) = 114.23161 71.08610 67.32322
#
# Poissons Ratio (x) = 0.18603 0.14575
# Poissons Ratio (y) = 0.29894 0.47346
# Poissons Ratio (z) = 0.24731 0.49992
#
# Static dielectric constant tensor:
#      x y z
#    x 3.640470 -0.000050 -0.074590 
#    y -0.000050 9.583320 0.000090 
#    z -0.074590 0.000090 3.371360 
# 
# 
# High freq. dielectric constant tensor:
#      x y z
#    x 1.780790 0.000000 -0.006770 
#    y 0.000000 1.768900 0.000000 
#    z -0.006770 0.000000 1.726890 
# 
# From -- ./inp_files/259833.got.cif
#   From: 2010.06.25/outbox.cif.g09.slc.cpg/sg12_130_cif.got.tgz:259833.got - 2010.06.28 00:19:55.
