data_PCOD8102979
_publ_section_title
;
Structure prediction by ZEFSAII (Michael W. Deem and Ramdas Pophale) SiO2 
 PCOD8102979
Probable space group: C 2/M
;
_chemical_formula_sum "Si O2"
_cell_formula_units_Z 52
_cell_length_a 12.404452
_cell_length_b 13.813488
_cell_length_c 21.675642
_cell_angle_alpha 90.000000
_cell_angle_beta 134.409334
_cell_angle_gamma 90.000000
_cell_volume 2653.195417
_symmetry_space_group_name_H-M "C 2/M"
_symmetry_group_IT_number 12
_symmetry_cell_setting 'monoclinic'
loop_
_space_group_symop_operation_xyz
x,y,z
-x,y,-z
-x,-y,-z
x,-y,z
1/2+x,1/2+y,z
1/2-x,1/2+y,-z
1/2-x,1/2-y,-z
1/2+x,1/2-y,z
loop_
_atom_site_type_symbol
_atom_site_label
_atom_site_fract_x
_atom_site_fract_y
_atom_site_fract_z
Si Si1 0.636719 0.769310 0.399244
Si Si2 0.500000 0.693806 0.000000
Si Si3 0.151507 0.890511 0.593523
Si Si4 0.526504 0.609919 0.143107
Si Si5 0.314755 0.728430 0.147834
Si Si6 0.922387 0.108355 0.295122
Si Si7 0.867488 0.612359 0.262765
O O1 0.750000 0.750000 0.500000
O O2 0.714696 0.821705 0.373393
O O3 0.580386 0.665235 0.353211
O O4 0.490807 0.836729 0.357842
O O5 0.495560 0.625775 0.938501
O O6 0.352619 0.761932 0.946770
O O7 0.143918 0.883937 0.663465
O O8 0.000000 0.852832 0.500000
O O9 0.184054 0.000000 0.584408
O O10 0.475808 0.500000 0.138753
O O11 0.429458 0.687638 0.142474
O O12 0.703970 0.623779 0.229377
O O13 0.301922 0.653139 0.199605
O O14 0.372028 0.831781 0.198216
O O15 0.960070 0.000000 0.290672
O O16 0.907599 0.500000 0.267161
#
# Coordination Sequence:
#
# PCOD8102979 Si02
#       7
#     8   4   8   8   8   8   8
#     4  11  21  34  57  86 114 148 199 253 294 337
#     4  10  21  38  61  90 120 154 205 240 289 356
#     4  10  20  37  60  84 115 154 196 242 297 356
#     4  10  20  39  63  88 122 159 194 239 300 360
#     4  10  21  38  63  91 121 156 195 250 298 353
#     4  10  22  39  58  83 117 158 196 238 301 360
#     4   9  21  38  59  87 117 155 202 246 290 359
#
# _framework density 19.59901
#
# number of rings (size 3 to 8) (size 9 to 14) (size 15 to 20)
#    0.000    2.000    1.538    1.615    0.000    8.615 
#    0.000    1.538    0.000    6.923    0.000    0.000 
#    0.000    0.000    0.000    0.000    0.000    0.000 
#
# Total GULP energy -322307.721910 kJ/mol
# GULP energy per Si atom -12396.450843 kJ/mol
# Density = 1.955440 g / cm^3
# Si number density = 19.599010 Si / 1000 Ang^3
#
#
#
# Elastic Constant Matrix: (Units=GPa)
#
#
# Indices 1 2 3 4 5 6 
#
# 1 89.3225 47.8066 39.1057 0.0000 10.1851 0.0000
# 2 47.8066 146.4740 45.7040 0.0000 16.8730 0.0000
# 3 39.1057 45.7040 112.2632 0.0000 19.0046 0.0000
# 4 0.0000 0.0000 0.0000 22.3185 0.0000 -3.7868
# 5 10.1851 16.8730 19.0046 0.0000 34.0121 0.0000
# 6 0.0000 0.0000 0.0000 -3.7868 0.0000 35.8992
#
#
#
# Elastic Compliance Matrix: (Units=1/GPa)
#
#
# Indices 1 2 3 4 5 6 
#
# 1 0.014772 -0.003639 -0.003558 0.000000 -0.000631 0.000000
# 2 -0.003639 0.008886 -0.001975 0.000000 -0.002215 0.000000
# 3 -0.003558 -0.001975 0.011713 0.000000 -0.004499 0.000000
# 4 0.000000 0.000000 0.000000 0.045622 0.000000 0.004812
# 5 -0.000631 -0.002215 -0.004499 0.000000 0.033203 0.000000
# 6 0.000000 0.000000 0.000000 0.004812 0.000000 0.028363
#
#
# Mechanical properties :
#
#
# Convention : Reuss Voigt Hill
#
# Bulk Modulus (GPa) = 58.72636 68.14358 63.43497
# Shear Modulus (GPa) = 30.01570 32.80886 31.41228
#
# Velocity S-wave (km/s) = 3.91767 4.09590 4.00778
# Velocity P-wave (km/s) = 7.10586 7.56392 7.33846
#
# Compressibility (1/GPa) = 0.01702813
#
# Stress axis : x y z
#
# Youngs Moduli (GPa) = 67.69414 112.53349 85.37714
#
# Poissons Ratio (x) = 0.40947 0.30374
# Poissons Ratio (y) = 0.24632 0.16864
# Poissons Ratio (z) = 0.24083 0.22228
#
# Static dielectric constant tensor:
#      x y z
#    x 3.451970 0.000000 0.152340 
#    y 0.000000 3.815760 0.000000 
#    z 0.152340 0.000000 3.740510 
# 
# 
# High freq. dielectric constant tensor:
#      x y z
#    x 1.749990 0.000000 0.007570 
#    y 0.000000 1.771860 0.000000 
#    z 0.007570 0.000000 1.765940 
# 
# From -- ./inp_files/305535.got.cif
#   From: 2010.06.25/outbox.cif.g09.slc.cpg/sg12_153_cif.got.tgz:305535.got - 2010.06.28 00:19:55.
