data_PCOD8102634
_publ_section_title
;
Structure prediction by ZEFSAII (Michael W. Deem and Ramdas Pophale) SiO2 
 PCOD8102634
Probable space group: C 2/M
;
_chemical_formula_sum "Si O2"
_cell_formula_units_Z 56
_cell_length_a 9.220314
_cell_length_b 19.081650
_cell_length_c 27.017881
_cell_angle_alpha 90.000000
_cell_angle_beta 141.819986
_cell_angle_gamma 90.000000
_cell_volume 2938.297179
_symmetry_space_group_name_H-M "C 2/M"
_symmetry_group_IT_number 12
_symmetry_cell_setting 'monoclinic'
loop_
_space_group_symop_operation_xyz
x,y,z
-x,y,-z
-x,-y,-z
x,-y,z
1/2+x,1/2+y,z
1/2-x,1/2+y,-z
1/2-x,1/2-y,-z
1/2+x,1/2-y,z
loop_
_atom_site_type_symbol
_atom_site_label
_atom_site_fract_x
_atom_site_fract_y
_atom_site_fract_z
Si Si1 0.741512 0.077932 0.449225
Si Si2 0.380762 0.820397 0.310532
Si Si3 0.670970 0.583000 0.999899
Si Si4 0.729738 0.422621 0.437174
Si Si5 0.886333 0.679624 0.877501
Si Si6 0.538586 0.324151 0.874951
Si Si7 0.038960 0.819191 0.307746
O O1 0.572102 0.118677 0.366375
O O2 0.775405 0.116361 0.511176
O O3 0.000000 0.071660 0.500000
O O4 0.631108 0.000000 0.426413
O O5 0.253061 0.808472 0.328081
O O6 0.518295 0.750442 0.334184
O O7 0.197027 0.840675 0.218577
O O8 0.705191 0.500000 0.004006
O O9 0.924980 0.617850 0.075436
O O10 0.500000 0.601293 0.000000
O O11 0.565586 0.611952 0.920268
O O12 0.613617 0.500000 0.409013
O O13 0.586399 0.382647 0.357072
O O14 0.000000 0.429329 0.500000
O O15 0.762436 0.682513 0.898255
O O16 0.698587 0.662954 0.784792
O O17 0.014375 0.753181 0.900460
#
# Coordination Sequence:
#
# PCOD8102634 Si02
#       7
#     8   8   8   8   8   8   8
#     4  10  22  39  56  80 112 151 194 234 283 338
#     4  10  22  38  58  85 116 147 187 237 281 335
#     4  11  24  41  60  87 120 151 188 233 282 337
#     4  10  20  37  58  79 111 151 192 234 281 336
#     4  10  21  39  62  87 117 151 192 234 281 343
#     4  10  21  39  63  87 115 153 190 233 286 339
#     4  10  22  37  58  87 114 147 189 234 285 331
#
# _framework density 19.058657
#
# number of rings (size 3 to 8) (size 9 to 14) (size 15 to 20)
#    0.000    1.857    1.429    1.714    2.000    4.571 
#    0.000    2.857    0.000    0.000    0.000    0.000 
#    0.000    0.000    0.000    0.000    0.000    0.000 
#
# Total GULP energy -347132.771544 kJ/mol
# GULP energy per Si atom -12397.598984 kJ/mol
# Density = 1.901528 g / cm^3
# Si number density = 19.058657 Si / 1000 Ang^3
#
#
#
# Elastic Constant Matrix: (Units=GPa)
#
#
# Indices 1 2 3 4 5 6 
#
# 1 113.8999 58.1925 47.4209 0.0002 -7.3705 0.0005
# 2 58.1925 121.9258 72.2942 -0.0003 -3.9098 -0.0009
# 3 47.4209 72.2942 108.3402 -0.0023 -6.4914 -0.0017
# 4 0.0002 -0.0003 -0.0023 41.9599 -0.0008 0.2016
# 5 -7.3705 -3.9098 -6.4914 -0.0008 32.1293 -0.0009
# 6 0.0005 -0.0009 -0.0017 0.2016 -0.0009 34.2683
#
#
#
# Elastic Compliance Matrix: (Units=1/GPa)
#
#
# Indices 1 2 3 4 5 6 
#
# 1 0.012065 -0.004357 -0.002267 0.000000 0.001779 0.000000
# 2 -0.004357 0.015146 -0.008249 0.000000 -0.000823 0.000000
# 3 -0.002267 -0.008249 0.015827 0.000001 0.001674 0.000001
# 4 0.000000 0.000000 0.000001 0.023833 0.000001 -0.000140
# 5 0.001779 -0.000823 0.001674 0.000001 0.031770 0.000001
# 6 0.000000 0.000000 0.000001 -0.000140 0.000001 0.029182
#
#
# Mechanical properties :
#
#
# Convention : Reuss Voigt Hill
#
# Bulk Modulus (GPa) = 75.23213 77.77568 76.50390
# Shear Modulus (GPa) = 30.86434 32.75540 31.80987
#
# Velocity S-wave (km/s) = 4.02859 4.15017 4.08983
# Velocity P-wave (km/s) = 7.82298 7.99140 7.90764
#
# Compressibility (1/GPa) = 0.01329219
#
# Stress axis : x y z
#
# Youngs Moduli (GPa) = 82.88740 66.02423 63.18319
#
# Poissons Ratio (x) = 0.28768 0.14321
# Poissons Ratio (y) = 0.36115 0.52119
# Poissons Ratio (z) = 0.18787 0.54463
#
# Static dielectric constant tensor:
#      x y z
#    x 3.677130 0.000000 -0.057670 
#    y 0.000000 3.460380 0.000000 
#    z -0.057670 0.000000 3.498300 
# 
# 
# High freq. dielectric constant tensor:
#      x y z
#    x 1.758860 0.000000 -0.005240 
#    y 0.000000 1.732370 0.000000 
#    z -0.005240 0.000000 1.748530 
# 
# From -- ./inp_files/257177.got.cif
#   From: 2010.06.25/outbox.cif.g09.slc.cpg/sg12_129_cif.got.tgz:257177.got - 2010.06.28 00:19:55.
