data_PCOD8102244
_publ_section_title
;
Structure prediction by ZEFSAII (Michael W. Deem and Ramdas Pophale) SiO2 
 PCOD8102244
Probable space group: C 2/M
;
_chemical_formula_sum "Si O2"
_cell_formula_units_Z 56
_cell_length_a 17.344463
_cell_length_b 10.136936
_cell_length_c 16.541947
_cell_angle_alpha 90.000000
_cell_angle_beta 68.796853
_cell_angle_gamma 90.000000
_cell_volume 2711.513095
_symmetry_space_group_name_H-M "C 2/M"
_symmetry_group_IT_number 12
_symmetry_cell_setting 'monoclinic'
loop_
_space_group_symop_operation_xyz
x,y,z
-x,y,-z
-x,-y,-z
x,-y,z
1/2+x,1/2+y,z
1/2-x,1/2+y,-z
1/2-x,1/2-y,-z
1/2+x,1/2-y,z
loop_
_atom_site_type_symbol
_atom_site_label
_atom_site_fract_x
_atom_site_fract_y
_atom_site_fract_z
Si Si1 0.848375 0.847559 0.180803
Si Si2 0.855029 0.645692 0.430945
Si Si3 0.180517 0.150400 0.995348
Si Si4 0.247804 0.354339 0.676867
Si Si5 0.031984 0.644579 0.305855
Si Si6 0.915014 0.213052 0.561818
Si Si7 0.968350 0.848743 0.829184
O O1 0.779961 0.753912 0.247673
O O2 0.940372 0.809357 0.174842
O O3 0.828702 0.000000 0.209711
O O4 0.840804 0.821376 0.089046
O O5 0.836665 0.500000 0.471827
O O6 0.781241 0.694653 0.400929
O O7 0.866213 0.740124 0.501831
O O8 0.933349 0.645563 0.341488
O O9 0.094987 0.173841 0.074253
O O10 0.211913 0.000000 0.996033
O O11 0.250000 0.250000 0.000000
O O12 0.211271 0.500000 0.711491
O O13 0.347882 0.372384 0.636434
O O14 0.065979 0.500000 0.266663
O O15 0.059137 0.668472 0.388382
O O16 0.062702 0.756578 0.232491
O O17 0.000000 0.138910 0.500000
O O18 0.967245 0.000000 0.799195
#
# Coordination Sequence:
#
# PCOD8102244 Si02
#       7
#     8   8   8   8   8   8   8
#     4  10  22  42  66  91 120 161 207 246 298 367
#     4   9  18  37  60  85 116 154 202 254 304 356
#     4  10  23  42  64  93 126 162 202 245 296 359
#     4  11  23  39  62  90 123 158 200 260 310 354
#     4  10  20  36  61  90 120 156 202 251 299 359
#     4  10  22  38  58  85 123 163 205 247 307 366
#     4  10  21  40  65  90 122 162 202 250 301 354
#
# _framework density 20.652676
#
# number of rings (size 3 to 8) (size 9 to 14) (size 15 to 20)
#    0.000    2.000    1.429    1.286    2.000    6.571 
#    0.000    2.857    0.000    2.571    0.000    0.000 
#    0.000    0.000    0.000    0.000    0.000    0.000 
#
# Total GULP energy -347009.150999 kJ/mol
# GULP energy per Si atom -12393.183964 kJ/mol
# Density = 2.060567 g / cm^3
# Si number density = 20.652676 Si / 1000 Ang^3
#
#
#
# Elastic Constant Matrix: (Units=GPa)
#
#
# Indices 1 2 3 4 5 6 
#
# 1 75.0962 38.3597 48.9269 0.0000 -11.3351 0.0000
# 2 38.3597 107.8470 63.1059 0.0000 1.2601 0.0000
# 3 48.9269 63.1059 117.3524 0.0000 -1.2851 0.0000
# 4 0.0000 0.0000 0.0000 4.4209 0.0000 -2.4190
# 5 -11.3351 1.2601 -1.2851 0.0000 34.6149 0.0000
# 6 0.0000 0.0000 0.0000 -2.4190 0.0000 23.5071
#
#
#
# Elastic Compliance Matrix: (Units=1/GPa)
#
#
# Indices 1 2 3 4 5 6 
#
# 1 0.020344 -0.003489 -0.006534 0.000000 0.006546 0.000000
# 2 -0.003489 0.014148 -0.006174 0.000000 -0.001887 0.000000
# 3 -0.006534 -0.006174 0.014550 0.000000 -0.001375 0.000000
# 4 0.000000 0.000000 0.000000 0.239697 0.000000 0.024666
# 5 0.006546 -0.001887 -0.001375 0.000000 0.031051 0.000000
# 6 0.000000 0.000000 0.000000 0.024666 0.000000 0.045079
#
#
# Mechanical properties :
#
#
# Convention : Reuss Voigt Hill
#
# Bulk Modulus (GPa) = 60.06665 66.78673 63.42669
# Shear Modulus (GPa) = 12.41274 22.50213 17.45743
#
# Velocity S-wave (km/s) = 2.45424 3.30441 2.91054
# Velocity P-wave (km/s) = 6.09741 6.85326 6.48635
#
# Compressibility (1/GPa) = 0.01664817
#
# Stress axis : x y z
#
# Youngs Moduli (GPa) = 49.15569 70.68016 68.72667
#
# Poissons Ratio (x) = 0.24662 0.44903
# Poissons Ratio (y) = 0.17152 0.42432
# Poissons Ratio (z) = 0.32117 0.43638
#
# Static dielectric constant tensor:
#      x y z
#    x 3.845810 0.000000 -0.078320 
#    y 0.000000 3.619740 0.000000 
#    z -0.078320 0.000000 3.640240 
# 
# 
# High freq. dielectric constant tensor:
#      x y z
#    x 1.819380 0.000000 0.000660 
#    y 0.000000 1.795830 0.000000 
#    z 0.000660 0.000000 1.803830 
# 
# From -- ./inp_files/275055.got.cif
#   From: 2010.06.25/outbox.cif.g09.slc.cpg/sg12_138_cif.got.tgz:275055.got - 2010.06.28 00:19:55.
