data_PCOD8102623
_publ_section_title
;
Structure prediction by ZEFSAII (Michael W. Deem and Ramdas Pophale) SiO2 
 PCOD8102623
Probable space group: C 2/M
;
_chemical_formula_sum "Si O2"
_cell_formula_units_Z 56
_cell_length_a 14.312920
_cell_length_b 17.318260
_cell_length_c 18.483656
_cell_angle_alpha 90.000000
_cell_angle_beta 141.932984
_cell_angle_gamma 90.000000
_cell_volume 2824.956387
_symmetry_space_group_name_H-M "C 2/M"
_symmetry_group_IT_number 12
_symmetry_cell_setting 'monoclinic'
loop_
_space_group_symop_operation_xyz
x,y,z
-x,y,-z
-x,-y,-z
x,-y,z
1/2+x,1/2+y,z
1/2-x,1/2+y,-z
1/2-x,1/2-y,-z
1/2+x,1/2-y,z
loop_
_atom_site_type_symbol
_atom_site_label
_atom_site_fract_x
_atom_site_fract_y
_atom_site_fract_z
Si Si1 0.007053 0.913403 0.924066
Si Si2 0.179548 0.355376 0.906013
Si Si3 0.797419 0.911444 0.252506
Si Si4 0.844780 0.644851 0.688536
Si Si5 0.647117 0.590002 0.437418
Si Si6 0.741458 0.304751 0.896955
Si Si7 0.902334 0.823539 0.731507
O O1 0.893450 0.863510 0.804787
O O2 0.943253 0.000000 0.883071
O O3 0.185046 0.917079 0.009035
O O4 0.000000 0.878303 0.000000
O O5 0.235988 0.287911 0.884874
O O6 0.016262 0.387988 0.782365
O O7 0.147777 0.322635 0.967923
O O8 0.738083 0.898888 0.297053
O O9 0.709208 0.852095 0.144760
O O10 0.976293 0.894449 0.360039
O O11 0.764587 0.000000 0.208872
O O12 0.758110 0.628289 0.562349
O O13 0.844065 0.736489 0.701982
O O14 0.681127 0.500000 0.450491
O O15 0.687927 0.629868 0.385472
O O16 0.575669 0.333252 0.815972
#
# Coordination Sequence:
#
# PCOD8102623 Si02
#       7
#     8   8   8   8   8   8   8
#     4  10  21  36  58  83 104 137 185 231 277 324
#     4   9  19  35  53  78 110 142 181 223 272 327
#     4  10  21  35  54  82 113 147 185 223 273 329
#     4  11  21  33  54  86 113 145 181 222 272 331
#     4  10  20  37  58  78 112 150 188 228 267 324
#     4   8  17  35  53  76 107 144 181 217 269 329
#     4   9  19  36  57  80 105 145 187 226 267 324
#
# _framework density 19.823315999999998
#
# number of rings (size 3 to 8) (size 9 to 14) (size 15 to 20)
#    0.000    2.429    0.000    2.571    2.000    6.286 
#    0.000    0.714    0.000    0.000    0.000    3.000 
#    0.000    0.000    0.000    0.000    0.000    0.000 
#
# Total GULP energy -347046.829589 kJ/mol
# GULP energy per Si atom -12394.529628 kJ/mol
# Density = 1.977820 g / cm^3
# Si number density = 19.823316 Si / 1000 Ang^3
#
#
#
# Elastic Constant Matrix: (Units=GPa)
#
#
# Indices 1 2 3 4 5 6 
#
# 1 52.6828 13.6569 32.7319 0.0000 -12.6520 0.0000
# 2 13.6569 73.1938 44.6012 0.0000 -7.9054 0.0000
# 3 32.7319 44.6012 111.9092 0.0003 -20.9235 0.0001
# 4 0.0000 0.0000 0.0003 29.6496 0.0002 -7.6459
# 5 -12.6520 -7.9054 -20.9235 0.0002 31.0418 0.0001
# 6 0.0000 0.0000 0.0001 -7.6459 0.0001 26.7327
#
#
#
# Elastic Compliance Matrix: (Units=1/GPa)
#
#
# Indices 1 2 3 4 5 6 
#
# 1 0.024081 -0.000311 -0.005834 0.000000 0.005803 0.000000
# 2 -0.000311 0.018051 -0.007171 0.000000 -0.000363 0.000000
# 3 -0.005834 -0.007171 0.014548 0.000000 0.005602 0.000000
# 4 0.000000 0.000000 0.000000 0.036413 0.000000 0.010415
# 5 0.005803 -0.000363 0.005602 0.000000 0.038263 0.000000
# 6 0.000000 0.000000 0.000000 0.010415 0.000000 0.040386
#
#
# Mechanical properties :
#
#
# Convention : Reuss Voigt Hill
#
# Bulk Modulus (GPa) = 33.28224 46.64067 39.96146
# Shear Modulus (GPa) = 23.99350 27.27118 25.63234
#
# Velocity S-wave (km/s) = 3.48281 3.71308 3.59979
# Velocity P-wave (km/s) = 5.74449 6.47780 6.12214
#
# Compressibility (1/GPa) = 0.03004605
#
# Stress axis : x y z
#
# Youngs Moduli (GPa) = 41.52716 55.39872 68.73978
#
# Poissons Ratio (x) = 0.01724 0.40105
# Poissons Ratio (y) = 0.01292 0.49294
# Poissons Ratio (z) = 0.24228 0.39727
#
# Static dielectric constant tensor:
#      x y z
#    x 3.384270 0.000000 -0.256150 
#    y 0.000000 3.579490 0.000000 
#    z -0.256150 0.000000 3.779750 
# 
# 
# High freq. dielectric constant tensor:
#      x y z
#    x 1.745440 0.000000 -0.017380 
#    y 0.000000 1.774280 0.000000 
#    z -0.017380 0.000000 1.773820 
# 
# From -- ./inp_files/271434.got.cif
#   From: 2010.06.25/outbox.cif.g09.slc.cpg/sg12_136_cif.got.tgz:271434.got - 2010.06.28 00:19:55.
