data_PCOD8102617
_publ_section_title
;
Structure prediction by ZEFSAII (Michael W. Deem and Ramdas Pophale) SiO2 
 PCOD8102617
Probable space group: C 2/M
;
_chemical_formula_sum "Si O2"
_cell_formula_units_Z 56
_cell_length_a 17.005317
_cell_length_b 23.708068
_cell_length_c 9.249141
_cell_angle_alpha 90.000000
_cell_angle_beta 133.349928
_cell_angle_gamma 90.000000
_cell_volume 2711.572051
_symmetry_space_group_name_H-M "C 2/M"
_symmetry_group_IT_number 12
_symmetry_cell_setting 'monoclinic'
loop_
_space_group_symop_operation_xyz
x,y,z
-x,y,-z
-x,-y,-z
x,-y,z
1/2+x,1/2+y,z
1/2-x,1/2+y,-z
1/2-x,1/2-y,-z
1/2+x,1/2-y,z
loop_
_atom_site_type_symbol
_atom_site_label
_atom_site_fract_x
_atom_site_fract_y
_atom_site_fract_z
Si Si1 0.377613 0.933956 0.856073
Si Si2 0.516678 0.329398 0.177312
Si Si3 0.148919 0.216858 0.806499
Si Si4 0.875459 0.937149 0.962164
Si Si5 0.740934 0.109817 0.025335
Si Si6 0.757595 0.874715 0.561729
Si Si7 0.882124 0.324717 0.377604
O O1 0.298319 0.904383 0.643808
O O2 0.371949 0.000000 0.818489
O O3 0.500000 0.911505 0.000000
O O4 0.342298 0.920214 0.974405
O O5 0.450528 0.291354 0.206299
O O6 0.644794 0.334760 0.373244
O O7 0.500000 0.299759 0.000000
O O8 0.472953 0.393704 0.109185
O O9 0.109077 0.256498 0.625507
O O10 0.250000 0.250000 0.000000
O O11 0.182486 0.154513 0.791077
O O12 0.806865 0.938331 0.024646
O O13 0.801741 0.920450 0.731845
O O14 0.921649 0.000000 0.996414
O O15 0.691059 0.148883 0.838551
O O16 0.665843 0.837291 0.524897
O O17 0.000000 0.351744 0.500000
#
# Coordination Sequence:
#
# PCOD8102617 Si02
#       7
#     8   8   8   8   8   8   8
#     4  11  23  38  55  78 111 148 186 235 291 336
#     4   9  18  33  55  84 117 144 178 230 279 328
#     4   9  18  35  56  79 109 146 180 217 274 334
#     4   9  17  32  57  83 108 144 182 218 269 334
#     4   9  19  36  55  77 109 144 180 224 273 332
#     4  10  21  36  55  83 113 141 184 235 278 327
#     4  10  20  37  58  78 104 143 190 230 269 326
#
# _framework density 20.652225999999999
#
# number of rings (size 3 to 8) (size 9 to 14) (size 15 to 20)
#    0.000    2.429    0.000    4.286    0.000    4.286 
#    0.000   13.571    0.000   11.143    0.000    0.000 
#    0.000    0.000    0.000    0.000    0.000    0.000 
#
# Total GULP energy -346952.926475 kJ/mol
# GULP energy per Si atom -12391.175946 kJ/mol
# Density = 2.060522 g / cm^3
# Si number density = 20.652226 Si / 1000 Ang^3
#
#
#
# Elastic Constant Matrix: (Units=GPa)
#
#
# Indices 1 2 3 4 5 6 
#
# 1 156.6975 21.0515 22.3993 0.0000 12.8127 0.0000
# 2 21.0515 63.1113 6.6357 0.0000 -1.0238 0.0000
# 3 22.3993 6.6357 49.6314 0.0000 7.3379 0.0000
# 4 0.0000 0.0000 0.0000 11.8032 0.0000 4.7773
# 5 12.8127 -1.0238 7.3379 0.0000 30.3933 0.0000
# 6 0.0000 0.0000 0.0000 4.7773 0.0000 21.1552
#
#
#
# Elastic Compliance Matrix: (Units=1/GPa)
#
#
# Indices 1 2 3 4 5 6 
#
# 1 0.007253 -0.002185 -0.002611 0.000000 -0.002501 0.000000
# 2 -0.002185 0.016765 -0.001530 0.000000 0.001855 0.000000
# 3 -0.002611 -0.001530 0.022168 0.000000 -0.004303 0.000000
# 4 0.000000 0.000000 0.000000 0.093245 0.000000 -0.021057
# 5 -0.002501 0.001855 -0.004303 0.000000 0.035057 0.000000
# 6 0.000000 0.000000 0.000000 -0.021057 0.000000 0.052025
#
#
# Mechanical properties :
#
#
# Convention : Reuss Voigt Hill
#
# Bulk Modulus (GPa) = 29.82133 41.06814 35.44473
# Shear Modulus (GPa) = 19.97257 27.29395 23.63326
#
# Velocity S-wave (km/s) = 3.11318 3.63932 3.38649
# Velocity P-wave (km/s) = 5.23389 6.13093 5.70009
#
# Compressibility (1/GPa) = 0.03353305
#
# Stress axis : x y z
#
# Youngs Moduli (GPa) = 137.87229 59.64854 45.11057
#
# Poissons Ratio (x) = 0.13035 0.11781
# Poissons Ratio (y) = 0.30130 0.06900
# Poissons Ratio (z) = 0.36005 0.09123
#
# Static dielectric constant tensor:
#      x y z
#    x 3.805160 0.000000 -0.108740 
#    y 0.000000 3.715140 0.000000 
#    z -0.108740 0.000000 3.456580 
# 
# 
# High freq. dielectric constant tensor:
#      x y z
#    x 1.828570 0.000000 0.007430 
#    y 0.000000 1.794920 0.000000 
#    z 0.007430 0.000000 1.789230 
# 
# From -- ./inp_files/79168.got.cif
#   From: 2010.06.25/outbox.cif.g09.slc.cpg/sg12_40_cif.got.tgz:79168.got - 2010.06.28 00:19:55.
