data_PCOD8102876
_publ_section_title
;
Structure prediction by ZEFSAII (Michael W. Deem and Ramdas Pophale) SiO2 
 PCOD8102876
Probable space group: C 2/M
;
_chemical_formula_sum "Si O2"
_cell_formula_units_Z 56
_cell_length_a 24.877304
_cell_length_b 9.102614
_cell_length_c 14.331442
_cell_angle_alpha 90.000000
_cell_angle_beta 60.696653
_cell_angle_gamma 90.000000
_cell_volume 2830.062826
_symmetry_space_group_name_H-M "C 2/M"
_symmetry_group_IT_number 12
_symmetry_cell_setting 'monoclinic'
loop_
_space_group_symop_operation_xyz
x,y,z
-x,y,-z
-x,-y,-z
x,-y,z
1/2+x,1/2+y,z
1/2-x,1/2+y,-z
1/2-x,1/2-y,-z
1/2+x,1/2-y,z
loop_
_atom_site_type_symbol
_atom_site_label
_atom_site_fract_x
_atom_site_fract_y
_atom_site_fract_z
Si Si1 0.574774 0.168460 0.675373
Si Si2 0.733787 0.326743 0.787453
Si Si3 0.519300 0.167742 0.082998
Si Si4 0.515562 0.666055 0.379116
Si Si5 0.800065 0.826060 0.393255
Si Si6 0.858203 0.170966 0.976204
Si Si7 0.845996 0.170337 0.776912
O O1 0.540269 0.182972 0.802412
O O2 0.531007 0.223681 0.630526
O O3 0.634174 0.270511 0.628389
O O4 0.593655 0.000000 0.639099
O O5 0.740230 0.500000 0.791659
O O6 0.710456 0.279906 0.705278
O O7 0.800684 0.258753 0.748118
O O8 0.686016 0.264393 0.905505
O O9 0.575200 0.256295 0.079092
O O10 0.540948 0.000000 0.053718
O O11 0.500000 0.235194 0.000000
O O12 0.500000 0.668680 0.500000
O O13 0.508761 0.500000 0.344739
O O14 0.584764 0.723731 0.303149
O O15 0.750000 0.750000 0.500000
O O16 0.796163 0.000000 0.409521
O O17 0.828796 0.201681 0.899648
O O18 0.868912 0.000000 0.983798
O O19 0.838861 0.000000 0.758048
#
# Coordination Sequence:
#
# PCOD8102876 Si02
#       7
#     8   8   8   8   8   8   8
#     4  11  23  40  63  92 122 156 199 247 299 353
#     4  10  23  40  60  88 121 157 199 248 299 352
#     4  10  21  36  57  87 122 157 195 241 293 349
#     4  10  22  40  62  90 122 158 199 246 302 360
#     4  11  25  44  64  88 119 158 202 249 300 355
#     4  10  20  37  59  87 120 155 198 241 293 356
#     4  10  21  37  60  90 122 158 198 241 296 358
#
# _framework density 19.787547
#
# number of rings (size 3 to 8) (size 9 to 14) (size 15 to 20)
#    0.000    1.714    1.429    2.143    2.000    4.000 
#    0.000    0.000    0.000    0.000    0.000    0.000 
#    0.000    0.000    0.000    0.000    0.000    0.000 
#
# Total GULP energy -347333.186296 kJ/mol
# GULP energy per Si atom -12404.756653 kJ/mol
# Density = 1.974251 g / cm^3
# Si number density = 19.787547 Si / 1000 Ang^3
#
#
#
# Elastic Constant Matrix: (Units=GPa)
#
#
# Indices 1 2 3 4 5 6 
#
# 1 94.7834 37.4076 30.6489 0.0000 -18.2757 0.0000
# 2 37.4076 57.9301 31.6139 0.0000 -3.3868 0.0000
# 3 30.6489 31.6139 105.9229 0.0000 -10.1884 0.0000
# 4 0.0000 0.0000 0.0000 25.9794 0.0000 -4.8439
# 5 -18.2757 -3.3868 -10.1884 0.0000 27.1408 0.0000
# 6 0.0000 0.0000 0.0000 -4.8439 0.0000 38.8833
#
#
#
# Elastic Compliance Matrix: (Units=1/GPa)
#
#
# Indices 1 2 3 4 5 6 
#
# 1 0.016474 -0.009532 -0.001006 0.000000 0.009526 0.000000
# 2 -0.009532 0.026139 -0.005547 0.000000 -0.005239 0.000000
# 3 -0.001006 -0.005547 0.011677 0.000000 0.003014 0.000000
# 4 0.000000 0.000000 0.000000 0.039407 0.000000 0.004909
# 5 0.009526 -0.005239 0.003014 0.000000 0.043737 0.000000
# 6 0.000000 0.000000 0.000000 0.004909 0.000000 0.026330
#
#
# Mechanical properties :
#
#
# Convention : Reuss Voigt Hill
#
# Bulk Modulus (GPa) = 45.20771 50.88638 48.04705
# Shear Modulus (GPa) = 24.59323 28.99845 26.79584
#
# Velocity S-wave (km/s) = 3.52925 3.83232 3.68391
# Velocity P-wave (km/s) = 6.28519 6.73457 6.51376
#
# Compressibility (1/GPa) = 0.02212012
#
# Stress axis : x y z
#
# Youngs Moduli (GPa) = 60.69998 38.25773 85.63627
#
# Poissons Ratio (x) = 0.36469 0.08611
# Poissons Ratio (y) = 0.57862 0.47503
# Poissons Ratio (z) = 0.06103 0.21222
#
# Static dielectric constant tensor:
#      x y z
#    x 3.244110 0.000000 0.230510 
#    y 0.000000 3.589090 0.000000 
#    z 0.230510 0.000000 3.684710 
# 
# 
# High freq. dielectric constant tensor:
#      x y z
#    x 1.776810 0.000000 0.000570 
#    y 0.000000 1.765430 0.000000 
#    z 0.000570 0.000000 1.785270 
# 
# From -- ./inp_files/238417.got.cif
#   From: 2010.06.25/outbox.cif.g09.slc.cpg/sg12_120_cif.got.tgz:238417.got - 2010.06.28 00:19:55.
