data_PCOD8102745
_publ_section_title
;
Structure prediction by ZEFSAII (Michael W. Deem and Ramdas Pophale) SiO2 
 PCOD8102745
Probable space group: C 2/M
;
_chemical_formula_sum "Si O2"
_cell_formula_units_Z 56
_cell_length_a 14.940341
_cell_length_b 9.126510
_cell_length_c 22.635788
_cell_angle_alpha 90.000000
_cell_angle_beta 69.392484
_cell_angle_gamma 90.000000
_cell_volume 2888.969226
_symmetry_space_group_name_H-M "C 2/M"
_symmetry_group_IT_number 12
_symmetry_cell_setting 'monoclinic'
loop_
_space_group_symop_operation_xyz
x,y,z
-x,y,-z
-x,-y,-z
x,-y,z
1/2+x,1/2+y,z
1/2-x,1/2+y,-z
1/2-x,1/2-y,-z
1/2+x,1/2-y,z
loop_
_atom_site_type_symbol
_atom_site_label
_atom_site_fract_x
_atom_site_fract_y
_atom_site_fract_z
Si Si1 0.838308 0.827268 0.630760
Si Si2 0.551406 0.669458 0.617309
Si Si3 0.109039 0.335280 0.494088
Si Si4 0.783809 0.328836 0.078380
Si Si5 0.617262 0.170619 0.063130
Si Si6 0.588534 0.829082 0.843277
Si Si7 0.845603 0.828075 0.285486
O O1 0.830877 0.758010 0.567079
O O2 0.755158 0.756285 0.689267
O O3 0.939369 0.788865 0.638270
O O4 0.822295 0.000000 0.629653
O O5 0.565659 0.500000 0.597895
O O6 0.616421 0.761113 0.556546
O O7 0.588058 0.708041 0.673790
O O8 0.150837 0.500000 0.487080
O O9 0.000000 0.336374 0.500000
O O10 0.765997 0.500000 0.077380
O O11 0.682293 0.249794 0.096775
O O12 0.826543 0.287779 0.131871
O O13 0.855107 0.276897 0.009348
O O14 0.508265 0.211981 0.100292
O O15 0.635385 0.000000 0.066342
O O16 0.596085 0.729084 0.784066
O O17 0.591320 0.000000 0.824788
O O18 0.825223 0.000000 0.284737
#
# Coordination Sequence:
#
# PCOD8102745 Si02
#       7
#     8   8   8   8   8   8   8
#     4  10  20  37  59  80 106 141 179 219 267 323
#     4   9  20  38  57  77 105 141 178 219 268 321
#     4   9  17  31  55  85 110 134 171 221 272 317
#     4   9  18  34  57  83 110 140 175 217 265 316
#     4   9  18  34  57  84 110 138 176 220 264 312
#     4  10  21  37  55  76 107 146 182 215 260 319
#     4  11  24  39  54  77 108 142 183 225 265 312
#
# _framework density 19.384077000000001
#
# number of rings (size 3 to 8) (size 9 to 14) (size 15 to 20)
#    0.000    2.429    0.000    1.714    0.000    8.000 
#    0.000    4.286    0.000    4.286    0.000    0.000 
#    0.000    0.000    0.000    0.000    0.000    0.000 
#
# Total GULP energy -347272.997850 kJ/mol
# GULP energy per Si atom -12402.607066 kJ/mol
# Density = 1.933996 g / cm^3
# Si number density = 19.384077 Si / 1000 Ang^3
#
#
#
# Elastic Constant Matrix: (Units=GPa)
#
#
# Indices 1 2 3 4 5 6 
#
# 1 68.8460 33.9308 24.0538 0.0000 10.1306 0.0000
# 2 33.9308 75.3701 38.8017 0.0000 6.4784 0.0000
# 3 24.0538 38.8017 77.5266 0.0000 17.1393 0.0000
# 4 0.0000 0.0000 0.0000 36.5583 0.0000 -0.9293
# 5 10.1306 6.4784 17.1393 0.0000 23.0627 0.0000
# 6 0.0000 0.0000 0.0000 -0.9293 0.0000 29.2939
#
#
#
# Elastic Compliance Matrix: (Units=1/GPa)
#
#
# Indices 1 2 3 4 5 6 
#
# 1 0.019545 -0.007863 -0.000860 0.000000 -0.005737 0.000000
# 2 -0.007863 0.021110 -0.009068 0.000000 0.004263 0.000000
# 3 -0.000860 -0.009068 0.020411 0.000000 -0.012243 0.000000
# 4 0.000000 0.000000 0.000000 0.027376 0.000000 0.000868
# 5 -0.005737 0.004263 -0.012243 0.000000 0.053782 0.000000
# 6 0.000000 0.000000 0.000000 0.000868 0.000000 0.034164
#
#
# Mechanical properties :
#
#
# Convention : Reuss Voigt Hill
#
# Bulk Modulus (GPa) = 39.24204 46.14614 42.69409
# Shear Modulus (GPa) = 22.67932 26.11341 24.39636
#
# Velocity S-wave (km/s) = 3.42423 3.67435 3.55149
# Velocity P-wave (km/s) = 5.99352 6.46985 6.23623
#
# Compressibility (1/GPa) = 0.02548287
#
# Stress axis : x y z
#
# Youngs Moduli (GPa) = 51.16311 47.37166 48.99300
#
# Poissons Ratio (x) = 0.37248 0.04216
# Poissons Ratio (y) = 0.40229 0.44428
# Poissons Ratio (z) = 0.04402 0.42957
#
# Static dielectric constant tensor:
#      x y z
#    x 3.584040 0.000000 0.072020 
#    y 0.000000 3.552960 0.000000 
#    z 0.072020 0.000000 3.569550 
# 
# 
# High freq. dielectric constant tensor:
#      x y z
#    x 1.754740 0.000000 0.000410 
#    y 0.000000 1.753630 0.000000 
#    z 0.000410 0.000000 1.749760 
# 
# From -- ./inp_files/337874.got.cif
#   From: 2010.06.25/outbox.cif.g09.slc.cpg/sg12_169_cif.got.tgz:337874.got - 2010.06.28 00:19:55.
