data_PCOD8102447
_publ_section_title
;
Structure prediction by ZEFSAII (Michael W. Deem and Ramdas Pophale) SiO2 
 PCOD8102447
Probable space group: C 2/M
;
_chemical_formula_sum "Si O2"
_cell_formula_units_Z 44
_cell_length_a 9.225183
_cell_length_b 30.598252
_cell_length_c 7.741316
_cell_angle_alpha 90.000000
_cell_angle_beta 89.123607
_cell_angle_gamma 90.000000
_cell_volume 2184.920280
_symmetry_space_group_name_H-M "C 2/M"
_symmetry_group_IT_number 12
_symmetry_cell_setting 'monoclinic'
loop_
_space_group_symop_operation_xyz
x,y,z
-x,y,-z
-x,-y,-z
x,-y,z
1/2+x,1/2+y,z
1/2-x,1/2+y,-z
1/2-x,1/2-y,-z
1/2+x,1/2-y,z
loop_
_atom_site_type_symbol
_atom_site_label
_atom_site_fract_x
_atom_site_fract_y
_atom_site_fract_z
Si Si1 0.834582 0.088790 0.031882
Si Si2 0.743731 0.769032 0.728570
Si Si3 0.842592 0.448072 0.281013
Si Si4 0.000000 0.254232 0.500000
Si Si5 0.836271 0.550607 0.664236
Si Si6 0.162862 0.810584 0.943226
O O1 0.746113 0.078810 0.859923
O O2 0.817055 0.138594 0.094782
O O3 0.786175 0.059943 0.194331
O O4 0.000000 0.076329 0.000000
O O5 0.897679 0.775107 0.627609
O O6 0.610463 0.784143 0.608832
O O7 0.734879 0.798831 0.896752
O O8 0.715749 0.717754 0.778114
O O9 0.823010 0.500000 0.246066
O O10 0.789314 0.432936 0.473640
O O11 0.009643 0.431933 0.267138
O O12 0.861442 0.500000 0.637862
O O13 0.000000 0.798010 0.000000
#
# Coordination Sequence:
#
# PCOD8102447 Si02
#       6
#     8   8   8   4   8   8
#     4  11  23  37  54  86 119 156 183 226 289 345
#     4  10  20  40  60  82 112 144 192 228 278 336
#     4   9  19  39  62  83 111 149 192 237 283 331
#     4  10  20  36  64  90 100 140 194 238 276 326
#     4   9  19  39  62  83 111 149 192 237 283 331
#     4  10  21  40  56  76 116 157 179 226 283 339
#
# _framework density 20.138036
#
# number of rings (size 3 to 8) (size 9 to 14) (size 15 to 20)
#    0.000    2.182    1.818    2.182    0.000    3.636 
#   13.091    1.818    0.000    0.000    0.000    0.000 
#    0.000    0.000    0.000    0.000    0.000    0.000 
#
# Total GULP energy -272677.630044 kJ/mol
# GULP energy per Si atom -12394.437729 kJ/mol
# Density = 2.009220 g / cm^3
# Si number density = 20.138036 Si / 1000 Ang^3
#
#
#
# Elastic Constant Matrix: (Units=GPa)
#
#
# Indices 1 2 3 4 5 6 
#
# 1 95.3629 23.4550 47.0126 0.0000 -12.0924 0.0000
# 2 23.4550 27.8741 19.9350 0.0000 1.0047 0.0000
# 3 47.0126 19.9350 119.3510 0.0000 -6.7306 0.0000
# 4 0.0000 0.0000 0.0000 13.9245 0.0000 -0.5768
# 5 -12.0924 1.0047 -6.7306 0.0000 28.1372 0.0000
# 6 0.0000 0.0000 0.0000 -0.5768 0.0000 21.3570
#
#
#
# Elastic Compliance Matrix: (Units=1/GPa)
#
#
# Indices 1 2 3 4 5 6 
#
# 1 0.015949 -0.010680 -0.004146 0.000000 0.006244 0.000000
# 2 -0.010680 0.048167 -0.004252 0.000000 -0.007327 0.000000
# 3 -0.004146 -0.004252 0.010775 0.000000 0.000947 0.000000
# 4 0.000000 0.000000 0.000000 0.071896 0.000000 0.001942
# 5 0.006244 -0.007327 0.000947 0.000000 0.038712 0.000000
# 6 0.000000 0.000000 0.000000 0.001942 0.000000 0.046875
#
#
# Mechanical properties :
#
#
# Convention : Reuss Voigt Hill
#
# Bulk Modulus (GPa) = 27.22153 47.04371 37.13262
# Shear Modulus (GPa) = 17.68184 22.82944 20.25564
#
# Velocity S-wave (km/s) = 2.96637 3.37062 3.17494
# Velocity P-wave (km/s) = 5.02785 6.20963 5.64972
#
# Compressibility (1/GPa) = 0.03673562
#
# Stress axis : x y z
#
# Youngs Moduli (GPa) = 62.70025 20.76101 92.80349
#
# Poissons Ratio (x) = 0.22173 0.38479
# Poissons Ratio (y) = 0.66964 0.39456
# Poissons Ratio (z) = 0.25998 0.08827
#
# Static dielectric constant tensor:
#      x y z
#    x 3.752260 0.000000 0.113940 
#    y 0.000000 3.244470 0.000000 
#    z 0.113940 0.000000 3.791480 
# 
# 
# High freq. dielectric constant tensor:
#      x y z
#    x 1.791760 0.000000 0.006970 
#    y 0.000000 1.744230 0.000000 
#    z 0.006970 0.000000 1.806330 
# 
# From -- ./inp_files/41631.got.cif
#   From: 2010.06.25/outbox.cif.g09.slc.cpg/sg12_21_cif.got.tgz:41631.got - 2010.06.28 00:19:55.
