data_PCOD8102479
_publ_section_title
;
Structure prediction by ZEFSAII (Michael W. Deem and Ramdas Pophale) SiO2 
 PCOD8102479
Probable space group: C 2/M
;
_chemical_formula_sum "Si O2"
_cell_formula_units_Z 64
_cell_length_a 17.750291
_cell_length_b 15.077610
_cell_length_c 19.314414
_cell_angle_alpha 90.000000
_cell_angle_beta 35.766569
_cell_angle_gamma 90.000000
_cell_volume 3021.289874
_symmetry_space_group_name_H-M "C 2/M"
_symmetry_group_IT_number 12
_symmetry_cell_setting 'monoclinic'
loop_
_space_group_symop_operation_xyz
x,y,z
-x,y,-z
-x,-y,-z
x,-y,z
1/2+x,1/2+y,z
1/2-x,1/2+y,-z
1/2-x,1/2-y,-z
1/2+x,1/2-y,z
loop_
_atom_site_type_symbol
_atom_site_label
_atom_site_fract_x
_atom_site_fract_y
_atom_site_fract_z
Si Si1 0.686696 0.901937 0.514850
Si Si2 0.212687 0.742537 0.866672
Si Si3 0.001506 0.757366 0.640490
Si Si4 0.340197 0.400552 0.997681
Si Si5 0.626887 0.820429 0.788511
Si Si6 0.648891 0.899075 0.022425
Si Si7 0.432188 0.336536 0.263952
Si Si8 0.172455 0.101167 0.450559
O O1 0.584766 0.830571 0.563834
O O2 0.817867 0.901472 0.372504
O O3 0.723172 0.880103 0.566903
O O4 0.625283 0.000000 0.554516
O O5 0.354197 0.765051 0.731858
O O6 0.148441 0.829886 0.948738
O O7 0.123044 0.707624 0.871583
O O8 0.224407 0.664784 0.914114
O O9 0.009144 0.785442 0.714440
O O10 0.049452 0.835608 0.553705
O O11 0.343090 0.500000 0.026803
O O12 0.206092 0.384039 0.056725
O O13 0.456611 0.391909 0.856546
O O14 0.631380 0.731898 0.740945
O O15 0.754450 0.877773 0.675842
O O16 0.501891 0.878146 0.863742
O O17 0.671310 0.000000 0.981470
O O18 0.122736 0.000000 0.487892
#
# Coordination Sequence:
#
# PCOD8102479 Si02
#       8
#     8   8   8   8   8   8   8   8
#     4  10  20  36  65  98 122 157 213 271 314 367
#     4  12  26  40  62  94 134 170 209 262 323 386
#     4  11  21  40  64  92 127 163 215 264 310 377
#     4  11  24  43  69  97 125 166 218 271 319 372
#     4  12  23  40  63  90 130 172 208 255 324 383
#     4  11  24  42  67  94 124 166 218 269 318 374
#     4  11  19  40  67  90 122 167 211 263 314 372
#     4  10  21  38  63  94 123 161 211 264 320 377
#
# _framework density 21.183005999999999
#
# number of rings (size 3 to 8) (size 9 to 14) (size 15 to 20)
#    0.000    1.000    5.000    3.000    0.000    3.500 
#    0.000    2.500    0.000    0.750    0.000    0.000 
#    0.000    0.000    0.000    0.000    0.000    0.000 
#
# Total GULP energy -396931.136469 kJ/mol
# GULP energy per Si atom -12404.098015 kJ/mol
# Density = 2.113479 g / cm^3
# Si number density = 21.183006 Si / 1000 Ang^3
#
#
#
# Elastic Constant Matrix: (Units=GPa)
#
#
# Indices 1 2 3 4 5 6 
#
# 1 23.2162 15.4459 19.2076 0.0000 5.4022 -0.0001
# 2 15.4459 130.3336 42.1971 0.0001 8.1030 -0.0001
# 3 19.2076 42.1971 115.4710 0.0003 -6.1020 -0.0002
# 4 0.0000 0.0001 0.0003 21.0806 -0.0001 -0.4995
# 5 5.4022 8.1030 -6.1020 -0.0001 25.2819 0.0001
# 6 -0.0001 -0.0001 -0.0002 -0.4995 0.0001 18.1102
#
#
#
# Elastic Compliance Matrix: (Units=1/GPa)
#
#
# Indices 1 2 3 4 5 6 
#
# 1 0.055339 -0.002886 -0.008839 0.000000 -0.013033 0.000000
# 2 -0.002886 0.009189 -0.003040 0.000000 -0.003062 0.000000
# 3 -0.008839 -0.003040 0.011540 0.000000 0.005648 0.000000
# 4 0.000000 0.000000 0.000000 0.047468 0.000000 0.001309
# 5 -0.013033 -0.003062 0.005648 0.000000 0.044684 0.000000
# 6 0.000000 0.000000 0.000000 0.001309 0.000000 0.055254
#
#
# Mechanical properties :
#
#
# Convention : Reuss Voigt Hill
#
# Bulk Modulus (GPa) = 21.48785 46.96911 34.22848
# Shear Modulus (GPa) = 18.62082 25.70588 22.16335
#
# Velocity S-wave (km/s) = 2.96809 3.48733 3.23813
# Velocity P-wave (km/s) = 4.68102 6.19972 5.49311
#
# Compressibility (1/GPa) = 0.04653794
#
# Stress axis : x y z
#
# Youngs Moduli (GPa) = 18.07033 108.82328 86.65629
#
# Poissons Ratio (x) = 0.31408 0.76598
# Poissons Ratio (y) = 0.05215 0.26342
# Poissons Ratio (z) = 0.15973 0.33080
#
# Static dielectric constant tensor:
#      x y z
#    x 3.538050 0.000000 0.005380 
#    y 0.000000 3.809540 0.000000 
#    z 0.005380 0.000000 3.868950 
# 
# 
# High freq. dielectric constant tensor:
#      x y z
#    x 1.801100 0.000000 -0.007990 
#    y 0.000000 1.835350 0.000000 
#    z -0.007990 0.000000 1.839670 
# 
# From -- ./inp_files/278130.got.cif
#   From: 2010.06.25/outbox.cif.g09.slc.cpg/sg12_140_cif.got.tgz:278130.got - 2010.06.28 00:19:55.
