data_PCOD8102140
_publ_section_title
;
Structure prediction by ZEFSAII (Michael W. Deem and Ramdas Pophale) SiO2 
 PCOD8102140
Probable space group: C 2/M
;
_chemical_formula_sum "Si O2"
_cell_formula_units_Z 64
_cell_length_a 17.218554
_cell_length_b 15.094553
_cell_length_c 18.023172
_cell_angle_alpha 90.000000
_cell_angle_beta 41.054407
_cell_angle_gamma 90.000000
_cell_volume 3076.557474
_symmetry_space_group_name_H-M "C 2/M"
_symmetry_group_IT_number 12
_symmetry_cell_setting 'monoclinic'
loop_
_space_group_symop_operation_xyz
x,y,z
-x,y,-z
-x,-y,-z
x,-y,z
1/2+x,1/2+y,z
1/2-x,1/2+y,-z
1/2-x,1/2-y,-z
1/2+x,1/2-y,z
loop_
_atom_site_type_symbol
_atom_site_label
_atom_site_fract_x
_atom_site_fract_y
_atom_site_fract_z
Si Si1 0.409218 0.399914 0.632031
Si Si2 0.259700 0.769338 0.315839
Si Si3 0.984015 0.259488 0.930643
Si Si4 0.417254 0.839805 0.835526
Si Si5 0.259355 0.600773 0.395269
Si Si6 0.475700 0.647454 0.747764
Si Si7 0.344316 0.598681 0.985656
Si Si8 0.837514 0.403472 0.376910
O O1 0.500000 0.381192 0.500000
O O2 0.357833 0.500000 0.661597
O O3 0.309546 0.323597 0.697607
O O4 0.466970 0.391305 0.671385
O O5 0.389731 0.747311 0.196057
O O6 0.206472 0.672224 0.374215
O O7 0.263059 0.830007 0.386873
O O8 0.906526 0.320979 0.932024
O O9 0.921674 0.163743 0.981240
O O10 0.000000 0.302841 0.000000
O O11 0.450687 0.751995 0.765095
O O12 0.523611 0.907159 0.743322
O O13 0.293004 0.879833 0.901173
O O14 0.252340 0.500000 0.369093
O O15 0.393882 0.625482 0.317486
O O16 0.176791 0.612733 0.525869
O O17 0.379874 0.605064 0.873102
O O18 0.368129 0.500000 0.997293
O O19 0.784736 0.500000 0.393646
#
# Coordination Sequence:
#
# PCOD8102140 Si02
#       8
#     8   8   8   8   8   8   8   8
#     4  11  25  40  60  93 128 161 200 247 305 368
#     4  11  22  37  61  88 124 162 197 250 309 361
#     4  10  22  38  58  86 118 155 198 246 304 359
#     4  10  22  38  62  87 118 162 205 247 302 365
#     4  11  21  37  64  93 119 157 209 255 298 358
#     4  11  21  39  63  88 121 159 204 252 302 360
#     4  11  22  39  63  88 118 157 206 255 301 356
#     4  10  20  36  60  90 124 155 202 254 299 362
#
# _framework density 20.802472000000002
#
# number of rings (size 3 to 8) (size 9 to 14) (size 15 to 20)
#    0.000    1.375    3.750    4.500    5.250    2.250 
#    0.000    0.000    0.000    2.625    0.000    0.000 
#    0.000    0.000    0.000    0.000    0.000    0.000 
#
# Total GULP energy -396675.293065 kJ/mol
# GULP energy per Si atom -12396.102908 kJ/mol
# Density = 2.075512 g / cm^3
# Si number density = 20.802472 Si / 1000 Ang^3
#
#
#
# Elastic Constant Matrix: (Units=GPa)
#
#
# Indices 1 2 3 4 5 6 
#
# 1 61.0927 21.9260 7.3220 0.0000 2.0519 0.0000
# 2 21.9260 113.6441 12.3738 0.0000 -0.1852 0.0000
# 3 7.3220 12.3738 43.8609 0.0000 3.3124 0.0000
# 4 0.0000 0.0000 0.0000 21.5833 0.0000 -7.1089
# 5 2.0519 -0.1852 3.3124 0.0000 28.6009 0.0000
# 6 0.0000 0.0000 0.0000 -7.1089 0.0000 11.3091
#
#
#
# Elastic Compliance Matrix: (Units=1/GPa)
#
#
# Indices 1 2 3 4 5 6 
#
# 1 0.017798 -0.003220 -0.001982 0.000000 -0.001068 0.000000
# 2 -0.003220 0.009664 -0.002231 0.000000 0.000552 0.000000
# 3 -0.001982 -0.002231 0.023959 0.000000 -0.002647 0.000000
# 4 0.000000 0.000000 0.000000 0.058429 0.000000 0.036729
# 5 -0.001068 0.000552 -0.002647 0.000000 0.035351 0.000000
# 6 0.000000 0.000000 0.000000 0.036729 0.000000 0.111512
#
#
# Mechanical properties :
#
#
# Convention : Reuss Voigt Hill
#
# Bulk Modulus (GPa) = 27.35492 33.53792 30.44642
# Shear Modulus (GPa) = 17.62028 24.09705 20.85866
#
# Velocity S-wave (km/s) = 2.91353 3.40718 3.16998
# Velocity P-wave (km/s) = 4.94941 5.62455 5.29775
#
# Compressibility (1/GPa) = 0.03655650
#
# Stress axis : x y z
#
# Youngs Moduli (GPa) = 56.18750 103.47276 41.73722
#
# Poissons Ratio (x) = 0.33315 0.08273
# Poissons Ratio (y) = 0.18091 0.09310
# Poissons Ratio (z) = 0.11137 0.23081
#
# Static dielectric constant tensor:
#      x y z
#    x 4.125590 0.000000 0.355530 
#    y 0.000000 4.020020 0.000000 
#    z 0.355530 0.000000 4.000090 
# 
# 
# High freq. dielectric constant tensor:
#      x y z
#    x 1.783620 0.000000 -0.003510 
#    y 0.000000 1.822240 0.000000 
#    z -0.003510 0.000000 1.819660 
# 
# From -- ./inp_files/278156.got.cif
#   From: 2010.06.25/outbox.cif.g09.slc.cpg/sg12_140_cif.got.tgz:278156.got - 2010.06.28 00:19:55.
