data_PCOD8102094
_publ_section_title
;
Structure prediction by ZEFSAII (Michael W. Deem and Ramdas Pophale) SiO2 
 PCOD8102094
Probable space group: C 2/M
;
_chemical_formula_sum "Si O2"
_cell_formula_units_Z 48
_cell_length_a 20.331457
_cell_length_b 9.122458
_cell_length_c 20.819169
_cell_angle_alpha 90.000000
_cell_angle_beta 41.684309
_cell_angle_gamma 90.000000
_cell_volume 2567.924768
_symmetry_space_group_name_H-M "C 2/M"
_symmetry_group_IT_number 12
_symmetry_cell_setting 'monoclinic'
loop_
_space_group_symop_operation_xyz
x,y,z
-x,y,-z
-x,-y,-z
x,-y,z
1/2+x,1/2+y,z
1/2-x,1/2+y,-z
1/2-x,1/2-y,-z
1/2+x,1/2-y,z
loop_
_atom_site_type_symbol
_atom_site_label
_atom_site_fract_x
_atom_site_fract_y
_atom_site_fract_z
Si Si1 0.297533 0.828205 0.251947
Si Si2 0.653436 0.327997 0.045177
Si Si3 0.964896 0.668466 0.229793
Si Si4 0.110567 0.171432 0.930378
Si Si5 0.351110 0.830345 0.442608
Si Si6 0.901483 0.828955 0.533049
O O1 0.380346 0.778433 0.242392
O O2 0.313342 0.748849 0.172890
O O3 0.191417 0.779770 0.356300
O O4 0.301451 0.000000 0.236672
O O5 0.662195 0.500000 0.050593
O O6 0.559729 0.269902 0.152565
O O7 0.750000 0.250000 0.000000
O O8 0.643081 0.289106 0.978128
O O9 0.993634 0.500000 0.195409
O O10 0.927310 0.689806 0.329161
O O11 0.114039 0.000000 0.913420
O O12 0.000000 0.232740 0.000000
O O13 0.250000 0.750000 0.500000
O O14 0.403446 0.762417 0.466367
O O15 0.326671 0.000000 0.472434
O O16 0.000000 0.791536 0.500000
O O17 0.893902 0.000000 0.520816
#
# Coordination Sequence:
#
# PCOD8102094 Si02
#       6
#     8   8   8   8   8   8
#     4  10  20  36  60  89 119 154 196 243 292 347
#     4  11  24  41  61  87 122 157 194 244 299 354
#     4  10  21  38  60  88 121 154 197 248 294 349
#     4  10  21  38  59  86 116 148 194 244 289 345
#     4  11  22  38  62  90 122 157 202 251 299 356
#     4  10  22  41  61  87 125 160 197 247 301 357
#
# _framework density 18.692136000000001
#
# number of rings (size 3 to 8) (size 9 to 14) (size 15 to 20)
#    0.000    1.667    3.333    1.000    0.000    5.333 
#    0.000    3.333    0.000    0.000    0.000    0.000 
#    0.000    0.000    0.000    0.000    0.000    0.000 
#
# Total GULP energy -297737.283446 kJ/mol
# GULP energy per Si atom -12405.720144 kJ/mol
# Density = 1.864959 g / cm^3
# Si number density = 18.692136 Si / 1000 Ang^3
#
#
#
# Elastic Constant Matrix: (Units=GPa)
#
#
# Indices 1 2 3 4 5 6 
#
# 1 143.8738 72.5279 77.3231 0.0000 -8.5689 0.0000
# 2 72.5279 84.4467 63.9286 0.0000 4.1108 -0.0001
# 3 77.3231 63.9286 133.2779 0.0000 -2.3976 0.0000
# 4 0.0000 0.0000 0.0000 36.7885 0.0000 3.6117
# 5 -8.5689 4.1108 -2.3976 0.0000 35.7483 0.0000
# 6 0.0000 -0.0001 0.0000 3.6117 0.0000 32.7734
#
#
#
# Elastic Compliance Matrix: (Units=1/GPa)
#
#
# Indices 1 2 3 4 5 6 
#
# 1 0.013804 -0.009504 -0.003375 0.000000 0.004175 0.000000
# 2 -0.009504 0.025409 -0.006776 0.000000 -0.005655 0.000000
# 3 -0.003375 -0.006776 0.012726 0.000000 0.000824 0.000000
# 4 0.000000 0.000000 0.000000 0.027480 0.000000 -0.003028
# 5 0.004175 -0.005655 0.000824 0.000000 0.029680 0.000000
# 6 0.000000 0.000000 0.000000 -0.003028 0.000000 0.030846
#
#
# Mechanical properties :
#
#
# Convention : Reuss Voigt Hill
#
# Bulk Modulus (GPa) = 79.17624 87.68418 83.43021
# Shear Modulus (GPa) = 27.25334 30.91662 29.08498
#
# Velocity S-wave (km/s) = 3.82253 4.07134 3.94890
# Velocity P-wave (km/s) = 7.86971 8.31340 8.09460
#
# Compressibility (1/GPa) = 0.01263005
#
# Stress axis : x y z
#
# Youngs Moduli (GPa) = 72.44233 39.35585 78.58077
#
# Poissons Ratio (x) = 0.37405 0.26518
# Poissons Ratio (y) = 0.68852 0.53243
# Poissons Ratio (z) = 0.24447 0.26666
#
# Static dielectric constant tensor:
#      x y z
#    x 3.493060 0.000000 0.079010 
#    y 0.000000 3.463460 0.000000 
#    z 0.079010 0.000000 3.492570 
# 
# 
# High freq. dielectric constant tensor:
#      x y z
#    x 1.729270 0.000000 0.003320 
#    y 0.000000 1.725880 0.000000 
#    z 0.003320 0.000000 1.736450 
# 
# From -- ./inp_files/244757.got.cif
#   From: 2010.06.25/outbox.cif.g09.slc.cpg/sg12_123_cif.got.tgz:244757.got - 2010.06.28 00:19:55.
