data_PCOD8102508
_publ_section_title
;
Structure prediction by ZEFSAII (Michael W. Deem and Ramdas Pophale) SiO2 
 PCOD8102508
Probable space group: C 2/M
;
_chemical_formula_sum "Si O2"
_cell_formula_units_Z 28
_cell_length_a 12.468957
_cell_length_b 27.580395
_cell_length_c 5.150472
_cell_angle_alpha 90.000000
_cell_angle_beta 64.732745
_cell_angle_gamma 90.000000
_cell_volume 1601.780360
_symmetry_space_group_name_H-M "C 2/M"
_symmetry_group_IT_number 12
_symmetry_cell_setting 'monoclinic'
loop_
_space_group_symop_operation_xyz
x,y,z
-x,y,-z
-x,-y,-z
x,-y,z
1/2+x,1/2+y,z
1/2-x,1/2+y,-z
1/2-x,1/2-y,-z
1/2+x,1/2-y,z
loop_
_atom_site_type_symbol
_atom_site_label
_atom_site_fract_x
_atom_site_fract_y
_atom_site_fract_z
Si Si1 0.576555 0.444040 0.168707
Si Si2 0.734598 0.136528 0.034835
Si Si3 0.500000 0.843177 0.500000
Si Si4 0.215770 0.694499 0.532851
O O1 0.500000 0.432784 0.500000
O O2 0.614491 0.500000 0.113109
O O3 0.500000 0.428444 0.000000
O O4 0.697563 0.413968 0.059543
O O5 0.594668 0.124627 0.236666
O O6 0.748413 0.331350 0.238230
O O7 0.785756 0.167792 0.224468
O O8 0.425936 0.809534 0.375385
O O9 0.250000 0.750000 0.500000
#
# Coordination Sequence:
#
# PCOD8102508 Si02
#       4
#     8   8   4   8
#     4  10  21  39  60  85 115 148 188 240 290 338
#     4  10  20  38  57  83 113 149 186 234 285 335
#     4   8  22  34  59  76 120 142 179 236 280 324
#     4  10  20  37  55  82 114 151 187 229 280 334
#
# _framework density 17.480547999999999
#
# number of rings (size 3 to 8) (size 9 to 14) (size 15 to 20)
#    1.714    0.571    0.000    3.429    0.000    0.000 
#    7.714    0.714    0.000    1.714    0.000    0.000 
#    0.000    0.000    0.000    0.000    0.000    0.000 
#
# Total GULP energy -173451.842091 kJ/mol
# GULP energy per Si atom -12389.417292 kJ/mol
# Density = 1.744076 g / cm^3
# Si number density = 17.480548 Si / 1000 Ang^3
#
#
#
# Elastic Constant Matrix: (Units=GPa)
#
#
# Indices 1 2 3 4 5 6 
#
# 1 96.6649 70.7408 59.4477 0.0000 -10.3590 0.0000
# 2 70.7408 114.6499 60.2472 0.0000 -11.9614 0.0000
# 3 59.4477 60.2472 128.5241 0.0000 22.5392 0.0000
# 4 0.0000 0.0000 0.0000 52.9210 0.0000 1.7309
# 5 -10.3590 -11.9614 22.5392 0.0000 31.9165 0.0000
# 6 0.0000 0.0000 0.0000 1.7309 0.0000 33.1656
#
#
#
# Elastic Compliance Matrix: (Units=1/GPa)
#
#
# Indices 1 2 3 4 5 6 
#
# 1 0.022874 -0.008756 -0.008220 0.000000 0.009948 0.000000
# 2 -0.008756 0.018002 -0.005790 0.000000 0.007993 0.000000
# 3 -0.008220 -0.005790 0.017286 0.000000 -0.017045 0.000000
# 4 0.000000 0.000000 0.000000 0.018928 0.000000 -0.000988
# 5 0.009948 0.007993 -0.017045 0.000000 0.049593 0.000000
# 6 0.000000 0.000000 0.000000 -0.000988 0.000000 0.030203
#
#
# Mechanical properties :
#
#
# Convention : Reuss Voigt Hill
#
# Bulk Modulus (GPa) = 79.18347 80.07892 79.63120
# Shear Modulus (GPa) = 24.19779 33.56083 28.87931
#
# Velocity S-wave (km/s) = 3.72461 4.38642 4.06899
# Velocity P-wave (km/s) = 7.99333 8.45955 8.22974
#
# Compressibility (1/GPa) = 0.01262890
#
# Stress axis : x y z
#
# Youngs Moduli (GPa) = 43.71681 55.55063 57.84953
#
# Poissons Ratio (x) = 0.48643 0.47554
# Poissons Ratio (y) = 0.38280 0.33495
# Poissons Ratio (z) = 0.35936 0.32164
#
# Static dielectric constant tensor:
#      x y z
#    x 3.187710 0.000000 0.196350 
#    y 0.000000 3.005040 0.000000 
#    z 0.196350 0.000000 3.438290 
# 
# 
# High freq. dielectric constant tensor:
#      x y z
#    x 1.667440 0.000000 0.014370 
#    y 0.000000 1.652890 0.000000 
#    z 0.014370 0.000000 1.693260 
# 
# From -- ./inp_files/6533.got.cif
#   From: 2010.06.25/outbox.cif.g09.slc.cpg/sg12_4_cif.got.tgz:6533.got - 2010.06.28 00:19:55.
