data_PCOD8102297
_publ_section_title
;
Structure prediction by ZEFSAII (Michael W. Deem and Ramdas Pophale) SiO2 
 PCOD8102297
Probable space group: C 2/M
;
_chemical_formula_sum "Si O2"
_cell_formula_units_Z 64
_cell_length_a 9.241487
_cell_length_b 27.201220
_cell_length_c 15.478022
_cell_angle_alpha 90.000000
_cell_angle_beta 48.177573
_cell_angle_gamma 90.000000
_cell_volume 2899.528046
_symmetry_space_group_name_H-M "C 2/M"
_symmetry_group_IT_number 12
_symmetry_cell_setting 'monoclinic'
loop_
_space_group_symop_operation_xyz
x,y,z
-x,y,-z
-x,-y,-z
x,-y,z
1/2+x,1/2+y,z
1/2-x,1/2+y,-z
1/2-x,1/2-y,-z
1/2+x,1/2-y,z
loop_
_atom_site_type_symbol
_atom_site_label
_atom_site_fract_x
_atom_site_fract_y
_atom_site_fract_z
Si Si1 0.707359 0.344248 0.411302
Si Si2 0.192952 0.445604 0.669785
Si Si3 0.816343 0.555803 0.129540
Si Si4 0.588396 0.056365 0.376564
Si Si5 0.483681 0.230408 0.258891
Si Si6 0.417771 0.705746 0.125293
Si Si7 0.448124 0.381844 0.222622
Si Si8 0.280802 0.808650 0.562291
O O1 0.500000 0.317186 0.500000
O O2 0.659628 0.400389 0.400894
O O3 0.856062 0.318161 0.285116
O O4 0.806226 0.339263 0.464830
O O5 0.286649 0.500000 0.615489
O O6 0.113162 0.443312 0.799026
O O7 0.030033 0.434186 0.663628
O O8 0.748264 0.500000 0.132752
O O9 0.647929 0.595773 0.179741
O O10 0.000000 0.571800 0.000000
O O11 0.500000 0.081941 0.500000
O O12 0.803673 0.073182 0.267784
O O13 0.605373 0.000000 0.392665
O O14 0.520021 0.260041 0.156443
O O15 0.686474 0.214823 0.221284
O O16 0.350687 0.258595 0.384548
O O17 0.476313 0.648876 0.122187
O O18 0.500000 0.720766 0.000000
O O19 0.344154 0.343031 0.325611
O O20 0.500000 0.795780 0.500000
#
# Coordination Sequence:
#
# PCOD8102297 Si02
#       8
#     8   8   8   8   8   8   8   8
#     4  12  22  35  59  89 121 162 207 254 315 382
#     4  10  22  39  59  90 130 169 214 266 321 387
#     4  10  23  44  66  89 124 171 224 280 328 375
#     4  10  20  36  61  93 132 173 209 254 317 387
#     4  11  23  42  64  90 124 165 214 263 319 386
#     4  11  25  44  65  91 124 162 209 270 330 384
#     4  11  22  39  63  93 124 165 214 264 322 385
#     4  11  22  39  61  91 129 166 208 256 311 382
#
# _framework density 22.072558999999998
#
# number of rings (size 3 to 8) (size 9 to 14) (size 15 to 20)
#    0.000    1.250    0.000    7.125    0.000    3.250 
#    0.000    6.250    0.000    3.750    0.000    0.000 
#    0.000    0.000    0.000    0.000    0.000    0.000 
#
# Total GULP energy -396524.474872 kJ/mol
# GULP energy per Si atom -12391.389840 kJ/mol
# Density = 2.202232 g / cm^3
# Si number density = 22.072559 Si / 1000 Ang^3
#
#
#
# Elastic Constant Matrix: (Units=GPa)
#
#
# Indices 1 2 3 4 5 6 
#
# 1 114.4764 42.4743 43.5776 0.0000 -4.6889 0.0000
# 2 42.4743 67.2530 42.4356 0.0000 -6.2119 0.0000
# 3 43.5776 42.4356 96.6903 0.0000 6.0784 0.0000
# 4 0.0000 0.0000 0.0000 -0.5142 0.0000 -5.6101
# 5 -4.6889 -6.2119 6.0784 0.0000 40.9298 0.0000
# 6 0.0000 0.0000 0.0000 -5.6101 0.0000 32.0669
#
#
#
# Elastic Compliance Matrix: (Units=1/GPa)
#
#
# Indices 1 2 3 4 5 6 
#
# 1 0.011995 -0.005581 -0.003018 0.000000 0.000975 0.000000
# 2 -0.005581 0.024017 -0.008292 0.000000 0.004237 0.000000
# 3 -0.003018 -0.008292 0.015588 0.000000 -0.003919 0.000000
# 4 0.000000 0.000000 0.000000 -0.668600 0.000000 -0.116970
# 5 0.000975 0.004237 -0.003919 0.000000 0.025769 0.000000
# 6 0.000000 0.000000 0.000000 -0.116970 0.000000 0.010721
#
#
# Mechanical properties :
#
#
# Convention : Reuss Voigt Hill
#
# Bulk Modulus (GPa) = 56.12110 59.48831 57.80470
# Shear Modulus (GPa) = -9.24577 24.49198 7.62311
#
# Velocity S-wave (km/s) = -2.04888 3.33470 1.86042
# Velocity P-wave (km/s) = 4.45912 6.46813 5.55520
#
# Compressibility (1/GPa) = 0.01781861
#
# Stress axis : x y z
#
# Youngs Moduli (GPa) = 83.36817 41.63638 64.15225
#
# Poissons Ratio (x) = 0.23238 0.19360
# Poissons Ratio (y) = 0.46530 0.53194
# Poissons Ratio (z) = 0.25159 0.34524
#
# Static dielectric constant tensor:
#      x y z
#    x 3.890940 0.000000 0.147970 
#    y 0.000000 4.371720 0.000000 
#    z 0.147970 0.000000 3.947080 
# 
# 
# High freq. dielectric constant tensor:
#      x y z
#    x 1.865890 0.000000 0.005630 
#    y 0.000000 1.886620 0.000000 
#    z 0.005630 0.000000 1.857030 
# 
# From -- ./inp_files/201258.got.cif
#   From: 2010.06.25/outbox.cif.g09.slc.cpg/sg12_101_cif.got.tgz:201258.got - 2010.06.28 00:19:55.
