data_PCOD8102415
_publ_section_title
;
Structure prediction by ZEFSAII (Michael W. Deem and Ramdas Pophale) SiO2 
 PCOD8102415
Probable space group: C 2/M
;
_chemical_formula_sum "Si O2"
_cell_formula_units_Z 64
_cell_length_a 14.499812
_cell_length_b 17.705476
_cell_length_c 16.038898
_cell_angle_alpha 90.000000
_cell_angle_beta 125.312982
_cell_angle_gamma 90.000000
_cell_volume 3359.991633
_symmetry_space_group_name_H-M "C 2/M"
_symmetry_group_IT_number 12
_symmetry_cell_setting 'monoclinic'
loop_
_space_group_symop_operation_xyz
x,y,z
-x,y,-z
-x,-y,-z
x,-y,z
1/2+x,1/2+y,z
1/2-x,1/2+y,-z
1/2-x,1/2-y,-z
1/2+x,1/2-y,z
loop_
_atom_site_type_symbol
_atom_site_label
_atom_site_fract_x
_atom_site_fract_y
_atom_site_fract_z
Si Si1 0.160963 0.588728 0.355723
Si Si2 0.350854 0.206244 0.096724
Si Si3 0.896021 0.665706 0.388513
Si Si4 0.279143 0.588699 0.249248
Si Si5 0.961489 0.202118 0.295171
Si Si6 0.385524 0.082755 0.984212
Si Si7 0.222357 0.825395 0.439786
Si Si8 0.402848 0.085426 0.237597
O O1 0.153953 0.500000 0.346806
O O2 0.223271 0.620711 0.305636
O O3 0.229858 0.608559 0.475768
O O4 0.031120 0.618127 0.289520
O O5 0.428331 0.268004 0.184879
O O6 0.314263 0.141958 0.145031
O O7 0.250000 0.250000 0.000000
O O8 0.410765 0.151796 0.060303
O O9 0.933066 0.735896 0.350271
O O10 0.782112 0.677667 0.381108
O O11 0.874813 0.591857 0.320558
O O12 0.000000 0.644606 0.500000
O O13 0.300154 0.500000 0.268771
O O14 0.397096 0.627874 0.291927
O O15 0.203159 0.610236 0.130653
O O16 0.088822 0.172294 0.357126
O O17 0.348841 0.000000 0.004947
O O18 0.500000 0.064283 0.000000
O O19 0.250000 0.750000 0.500000
O O20 0.387872 0.000000 0.198565
#
# Coordination Sequence:
#
# PCOD8102415 Si02
#       8
#     8   8   8   8   8   8   8   8
#     4  10  21  36  59  88 118 151 194 245 296 349
#     4  11  21  39  57  87 117 153 196 241 301 357
#     4  11  21  37  58  88 115 153 195 237 297 354
#     4  10  21  37  56  85 120 155 195 243 297 357
#     4  11  24  38  58  84 122 158 195 242 297 358
#     4  10  20  36  63  91 116 151 198 254 305 350
#     4  12  22  37  58  85 117 157 195 235 291 360
#     4  10  21  38  61  88 119 151 196 255 299 344
#
# _framework density 19.047666
#
# number of rings (size 3 to 8) (size 9 to 14) (size 15 to 20)
#    0.000    1.375    3.750    2.625    0.000    4.250 
#    0.000    1.250    0.000    0.000    0.000    0.875 
#    0.000    0.000    0.000    0.000    0.000    0.000 
#
# Total GULP energy -396420.604673 kJ/mol
# GULP energy per Si atom -12388.143896 kJ/mol
# Density = 1.900431 g / cm^3
# Si number density = 19.047666 Si / 1000 Ang^3
#
#
#
# Elastic Constant Matrix: (Units=GPa)
#
#
# Indices 1 2 3 4 5 6 
#
# 1 123.2189 35.2272 45.7495 0.0000 -10.2716 0.0000
# 2 35.2272 67.5005 42.1955 0.0000 -0.1788 0.0000
# 3 45.7495 42.1955 117.4925 0.0000 -8.1480 0.0000
# 4 0.0000 0.0000 0.0000 34.7870 0.0000 -5.0327
# 5 -10.2716 -0.1788 -8.1480 0.0000 28.3693 0.0000
# 6 0.0000 0.0000 0.0000 -5.0327 0.0000 29.1915
#
#
#
# Elastic Compliance Matrix: (Units=1/GPa)
#
#
# Indices 1 2 3 4 5 6 
#
# 1 0.010385 -0.003889 -0.002437 0.000000 0.003036 0.000000
# 2 -0.003889 0.020659 -0.006116 0.000000 -0.003034 0.000000
# 3 -0.002437 -0.006116 0.011828 0.000000 0.002476 0.000000
# 4 0.000000 0.000000 0.000000 0.029482 0.000000 0.005083
# 5 0.003036 -0.003034 0.002476 0.000000 0.037041 0.000000
# 6 0.000000 0.000000 0.000000 0.005083 0.000000 0.035133
#
#
# Mechanical properties :
#
#
# Convention : Reuss Voigt Hill
#
# Bulk Modulus (GPa) = 55.58530 61.61738 58.60134
# Shear Modulus (GPa) = 28.50532 30.80554 29.65543
#
# Velocity S-wave (km/s) = 3.87269 4.02591 3.95005
# Velocity P-wave (km/s) = 7.01730 7.35050 7.18584
#
# Compressibility (1/GPa) = 0.01799037
#
# Stress axis : x y z
#
# Youngs Moduli (GPa) = 96.29155 48.40512 84.54456
#
# Poissons Ratio (x) = 0.18822 0.20602
# Poissons Ratio (y) = 0.37443 0.51704
# Poissons Ratio (z) = 0.23464 0.29603
#
# Static dielectric constant tensor:
#      x y z
#    x 3.465690 0.000000 -0.323040 
#    y 0.000000 3.534300 0.000000 
#    z -0.323040 0.000000 3.523640 
# 
# 
# High freq. dielectric constant tensor:
#      x y z
#    x 1.720250 0.000000 -0.013180 
#    y 0.000000 1.744140 0.000000 
#    z -0.013180 0.000000 1.754280 
# 
# From -- ./inp_files/216399.got.cif
#   From: 2010.06.25/outbox.cif.g09.slc.cpg/sg12_109_cif.got.tgz:216399.got - 2010.06.28 00:19:55.
