data_PCOD8102349
_publ_section_title
;
Structure prediction by ZEFSAII (Michael W. Deem and Ramdas Pophale) SiO2 
 PCOD8102349
Probable space group: C 2/M
;
_chemical_formula_sum "Si O2"
_cell_formula_units_Z 40
_cell_length_a 10.570530
_cell_length_b 19.003839
_cell_length_c 15.902504
_cell_angle_alpha 90.000000
_cell_angle_beta 143.831663
_cell_angle_gamma 90.000000
_cell_volume 1885.268099
_symmetry_space_group_name_H-M "C 2/M"
_symmetry_group_IT_number 12
_symmetry_cell_setting 'monoclinic'
loop_
_space_group_symop_operation_xyz
x,y,z
-x,y,-z
-x,-y,-z
x,-y,z
1/2+x,1/2+y,z
1/2-x,1/2+y,-z
1/2-x,1/2-y,-z
1/2+x,1/2-y,z
loop_
_atom_site_type_symbol
_atom_site_label
_atom_site_fract_x
_atom_site_fract_y
_atom_site_fract_z
Si Si1 0.514607 0.083348 0.410623
Si Si2 0.287227 0.691008 0.828400
Si Si3 0.916861 0.784053 0.150545
Si Si4 0.245517 0.579521 0.126137
Si Si5 0.052446 0.919745 0.439232
O O1 0.500000 0.106675 0.500000
O O2 0.330473 0.117522 0.253670
O O3 0.743681 0.112761 0.500135
O O4 0.488369 0.000000 0.388407
O O5 0.113279 0.744752 0.776173
O O6 0.354071 0.724022 0.773149
O O7 0.500000 0.678579 0.000000
O O8 0.870700 0.867644 0.132368
O O9 0.750000 0.750000 0.000000
O O10 0.270311 0.500000 0.103818
O O11 0.339182 0.585448 0.269622
O O12 0.000000 0.603143 0.000000
O O13 0.000000 0.881642 0.500000
O O14 0.116223 0.000000 0.492093
#
# Coordination Sequence:
#
# PCOD8102349 Si02
#       5
#     8   8   8   8   8
#     4  10  21  39  60  84 120 158 192 239 295 343
#     4  10  22  39  61  85 115 157 198 237 289 350
#     4  10  21  39  59  85 122 154 187 242 300 341
#     4  10  20  36  62  91 116 151 199 241 284 347
#     4   9  19  35  55  84 121 154 186 236 296 341
#
# _framework density 21.217141999999999
#
# number of rings (size 3 to 8) (size 9 to 14) (size 15 to 20)
#    0.000    2.200    0.000    3.000    0.000    7.600 
#    0.000   12.000    0.000    0.000    0.000    0.000 
#    0.000    0.000    0.000    0.000    0.000    0.000 
#
# Total GULP energy -247850.178089 kJ/mol
# GULP energy per Si atom -12392.508904 kJ/mol
# Density = 2.116885 g / cm^3
# Si number density = 21.217142 Si / 1000 Ang^3
#
#
#
# Elastic Constant Matrix: (Units=GPa)
#
#
# Indices 1 2 3 4 5 6 
#
# 1 204.6544 46.5629 50.5771 -0.0002 5.7597 0.0003
# 2 46.5629 77.8568 24.0187 0.0003 -9.6607 0.0016
# 3 50.5771 24.0187 96.7772 0.0076 9.8744 0.0047
# 4 -0.0002 0.0003 0.0076 25.7521 0.0014 -4.9989
# 5 5.7597 -9.6607 9.8744 0.0014 20.8075 0.0011
# 6 0.0003 0.0016 0.0047 -4.9989 0.0011 19.7612
#
#
#
# Elastic Compliance Matrix: (Units=1/GPa)
#
#
# Indices 1 2 3 4 5 6 
#
# 1 0.006255 -0.003334 -0.002214 0.000001 -0.002229 0.000001
# 2 -0.003334 0.017284 -0.003636 0.000000 0.010674 -0.000001
# 3 -0.002214 -0.003636 0.013138 -0.000004 -0.007310 -0.000003
# 4 0.000001 0.000000 -0.000004 0.040837 -0.000002 0.010330
# 5 -0.002229 0.010674 -0.007310 -0.000002 0.057101 -0.000003
# 6 0.000001 -0.000001 -0.000003 0.010330 -0.000003 0.053217
#
#
# Mechanical properties :
#
#
# Convention : Reuss Voigt Hill
#
# Bulk Modulus (GPa) = 54.61887 69.06731 61.84309
# Shear Modulus (GPa) = 23.55100 30.47280 27.01190
#
# Velocity S-wave (km/s) = 3.33528 3.79388 3.57195
# Velocity P-wave (km/s) = 6.37423 7.19824 6.79873
#
# Compressibility (1/GPa) = 0.01830869
#
# Stress axis : x y z
#
# Youngs Moduli (GPa) = 159.87840 57.85569 76.11286
#
# Poissons Ratio (x) = 0.19291 0.16851
# Poissons Ratio (y) = 0.53308 0.27676
# Poissons Ratio (z) = 0.35395 0.21038
#
# Static dielectric constant tensor:
#      x y z
#    x 4.905680 -0.000110 0.131760 
#    y -0.000110 4.351700 -0.000070 
#    z 0.131760 -0.000070 3.614040 
# 
# 
# High freq. dielectric constant tensor:
#      x y z
#    x 1.847430 0.000000 0.004460 
#    y 0.000000 1.813220 0.000000 
#    z 0.004460 0.000000 1.815680 
# 
# From -- ./inp_files/264446.got.cif
#   From: 2010.06.25/outbox.cif.g09.slc.cpg/sg12_133_cif.got.tgz:264446.got - 2010.06.28 00:19:55.
