data_PCOD8102376
_publ_section_title
;
Structure prediction by ZEFSAII (Michael W. Deem and Ramdas Pophale) SiO2 
 PCOD8102376
Probable space group: C 2/M
;
_chemical_formula_sum "Si O2"
_cell_formula_units_Z 56
_cell_length_a 23.293628
_cell_length_b 13.659074
_cell_length_c 23.019736
_cell_angle_alpha 90.000000
_cell_angle_beta 157.886299
_cell_angle_gamma 90.000000
_cell_volume 2757.155121
_symmetry_space_group_name_H-M "C 2/M"
_symmetry_group_IT_number 12
_symmetry_cell_setting 'monoclinic'
loop_
_space_group_symop_operation_xyz
x,y,z
-x,y,-z
-x,-y,-z
x,-y,z
1/2+x,1/2+y,z
1/2-x,1/2+y,-z
1/2-x,1/2-y,-z
1/2+x,1/2-y,z
loop_
_atom_site_type_symbol
_atom_site_label
_atom_site_fract_x
_atom_site_fract_y
_atom_site_fract_z
Si Si1 0.411980 0.391518 0.358760
Si Si2 0.185442 0.113058 0.294370
Si Si3 0.364767 0.230584 0.157950
Si Si4 0.838929 0.109094 0.952771
Si Si5 0.436276 0.611750 0.614550
Si Si6 0.330119 0.115950 0.554003
Si Si7 0.330219 0.271573 0.836326
O O1 0.500000 0.396428 0.500000
O O2 0.340668 0.500000 0.278043
O O3 0.547039 0.368294 0.438666
O O4 0.282371 0.309250 0.242138
O O5 0.274387 0.145375 0.436492
O O6 0.224526 0.189089 0.278490
O O7 0.227338 0.000000 0.317217
O O8 0.005082 0.120648 0.137612
O O9 0.278593 0.184378 0.130927
O O10 0.414288 0.339837 0.218937
O O11 0.509133 0.163023 0.278593
O O12 0.250000 0.250000 0.000000
O O13 0.840244 0.131471 0.885534
O O14 0.776872 0.000000 0.904146
O O15 0.443418 0.500000 0.639241
O O16 0.284816 0.656143 0.503243
O O17 0.346953 0.000000 0.574163
O O18 0.500000 0.224123 0.000000
#
# Coordination Sequence:
#
# PCOD8102376 Si02
#       7
#     8   8   8   8   8   8   8
#     4  10  22  41  62  86 117 160 208 254 303 351
#     4   9  19  36  62  93 127 163 196 237 301 372
#     4  12  24  38  59  90 124 157 198 250 306 362
#     4  10  20  37  59  89 128 164 197 243 303 366
#     4  10  22  42  63  84 118 162 204 249 302 357
#     4  10  22  41  64  93 122 155 201 250 304 368
#     4  10  20  36  62  93 126 159 202 248 303 361
#
# _framework density 20.310790000000001
#
# number of rings (size 3 to 8) (size 9 to 14) (size 15 to 20)
#    0.000    1.857    1.429    2.143    2.000    4.286 
#    2.571    0.000    0.000    3.429    0.000    0.000 
#    0.000    0.000    0.000    0.000    0.000    0.000 
#
# Total GULP energy -346957.916521 kJ/mol
# GULP energy per Si atom -12391.354161 kJ/mol
# Density = 2.026456 g / cm^3
# Si number density = 20.310790 Si / 1000 Ang^3
#
#
#
# Elastic Constant Matrix: (Units=GPa)
#
#
# Indices 1 2 3 4 5 6 
#
# 1 138.4844 47.2645 64.3635 0.0100 0.6831 0.0024
# 2 47.2645 58.3547 40.6970 0.0348 3.9705 0.0088
# 3 64.3635 40.6970 110.1333 0.0030 -5.4322 0.0069
# 4 0.0100 0.0348 0.0030 29.7346 0.0088 3.3213
# 5 0.6831 3.9705 -5.4322 0.0088 28.5961 0.0035
# 6 0.0024 0.0088 0.0069 3.3213 0.0035 29.6243
#
#
#
# Elastic Compliance Matrix: (Units=1/GPa)
#
#
# Indices 1 2 3 4 5 6 
#
# 1 0.011347 -0.006116 -0.004384 0.000004 -0.000255 0.000002
# 2 -0.006116 0.027075 -0.006671 -0.000027 -0.004880 -0.000002
# 3 -0.004384 -0.006671 0.014292 0.000007 0.003746 -0.000002
# 4 0.000004 -0.000027 0.000007 0.034057 -0.000005 -0.003818
# 5 -0.000255 -0.004880 0.003746 -0.000005 0.036365 -0.000003
# 6 0.000002 -0.000002 -0.000002 -0.003818 -0.000003 0.034184
#
#
# Mechanical properties :
#
#
# Convention : Reuss Voigt Hill
#
# Bulk Modulus (GPa) = 54.43214 67.95805 61.19509
# Shear Modulus (GPa) = 25.27969 27.90083 26.59026
#
# Velocity S-wave (km/s) = 3.53178 3.71036 3.62217
# Velocity P-wave (km/s) = 6.59462 7.20329 6.90567
#
# Compressibility (1/GPa) = 0.01837150
#
# Stress axis : x y z
#
# Youngs Moduli (GPa) = 88.12740 36.93460 69.96917
#
# Poissons Ratio (x) = 0.22589 0.30675
# Poissons Ratio (y) = 0.53898 0.46679
# Poissons Ratio (z) = 0.38636 0.24640
#
# Static dielectric constant tensor:
#      x y z
#    x 4.262560 -0.000050 0.259880 
#    y -0.000050 3.742910 -0.000070 
#    z 0.259880 -0.000070 3.619510 
# 
# 
# High freq. dielectric constant tensor:
#      x y z
#    x 1.805180 0.000000 0.003090 
#    y 0.000000 1.803780 0.000000 
#    z 0.003090 0.000000 1.778960 
# 
# From -- ./inp_files/349809.got.cif
#   From: 2010.06.25/outbox.cif.g09.slc.cpg/sg12_175_cif.got.tgz:349809.got - 2010.06.28 00:19:55.
