data_PCOD8102022
_publ_section_title
;
Structure prediction by ZEFSAII (Michael W. Deem and Ramdas Pophale) SiO2 
 PCOD8102022
Probable space group: C 2/M
;
_chemical_formula_sum "Si O2"
_cell_formula_units_Z 48
_cell_length_a 29.221089
_cell_length_b 8.469164
_cell_length_c 15.066729
_cell_angle_alpha 90.000000
_cell_angle_beta 39.903892
_cell_angle_gamma 90.000000
_cell_volume 2391.959141
_symmetry_space_group_name_H-M "C 2/M"
_symmetry_group_IT_number 12
_symmetry_cell_setting 'monoclinic'
loop_
_space_group_symop_operation_xyz
x,y,z
-x,y,-z
-x,-y,-z
x,-y,z
1/2+x,1/2+y,z
1/2-x,1/2+y,-z
1/2-x,1/2-y,-z
1/2+x,1/2-y,z
loop_
_atom_site_type_symbol
_atom_site_label
_atom_site_fract_x
_atom_site_fract_y
_atom_site_fract_z
Si Si1 0.403842 0.682148 0.782675
Si Si2 0.551837 0.185042 0.619827
Si Si3 0.694537 0.182538 0.925559
Si Si4 0.446110 0.314259 0.199861
Si Si5 0.651603 0.182689 0.309619
Si Si6 0.595480 0.815037 0.914638
O O1 0.402231 0.500000 0.757615
O O2 0.477828 0.723338 0.719267
O O3 0.396088 0.786997 0.706092
O O4 0.338995 0.714369 0.946166
O O5 0.585969 0.238888 0.662658
O O6 0.606394 0.234824 0.462153
O O7 0.536029 0.000000 0.641987
O O8 0.778436 0.210625 0.797489
O O9 0.661128 0.231084 0.880452
O O10 0.678463 0.000000 0.970161
O O11 0.453826 0.500000 0.198604
O O12 0.394046 0.273387 0.195020
O O13 0.523201 0.238804 0.069135
O O14 0.673383 0.000000 0.282336
O O15 0.591727 0.000000 0.901576
#
# Coordination Sequence:
#
# PCOD8102022 Si02
#       6
#     8   8   8   8   8   8
#     4  12  24  39  63  90 119 155 201 250 294 351
#     4  11  23  41  62  87 120 159 200 244 299 355
#     4  11  23  40  63  89 121 158 199 245 295 353
#     4  11  21  34  59  91 120 151 194 248 294 349
#     4  11  25  42  61  85 121 161 199 246 298 355
#     4  10  20  36  60  87 119 156 194 242 295 353
#
# _framework density 20.067233000000002
#
# number of rings (size 3 to 8) (size 9 to 14) (size 15 to 20)
#    0.000    1.000    1.667    7.000    0.000    6.667 
#    0.000    0.833    0.000    0.000    0.000    0.000 
#    0.000    0.000    0.000    0.000    0.000    0.000 
#
# Total GULP energy -297767.087919 kJ/mol
# GULP energy per Si atom -12406.961997 kJ/mol
# Density = 2.002156 g / cm^3
# Si number density = 20.067233 Si / 1000 Ang^3
#
#
#
# Elastic Constant Matrix: (Units=GPa)
#
#
# Indices 1 2 3 4 5 6 
#
# 1 78.6195 25.1492 42.3384 0.0001 33.0742 -0.0005
# 2 25.1492 96.3075 43.3074 0.0002 1.2725 0.0018
# 3 42.3384 43.3074 119.0515 0.0000 24.5273 0.0004
# 4 0.0001 0.0002 0.0000 24.1587 -0.0001 -1.4257
# 5 33.0742 1.2725 24.5273 -0.0001 31.7054 0.0003
# 6 -0.0005 0.0018 0.0004 -1.4257 0.0003 28.5237
#
#
#
# Elastic Compliance Matrix: (Units=1/GPa)
#
#
# Indices 1 2 3 4 5 6 
#
# 1 0.026498 -0.005660 -0.002042 0.000000 -0.025836 0.000001
# 2 -0.005660 0.013971 -0.004961 0.000000 0.009181 -0.000001
# 3 -0.002042 -0.004961 0.012432 0.000000 -0.007288 0.000000
# 4 0.000000 0.000000 0.000000 0.041515 0.000000 0.002075
# 5 -0.025836 0.009181 -0.007288 0.000000 0.063761 -0.000001
# 6 0.000001 -0.000001 0.000000 0.002075 -0.000001 0.035162
#
#
# Mechanical properties :
#
#
# Convention : Reuss Voigt Hill
#
# Bulk Modulus (GPa) = 36.26403 57.28540 46.77471
# Shear Modulus (GPa) = 21.94351 29.08979 25.51665
#
# Velocity S-wave (km/s) = 3.31040 3.81151 3.56976
# Velocity P-wave (km/s) = 5.72033 6.92668 6.35221
#
# Compressibility (1/GPa) = 0.02757553
#
# Stress axis : x y z
#
# Youngs Moduli (GPa) = 37.73816 71.57716 80.43704
#
# Poissons Ratio (x) = 0.40513 0.16425
# Poissons Ratio (y) = 0.21360 0.39904
# Poissons Ratio (z) = 0.07706 0.35509
#
# Static dielectric constant tensor:
#      x y z
#    x 3.884510 0.000000 0.374980 
#    y 0.000000 3.638500 0.000000 
#    z 0.374980 0.000000 3.703030 
# 
# 
# High freq. dielectric constant tensor:
#      x y z
#    x 1.792250 0.000000 0.020740 
#    y 0.000000 1.796320 0.000000 
#    z 0.020740 0.000000 1.768270 
# 
# From -- ./inp_files/248819.got.cif
#   From: 2010.06.25/outbox.cif.g09.slc.cpg/sg12_125_cif.got.tgz:248819.got - 2010.06.28 00:19:55.
