data_PCOD8102768
_publ_section_title
;
Structure prediction by ZEFSAII (Michael W. Deem and Ramdas Pophale) SiO2 
 PCOD8102768
Probable space group: C 2/M
;
_chemical_formula_sum "Si O2"
_cell_formula_units_Z 64
_cell_length_a 17.161818
_cell_length_b 14.109488
_cell_length_c 14.737444
_cell_angle_alpha 90.000000
_cell_angle_beta 118.114453
_cell_angle_gamma 90.000000
_cell_volume 3147.525451
_symmetry_space_group_name_H-M "C 2/M"
_symmetry_group_IT_number 12
_symmetry_cell_setting 'monoclinic'
loop_
_space_group_symop_operation_xyz
x,y,z
-x,y,-z
-x,-y,-z
x,-y,z
1/2+x,1/2+y,z
1/2-x,1/2+y,-z
1/2-x,1/2-y,-z
1/2+x,1/2-y,z
loop_
_atom_site_type_symbol
_atom_site_label
_atom_site_fract_x
_atom_site_fract_y
_atom_site_fract_z
Si Si1 0.039534 0.111324 0.663396
Si Si2 0.197286 0.343721 0.448547
Si Si3 0.815427 0.608190 0.865878
Si Si4 0.600090 0.891977 0.577132
Si Si5 0.862539 0.609068 0.097076
Si Si6 0.375608 0.603170 0.473554
Si Si7 0.665060 0.753803 0.770211
Si Si8 0.934828 0.392784 0.766633
O O1 0.102646 0.146362 0.612593
O O2 0.083418 0.184119 0.759226
O O3 0.938550 0.146039 0.587966
O O4 0.048538 0.000000 0.696822
O O5 0.250000 0.250000 0.500000
O O6 0.159456 0.388337 0.519197
O O7 0.273128 0.406807 0.442377
O O8 0.118728 0.327010 0.333451
O O9 0.777548 0.500000 0.838535
O O10 0.745820 0.684150 0.790542
O O11 0.901825 0.618747 0.851327
O O12 0.843841 0.633119 0.983022
O O13 0.500000 0.860340 0.500000
O O14 0.642047 0.822779 0.673891
O O15 0.600984 0.000000 0.614562
O O16 0.839053 0.500000 0.105029
O O17 0.806111 0.678979 0.129978
O O18 0.963049 0.632819 0.178590
O O19 0.418162 0.500000 0.486352
O O20 0.919776 0.500000 0.723679
#
# Coordination Sequence:
#
# PCOD8102768 Si02
#       8
#     8   8   8   8   8   8   8   8
#     4   9  19  33  52  79 111 150 188 232 288 332
#     4  12  23  33  54  86 116 149 196 233 278 327
#     4  10  21  39  62  88 112 136 183 251 309 343
#     4  11  25  41  56  80 123 170 200 227 270 338
#     4  10  22  39  60  84 111 146 188 239 296 347
#     4   9  18  33  50  71 107 149 189 231 278 325
#     4  12  22  35  58  84 116 152 196 227 280 341
#     4  10  20  37  59  82 109 143 183 235 292 340
#
# _framework density 20.333432999999999
#
# number of rings (size 3 to 8) (size 9 to 14) (size 15 to 20)
#    0.000    1.625    0.000    6.375    5.250    5.500 
#    0.000    0.000    0.000    0.000    0.000    0.000 
#    0.000    7.000    0.000    0.000    0.000    0.000 
#
# Total GULP energy -396481.924189 kJ/mol
# GULP energy per Si atom -12390.060131 kJ/mol
# Density = 2.028715 g / cm^3
# Si number density = 20.333433 Si / 1000 Ang^3
#
#
#
# Elastic Constant Matrix: (Units=GPa)
#
#
# Indices 1 2 3 4 5 6 
#
# 1 66.3244 10.7010 6.6783 0.0000 0.4318 0.0000
# 2 10.7010 90.5060 36.3470 0.0000 -1.6111 0.0000
# 3 6.6783 36.3470 78.6368 0.0000 -2.8950 0.0000
# 4 0.0000 0.0000 0.0000 32.2583 0.0000 5.2486
# 5 0.4318 -1.6111 -2.8950 0.0000 32.0316 0.0000
# 6 0.0000 0.0000 0.0000 5.2486 0.0000 11.1915
#
#
#
# Elastic Compliance Matrix: (Units=1/GPa)
#
#
# Indices 1 2 3 4 5 6 
#
# 1 0.015395 -0.001592 -0.000584 0.000000 -0.000340 0.000000
# 2 -0.001592 0.013732 -0.006207 0.000000 0.000151 0.000000
# 3 -0.000584 -0.006207 0.015676 0.000000 0.001113 0.000000
# 4 0.000000 0.000000 0.000000 0.033561 0.000000 -0.015739
# 5 -0.000340 0.000151 0.001113 0.000000 0.031332 0.000000
# 6 0.000000 0.000000 0.000000 -0.015739 0.000000 0.096735
#
#
# Mechanical properties :
#
#
# Convention : Reuss Voigt Hill
#
# Bulk Modulus (GPa) = 35.66504 38.10217 36.88361
# Shear Modulus (GPa) = 21.50148 27.21236 24.35692
#
# Velocity S-wave (km/s) = 3.25537 3.66226 3.46479
# Velocity P-wave (km/s) = 5.63099 6.05493 5.84680
#
# Compressibility (1/GPa) = 0.02803866
#
# Stress axis : x y z
#
# Youngs Moduli (GPa) = 64.95506 72.82043 63.79170
#
# Poissons Ratio (x) = 0.11591 0.03727
# Poissons Ratio (y) = 0.10339 0.39593
# Poissons Ratio (z) = 0.03795 0.45196
#
# Static dielectric constant tensor:
#      x y z
#    x 1.804470 0.000000 -0.087920 
#    y 0.000000 3.847370 0.000000 
#    z -0.087920 0.000000 3.606100 
# 
# 
# High freq. dielectric constant tensor:
#      x y z
#    x 1.782820 0.000000 0.009960 
#    y 0.000000 1.803860 0.000000 
#    z 0.009960 0.000000 1.786390 
# 
# From -- ./inp_files/225337.got.cif
#   From: 2010.06.25/outbox.cif.g09.slc.cpg/sg12_113_cif.got.tgz:225337.got - 2010.06.28 00:19:55.
