data_PCOD8102339
_publ_section_title
;
Structure prediction by ZEFSAII (Michael W. Deem and Ramdas Pophale) SiO2 
 PCOD8102339
Probable space group: C 2/M
;
_chemical_formula_sum "Si O2"
_cell_formula_units_Z 48
_cell_length_a 11.634187
_cell_length_b 22.996240
_cell_length_c 9.323622
_cell_angle_alpha 90.000000
_cell_angle_beta 74.629381
_cell_angle_gamma 90.000000
_cell_volume 2405.242254
_symmetry_space_group_name_H-M "C 2/M"
_symmetry_group_IT_number 12
_symmetry_cell_setting 'monoclinic'
loop_
_space_group_symop_operation_xyz
x,y,z
-x,y,-z
-x,-y,-z
x,-y,z
1/2+x,1/2+y,z
1/2-x,1/2+y,-z
1/2-x,1/2-y,-z
1/2+x,1/2-y,z
loop_
_atom_site_type_symbol
_atom_site_label
_atom_site_fract_x
_atom_site_fract_y
_atom_site_fract_z
Si Si1 0.542923 0.934035 0.323764
Si Si2 0.003367 0.147147 0.830146
Si Si3 0.406260 0.567940 0.645169
Si Si4 0.775132 0.657776 0.663114
Si Si5 0.295697 0.269852 0.830668
Si Si6 0.176222 0.638056 0.673994
O O1 0.500000 0.938696 0.500000
O O2 0.669421 0.900346 0.282110
O O3 0.449500 0.895450 0.261367
O O4 0.557573 0.000000 0.256123
O O5 0.946256 0.087820 0.789808
O O6 0.923477 0.200116 0.801046
O O7 0.134019 0.155519 0.724737
O O8 0.000000 0.143592 0.000000
O O9 0.500000 0.594277 0.500000
O O10 0.406167 0.500000 0.639777
O O11 0.275294 0.588474 0.649369
O O12 0.824234 0.714010 0.726882
O O13 0.816620 0.666292 0.485823
O O14 0.197788 0.312274 0.787396
O O15 0.250000 0.250000 0.000000
#
# Coordination Sequence:
#
# PCOD8102339 Si02
#       6
#     8   8   8   8   8   8
#     4   9  20  38  63  93 123 158 201 253 308 361
#     4  11  23  40  60  87 123 158 202 248 305 370
#     4  10  20  36  62  90 117 155 197 247 303 357
#     4  11  22  39  62  93 119 159 204 251 304 360
#     4  11  24  39  61  86 122 165 199 249 309 367
#     4  10  21  40  63  91 123 156 205 253 298 367
#
# _framework density 19.956409000000001
#
# number of rings (size 3 to 8) (size 9 to 14) (size 15 to 20)
#    0.000    1.667    3.333    1.000    2.333    1.667 
#    3.000    0.000    0.000    1.000    0.000    0.000 
#    0.000    0.000    0.000    0.000    0.000    0.000 
#
# Total GULP energy -297586.210819 kJ/mol
# GULP energy per Si atom -12399.425451 kJ/mol
# Density = 1.991099 g / cm^3
# Si number density = 19.956409 Si / 1000 Ang^3
#
#
#
# Elastic Constant Matrix: (Units=GPa)
#
#
# Indices 1 2 3 4 5 6 
#
# 1 122.0667 57.8973 44.1885 0.0000 5.7296 0.0000
# 2 57.8973 132.0181 56.1344 0.0000 11.3277 0.0000
# 3 44.1885 56.1344 74.4215 0.0000 19.9917 0.0000
# 4 0.0000 0.0000 0.0000 29.9925 0.0000 9.5231
# 5 5.7296 11.3277 19.9917 0.0000 31.6016 0.0000
# 6 0.0000 0.0000 0.0000 9.5231 0.0000 35.6371
#
#
#
# Elastic Compliance Matrix: (Units=1/GPa)
#
#
# Indices 1 2 3 4 5 6 
#
# 1 0.011351 -0.003017 -0.005063 0.000000 0.002226 0.000000
# 2 -0.003017 0.012020 -0.007547 0.000000 0.001013 0.000000
# 3 -0.005063 -0.007547 0.025495 0.000000 -0.012505 0.000000
# 4 0.000000 0.000000 0.000000 0.036433 0.000000 -0.009736
# 5 0.002226 0.001013 -0.012505 0.000000 0.038788 0.000000
# 6 0.000000 0.000000 0.000000 -0.009736 0.000000 0.030662
#
#
# Mechanical properties :
#
#
# Convention : Reuss Voigt Hill
#
# Bulk Modulus (GPa) = 56.77534 71.66074 64.21804
# Shear Modulus (GPa) = 26.05887 30.79864 28.42876
#
# Velocity S-wave (km/s) = 3.61749 3.93274 3.77841
# Velocity P-wave (km/s) = 6.77936 7.52386 7.16130
#
# Compressibility (1/GPa) = 0.01761328
#
# Stress axis : x y z
#
# Youngs Moduli (GPa) = 88.09664 83.19571 39.22356
#
# Poissons Ratio (x) = 0.25096 0.19857
# Poissons Ratio (y) = 0.26575 0.29603
# Poissons Ratio (z) = 0.44599 0.62790
#
# Static dielectric constant tensor:
#      x y z
#    x 3.829780 0.000000 0.101900 
#    y 0.000000 3.790370 0.000000 
#    z 0.101900 0.000000 3.553370 
# 
# 
# High freq. dielectric constant tensor:
#      x y z
#    x 1.795370 0.000000 0.011880 
#    y 0.000000 1.786760 0.000000 
#    z 0.011880 0.000000 1.756900 
# 
# From -- ./inp_files/51299.got.cif
#   From: 2010.06.25/outbox.cif.g09.slc.cpg/sg12_26_cif.got.tgz:51299.got - 2010.06.28 00:19:55.
