data_PCOD8102081
_publ_section_title
;
Structure prediction by ZEFSAII (Michael W. Deem and Ramdas Pophale) SiO2 
 PCOD8102081
Probable space group: C 2/M
;
_chemical_formula_sum "Si O2"
_cell_formula_units_Z 56
_cell_length_a 22.541425
_cell_length_b 14.674228
_cell_length_c 20.503451
_cell_angle_alpha 90.000000
_cell_angle_beta 154.757469
_cell_angle_gamma 90.000000
_cell_volume 2892.228234
_symmetry_space_group_name_H-M "C 2/M"
_symmetry_group_IT_number 12
_symmetry_cell_setting 'monoclinic'
loop_
_space_group_symop_operation_xyz
x,y,z
-x,y,-z
-x,-y,-z
x,-y,z
1/2+x,1/2+y,z
1/2-x,1/2+y,-z
1/2-x,1/2-y,-z
1/2+x,1/2-y,z
loop_
_atom_site_type_symbol
_atom_site_label
_atom_site_fract_x
_atom_site_fract_y
_atom_site_fract_z
Si Si1 0.101067 0.398028 0.412740
Si Si2 0.618305 0.749067 0.527813
Si Si3 0.707680 0.103956 0.943397
Si Si4 0.868539 0.751577 0.029172
Si Si5 0.351577 0.826898 0.674667
Si Si6 0.277496 0.000000 0.803288
Si Si7 0.320208 0.303145 0.268928
Si Si8 0.941991 0.500000 0.837748
O O1 0.161219 0.500000 0.475180
O O2 0.131124 0.350954 0.511990
O O3 0.178386 0.340347 0.432323
O O4 0.937141 0.397054 0.238383
O O5 0.708515 0.683766 0.570907
O O6 0.675565 0.749394 0.657995
O O7 0.459590 0.714866 0.366143
O O8 0.697522 0.166169 0.997426
O O9 0.753134 0.000000 0.006309
O O10 0.820625 0.150285 0.008171
O O11 0.036996 0.753911 0.200634
O O12 0.814622 0.736923 0.901703
O O13 0.433103 0.915286 0.780957
O O14 0.185448 0.088865 0.724705
O O15 0.321360 0.000000 0.771437
O O16 0.409146 0.000000 0.980917
#
# Coordination Sequence:
#
# PCOD8102081 Si02
#       8
#     8   8   8   8   8   4   8   4
#     4  10  20  38  62  83 112 154 200 243 284 344
#     4  11  24  39  54  84 124 155 191 234 292 344
#     4   9  19  36  62  88 114 150 199 244 287 340
#     4  10  20  36  60  89 115 150 195 244 289 339
#     4  11  21  37  63  87 118 150 191 244 294 346
#     4  11  22  36  59  88 123 154 189 236 284 365
#     4  11  23  38  58  83 121 155 193 233 285 348
#     4  11  20  35  60  95 112 148 200 232 294 357
#
# _framework density 19.362234000000001
#
# number of rings (size 3 to 8) (size 9 to 14) (size 15 to 20)
#    0.000    1.571    5.000    0.429    2.000    2.286 
#    0.000    2.857    0.000    0.000    0.000    2.000 
#    0.000    0.000    0.000    0.000    0.000    0.000 
#
# Total GULP energy -347229.616384 kJ/mol
# GULP energy per Si atom -12401.057728 kJ/mol
# Density = 1.931817 g / cm^3
# Si number density = 19.362234 Si / 1000 Ang^3
#
#
#
# Elastic Constant Matrix: (Units=GPa)
#
#
# Indices 1 2 3 4 5 6 
#
# 1 108.4966 39.2381 37.3608 -0.0003 3.1517 -0.0001
# 2 39.2381 93.6125 26.5947 -0.0007 -3.1710 -0.0003
# 3 37.3608 26.5947 55.1544 -0.0002 -11.5373 -0.0013
# 4 -0.0003 -0.0007 -0.0002 -6.4719 0.0001 3.5727
# 5 3.1517 -3.1710 -11.5373 0.0001 32.8875 -0.0003
# 6 -0.0001 -0.0003 -0.0013 3.5727 -0.0003 30.4038
#
#
#
# Elastic Compliance Matrix: (Units=1/GPa)
#
#
# Indices 1 2 3 4 5 6 
#
# 1 0.013496 -0.003409 -0.008458 0.000000 -0.004589 0.000000
# 2 -0.003409 0.013268 -0.004049 -0.000001 0.000185 0.000000
# 3 -0.008458 -0.004049 0.027952 0.000000 0.010226 0.000001
# 4 0.000000 -0.000001 0.000000 -0.145101 0.000001 0.017051
# 5 -0.004589 0.000185 0.010226 0.000001 0.034452 0.000001
# 6 0.000000 0.000000 0.000001 0.017051 0.000001 0.030887
#
#
# Mechanical properties :
#
#
# Convention : Reuss Voigt Hill
#
# Bulk Modulus (GPa) = 43.70189 51.51676 47.60933
# Shear Modulus (GPa) = 346.89877 21.63520 184.26699
#
# Velocity S-wave (km/s) = 13.39968 3.34637 9.76600
# Velocity P-wave (km/s) = 16.18708 6.44946 12.32106
#
# Compressibility (1/GPa) = 0.02288231
#
# Stress axis : x y z
#
# Youngs Moduli (GPa) = 74.09803 75.36874 35.77592
#
# Poissons Ratio (x) = 0.25696 0.30258
# Poissons Ratio (y) = 0.25263 0.14487
# Poissons Ratio (z) = 0.62670 0.30520
#
# Static dielectric constant tensor:
#      x y z
#    x 3.611930 0.000000 -0.057050 
#    y 0.000000 3.573160 0.000000 
#    z -0.057050 0.000000 3.439490 
# 
# 
# High freq. dielectric constant tensor:
#      x y z
#    x 1.756230 0.000000 -0.005340 
#    y 0.000000 1.742100 0.000000 
#    z -0.005340 0.000000 1.744480 
# 
# From -- ./inp_files/284622.got.cif
#   From: 2010.06.25/outbox.cif.g09.slc.cpg/sg12_143_cif.got.tgz:284622.got - 2010.06.28 00:19:55.
