data_PCOD8102835
_publ_section_title
;
Structure prediction by ZEFSAII (Michael W. Deem and Ramdas Pophale) SiO2 
 PCOD8102835
Probable space group: C 2/M
;
_chemical_formula_sum "Si O2"
_cell_formula_units_Z 52
_cell_length_a 15.382414
_cell_length_b 16.600353
_cell_length_c 17.961097
_cell_angle_alpha 90.000000
_cell_angle_beta 144.867462
_cell_angle_gamma 90.000000
_cell_volume 2639.351314
_symmetry_space_group_name_H-M "C 2/M"
_symmetry_group_IT_number 12
_symmetry_cell_setting 'monoclinic'
loop_
_space_group_symop_operation_xyz
x,y,z
-x,y,-z
-x,-y,-z
x,-y,z
1/2+x,1/2+y,z
1/2-x,1/2+y,-z
1/2-x,1/2-y,-z
1/2+x,1/2-y,z
loop_
_atom_site_type_symbol
_atom_site_label
_atom_site_fract_x
_atom_site_fract_y
_atom_site_fract_z
Si Si1 0.217523 0.752200 0.248680
Si Si2 0.823108 0.908884 0.383332
Si Si3 0.500000 0.335097 0.000000
Si Si4 0.064716 0.306338 0.729158
Si Si5 0.055401 0.163061 0.260655
Si Si6 0.198828 0.092720 0.026120
Si Si7 0.780143 0.589663 0.523218
O O1 0.241030 0.656322 0.273111
O O2 0.056097 0.771175 0.099916
O O3 0.342637 0.791756 0.282281
O O4 0.194503 0.795447 0.312425
O O5 0.778689 0.889858 0.436103
O O6 0.000000 0.895421 0.500000
O O7 0.777391 0.000000 0.327013
O O8 0.377981 0.396611 0.947258
O O9 0.021931 0.222249 0.735214
O O10 0.915900 0.351507 0.597284
O O11 0.148011 0.355393 0.855185
O O12 0.140398 0.095443 0.368279
O O13 0.917704 0.123817 0.117940
O O14 0.240775 0.000000 0.039781
O O15 0.845382 0.500000 0.565029
#
# Coordination Sequence:
#
# PCOD8102835 Si02
#       7
#     8   8   4   8   8   8   8
#     4  10  21  37  61  83 117 152 199 235 298 344
#     4  10  21  37  59  83 116 158 197 238 289 349
#     4   8  19  36  57  86 114 152 194 242 277 364
#     4  11  22  38  61  88 117 156 198 246 291 350
#     4  11  22  38  59  88 117 157 199 241 289 354
#     4  10  20  37  59  84 117 158 194 239 297 350
#     4  11  23  39  59  90 122 151 194 250 299 343
#
# _framework density 19.701809999999998
#
# number of rings (size 3 to 8) (size 9 to 14) (size 15 to 20)
#    0.000    1.692    1.538    3.000    2.154    0.000 
#    0.000    4.231    0.000    0.000    0.000    0.000 
#    0.000    0.000    0.000    0.000    0.000    0.000 
#
# Total GULP energy -322132.656323 kJ/mol
# GULP energy per Si atom -12389.717551 kJ/mol
# Density = 1.965697 g / cm^3
# Si number density = 19.701810 Si / 1000 Ang^3
#
#
#
# Elastic Constant Matrix: (Units=GPa)
#
#
# Indices 1 2 3 4 5 6 
#
# 1 73.5145 18.2720 0.0375 -0.0011 7.2653 0.0004
# 2 18.2720 96.3286 24.1285 -0.0038 -4.8457 -0.0017
# 3 0.0375 24.1285 78.0818 -0.0069 -3.7277 -0.0036
# 4 -0.0011 -0.0038 -0.0069 39.5621 -0.0040 0.1167
# 5 7.2653 -4.8457 -3.7277 -0.0040 21.5071 -0.0018
# 6 0.0004 -0.0017 -0.0036 0.1167 -0.0018 14.1408
#
#
#
# Elastic Compliance Matrix: (Units=1/GPa)
#
#
# Indices 1 2 3 4 5 6 
#
# 1 0.014988 -0.003316 0.000746 0.000000 -0.005681 -0.000001
# 2 -0.003316 0.012067 -0.003574 0.000001 0.003219 0.000001
# 3 0.000746 -0.003574 0.013976 0.000002 0.001365 0.000003
# 4 0.000000 0.000001 0.000002 0.025277 0.000005 -0.000209
# 5 -0.005681 0.003219 0.001365 0.000005 0.049377 0.000007
# 6 -0.000001 0.000001 0.000003 -0.000209 0.000007 0.070719
#
#
# Mechanical properties :
#
#
# Convention : Reuss Voigt Hill
#
# Bulk Modulus (GPa) = 34.78863 36.97791 35.88327
# Shear Modulus (GPa) = 24.00696 28.74113 26.37404
#
# Velocity S-wave (km/s) = 3.49451 3.82358 3.66274
# Velocity P-wave (km/s) = 5.82907 6.18890 6.01168
#
# Compressibility (1/GPa) = 0.02874502
#
# Stress axis : x y z
#
# Youngs Moduli (GPa) = 66.72056 82.86973 71.55021
#
# Poissons Ratio (x) = 0.27477 -0.05339
# Poissons Ratio (y) = 0.22122 0.25569
# Poissons Ratio (z) = -0.04978 0.29615
#
# Static dielectric constant tensor:
#      x y z
#    x 3.718620 0.000000 -0.001570 
#    y 0.000000 3.600030 -0.000010 
#    z -0.001570 -0.000010 3.630020 
# 
# 
# High freq. dielectric constant tensor:
#      x y z
#    x 1.771900 0.000000 0.002550 
#    y 0.000000 1.768780 0.000000 
#    z 0.002550 0.000000 1.766310 
# 
# From -- ./inp_files/144935.got.cif
#   From: 2010.06.25/outbox.cif.g09.slc.cpg/sg12_73_cif.got.tgz:144935.got - 2010.06.28 00:19:55.
