data_PCOD8102204
_publ_section_title
;
Structure prediction by ZEFSAII (Michael W. Deem and Ramdas Pophale) SiO2 
 PCOD8102204
Probable space group: C 2/M
;
_chemical_formula_sum "Si O2"
_cell_formula_units_Z 48
_cell_length_a 14.387022
_cell_length_b 14.617405
_cell_length_c 14.553073
_cell_angle_alpha 90.000000
_cell_angle_beta 131.830856
_cell_angle_gamma 90.000000
_cell_volume 2280.448828
_symmetry_space_group_name_H-M "C 2/M"
_symmetry_group_IT_number 12
_symmetry_cell_setting 'monoclinic'
loop_
_space_group_symop_operation_xyz
x,y,z
-x,y,-z
-x,-y,-z
x,-y,z
1/2+x,1/2+y,z
1/2-x,1/2+y,-z
1/2-x,1/2-y,-z
1/2+x,1/2-y,z
loop_
_atom_site_type_symbol
_atom_site_label
_atom_site_fract_x
_atom_site_fract_y
_atom_site_fract_z
Si Si1 0.884574 0.400567 0.198792
Si Si2 0.647466 0.393702 0.718084
Si Si3 0.682897 0.178145 0.020721
Si Si4 0.766382 0.748194 0.663500
Si Si5 0.052056 0.745351 0.386948
Si Si6 0.866963 0.841500 0.898748
O O1 0.940518 0.500000 0.258137
O O2 0.735085 0.400350 0.113992
O O3 0.939791 0.327279 0.306382
O O4 0.909473 0.379621 0.106643
O O5 0.626049 0.500000 0.677942
O O6 0.718850 0.387400 0.862590
O O7 0.732122 0.344922 0.695688
O O8 0.511761 0.344696 0.639765
O O9 0.609204 0.239151 0.045536
O O10 0.750000 0.250000 0.000000
O O11 0.871341 0.732387 0.656245
O O12 0.638619 0.780448 0.530102
O O13 0.819677 0.829173 0.762809
O O14 0.000000 0.892743 0.000000
#
# Coordination Sequence:
#
# PCOD8102204 Si02
#       6
#     8   8   8   8   8   8
#     4  11  22  37  61  90 124 169 210 255 317 383
#     4  11  22  39  69  99 126 165 219 271 321 382
#     4   9  17  36  58  87 122 162 199 256 320 373
#     4  10  23  40  64  90 128 169 206 262 328 379
#     4  11  22  42  64  89 131 170 210 262 327 389
#     4  10  20  36  61  87 122 160 209 259 315 374
#
# _framework density 21.048487999999999
#
# number of rings (size 3 to 8) (size 9 to 14) (size 15 to 20)
#    0.000    1.667    5.000    2.000    2.333    2.333 
#    0.000    5.000    0.000    5.500    0.000    0.000 
#    0.000    0.000    0.000    0.000    0.000    0.000 
#
# Total GULP energy -297404.734323 kJ/mol
# GULP energy per Si atom -12391.863930 kJ/mol
# Density = 2.100058 g / cm^3
# Si number density = 21.048488 Si / 1000 Ang^3
#
#
#
# Elastic Constant Matrix: (Units=GPa)
#
#
# Indices 1 2 3 4 5 6 
#
# 1 79.9654 24.4524 25.1674 0.0000 2.9026 0.0000
# 2 24.4524 97.1589 21.1372 0.0000 -3.1107 0.0000
# 3 25.1674 21.1372 114.3880 0.0000 -6.4787 0.0000
# 4 0.0000 0.0000 0.0000 12.6820 0.0000 -2.5622
# 5 2.9026 -3.1107 -6.4787 0.0000 34.9336 0.0000
# 6 0.0000 0.0000 0.0000 -2.5622 0.0000 14.8801
#
#
#
# Elastic Compliance Matrix: (Units=1/GPa)
#
#
# Indices 1 2 3 4 5 6 
#
# 1 0.014373 -0.003093 -0.002703 0.000000 -0.001971 0.000000
# 2 -0.003093 0.011401 -0.001369 0.000000 0.001018 0.000000
# 3 -0.002703 -0.001369 0.009697 0.000000 0.001901 0.000000
# 4 0.000000 0.000000 0.000000 0.081694 0.000000 0.014067
# 5 -0.001971 0.001018 0.001901 0.000000 0.029233 0.000000
# 6 0.000000 0.000000 0.000000 0.014067 0.000000 0.069626
#
#
# Mechanical properties :
#
#
# Convention : Reuss Voigt Hill
#
# Bulk Modulus (GPa) = 47.29428 48.11403 47.70415
# Shear Modulus (GPa) = 21.06149 27.21615 24.13882
#
# Velocity S-wave (km/s) = 3.16669 3.59976 3.39015
# Velocity P-wave (km/s) = 5.99070 6.33924 6.16744
#
# Compressibility (1/GPa) = 0.02114421
#
# Stress axis : x y z
#
# Youngs Moduli (GPa) = 69.57415 87.71100 103.12078
#
# Poissons Ratio (x) = 0.27125 0.27869
# Poissons Ratio (y) = 0.21516 0.14114
# Poissons Ratio (z) = 0.18803 0.12005
#
# Static dielectric constant tensor:
#      x y z
#    x 3.906720 0.000000 -0.219370 
#    y 0.000000 3.602450 0.000000 
#    z -0.219370 0.000000 4.252820 
# 
# 
# High freq. dielectric constant tensor:
#      x y z
#    x 1.823560 0.000000 -0.006130 
#    y 0.000000 1.786420 0.000000 
#    z -0.006130 0.000000 1.840440 
# 
# From -- ./inp_files/215016.got.cif
#   From: 2010.06.25/outbox.cif.g09.slc.cpg/sg12_108_cif.got.tgz:215016.got - 2010.06.28 00:19:55.
