data_PCOD8102721
_publ_section_title
;
Structure prediction by ZEFSAII (Michael W. Deem and Ramdas Pophale) SiO2 
 PCOD8102721
Probable space group: C 2/M
;
_chemical_formula_sum "Si O2"
_cell_formula_units_Z 48
_cell_length_a 14.391763
_cell_length_b 15.569911
_cell_length_c 10.713528
_cell_angle_alpha 90.000000
_cell_angle_beta 83.216000
_cell_angle_gamma 90.000000
_cell_volume 2383.862736
_symmetry_space_group_name_H-M "C 2/M"
_symmetry_group_IT_number 12
_symmetry_cell_setting 'monoclinic'
loop_
_space_group_symop_operation_xyz
x,y,z
-x,y,-z
-x,-y,-z
x,-y,z
1/2+x,1/2+y,z
1/2-x,1/2+y,-z
1/2-x,1/2-y,-z
1/2+x,1/2-y,z
loop_
_atom_site_type_symbol
_atom_site_label
_atom_site_fract_x
_atom_site_fract_y
_atom_site_fract_z
Si Si1 0.725411 0.000000 0.468884
Si Si2 0.162637 0.317190 0.763602
Si Si3 0.890222 0.000000 0.671922
Si Si4 0.038193 0.833755 0.858164
Si Si5 0.204022 0.500000 0.773016
Si Si6 0.897400 0.343682 0.506105
Si Si7 0.873862 0.815387 0.684109
Si Si8 0.901448 0.000000 0.270048
O O1 0.673653 0.914283 0.428138
O O2 0.829123 0.000000 0.395781
O O3 0.723865 0.000000 0.618935
O O4 0.101177 0.252135 0.854144
O O5 0.147233 0.414644 0.820193
O O6 0.129314 0.312730 0.626915
O O7 0.272089 0.294329 0.757402
O O8 0.813599 0.000000 0.801487
O O9 0.871643 0.092971 0.607444
O O10 0.995604 0.000000 0.693274
O O11 0.106746 0.912684 0.809158
O O12 0.950050 0.821274 0.781273
O O13 0.000000 0.854090 0.000000
O O14 0.901099 0.258227 0.585992
O O15 0.000000 0.385999 0.500000
#
# Coordination Sequence:
#
# PCOD8102721 Si02
#       8
#     4   8   4   8   4   8   8   4
#     4  10  21  34  56  86 113 149 187 224 285 344
#     4  10  20  38  59  82 118 150 187 234 278 337
#     4   8  18  34  52  78 112 145 184 226 276 334
#     4  11  23  39  59  83 113 153 195 237 280 329
#     4   8  18  36  57  85 112 153 182 227 281 340
#     4  11  20  36  57  87 118 149 182 229 287 343
#     4  10  20  37  58  86 111 150 191 230 288 337
#     4  10  21  38  56  81 112 145 188 244 281 330
#
# _framework density 20.135387999999999
#
# number of rings (size 3 to 8) (size 9 to 14) (size 15 to 20)
#    0.000    2.000    1.667    2.000    0.000    3.667 
#    0.000    0.417    0.000    0.000    0.000    0.000 
#    0.000    0.000    0.000    0.000    0.000    0.000 
#
# Total GULP energy -297323.638302 kJ/mol
# GULP energy per Si atom -12388.484929 kJ/mol
# Density = 2.008956 g / cm^3
# Si number density = 20.135388 Si / 1000 Ang^3
#
#
#
# Elastic Constant Matrix: (Units=GPa)
#
#
# Indices 1 2 3 4 5 6 
#
# 1 91.0232 46.5652 4.6140 0.0000 -5.4720 0.0000
# 2 46.5652 136.0572 18.3104 0.0000 -11.3872 0.0000
# 3 4.6140 18.3104 24.5941 0.0000 -12.6679 0.0000
# 4 0.0000 0.0000 0.0000 21.0918 0.0000 -8.7303
# 5 -5.4720 -11.3872 -12.6679 0.0000 17.3684 0.0000
# 6 0.0000 0.0000 0.0000 -8.7303 0.0000 41.0458
#
#
#
# Elastic Compliance Matrix: (Units=1/GPa)
#
#
# Indices 1 2 3 4 5 6 
#
# 1 0.013436 -0.004686 0.002508 0.000000 0.002990 0.000000
# 2 -0.004686 0.009826 -0.006212 0.000000 0.000435 0.000000
# 3 0.002508 -0.006212 0.069073 0.000000 0.047096 0.000000
# 4 0.000000 0.000000 0.000000 0.051989 0.000000 0.011058
# 5 0.002990 0.000435 0.047096 0.000000 0.093153 0.000000
# 6 0.000000 0.000000 0.000000 0.011058 0.000000 0.026715
#
#
# Mechanical properties :
#
#
# Convention : Reuss Voigt Hill
#
# Bulk Modulus (GPa) = 13.23544 43.40598 28.32071
# Shear Modulus (GPa) = 16.33149 28.04686 22.18918
#
# Velocity S-wave (km/s) = 2.85104 3.73622 3.32324
# Velocity P-wave (km/s) = 4.17438 6.34164 5.36851
#
# Compressibility (1/GPa) = 0.07555470
#
# Stress axis : x y z
#
# Youngs Moduli (GPa) = 74.42747 101.77128 14.47745
#
# Poissons Ratio (x) = 0.47687 -0.03631
# Poissons Ratio (y) = 0.34874 0.08994
# Poissons Ratio (z) = -0.18667 0.63225
#
# Static dielectric constant tensor:
#      x y z
#    x 4.052270 0.000000 0.049190 
#    y 0.000000 4.260800 0.000000 
#    z 0.049190 0.000000 3.088230 
# 
# 
# High freq. dielectric constant tensor:
#      x y z
#    x 1.804310 0.000000 -0.000040 
#    y 0.000000 1.816060 0.000000 
#    z -0.000040 0.000000 1.721610 
# 
# From -- ./inp_files/142937.got.cif
#   From: 2010.06.25/outbox.cif.g09.slc.cpg/sg12_72_cif.got.tgz:142937.got - 2010.06.28 00:19:55.
