data_PCOD8102851
_publ_section_title
;
Structure prediction by ZEFSAII (Michael W. Deem and Ramdas Pophale) SiO2 
 PCOD8102851
Probable space group: C 2/M
;
_chemical_formula_sum "Si O2"
_cell_formula_units_Z 56
_cell_length_a 30.605984
_cell_length_b 9.165316
_cell_length_c 11.797480
_cell_angle_alpha 90.000000
_cell_angle_beta 118.983621
_cell_angle_gamma 90.000000
_cell_volume 2894.883515
_symmetry_space_group_name_H-M "C 2/M"
_symmetry_group_IT_number 12
_symmetry_cell_setting 'monoclinic'
loop_
_space_group_symop_operation_xyz
x,y,z
-x,y,-z
-x,-y,-z
x,-y,z
1/2+x,1/2+y,z
1/2-x,1/2+y,-z
1/2-x,1/2-y,-z
1/2+x,1/2-y,z
loop_
_atom_site_type_symbol
_atom_site_label
_atom_site_fract_x
_atom_site_fract_y
_atom_site_fract_z
Si Si1 0.058687 0.667659 0.072177
Si Si2 0.421748 0.328402 0.128106
Si Si3 0.713261 0.171049 0.538466
Si Si4 0.250773 0.832419 0.169177
Si Si5 0.016583 0.828748 0.396039
Si Si6 0.599702 0.172192 0.366509
Si Si7 0.673257 0.831317 0.934133
O O1 0.073087 0.500000 0.066055
O O2 0.080959 0.721472 0.219232
O O3 0.081720 0.767336 0.003366
O O4 0.000000 0.690533 0.000000
O O5 0.413052 0.500000 0.114914
O O6 0.473929 0.286930 0.252103
O O7 0.378383 0.254029 0.147189
O O8 0.750000 0.250000 0.500000
O O9 0.730143 0.214774 0.684744
O O10 0.656628 0.224988 0.450020
O O11 0.716960 0.000000 0.520881
O O12 0.296453 0.804572 0.142226
O O13 0.233202 0.000000 0.142515
O O14 0.203713 0.732280 0.079159
O O15 0.067139 0.747826 0.423453
O O16 0.000000 0.775619 0.500000
O O17 0.027515 0.000000 0.410627
O O18 0.594084 0.000000 0.376436
O O19 0.662342 0.000000 0.943879
#
# Coordination Sequence:
#
# PCOD8102851 Si02
#       7
#     8   8   8   8   8   8   8
#     4  10  20  37  59  85 116 148 189 238 287 340
#     4  11  23  37  58  87 119 153 192 237 287 346
#     4  10  23  41  60  86 118 154 199 244 292 349
#     4   9  20  40  60  83 116 151 194 244 293 349
#     4  10  23  41  59  86 123 159 197 238 286 350
#     4  10  22  40  62  87 117 154 197 246 293 344
#     4  10  21  37  61  88 115 149 191 241 295 347
#
# _framework density 19.344474999999999
#
# number of rings (size 3 to 8) (size 9 to 14) (size 15 to 20)
#    0.000    2.000    1.429    0.857    4.000    3.429 
#    0.000    0.000    0.000    0.000    0.000    0.000 
#    0.000    0.000    0.000    0.000    0.000    0.000 
#
# Total GULP energy -347337.394850 kJ/mol
# GULP energy per Si atom -12404.906959 kJ/mol
# Density = 1.930045 g / cm^3
# Si number density = 19.344475 Si / 1000 Ang^3
#
#
#
# Elastic Constant Matrix: (Units=GPa)
#
#
# Indices 1 2 3 4 5 6 
#
# 1 135.1068 57.7033 67.9501 0.0000 5.1339 0.0000
# 2 57.7033 69.7787 42.8975 0.0000 2.1270 0.0000
# 3 67.9501 42.8975 124.5920 0.0000 -8.3983 0.0000
# 4 0.0000 0.0000 0.0000 22.9690 0.0000 -2.6439
# 5 5.1339 2.1270 -8.3983 0.0000 30.2790 0.0000
# 6 0.0000 0.0000 0.0000 -2.6439 0.0000 40.6189
#
#
#
# Elastic Compliance Matrix: (Units=1/GPa)
#
#
# Indices 1 2 3 4 5 6 
#
# 1 0.013303 -0.008024 -0.004695 0.000000 -0.002994 0.000000
# 2 -0.008024 0.023303 -0.003736 0.000000 -0.001313 0.000000
# 3 -0.004695 -0.003736 0.012172 0.000000 0.004434 0.000000
# 4 0.000000 0.000000 0.000000 0.043866 0.000000 0.002855
# 5 -0.002994 -0.001313 0.004434 0.000000 0.034856 0.000000
# 6 0.000000 0.000000 0.000000 0.002855 0.000000 0.024805
#
#
# Mechanical properties :
#
#
# Convention : Reuss Voigt Hill
#
# Bulk Modulus (GPa) = 63.01332 74.06436 68.53884
# Shear Modulus (GPa) = 26.24636 29.50180 27.87408
#
# Velocity S-wave (km/s) = 3.68746 3.90946 3.80008
# Velocity P-wave (km/s) = 7.12565 7.66477 7.40012
#
# Compressibility (1/GPa) = 0.01586966
#
# Stress axis : x y z
#
# Youngs Moduli (GPa) = 75.16919 42.91308 82.15815
#
# Poissons Ratio (x) = 0.34433 0.38570
# Poissons Ratio (y) = 0.60315 0.30692
# Poissons Ratio (z) = 0.35289 0.16031
#
# Static dielectric constant tensor:
#      x y z
#    x 3.561640 0.000000 0.008920 
#    y 0.000000 3.455210 0.000000 
#    z 0.008920 0.000000 3.685590 
# 
# 
# High freq. dielectric constant tensor:
#      x y z
#    x 1.761780 0.000000 0.000900 
#    y 0.000000 1.747750 0.000000 
#    z 0.000900 0.000000 1.759560 
# 
# From -- ./inp_files/180790.got.cif
#   From: 2010.06.25/outbox.cif.g09.slc.cpg/sg12_91_cif.got.tgz:180790.got - 2010.06.28 00:19:55.
