data_PCOD8102118
_publ_section_title
;
Structure prediction by ZEFSAII (Michael W. Deem and Ramdas Pophale) SiO2 
 PCOD8102118
Probable space group: C 2/M
;
_chemical_formula_sum "Si O2"
_cell_formula_units_Z 64
_cell_length_a 17.021077
_cell_length_b 12.449920
_cell_length_c 16.314830
_cell_angle_alpha 90.000000
_cell_angle_beta 98.124602
_cell_angle_gamma 90.000000
_cell_volume 3422.592086
_symmetry_space_group_name_H-M "C 2/M"
_symmetry_group_IT_number 12
_symmetry_cell_setting 'monoclinic'
loop_
_space_group_symop_operation_xyz
x,y,z
-x,y,-z
-x,-y,-z
x,-y,z
1/2+x,1/2+y,z
1/2-x,1/2+y,-z
1/2-x,1/2-y,-z
1/2+x,1/2-y,z
loop_
_atom_site_type_symbol
_atom_site_label
_atom_site_fract_x
_atom_site_fract_y
_atom_site_fract_z
Si Si1 0.416086 0.386159 0.456407
Si Si2 0.084767 0.627283 0.296135
Si Si3 0.335675 0.376988 0.144992
Si Si4 0.674707 0.223649 0.161245
Si Si5 0.916535 0.742487 0.297897
Si Si6 0.319163 0.728270 0.572581
Si Si7 0.738254 0.121483 0.705722
Si Si8 0.593288 0.622117 0.021608
O O1 0.500000 0.420773 0.500000
O O2 0.367962 0.500000 0.439183
O O3 0.418283 0.329007 0.369793
O O4 0.388774 0.313091 0.526856
O O5 0.073361 0.500000 0.305038
O O6 0.116440 0.653561 0.209895
O O7 0.149612 0.667808 0.372473
O O8 0.001619 0.687973 0.296911
O O9 0.350081 0.500000 0.173523
O O10 0.241280 0.353835 0.132196
O O11 0.387644 0.301464 0.211547
O O12 0.365255 0.355283 0.058284
O O13 0.721560 0.312454 0.217438
O O14 0.623454 0.286025 0.086804
O O15 0.853920 0.652601 0.317067
O O16 0.250000 0.750000 0.500000
O O17 0.286901 0.638324 0.629509
O O18 0.743647 0.000000 0.733683
O O19 0.612478 0.500000 0.054802
O O20 0.500000 0.637156 0.000000
#
# Coordination Sequence:
#
# PCOD8102118 Si02
#       8
#     8   8   8   8   8   8   8   8
#     4  11  22  38  58  81 114 150 191 240 288 338
#     4  11  24  40  60  83 115 153 191 237 288 345
#     4  10  21  37  61  89 117 152 191 235 287 342
#     4  10  21  38  59  84 119 151 191 234 285 340
#     4  11  21  39  58  83 117 148 194 236 288 342
#     4  11  22  40  56  83 113 147 192 238 287 341
#     4  10  21  36  57  82 111 148 188 234 287 339
#     4  10  20  36  60  90 119 152 193 235 285 339
#
# _framework density 18.699276999999999
#
# number of rings (size 3 to 8) (size 9 to 14) (size 15 to 20)
#    0.000    1.500    2.500    3.000    0.000    1.000 
#    0.000    1.875    0.000    9.000    0.000    0.000 
#    0.000    0.000    0.000    0.000    0.000    0.000 
#
# Total GULP energy -396641.867700 kJ/mol
# GULP energy per Si atom -12395.058366 kJ/mol
# Density = 1.865672 g / cm^3
# Si number density = 18.699277 Si / 1000 Ang^3
#
#
#
# Elastic Constant Matrix: (Units=GPa)
#
#
# Indices 1 2 3 4 5 6 
#
# 1 97.1490 33.6384 44.4659 0.0000 -8.2667 0.0000
# 2 33.6384 102.0607 41.5995 0.0000 -10.0150 0.0000
# 3 44.4659 41.5995 101.9687 0.0000 -11.6632 0.0000
# 4 0.0000 0.0000 0.0000 10.9030 0.0000 0.5761
# 5 -8.2667 -10.0150 -11.6632 0.0000 26.6944 0.0000
# 6 0.0000 0.0000 0.0000 0.5761 0.0000 35.0459
#
#
#
# Elastic Compliance Matrix: (Units=1/GPa)
#
#
# Indices 1 2 3 4 5 6 
#
# 1 0.013380 -0.002364 -0.004735 0.000000 0.001188 0.000000
# 2 -0.002364 0.012322 -0.003738 0.000000 0.002258 0.000000
# 3 -0.004735 -0.003738 0.013756 0.000000 0.003142 0.000000
# 4 0.000000 0.000000 0.000000 0.091798 0.000000 -0.001509
# 5 0.001188 0.002258 0.003142 0.000000 0.040049 0.000000
# 6 0.000000 0.000000 0.000000 -0.001509 0.000000 0.028559
#
#
# Mechanical properties :
#
#
# Convention : Reuss Voigt Hill
#
# Bulk Modulus (GPa) = 56.22470 60.06510 58.14490
# Shear Modulus (GPa) = 21.98147 26.62695 24.30421
#
# Velocity S-wave (km/s) = 3.43231 3.77763 3.60910
# Velocity P-wave (km/s) = 6.77058 7.15672 6.96633
#
# Compressibility (1/GPa) = 0.01778578
#
# Stress axis : x y z
#
# Youngs Moduli (GPa) = 74.73846 81.15371 72.69620
#
# Poissons Ratio (x) = 0.19181 0.34418
# Poissons Ratio (y) = 0.17665 0.27175
# Poissons Ratio (z) = 0.35385 0.30336
#
# Static dielectric constant tensor:
#      x y z
#    x 3.500430 0.000000 -0.023730 
#    y 0.000000 18.476140 0.000000 
#    z -0.023730 0.000000 3.450340 
# 
# 
# High freq. dielectric constant tensor:
#      x y z
#    x 1.738210 0.000000 -0.008650 
#    y 0.000000 1.729840 0.000000 
#    z -0.008650 0.000000 1.731850 
# 
# From -- ./inp_files/223816.got.cif
#   From: 2010.06.25/outbox.cif.g09.slc.cpg/sg12_112_cif.got.tgz:223816.got - 2010.06.28 00:19:55.
