data_PCOD8102916
_publ_section_title
;
Structure prediction by ZEFSAII (Michael W. Deem and Ramdas Pophale) SiO2 
 PCOD8102916
Probable space group: C 2/M
;
_chemical_formula_sum "Si O2"
_cell_formula_units_Z 56
_cell_length_a 18.127471
_cell_length_b 8.856514
_cell_length_c 25.226069
_cell_angle_alpha 90.000000
_cell_angle_beta 44.472779
_cell_angle_gamma 90.000000
_cell_volume 2837.274454
_symmetry_space_group_name_H-M "C 2/M"
_symmetry_group_IT_number 12
_symmetry_cell_setting 'monoclinic'
loop_
_space_group_symop_operation_xyz
x,y,z
-x,y,-z
-x,-y,-z
x,-y,z
1/2+x,1/2+y,z
1/2-x,1/2+y,-z
1/2-x,1/2-y,-z
1/2+x,1/2-y,z
loop_
_atom_site_type_symbol
_atom_site_label
_atom_site_fract_x
_atom_site_fract_y
_atom_site_fract_z
Si Si1 0.302353 0.823477 0.283713
Si Si2 0.415723 0.824041 0.416894
Si Si3 0.465728 0.179135 0.863991
Si Si4 0.186323 0.321263 0.150591
Si Si5 0.874316 0.175817 0.710285
Si Si6 0.403969 0.822636 0.011134
Si Si7 0.229684 0.176067 0.590694
O O1 0.417960 0.761402 0.209769
O O2 0.228432 0.790465 0.271675
O O3 0.257271 0.730331 0.356076
O O4 0.303669 0.000000 0.297717
O O5 0.523256 0.734991 0.373439
O O6 0.339035 0.788404 0.505152
O O7 0.365015 0.767161 0.388006
O O8 0.440157 0.000000 0.398600
O O9 0.383277 0.238949 0.862863
O O10 0.429906 0.241742 0.939490
O O11 0.469257 0.000000 0.864572
O O12 0.189200 0.500000 0.149582
O O13 0.132372 0.264628 0.231520
O O14 0.303147 0.259035 0.086280
O O15 0.885804 0.000000 0.716610
O O16 0.380919 0.000000 0.021946
O O17 0.500000 0.782669 0.000000
O O18 0.202263 0.000000 0.602121
#
# Coordination Sequence:
#
# PCOD8102916 Si02
#       7
#     8   8   8   8   8   8   8
#     4  10  21  38  59  82 112 150 191 237 288 340
#     4  10  21  38  59  83 115 152 189 235 287 336
#     4   9  19  36  57  81 109 145 187 229 280 338
#     4  11  22  36  57  84 114 147 185 234 289 341
#     4  11  23  38  58  84 113 150 196 238 282 341
#     4  10  20  37  60  82 110 148 187 229 279 339
#     4  10  21  37  59  86 114 148 191 235 283 343
#
# _framework density 19.737252999999999
#
# number of rings (size 3 to 8) (size 9 to 14) (size 15 to 20)
#    0.000    1.857    0.000    3.857    0.000    7.143 
#    0.000    5.000    0.000    0.000    0.000    0.000 
#    0.000    0.000    0.000    0.000    0.000    0.000 
#
# Total GULP energy -347362.106133 kJ/mol
# GULP energy per Si atom -12405.789505 kJ/mol
# Density = 1.969233 g / cm^3
# Si number density = 19.737253 Si / 1000 Ang^3
#
#
#
# Elastic Constant Matrix: (Units=GPa)
#
#
# Indices 1 2 3 4 5 6 
#
# 1 91.1787 55.0747 42.7509 0.0000 -4.9490 -0.0001
# 2 55.0747 21.4602 31.4581 0.0000 -18.4038 0.0002
# 3 42.7509 31.4581 102.9508 0.0000 -9.3568 0.0000
# 4 0.0000 0.0000 0.0000 32.7430 0.0000 1.6858
# 5 -4.9490 -18.4038 -9.3568 0.0000 36.9475 0.0001
# 6 -0.0001 0.0002 0.0000 1.6858 0.0001 28.7793
#
#
#
# Elastic Compliance Matrix: (Units=1/GPa)
#
#
# Indices 1 2 3 4 5 6 
#
# 1 -0.003822 0.030816 -0.006633 0.000000 0.013158 0.000000
# 2 0.030816 -0.054429 0.001787 0.000000 -0.022531 0.000001
# 3 -0.006633 0.001787 0.012203 0.000000 0.003092 0.000000
# 4 0.000000 0.000000 0.000000 0.030633 0.000000 -0.001794
# 5 0.013158 -0.022531 0.003092 0.000000 0.018388 0.000000
# 6 0.000000 0.000001 0.000000 -0.001794 0.000000 0.034852
#
#
# Mechanical properties :
#
#
# Convention : Reuss Voigt Hill
#
# Bulk Modulus (GPa) = 169.73414 52.68411 111.20912
# Shear Modulus (GPa) = -411.50336 25.44770 -193.02783
#
# Velocity S-wave (km/s) = -14.45487 3.59461 -9.90005
# Velocity P-wave (km/s) = 13.87111 6.63166 8.61477
#
# Compressibility (1/GPa) = 0.00589157
#
# Stress axis : x y z
#
# Youngs Moduli (GPa) = -261.65320 -18.37253 81.94862
#
# Poissons Ratio (x) = 0.56616 0.54359
# Poissons Ratio (y) = 8.06305 -0.14647
# Poissons Ratio (z) = -1.73563 0.03284
#
# Static dielectric constant tensor:
#      x y z
#    x 3.640400 0.000000 -0.014060 
#    y 0.000000 3.440740 0.000000 
#    z -0.014060 0.000000 3.706540 
# 
# 
# High freq. dielectric constant tensor:
#      x y z
#    x 1.775930 0.000000 -0.002060 
#    y 0.000000 1.757840 0.000000 
#    z -0.002060 0.000000 1.783930 
# 
# From -- ./inp_files/362962.got.cif
#   From: 2010.06.25/outbox.cif.g09.slc.cpg/sg12_182_cif.got.tgz:362962.got - 2010.06.28 00:19:55.
