data_PCOD8102375
_publ_section_title
;
Structure prediction by ZEFSAII (Michael W. Deem and Ramdas Pophale) SiO2 
 PCOD8102375
Probable space group: C 2/M
;
_chemical_formula_sum "Si O2"
_cell_formula_units_Z 64
_cell_length_a 30.640601
_cell_length_b 8.593989
_cell_length_c 11.828543
_cell_angle_alpha 90.000000
_cell_angle_beta 88.858977
_cell_angle_gamma 90.000000
_cell_volume 3114.133321
_symmetry_space_group_name_H-M "C 2/M"
_symmetry_group_IT_number 12
_symmetry_cell_setting 'monoclinic'
loop_
_space_group_symop_operation_xyz
x,y,z
-x,y,-z
-x,-y,-z
x,-y,z
1/2+x,1/2+y,z
1/2-x,1/2+y,-z
1/2-x,1/2-y,-z
1/2+x,1/2-y,z
loop_
_atom_site_type_symbol
_atom_site_label
_atom_site_fract_x
_atom_site_fract_y
_atom_site_fract_z
Si Si1 0.924391 0.680505 0.279083
Si Si2 0.202387 0.181700 0.506504
Si Si3 0.550903 0.319762 0.489173
Si Si4 0.999398 0.819231 0.868732
Si Si5 0.835849 0.817385 0.258251
Si Si6 0.920526 0.680899 0.742895
Si Si7 0.250564 0.316800 0.124202
Si Si8 0.670433 0.317546 0.265047
O O1 0.925749 0.500000 0.309216
O O2 0.926483 0.778601 0.394223
O O3 0.879498 0.726727 0.218163
O O4 0.964299 0.717886 0.195119
O O5 0.250000 0.250000 0.500000
O O6 0.176807 0.245562 0.616633
O O7 0.175306 0.225922 0.396659
O O8 0.208741 0.000000 0.519280
O O9 0.500000 0.281297 0.500000
O O10 0.559605 0.500000 0.461134
O O11 0.571544 0.218357 0.388760
O O12 0.952310 0.780143 0.820502
O O13 0.009681 0.000000 0.847476
O O14 0.000000 0.775878 0.000000
O O15 0.797417 0.774689 0.174020
O O16 0.845663 0.000000 0.257004
O O17 0.928481 0.500000 0.765109
O O18 0.871356 0.726184 0.780276
O O19 0.241983 0.500000 0.125401
O O20 0.213430 0.233844 0.197911
O O21 0.250000 0.250000 0.000000
O O22 0.663149 0.500000 0.247670
#
# Coordination Sequence:
#
# PCOD8102375 Si02
#       8
#     8   8   8   8   8   8   8   8
#     4  12  25  40  65  98 130 164 207 262 317 372
#     4  10  20  36  62  93 125 161 201 251 308 370
#     4  11  22  39  66  94 129 172 209 251 311 381
#     4  11  25  46  69  91 122 167 214 261 316 378
#     4  10  22  41  64  91 127 169 207 251 314 380
#     4  12  25  41  66  98 131 165 209 263 316 372
#     4  11  24  43  66  91 124 167 216 268 317 370
#     4  11  23  40  65  95 129 169 209 254 315 381
#
# _framework density 20.551463999999999
#
# number of rings (size 3 to 8) (size 9 to 14) (size 15 to 20)
#    0.000    1.000    2.500    4.500    0.000    5.500 
#    0.000    1.250    0.000    0.000    0.000    0.000 
#    0.000    0.000    0.000    0.000    0.000    0.000 
#
# Total GULP energy -397014.980718 kJ/mol
# GULP energy per Si atom -12406.718147 kJ/mol
# Density = 2.050469 g / cm^3
# Si number density = 20.551464 Si / 1000 Ang^3
#
#
#
# Elastic Constant Matrix: (Units=GPa)
#
#
# Indices 1 2 3 4 5 6 
#
# 1 109.9117 35.8187 18.0635 0.0000 28.5511 0.0000
# 2 35.8187 43.4708 33.2833 0.0000 -5.4944 0.0000
# 3 18.0635 33.2833 101.1235 0.0000 24.9377 0.0000
# 4 0.0000 0.0000 0.0000 30.0515 0.0000 -3.8320
# 5 28.5511 -5.4944 24.9377 0.0000 7.0888 0.0000
# 6 0.0000 0.0000 0.0000 -3.8320 0.0000 37.1135
#
#
#
# Elastic Compliance Matrix: (Units=1/GPa)
#
#
# Indices 1 2 3 4 5 6 
#
# 1 0.002797 0.006372 -0.007829 0.000000 0.021218 0.000000
# 2 0.006372 0.008546 0.005619 0.000000 -0.038807 0.000000
# 3 -0.007829 0.005619 0.004436 0.000000 0.020285 0.000000
# 4 0.000000 0.000000 0.000000 0.033720 0.000000 0.003482
# 5 0.021218 -0.038807 0.020285 0.000000 -0.045831 0.000000
# 6 0.000000 0.000000 0.000000 0.003482 0.000000 0.027304
#
#
# Mechanical properties :
#
#
# Convention : Reuss Voigt Hill
#
# Bulk Modulus (GPa) = 41.49044 47.64858 44.56951
# Shear Modulus (GPa) = 162.96034 26.00678 94.48356
#
# Velocity S-wave (km/s) = 8.91437 3.56117 6.78778
# Velocity P-wave (km/s) = 11.23330 6.33598 9.11953
#
# Compressibility (1/GPa) = 0.02410194
#
# Stress axis : x y z
#
# Youngs Moduli (GPa) = 357.57320 117.00737 225.44531
#
# Poissons Ratio (x) = -0.74558 1.76510
# Poissons Ratio (y) = -2.27848 -1.26676
# Poissons Ratio (z) = 2.79958 -0.65746
#
# Static dielectric constant tensor:
#      x y z
#    x 3.861540 0.000000 0.038280 
#    y 0.000000 3.715480 0.000000 
#    z 0.038280 0.000000 3.806590 
# 
# 
# High freq. dielectric constant tensor:
#      x y z
#    x 1.821980 0.000000 0.003310 
#    y 0.000000 1.806740 0.000000 
#    z 0.003310 0.000000 1.800700 
# 
# From -- ./inp_files/187634.got.cif
#   From: 2010.06.25/outbox.cif.g09.slc.cpg/sg12_94_cif.got.tgz:187634.got - 2010.06.28 00:19:55.
