data_PCOD8102589
_publ_section_title
;
Structure prediction by ZEFSAII (Michael W. Deem and Ramdas Pophale) SiO2 
 PCOD8102589
Probable space group: C 2/M
;
_chemical_formula_sum "Si O2"
_cell_formula_units_Z 48
_cell_length_a 12.651288
_cell_length_b 15.020959
_cell_length_c 14.495611
_cell_angle_alpha 90.000000
_cell_angle_beta 53.378026
_cell_angle_gamma 90.000000
_cell_volume 2210.863849
_symmetry_space_group_name_H-M "C 2/M"
_symmetry_group_IT_number 12
_symmetry_cell_setting 'monoclinic'
loop_
_space_group_symop_operation_xyz
x,y,z
-x,y,-z
-x,-y,-z
x,-y,z
1/2+x,1/2+y,z
1/2-x,1/2+y,-z
1/2-x,1/2-y,-z
1/2+x,1/2-y,z
loop_
_atom_site_type_symbol
_atom_site_label
_atom_site_fract_x
_atom_site_fract_y
_atom_site_fract_z
Si Si1 0.174185 0.852475 0.232704
Si Si2 0.135422 0.399572 0.378932
Si Si3 0.892361 0.598192 0.990959
Si Si4 0.723961 0.778596 0.636491
Si Si5 0.076889 0.324376 0.221670
Si Si6 0.582458 0.598938 0.549172
O O1 0.256025 0.910955 0.117810
O O2 0.243020 0.847243 0.297299
O O3 0.176854 0.753900 0.191750
O O4 0.025083 0.890518 0.313634
O O5 0.186599 0.500000 0.376583
O O6 0.239201 0.324305 0.358965
O O7 0.104811 0.398207 0.285346
O O8 0.000000 0.377217 0.500000
O O9 0.945637 0.500000 0.940311
O O10 0.877796 0.646270 0.902075
O O11 0.000000 0.647958 0.000000
O O12 0.571071 0.787716 0.695093
O O13 0.693006 0.678368 0.494221
O O14 0.500000 0.612388 0.500000
O O15 0.647182 0.500000 0.520878
#
# Coordination Sequence:
#
# PCOD8102589 Si02
#       6
#     8   8   8   8   8   8
#     4  10  20  37  57  83 120 157 196 250 302 364
#     4  10  22  40  60  86 124 166 206 249 301 367
#     4  11  22  37  59  87 117 151 200 256 306 361
#     4  10  20  37  59  89 123 159 203 250 306 365
#     4  11  22  38  62  87 119 161 205 248 304 366
#     4   9  18  32  54  84 119 155 191 243 304 353
#
# _framework density 21.71097
#
# number of rings (size 3 to 8) (size 9 to 14) (size 15 to 20)
#    0.000    1.833    1.667    4.000    0.000    4.667 
#    0.000    3.333    0.000    1.000    0.000    5.833 
#    0.000    0.000    0.000    0.000    0.000    0.000 
#
# Total GULP energy -297472.782383 kJ/mol
# GULP energy per Si atom -12394.699266 kJ/mol
# Density = 2.166156 g / cm^3
# Si number density = 21.710970 Si / 1000 Ang^3
#
#
#
# Elastic Constant Matrix: (Units=GPa)
#
#
# Indices 1 2 3 4 5 6 
#
# 1 57.8101 14.3029 21.5235 0.0000 -4.5295 0.0000
# 2 14.3029 103.3532 12.7518 0.0000 -12.1784 0.0000
# 3 21.5235 12.7518 125.9432 0.0000 -4.7645 0.0000
# 4 0.0000 0.0000 0.0000 18.4922 0.0000 9.8136
# 5 -4.5295 -12.1784 -4.7645 0.0000 31.8442 0.0000
# 6 0.0000 0.0000 0.0000 9.8136 0.0000 -0.2272
#
#
#
# Elastic Compliance Matrix: (Units=1/GPa)
#
#
# Indices 1 2 3 4 5 6 
#
# 1 0.019043 -0.002095 -0.002987 0.000000 0.001461 0.000000
# 2 -0.002095 0.010461 -0.000564 0.000000 0.003618 0.000000
# 3 -0.002987 -0.000564 0.008532 0.000000 0.000636 0.000000
# 4 0.000000 0.000000 0.000000 0.002260 0.000000 0.097640
# 5 0.001461 0.003618 0.000636 0.000000 0.033090 0.000000
# 6 0.000000 0.000000 0.000000 0.097640 0.000000 -0.183987
#
#
# Mechanical properties :
#
#
# Convention : Reuss Voigt Hill
#
# Bulk Modulus (GPa) = 37.39173 42.69590 40.04382
# Shear Modulus (GPa) = -55.31320 25.92373 -14.69474
#
# Velocity S-wave (km/s) = -5.05296 3.45923 -2.60443
# Velocity P-wave (km/s) = 4.09674 5.97188 3.07246
#
# Compressibility (1/GPa) = 0.02674388
#
# Stress axis : x y z
#
# Youngs Moduli (GPa) = 52.51320 95.58918 117.20904
#
# Poissons Ratio (x) = 0.20023 0.35011
# Poissons Ratio (y) = 0.11000 0.06615
# Poissons Ratio (z) = 0.15686 0.05395
#
# Static dielectric constant tensor:
#      x y z
#    x 3.792060 0.000000 0.123550 
#    y 0.000000 3.910960 0.000000 
#    z 0.123550 0.000000 3.990450 
# 
# 
# High freq. dielectric constant tensor:
#      x y z
#    x 1.842290 0.000000 0.009460 
#    y 0.000000 1.854020 0.000000 
#    z 0.009460 0.000000 1.852910 
# 
# From -- ./inp_files/131634.got.cif
#   From: 2010.06.25/outbox.cif.g09.slc.cpg/sg12_66_cif.got.tgz:131634.got - 2010.06.28 00:19:55.
