data_PCOD8102066
_publ_section_title
;
Structure prediction by ZEFSAII (Michael W. Deem and Ramdas Pophale) SiO2 
 PCOD8102066
Probable space group: C 2/M
;
_chemical_formula_sum "Si O2"
_cell_formula_units_Z 56
_cell_length_a 19.245726
_cell_length_b 13.939890
_cell_length_c 11.225832
_cell_angle_alpha 90.000000
_cell_angle_beta 112.695526
_cell_angle_gamma 90.000000
_cell_volume 2778.501747
_symmetry_space_group_name_H-M "C 2/M"
_symmetry_group_IT_number 12
_symmetry_cell_setting 'monoclinic'
loop_
_space_group_symop_operation_xyz
x,y,z
-x,y,-z
-x,-y,-z
x,-y,z
1/2+x,1/2+y,z
1/2-x,1/2+y,-z
1/2-x,1/2-y,-z
1/2+x,1/2-y,z
loop_
_atom_site_type_symbol
_atom_site_label
_atom_site_fract_x
_atom_site_fract_y
_atom_site_fract_z
Si Si1 0.673214 0.111435 0.978150
Si Si2 0.565849 0.713564 0.867914
Si Si3 0.313898 0.611046 0.907815
Si Si4 0.826372 0.105833 0.491623
Si Si5 0.561747 0.605534 0.634113
Si Si6 0.393855 0.287865 0.752708
Si Si7 0.315262 0.890399 0.741647
O O1 0.599857 0.180083 0.914790
O O2 0.737066 0.142918 0.924467
O O3 0.649358 0.000000 0.942680
O O4 0.707287 0.125358 0.133768
O O5 0.567761 0.692161 0.729868
O O6 0.479398 0.696154 0.853033
O O7 0.615207 0.631579 0.961629
O O8 0.310258 0.500000 0.874368
O O9 0.328971 0.667716 0.795246
O O10 0.860727 0.095802 0.383385
O O11 0.876046 0.173854 0.608841
O O12 0.744795 0.144614 0.398456
O O13 0.822054 0.000000 0.548792
O O14 0.500000 0.638538 0.500000
O O15 0.540974 0.500000 0.676691
O O16 0.387338 0.173107 0.755831
O O17 0.337041 0.000000 0.734483
#
# Coordination Sequence:
#
# PCOD8102066 Si02
#       7
#     8   8   8   8   8   8   8
#     4  10  23  44  66  88 119 164 216 255 290 355
#     4  12  23  38  63  91 125 161 201 250 310 367
#     4  11  24  39  59  91 126 161 198 248 312 370
#     4  10  21  39  61  88 120 160 205 250 302 363
#     4  10  20  36  60  88 119 157 199 243 296 365
#     4  12  24  37  59  94 128 159 194 255 319 367
#     4  10  22  41  63  85 116 162 215 256 291 351
#
# _framework density 20.154748000000001
#
# number of rings (size 3 to 8) (size 9 to 14) (size 15 to 20)
#    0.000    1.286    2.857    3.000    2.000    5.143 
#    0.000    1.429    0.000    0.429    0.000    0.000 
#    0.000    0.000    0.000    0.000    0.000    0.000 
#
# Total GULP energy -346920.782580 kJ/mol
# GULP energy per Si atom -12390.027949 kJ/mol
# Density = 2.010887 g / cm^3
# Si number density = 20.154748 Si / 1000 Ang^3
#
#
#
# Elastic Constant Matrix: (Units=GPa)
#
#
# Indices 1 2 3 4 5 6 
#
# 1 64.6537 30.7537 17.6265 0.0000 2.5244 0.0000
# 2 30.7537 89.1201 44.5980 0.0000 3.1783 0.0000
# 3 17.6265 44.5980 94.1124 0.0000 5.5001 0.0000
# 4 0.0000 0.0000 0.0000 34.7642 0.0000 -3.3722
# 5 2.5244 3.1783 5.5001 0.0000 20.7090 0.0000
# 6 0.0000 0.0000 0.0000 -3.3722 0.0000 7.5634
#
#
#
# Elastic Compliance Matrix: (Units=1/GPa)
#
#
# Indices 1 2 3 4 5 6 
#
# 1 0.018557 -0.006104 -0.000513 0.000000 -0.001189 0.000000
# 2 -0.006104 0.016720 -0.006779 0.000000 -0.000022 0.000000
# 3 -0.000513 -0.006779 0.014088 0.000000 -0.002639 0.000000
# 4 0.000000 0.000000 0.000000 0.030066 0.000000 0.013405
# 5 -0.001189 -0.000022 -0.002639 0.000000 0.049137 0.000000
# 6 0.000000 0.000000 0.000000 0.013405 0.000000 0.138193
#
#
# Mechanical properties :
#
#
# Convention : Reuss Voigt Hill
#
# Bulk Modulus (GPa) = 44.30165 48.20473 46.25319
# Shear Modulus (GPa) = 16.60693 22.93450 19.77072
#
# Velocity S-wave (km/s) = 2.87360 3.37697 3.13540
# Velocity P-wave (km/s) = 5.74792 6.25895 6.00887
#
# Compressibility (1/GPa) = 0.02257252
#
# Stress axis : x y z
#
# Youngs Moduli (GPa) = 53.88783 59.80701 70.98064
#
# Poissons Ratio (x) = 0.36509 0.03644
# Poissons Ratio (y) = 0.32895 0.48117
# Poissons Ratio (z) = 0.02766 0.40543
#
# Static dielectric constant tensor:
#      x y z
#    x 3.795710 0.000000 -0.140570 
#    y 0.000000 3.759050 0.000000 
#    z -0.140570 0.000000 3.731420 
# 
# 
# High freq. dielectric constant tensor:
#      x y z
#    x 1.776570 0.000000 -0.000030 
#    y 0.000000 1.786990 0.000000 
#    z -0.000030 0.000000 1.788200 
# 
# From -- ./inp_files/156742.got.cif
#   From: 2010.06.25/outbox.cif.g09.slc.cpg/sg12_79_cif.got.tgz:156742.got - 2010.06.28 00:19:55.
