data_PCOD8102968
_publ_section_title
;
Structure prediction by ZEFSAII (Michael W. Deem and Ramdas Pophale) SiO2 
 PCOD8102968
Probable space group: C 2/M
;
_chemical_formula_sum "Si O2"
_cell_formula_units_Z 40
_cell_length_a 9.726425
_cell_length_b 17.851090
_cell_length_c 25.298224
_cell_angle_alpha 90.000000
_cell_angle_beta 151.780569
_cell_angle_gamma 90.000000
_cell_volume 2076.973993
_symmetry_space_group_name_H-M "C 2/M"
_symmetry_group_IT_number 12
_symmetry_cell_setting 'monoclinic'
loop_
_space_group_symop_operation_xyz
x,y,z
-x,y,-z
-x,-y,-z
x,-y,z
1/2+x,1/2+y,z
1/2-x,1/2+y,-z
1/2-x,1/2-y,-z
1/2+x,1/2-y,z
loop_
_atom_site_type_symbol
_atom_site_label
_atom_site_fract_x
_atom_site_fract_y
_atom_site_fract_z
Si Si1 0.758828 0.414030 0.550798
Si Si2 0.336753 0.671390 0.775761
Si Si3 0.185109 0.914418 0.405842
Si Si4 0.721754 0.682026 0.803657
Si Si5 0.815031 0.582618 0.989812
O O1 0.500000 0.384830 0.500000
O O2 0.845026 0.500000 0.592452
O O3 0.625492 0.406439 0.447481
O O4 0.039283 0.362345 0.652531
O O5 0.540472 0.695969 0.795894
O O6 0.273795 0.740539 0.792240
O O7 0.493150 0.610003 0.865487
O O8 0.500000 0.879532 0.500000
O O9 0.943121 0.871768 0.291899
O O10 0.176238 0.000000 0.383130
O O11 0.031477 0.642517 0.919704
O O12 0.791332 0.500000 0.008562
O O13 0.000000 0.575031 0.000000
#
# Coordination Sequence:
#
# PCOD8102968 Si02
#       5
#     8   8   8   8   8
#     4  10  22  39  60  85 115 153 194 238 286 335
#     4  11  23  38  59  86 119 153 189 236 287 343
#     4  10  20  37  60  84 113 150 196 241 278 331
#     4  11  23  37  59  88 118 152 189 235 290 341
#     4   9  19  38  64  87 109 146 196 240 281 336
#
# _framework density 19.258787000000002
#
# number of rings (size 3 to 8) (size 9 to 14) (size 15 to 20)
#    0.000    1.800    2.000    1.800    2.800    3.200 
#    0.000    0.000    0.000    1.200    0.000    0.000 
#    0.000    0.000    0.000    0.000    0.000    0.000 
#
# Total GULP energy -248019.210599 kJ/mol
# GULP energy per Si atom -12400.960530 kJ/mol
# Density = 1.921495 g / cm^3
# Si number density = 19.258787 Si / 1000 Ang^3
#
#
#
# Elastic Constant Matrix: (Units=GPa)
#
#
# Indices 1 2 3 4 5 6 
#
# 1 90.1131 31.6892 24.0370 -0.0010 2.4269 -0.0018
# 2 31.6892 97.5436 38.6491 0.0007 -4.9805 -0.0030
# 3 24.0370 38.6491 99.0359 -0.0048 -5.4637 0.0015
# 4 -0.0010 0.0007 -0.0048 16.6668 -0.0001 -5.0348
# 5 2.4269 -4.9805 -5.4637 -0.0001 20.1647 -0.0020
# 6 -0.0018 -0.0030 0.0015 -5.0348 -0.0020 22.9370
#
#
#
# Elastic Compliance Matrix: (Units=1/GPa)
#
#
# Indices 1 2 3 4 5 6 
#
# 1 0.012952 -0.003606 -0.001900 0.000001 -0.002964 0.000001
# 2 -0.003606 0.013192 -0.004131 -0.000001 0.002573 0.000002
# 3 -0.001900 -0.004131 0.012311 0.000003 0.002544 -0.000001
# 4 0.000001 -0.000001 0.000003 0.064261 0.000002 0.014105
# 5 -0.002964 0.002573 0.002544 0.000002 0.051273 0.000005
# 6 0.000001 0.000002 -0.000001 0.014105 0.000005 0.046694
#
#
# Mechanical properties :
#
#
# Convention : Reuss Voigt Hill
#
# Bulk Modulus (GPa) = 52.13606 52.82701 52.48154
# Shear Modulus (GPa) = 22.08975 24.77485 23.43230
#
# Velocity S-wave (km/s) = 3.39041 3.59056 3.49192
# Velocity P-wave (km/s) = 6.51587 6.68424 6.60059
#
# Compressibility (1/GPa) = 0.01918058
#
# Stress axis : x y z
#
# Youngs Moduli (GPa) = 77.20852 75.80629 81.22924
#
# Poissons Ratio (x) = 0.27339 0.15431
# Poissons Ratio (y) = 0.27844 0.33554
# Poissons Ratio (z) = 0.14667 0.31314
#
# Static dielectric constant tensor:
#      x y z
#    x 3.609630 0.000000 0.094490 
#    y 0.000000 3.676390 -0.000010 
#    z 0.094490 -0.000010 3.781240 
# 
# 
# High freq. dielectric constant tensor:
#      x y z
#    x 1.737370 0.000000 -0.005940 
#    y 0.000000 1.751000 0.000000 
#    z -0.005940 0.000000 1.761060 
# 
# From -- ./inp_files/118908.got.cif
#   From: 2010.06.25/outbox.cif.g09.slc.cpg/sg12_60_cif.got.tgz:118908.got - 2010.06.28 00:19:55.
