data_PCOD8102352
_publ_section_title
;
Structure prediction by ZEFSAII (Michael W. Deem and Ramdas Pophale) SiO2 
 PCOD8102352
Probable space group: C 2/M
;
_chemical_formula_sum "Si O2"
_cell_formula_units_Z 48
_cell_length_a 30.040627
_cell_length_b 20.005630
_cell_length_c 12.906581
_cell_angle_alpha 90.000000
_cell_angle_beta 19.047870
_cell_angle_gamma 90.000000
_cell_volume 2531.434616
_symmetry_space_group_name_H-M "C 2/M"
_symmetry_group_IT_number 12
_symmetry_cell_setting 'monoclinic'
loop_
_space_group_symop_operation_xyz
x,y,z
-x,y,-z
-x,-y,-z
x,-y,z
1/2+x,1/2+y,z
1/2-x,1/2+y,-z
1/2-x,1/2-y,-z
1/2+x,1/2-y,z
loop_
_atom_site_type_symbol
_atom_site_label
_atom_site_fract_x
_atom_site_fract_y
_atom_site_fract_z
Si Si1 0.147379 0.924679 0.720052
Si Si2 0.862895 0.696013 0.737393
Si Si3 0.449610 0.200150 0.312628
Si Si4 0.886768 0.425000 0.035125
Si Si5 0.148687 0.428453 0.125434
Si Si6 0.797481 0.210385 0.294959
O O1 0.246048 0.919517 0.405137
O O2 0.183029 0.868783 0.727192
O O3 0.154470 0.000000 0.753155
O O4 0.000000 0.908409 0.000000
O O5 0.900541 0.689171 0.536220
O O6 0.784194 0.629751 0.953781
O O7 0.000000 0.711703 0.500000
O O8 0.750000 0.750000 0.000000
O O9 0.320858 0.220683 0.527958
O O10 0.509922 0.128730 0.142064
O O11 0.562613 0.258407 0.056316
O O12 0.949024 0.500000 0.907163
O O13 0.857695 0.406134 0.980043
O O14 0.226649 0.500000 0.963661
O O15 0.000000 0.436890 0.500000
O O16 0.750000 0.250000 0.500000
#
# Coordination Sequence:
#
# PCOD8102352 Si02
#       6
#     8   8   8   8   8   8
#     4  10  22  40  61  86 119 161 204 247 301 364
#     4  11  22  38  60  88 121 153 196 246 302 356
#     4  12  24  39  59  89 119 158 203 248 300 360
#     4  10  20  36  62  91 118 151 199 251 299 358
#     4   9  17  33  58  89 118 149 190 241 298 358
#     4  12  25  39  59  85 123 162 202 250 305 360
#
# _framework density 18.961580000000001
#
# number of rings (size 3 to 8) (size 9 to 14) (size 15 to 20)
#    0.000    1.333    5.000    2.500    0.000    0.667 
#    0.000    1.667    0.000    0.500    0.000    0.000 
#    0.000    0.000    0.000    0.000    0.000    0.000 
#
# Total GULP energy -297466.691252 kJ/mol
# GULP energy per Si atom -12394.445469 kJ/mol
# Density = 1.891842 g / cm^3
# Si number density = 18.961580 Si / 1000 Ang^3
#
#
#
# Elastic Constant Matrix: (Units=GPa)
#
#
# Indices 1 2 3 4 5 6 
#
# 1 105.1630 50.1084 32.9307 0.0013 -15.3227 -0.0007
# 2 50.1084 155.2446 42.1481 -0.0002 -9.5841 0.0050
# 3 32.9307 42.1481 63.1124 0.0041 -16.4487 0.0050
# 4 0.0013 -0.0002 0.0041 28.3045 0.0028 4.2600
# 5 -15.3227 -9.5841 -16.4487 0.0028 26.2438 -0.0034
# 6 -0.0007 0.0050 0.0050 4.2600 -0.0034 24.1336
#
#
#
# Elastic Compliance Matrix: (Units=1/GPa)
#
#
# Indices 1 2 3 4 5 6 
#
# 1 0.012579 -0.002827 -0.003622 -0.000001 0.004042 0.000002
# 2 -0.002827 0.008509 -0.004575 0.000001 -0.001411 -0.000001
# 3 -0.003622 -0.004575 0.023670 -0.000004 0.011050 -0.000002
# 4 -0.000001 0.000001 -0.000004 0.036294 -0.000007 -0.006407
# 5 0.004042 -0.001411 0.011050 -0.000007 0.046875 0.000006
# 6 0.000002 -0.000001 -0.000002 -0.006407 0.000006 0.042567
#
#
# Mechanical properties :
#
#
# Convention : Reuss Voigt Hill
#
# Bulk Modulus (GPa) = 44.03449 63.76604 53.90027
# Shear Modulus (GPa) = 24.98594 28.95858 26.97226
#
# Velocity S-wave (km/s) = 3.63397 3.91221 3.77565
# Velocity P-wave (km/s) = 6.39383 7.35590 6.89167
#
# Compressibility (1/GPa) = 0.02270947
#
# Stress axis : x y z
#
# Youngs Moduli (GPa) = 79.49527 117.52232 42.24784
#
# Poissons Ratio (x) = 0.33228 0.15302
# Poissons Ratio (y) = 0.22476 0.19328
# Poissons Ratio (z) = 0.28794 0.53766
#
# Static dielectric constant tensor:
#      x y z
#    x 3.115140 0.000000 0.184300 
#    y 0.000000 4.421480 0.000010 
#    z 0.184300 0.000010 3.451880 
# 
# 
# High freq. dielectric constant tensor:
#      x y z
#    x 1.715530 0.000000 0.020420 
#    y 0.000000 1.762140 0.000000 
#    z 0.020420 0.000000 1.736120 
# 
# From -- ./inp_files/190261.got.cif
#   From: 2010.06.25/outbox.cif.g09.slc.cpg/sg12_96_cif.got.tgz:190261.got - 2010.06.28 00:19:55.
