data_PCOD8102944
_publ_section_title
;
Structure prediction by ZEFSAII (Michael W. Deem and Ramdas Pophale) SiO2 
 PCOD8102944
Probable space group: C 2/M
;
_chemical_formula_sum "Si O2"
_cell_formula_units_Z 56
_cell_length_a 14.770068
_cell_length_b 9.063630
_cell_length_c 24.117964
_cell_angle_alpha 90.000000
_cell_angle_beta 117.347379
_cell_angle_gamma 90.000000
_cell_volume 2867.837171
_symmetry_space_group_name_H-M "C 2/M"
_symmetry_group_IT_number 12
_symmetry_cell_setting 'monoclinic'
loop_
_space_group_symop_operation_xyz
x,y,z
-x,y,-z
-x,-y,-z
x,-y,z
1/2+x,1/2+y,z
1/2-x,1/2+y,-z
1/2-x,1/2-y,-z
1/2+x,1/2-y,z
loop_
_atom_site_type_symbol
_atom_site_label
_atom_site_fract_x
_atom_site_fract_y
_atom_site_fract_z
Si Si1 0.412094 0.670029 0.933531
Si Si2 0.887547 0.833965 0.492833
Si Si3 0.967713 0.328608 0.615361
Si Si4 0.766852 0.827357 0.062940
Si Si5 0.005702 0.831140 0.840679
Si Si6 0.313381 0.826280 0.369338
Si Si7 0.612043 0.827083 0.286810
O O1 0.385679 0.500000 0.938767
O O2 0.312898 0.768941 0.914508
O O3 0.445553 0.694859 0.880358
O O4 0.500000 0.724070 0.000000
O O5 0.814395 0.743622 0.431155
O O6 0.000000 0.831656 0.500000
O O7 0.889489 0.758994 0.553734
O O8 0.845118 0.000000 0.486146
O O9 0.950634 0.500000 0.598216
O O10 0.084804 0.284677 0.636075
O O11 0.942697 0.285194 0.671046
O O12 0.877392 0.788781 0.117495
O O13 0.753204 0.000000 0.049720
O O14 0.750000 0.750000 0.000000
O O15 0.962886 0.721487 0.782806
O O16 0.993976 0.000000 0.817467
O O17 0.218456 0.758489 0.309558
O O18 0.299610 0.000000 0.371222
O O19 0.633762 0.000000 0.288691
#
# Coordination Sequence:
#
# PCOD8102944 Si02
#       7
#     8   8   8   8   8   8   8
#     4  10  20  39  63  88 119 154 189 233 290 345
#     4   9  17  31  55  87 116 145 188 243 294 338
#     4   9  20  38  58  81 113 153 194 237 288 347
#     4  11  22  38  62  92 121 152 191 236 288 345
#     4  10  23  42  60  82 119 157 192 234 290 352
#     4  10  20  37  60  83 113 153 195 237 292 351
#     4  11  24  40  58  83 115 151 197 244 285 339
#
# _framework density 19.526910999999998
#
# number of rings (size 3 to 8) (size 9 to 14) (size 15 to 20)
#    0.000    2.000    1.429    1.714    0.000    7.143 
#    0.000    4.286    0.000    0.000    0.000    0.000 
#    0.000    0.000    0.000    0.000    0.000    0.000 
#
# Total GULP energy -347338.334885 kJ/mol
# GULP energy per Si atom -12404.940532 kJ/mol
# Density = 1.948247 g / cm^3
# Si number density = 19.526911 Si / 1000 Ang^3
#
#
#
# Elastic Constant Matrix: (Units=GPa)
#
#
# Indices 1 2 3 4 5 6 
#
# 1 87.6123 37.1342 35.5806 0.0000 10.3035 0.0000
# 2 37.1342 84.8990 47.5206 0.0000 9.3495 0.0000
# 3 35.5806 47.5206 108.3232 0.0000 3.7876 0.0000
# 4 0.0000 0.0000 0.0000 40.2179 0.0000 2.0053
# 5 10.3035 9.3495 3.7876 0.0000 27.0032 0.0000
# 6 0.0000 0.0000 0.0000 2.0053 0.0000 30.9644
#
#
#
# Elastic Compliance Matrix: (Units=1/GPa)
#
#
# Indices 1 2 3 4 5 6 
#
# 1 0.014909 -0.004564 -0.002765 0.000000 -0.003721 0.000000
# 2 -0.004564 0.017564 -0.006084 0.000000 -0.003487 0.000000
# 3 -0.002765 -0.006084 0.012761 0.000000 0.001372 0.000000
# 4 0.000000 0.000000 0.000000 0.024945 0.000000 -0.001615
# 5 -0.003721 -0.003487 0.001372 0.000000 0.039467 0.000000
# 6 0.000000 0.000000 0.000000 -0.001615 0.000000 0.032400
#
#
# Mechanical properties :
#
#
# Convention : Reuss Voigt Hill
#
# Bulk Modulus (GPa) = 54.32363 57.92283 56.12323
# Shear Modulus (GPa) = 28.57011 30.34371 29.45691
#
# Velocity S-wave (km/s) = 3.82922 3.94628 3.88819
# Velocity P-wave (km/s) = 6.88700 7.10575 6.99723
#
# Compressibility (1/GPa) = 0.01840820
#
# Stress axis : x y z
#
# Youngs Moduli (GPa) = 67.07542 56.93324 78.36337
#
# Poissons Ratio (x) = 0.25982 0.21667
# Poissons Ratio (y) = 0.30610 0.47680
# Poissons Ratio (z) = 0.18546 0.34641
#
# Static dielectric constant tensor:
#      x y z
#    x 3.616720 0.000000 0.030470 
#    y 0.000000 3.623910 0.000000 
#    z 0.030470 0.000000 3.490200 
# 
# 
# High freq. dielectric constant tensor:
#      x y z
#    x 1.765790 0.000000 0.002430 
#    y 0.000000 1.764650 0.000000 
#    z 0.002430 0.000000 1.757920 
# 
# From -- ./inp_files/309027.got.cif
#   From: 2010.06.25/outbox.cif.g09.slc.cpg/sg12_155_cif.got.tgz:309027.got - 2010.06.28 00:19:55.
