data_PCOD8102211
_publ_section_title
;
Structure prediction by ZEFSAII (Michael W. Deem and Ramdas Pophale) SiO2 
 PCOD8102211
Probable space group: C 2/M
;
_chemical_formula_sum "Si O2"
_cell_formula_units_Z 48
_cell_length_a 17.206617
_cell_length_b 13.156013
_cell_length_c 9.517819
_cell_angle_alpha 90.000000
_cell_angle_beta 85.160685
_cell_angle_gamma 90.000000
_cell_volume 2146.872690
_symmetry_space_group_name_H-M "C 2/M"
_symmetry_group_IT_number 12
_symmetry_cell_setting 'monoclinic'
loop_
_space_group_symop_operation_xyz
x,y,z
-x,y,-z
-x,-y,-z
x,-y,z
1/2+x,1/2+y,z
1/2-x,1/2+y,-z
1/2-x,1/2-y,-z
1/2+x,1/2-y,z
loop_
_atom_site_type_symbol
_atom_site_label
_atom_site_fract_x
_atom_site_fract_y
_atom_site_fract_z
Si Si1 0.122702 0.814297 0.140993
Si Si2 0.842573 0.825757 0.169605
Si Si3 0.171243 0.613237 0.229896
Si Si4 0.218914 0.612943 0.774000
Si Si5 0.475418 0.304575 0.353519
Si Si6 0.111411 0.613670 0.541426
O O1 0.140639 0.693734 0.121308
O O2 0.188597 0.868347 0.226423
O O3 0.040736 0.827127 0.228860
O O4 0.121146 0.862934 0.984916
O O5 0.764734 0.886602 0.217785
O O6 0.827165 0.705102 0.144852
O O7 0.898267 0.851397 0.293344
O O8 0.142501 0.500000 0.196725
O O9 0.135793 0.650899 0.383482
O O10 0.198801 0.500000 0.840437
O O11 0.192382 0.616839 0.615923
O O12 0.500000 0.354994 0.500000
O O13 0.456751 0.185025 0.384559
O O14 0.076613 0.500000 0.546686
#
# Coordination Sequence:
#
# PCOD8102211 Si02
#       6
#     8   8   8   8   8   8
#     4  11  22  36  57  88 115 149 188 231 281 341
#     4  10  23  37  57  85 116 147 191 232 281 335
#     4  10  20  36  61  88 114 144 188 238 283 333
#     4   9  19  36  60  84 112 146 190 236 281 328
#     4  11  22  37  57  79 114 157 186 225 283 332
#     4   9  19  35  57  88 114 143 188 237 283 336
#
# _framework density 22.358103
#
# number of rings (size 3 to 8) (size 9 to 14) (size 15 to 20)
#    0.000    2.000    1.667    2.500    2.333    5.667 
#    0.000    0.833    0.000    8.000    0.000    0.000 
#    0.000    0.000    0.000    0.000    0.000    0.000 
#
# Total GULP energy -297356.863082 kJ/mol
# GULP energy per Si atom -12389.869295 kJ/mol
# Density = 2.230722 g / cm^3
# Si number density = 22.358103 Si / 1000 Ang^3
#
#
#
# Elastic Constant Matrix: (Units=GPa)
#
#
# Indices 1 2 3 4 5 6 
#
# 1 77.3280 -12.4428 20.8662 0.0000 -16.2987 0.0000
# 2 -12.4428 46.5275 -3.4507 0.0000 2.6337 0.0000
# 3 20.8662 -3.4507 89.4415 0.0000 -14.2702 0.0000
# 4 0.0000 0.0000 0.0000 15.2951 0.0000 -1.2440
# 5 -16.2987 2.6337 -14.2702 0.0000 32.8964 0.0000
# 6 0.0000 0.0000 0.0000 -1.2440 0.0000 15.2172
#
#
#
# Elastic Compliance Matrix: (Units=1/GPa)
#
#
# Indices 1 2 3 4 5 6 
#
# 1 0.015512 0.003607 -0.002471 0.000000 0.006325 0.000000
# 2 0.003607 0.022459 0.000025 0.000000 0.000000 0.000000
# 3 -0.002471 0.000025 0.012422 0.000000 0.004162 0.000000
# 4 0.000000 0.000000 0.000000 0.065818 0.000000 0.005380
# 5 0.006325 0.000000 0.004162 0.000000 0.035338 0.000000
# 6 0.000000 0.000000 0.000000 0.005380 0.000000 0.066155
#
#
# Mechanical properties :
#
#
# Convention : Reuss Voigt Hill
#
# Bulk Modulus (GPa) = 18.96946 24.80470 21.88708
# Shear Modulus (GPa) = 21.46354 26.57003 24.01678
#
# Velocity S-wave (km/s) = 3.10173 3.45104 3.28103
# Velocity P-wave (km/s) = 4.61849 5.19595 4.91571
#
# Compressibility (1/GPa) = 0.05271630
#
# Stress axis : x y z
#
# Youngs Moduli (GPa) = 64.46550 44.52521 80.50270
#
# Poissons Ratio (x) = -0.16061 0.19889
# Poissons Ratio (y) = -0.23254 -0.00201
# Poissons Ratio (z) = 0.15927 -0.00111
#
# Static dielectric constant tensor:
#      x y z
#    x 3.920470 0.000000 0.236210 
#    y 0.000000 3.916700 0.000000 
#    z 0.236210 0.000000 4.001220 
# 
# 
# High freq. dielectric constant tensor:
#      x y z
#    x 1.874370 0.000000 0.011240 
#    y 0.000000 1.859870 0.000000 
#    z 0.011240 0.000000 1.879620 
# 
# From -- ./inp_files/73611.got.cif
#   From: 2010.06.25/outbox.cif.g09.slc.cpg/sg12_37_cif.got.tgz:73611.got - 2010.06.28 00:19:55.
