data_PCOD8102128
_publ_section_title
;
Structure prediction by ZEFSAII (Michael W. Deem and Ramdas Pophale) SiO2 
 PCOD8102128
Probable space group: C 2/M
;
_chemical_formula_sum "Si O2"
_cell_formula_units_Z 40
_cell_length_a 23.607177
_cell_length_b 10.836581
_cell_length_c 25.432804
_cell_angle_alpha 90.000000
_cell_angle_beta 162.359151
_cell_angle_gamma 90.000000
_cell_volume 1971.714351
_symmetry_space_group_name_H-M "C 2/M"
_symmetry_group_IT_number 12
_symmetry_cell_setting 'monoclinic'
loop_
_space_group_symop_operation_xyz
x,y,z
-x,y,-z
-x,-y,-z
x,-y,z
1/2+x,1/2+y,z
1/2-x,1/2+y,-z
1/2-x,1/2-y,-z
1/2+x,1/2-y,z
loop_
_atom_site_type_symbol
_atom_site_label
_atom_site_fract_x
_atom_site_fract_y
_atom_site_fract_z
Si Si1 0.783771 0.712199 0.616547
Si Si2 0.871573 0.862329 0.936805
Si Si3 0.509727 0.363260 0.289651
Si Si4 0.608294 0.138714 0.970650
Si Si5 0.525886 0.142729 0.464226
O O1 0.619545 0.637217 0.442496
O O2 0.886708 0.789435 0.663288
O O3 0.697980 0.794291 0.587096
O O4 0.939993 0.624395 0.780214
O O5 0.658981 0.835337 0.733214
O O6 0.884550 0.000000 0.975317
O O7 0.945002 0.748303 0.036461
O O8 0.000000 0.865096 0.000000
O O9 0.499521 0.500000 0.258596
O O10 0.298961 0.315038 0.111739
O O11 0.635302 0.000000 0.019647
O O12 0.500000 0.199082 0.500000
O O13 0.578252 0.000000 0.515914
#
# Coordination Sequence:
#
# PCOD8102128 Si02
#       5
#     8   8   8   8   8
#     4  11  21  38  62  87 120 164 206 250 304 366
#     4  10  21  39  62  90 123 161 206 255 305 364
#     4  10  22  39  59  87 124 162 205 256 301 362
#     4  11  23  40  61  90 127 163 203 251 307 368
#     4  10  20  36  60  90 121 156 203 257 308 362
#
# _framework density 20.286913999999999
#
# number of rings (size 3 to 8) (size 9 to 14) (size 15 to 20)
#    0.000    1.600    2.000    3.000    0.000    3.600 
#    0.000    1.000    0.000    3.000    0.000    0.000 
#    0.000    0.000    0.000    0.000    0.000    0.000 
#
# Total GULP energy -247890.605105 kJ/mol
# GULP energy per Si atom -12394.530255 kJ/mol
# Density = 2.024074 g / cm^3
# Si number density = 20.286914 Si / 1000 Ang^3
#
#
#
# Elastic Constant Matrix: (Units=GPa)
#
#
# Indices 1 2 3 4 5 6 
#
# 1 85.3716 51.8329 27.9629 -0.0066 2.0076 -0.0228
# 2 51.8329 85.4118 27.0314 -0.0482 1.8462 0.0041
# 3 27.9629 27.0314 119.5444 -0.0701 5.3518 -0.0338
# 4 -0.0066 -0.0482 -0.0701 16.6395 -0.0194 -10.1561
# 5 2.0076 1.8462 5.3518 -0.0194 29.6204 -0.0161
# 6 -0.0228 0.0041 -0.0338 -10.1561 -0.0161 2.5306
#
#
#
# Elastic Compliance Matrix: (Units=1/GPa)
#
#
# Indices 1 2 3 4 5 6 
#
# 1 0.018973 -0.010886 -0.001965 -0.000045 -0.000252 -0.000021
# 2 -0.010886 0.018859 -0.001712 0.000035 -0.000128 -0.000014
# 3 -0.001965 -0.001712 0.009276 -0.000064 -0.001436 -0.000157
# 4 -0.000045 0.000035 -0.000064 -0.041458 -0.000105 -0.166386
# 5 -0.000252 -0.000128 -0.001436 -0.000105 0.034045 -0.000226
# 6 -0.000021 -0.000014 -0.000157 -0.166386 -0.000226 -0.272601
#
#
# Mechanical properties :
#
#
# Convention : Reuss Voigt Hill
#
# Bulk Modulus (GPa) = 55.61533 55.99802 55.80667
# Shear Modulus (GPa) = -25.27997 21.99147 -1.64425
#
# Velocity S-wave (km/s) = -3.53387 3.29602 -0.90125
# Velocity P-wave (km/s) = 3.28981 6.49215 5.14640
#
# Compressibility (1/GPa) = 0.01798065
#
# Stress axis : x y z
#
# Youngs Moduli (GPa) = 52.70733 53.02456 107.80358
#
# Poissons Ratio (x) = 0.57725 0.21184
# Poissons Ratio (y) = 0.57379 0.18458
# Poissons Ratio (z) = 0.10357 0.09079
#
# Static dielectric constant tensor:
#      x y z
#    x 3.581840 0.000110 -0.107980 
#    y 0.000110 3.608030 -0.000060 
#    z -0.107980 -0.000060 4.223850 
# 
# 
# High freq. dielectric constant tensor:
#      x y z
#    x 1.780080 0.000000 0.007430 
#    y 0.000000 1.785050 0.000000 
#    z 0.007430 0.000000 1.814890 
# 
# From -- ./inp_files/83645.got.cif
#   From: 2010.06.25/outbox.cif.g09.slc.cpg/sg12_42_cif.got.tgz:83645.got - 2010.06.28 00:19:55.
