data_PCOD8102523
_publ_section_title
;
Structure prediction by ZEFSAII (Michael W. Deem and Ramdas Pophale) SiO2 
 PCOD8102523
Probable space group: C 2/M
;
_chemical_formula_sum "Si O2"
_cell_formula_units_Z 36
_cell_length_a 9.367982
_cell_length_b 18.590990
_cell_length_c 15.715719
_cell_angle_alpha 90.000000
_cell_angle_beta 41.336289
_cell_angle_gamma 90.000000
_cell_volume 1807.759922
_symmetry_space_group_name_H-M "C 2/M"
_symmetry_group_IT_number 12
_symmetry_cell_setting 'monoclinic'
loop_
_space_group_symop_operation_xyz
x,y,z
-x,y,-z
-x,-y,-z
x,-y,z
1/2+x,1/2+y,z
1/2-x,1/2+y,-z
1/2-x,1/2-y,-z
1/2+x,1/2-y,z
loop_
_atom_site_type_symbol
_atom_site_label
_atom_site_fract_x
_atom_site_fract_y
_atom_site_fract_z
Si Si1 0.881879 0.000000 0.701278
Si Si2 0.905785 0.859969 0.450801
Si Si3 0.150371 0.115489 0.855423
Si Si4 0.437964 0.000000 0.813856
Si Si5 0.471373 0.795702 0.614328
Si Si6 0.638122 0.500000 0.099780
O O1 0.699183 0.000000 0.708174
O O2 0.034293 0.070225 0.630579
O O3 0.779070 0.000000 0.840842
O O4 0.648859 0.849649 0.573947
O O5 0.000000 0.874838 0.500000
O O6 0.000516 0.786511 0.366956
O O7 0.350825 0.070144 0.803942
O O8 0.241797 0.179661 0.755415
O O9 0.006125 0.069129 0.856668
O O10 0.000000 0.145101 0.000000
O O11 0.352001 0.000000 0.948067
O O12 0.500000 0.799657 0.500000
#
# Coordination Sequence:
#
# PCOD8102523 Si02
#       6
#     4   8   8   4   8   4
#     4  12  20  33  54  78 105 138 182 213 255 324
#     4  10  22  35  52  77 109 140 171 216 269 312
#     4   9  18  36  58  78 103 140 181 215 258 313
#     4   9  19  34  53  77 112 141 167 216 271 310
#     4  10  20  37  56  78 108 138 173 222 265 302
#     4   9  19  33  52  79 107 139 174 221 263 300
#
# _framework density 19.914148000000001
#
# number of rings (size 3 to 8) (size 9 to 14) (size 15 to 20)
#    0.000    2.222    0.000    4.667    0.000    1.778 
#    0.000    6.111    0.000   17.333    0.000    0.000 
#    0.000    0.000    0.000    0.000    0.000    0.000 
#
# Total GULP energy -223089.425065 kJ/mol
# GULP energy per Si atom -12393.856948 kJ/mol
# Density = 1.986882 g / cm^3
# Si number density = 19.914148 Si / 1000 Ang^3
#
#
#
# Elastic Constant Matrix: (Units=GPa)
#
#
# Indices 1 2 3 4 5 6 
#
# 1 69.8336 12.8861 9.6431 -0.0003 1.9832 0.0011
# 2 12.8861 108.1273 62.4924 -0.0004 -6.1829 0.0002
# 3 9.6431 62.4924 102.1407 0.0003 1.0540 0.0000
# 4 -0.0003 -0.0004 0.0003 35.9512 -0.0001 -14.1366
# 5 1.9832 -6.1829 1.0540 -0.0001 30.3960 -0.0002
# 6 0.0011 0.0002 0.0000 -14.1366 -0.0002 23.1053
#
#
#
# Elastic Compliance Matrix: (Units=1/GPa)
#
#
# Indices 1 2 3 4 5 6 
#
# 1 0.014705 -0.001594 -0.000400 0.000000 -0.001270 -0.000001
# 2 -0.001594 0.014802 -0.008941 0.000000 0.003425 0.000000
# 3 -0.000400 -0.008941 0.015322 0.000000 -0.002324 0.000000
# 4 0.000000 0.000000 0.000000 0.036627 0.000000 0.022410
# 5 -0.001270 0.003425 -0.002324 0.000000 0.033759 0.000001
# 6 -0.000001 0.000000 0.000000 0.022410 0.000001 0.056991
#
#
# Mechanical properties :
#
#
# Convention : Reuss Voigt Hill
#
# Bulk Modulus (GPa) = 43.55481 50.01612 46.78546
# Shear Modulus (GPa) = 24.78567 30.89584 27.84076
#
# Velocity S-wave (km/s) = 3.53175 3.94312 3.74309
# Velocity P-wave (km/s) = 6.20885 6.77505 6.49812
#
# Compressibility (1/GPa) = 0.02295958
#
# Stress axis : x y z
#
# Youngs Moduli (GPa) = 68.00326 67.56068 65.26399
#
# Poissons Ratio (x) = 0.10769 0.02611
# Poissons Ratio (y) = 0.10839 0.58351
# Poissons Ratio (z) = 0.02720 0.60405
#
# Static dielectric constant tensor:
#      x y z
#    x 3.591890 0.000000 -0.106550 
#    y 0.000000 3.562330 0.000000 
#    z -0.106550 0.000000 3.531220 
# 
# 
# High freq. dielectric constant tensor:
#      x y z
#    x 1.780020 0.000000 0.000700 
#    y 0.000000 1.766480 0.000000 
#    z 0.000700 0.000000 1.769370 
# 
# From -- ./inp_files/118544.got.cif
#   From: 2010.06.25/outbox.cif.g09.slc.cpg/sg12_60_cif.got.tgz:118544.got - 2010.06.28 00:19:55.
