data_PCOD8102963
_publ_section_title
;
Structure prediction by ZEFSAII (Michael W. Deem and Ramdas Pophale) SiO2 
 PCOD8102963
Probable space group: C 2/M
;
_chemical_formula_sum "Si O2"
_cell_formula_units_Z 56
_cell_length_a 20.043274
_cell_length_b 8.949756
_cell_length_c 18.915414
_cell_angle_alpha 90.000000
_cell_angle_beta 59.618434
_cell_angle_gamma 90.000000
_cell_volume 2927.141005
_symmetry_space_group_name_H-M "C 2/M"
_symmetry_group_IT_number 12
_symmetry_cell_setting 'monoclinic'
loop_
_space_group_symop_operation_xyz
x,y,z
-x,y,-z
-x,-y,-z
x,-y,z
1/2+x,1/2+y,z
1/2-x,1/2+y,-z
1/2-x,1/2-y,-z
1/2+x,1/2-y,z
loop_
_atom_site_type_symbol
_atom_site_label
_atom_site_fract_x
_atom_site_fract_y
_atom_site_fract_z
Si Si1 0.109423 0.823414 0.249823
Si Si2 0.682178 0.677735 0.491175
Si Si3 0.829466 0.824439 0.936024
Si Si4 0.481151 0.676989 0.932579
Si Si5 0.391836 0.829740 0.227440
Si Si6 0.220226 0.177016 0.314549
Si Si7 0.554295 0.829063 0.644972
O O1 0.149231 0.778592 0.154985
O O2 0.164674 0.764098 0.282591
O O3 0.029746 0.737944 0.299230
O O4 0.094065 0.000000 0.262578
O O5 0.687809 0.500000 0.494792
O O6 0.750000 0.750000 0.500000
O O7 0.689623 0.733774 0.406487
O O8 0.598939 0.733661 0.562176
O O9 0.897055 0.766199 0.952255
O O10 0.818976 0.000000 0.948551
O O11 0.750000 0.750000 0.000000
O O12 0.482694 0.500000 0.932646
O O13 0.544882 0.727841 0.842995
O O14 0.500000 0.743010 0.000000
O O15 0.307283 0.766170 0.252525
O O16 0.398035 0.818511 0.308280
O O17 0.403574 0.000000 0.195606
O O18 0.222387 0.000000 0.314043
O O19 0.547544 0.000000 0.623308
#
# Coordination Sequence:
#
# PCOD8102963 Si02
#       7
#     8   8   8   8   8   8   8
#     4  10  21  40  62  83 112 153 195 233 282 347
#     4  11  21  37  60  87 118 152 192 239 290 341
#     4  10  22  38  58  83 113 149 187 228 282 342
#     4  10  22  39  57  84 118 148 185 236 288 339
#     4  10  20  37  60  84 112 150 195 236 275 334
#     4   9  20  38  59  85 115 148 191 238 283 336
#     4  11  22  38  60  86 117 152 192 239 285 339
#
# _framework density 19.131295000000001
#
# number of rings (size 3 to 8) (size 9 to 14) (size 15 to 20)
#    0.000    1.857    2.857    0.857    2.000    2.571 
#    0.000    5.000    0.000    0.000    0.000    0.000 
#    0.000    0.000    0.000    0.000    0.000    0.000 
#
# Total GULP energy -347266.067708 kJ/mol
# GULP energy per Si atom -12402.359561 kJ/mol
# Density = 1.908775 g / cm^3
# Si number density = 19.131295 Si / 1000 Ang^3
#
#
#
# Elastic Constant Matrix: (Units=GPa)
#
#
# Indices 1 2 3 4 5 6 
#
# 1 124.4610 41.6314 65.0441 0.0001 7.3575 0.0003
# 2 41.6314 44.2544 38.2271 0.0001 -2.6852 0.0015
# 3 65.0441 38.2271 128.7744 -0.0001 -3.5789 0.0001
# 4 0.0001 0.0001 -0.0001 30.0378 0.0000 -6.3741
# 5 7.3575 -2.6852 -3.5789 0.0000 37.5098 0.0000
# 6 0.0003 0.0015 0.0001 -6.3741 0.0000 27.0498
#
#
#
# Elastic Compliance Matrix: (Units=1/GPa)
#
#
# Indices 1 2 3 4 5 6 
#
# 1 0.013579 -0.009396 -0.004174 0.000000 -0.003734 0.000000
# 2 -0.009396 0.036956 -0.006116 -0.000001 0.003905 -0.000002
# 3 -0.004174 -0.006116 0.011731 0.000000 0.001500 0.000000
# 4 0.000000 -0.000001 0.000000 0.035044 0.000000 0.008258
# 5 -0.003734 0.003905 0.001500 0.000000 0.027815 0.000000
# 6 0.000000 -0.000002 0.000000 0.008258 0.000000 0.038915
#
#
# Mechanical properties :
#
#
# Convention : Reuss Voigt Hill
#
# Bulk Modulus (GPa) = 43.67784 65.25500 54.46642
# Shear Modulus (GPa) = 23.69196 29.09195 26.39196
#
# Velocity S-wave (km/s) = 3.52289 3.90378 3.71822
# Velocity P-wave (km/s) = 6.27916 7.38257 6.85311
#
# Compressibility (1/GPa) = 0.02289490
#
# Stress axis : x y z
#
# Youngs Moduli (GPa) = 73.64075 27.05941 85.24570
#
# Poissons Ratio (x) = 0.25425 0.35578
# Poissons Ratio (y) = 0.69193 0.52136
# Poissons Ratio (z) = 0.30734 0.16549
#
# Static dielectric constant tensor:
#      x y z
#    x 3.947440 0.000000 0.189990 
#    y 0.000000 3.340820 0.000000 
#    z 0.189990 0.000000 3.691240 
# 
# 
# High freq. dielectric constant tensor:
#      x y z
#    x 1.756370 0.000000 -0.003620 
#    y 0.000000 1.725620 0.000000 
#    z -0.003620 0.000000 1.753470 
# 
# From -- ./inp_files/280956.got.cif
#   From: 2010.06.25/outbox.cif.g09.slc.cpg/sg12_141_cif.got.tgz:280956.got - 2010.06.28 00:19:55.
