data_PCOD8102839
_publ_section_title
;
Structure prediction by ZEFSAII (Michael W. Deem and Ramdas Pophale) SiO2 
 PCOD8102839
Probable space group: C 2/M
;
_chemical_formula_sum "Si O2"
_cell_formula_units_Z 64
_cell_length_a 30.938415
_cell_length_b 9.262714
_cell_length_c 14.866359
_cell_angle_alpha 90.000000
_cell_angle_beta 130.389295
_cell_angle_gamma 90.000000
_cell_volume 3244.903088
_symmetry_space_group_name_H-M "C 2/M"
_symmetry_group_IT_number 12
_symmetry_cell_setting 'monoclinic'
loop_
_space_group_symop_operation_xyz
x,y,z
-x,y,-z
-x,-y,-z
x,-y,z
1/2+x,1/2+y,z
1/2-x,1/2+y,-z
1/2-x,1/2-y,-z
1/2+x,1/2-y,z
loop_
_atom_site_type_symbol
_atom_site_label
_atom_site_fract_x
_atom_site_fract_y
_atom_site_fract_z
Si Si1 0.458151 0.663305 0.867231
Si Si2 0.865319 0.334555 0.817430
Si Si3 0.258843 0.670177 0.416898
Si Si4 0.874900 0.163256 0.005060
Si Si5 0.170628 0.672019 0.637985
Si Si6 0.749994 0.664435 0.091995
Si Si7 0.540262 0.829825 0.475715
Si Si8 0.515462 0.338692 0.753543
O O1 0.441214 0.500000 0.867825
O O2 0.400070 0.755403 0.785137
O O3 0.488082 0.675656 0.813287
O O4 0.500000 0.725866 0.000000
O O5 0.881916 0.500000 0.836582
O O6 0.798660 0.309766 0.716396
O O7 0.887008 0.270728 0.940407
O O8 0.272929 0.500000 0.451130
O O9 0.250000 0.750000 0.500000
O O10 0.307953 0.745355 0.423073
O O11 0.917595 0.197438 0.145214
O O12 0.886245 0.000000 0.986251
O O13 0.811676 0.183748 0.951526
O O14 0.177039 0.500000 0.630168
O O15 0.205764 0.722511 0.773497
O O16 0.105830 0.719346 0.571047
O O17 0.764940 0.500000 0.089120
O O18 0.750000 0.750000 0.000000
O O19 0.500000 0.764730 0.500000
O O20 0.514245 0.777820 0.347874
O O21 0.537243 0.000000 0.473745
O O22 0.506877 0.500000 0.702419
#
# Coordination Sequence:
#
# PCOD8102839 Si02
#       8
#     8   8   8   8   8   8   8   8
#     4  10  20  37  59  84 120 162 196 235 289 357
#     4  11  23  37  57  88 122 154 196 249 301 355
#     4  11  25  42  62  90 122 161 205 252 306 365
#     4  10  20  39  62  86 119 158 198 242 301 363
#     4  10  22  43  66  90 123 163 207 251 304 367
#     4  10  22  38  63  92 119 153 194 248 306 361
#     4  10  24  44  64  87 120 163 206 253 308 361
#     4  10  22  39  61  89 118 157 207 248 293 355
#
# _framework density 19.723241000000002
#
# number of rings (size 3 to 8) (size 9 to 14) (size 15 to 20)
#    0.000    1.750    2.500    0.750    3.500    4.500 
#    0.000    0.000    0.000    0.000    0.000    0.000 
#    0.000    0.000    0.000    0.000    0.000    0.000 
#
# Total GULP energy -396782.868315 kJ/mol
# GULP energy per Si atom -12399.464635 kJ/mol
# Density = 1.967835 g / cm^3
# Si number density = 19.723241 Si / 1000 Ang^3
#
#
#
# Elastic Constant Matrix: (Units=GPa)
#
#
# Indices 1 2 3 4 5 6 
#
# 1 109.0811 53.6335 64.6947 0.0000 7.8037 0.0000
# 2 53.6335 64.9217 38.4283 0.0000 3.7554 0.0000
# 3 64.6947 38.4283 114.7625 0.0000 6.1641 0.0000
# 4 0.0000 0.0000 0.0000 29.8469 0.0000 -1.1359
# 5 7.8037 3.7554 6.1641 0.0000 35.2093 0.0000
# 6 0.0000 0.0000 0.0000 -1.1359 0.0000 31.9205
#
#
#
# Elastic Compliance Matrix: (Units=1/GPa)
#
#
# Indices 1 2 3 4 5 6 
#
# 1 0.018988 -0.011604 -0.006722 0.000000 -0.001794 0.000000
# 2 -0.011604 0.026332 -0.002285 0.000000 0.000163 0.000000
# 3 -0.006722 -0.002285 0.013300 0.000000 -0.000595 0.000000
# 4 0.000000 0.000000 0.000000 0.033550 0.000000 0.001194
# 5 -0.001794 0.000163 -0.000595 0.000000 0.028886 0.000000
# 6 0.000000 0.000000 0.000000 0.001194 0.000000 0.031370
#
#
# Mechanical properties :
#
#
# Convention : Reuss Voigt Hill
#
# Bulk Modulus (GPa) = 57.47459 66.91983 62.19721
# Shear Modulus (GPa) = 25.06919 28.19591 26.63255
#
# Velocity S-wave (km/s) = 3.56904 3.78508 3.67865
# Velocity P-wave (km/s) = 6.79617 7.28735 7.04604
#
# Compressibility (1/GPa) = 0.01739899
#
# Stress axis : x y z
#
# Youngs Moduli (GPa) = 52.66450 37.97608 75.18707
#
# Poissons Ratio (x) = 0.44067 0.50542
# Poissons Ratio (y) = 0.61111 0.17179
# Poissons Ratio (z) = 0.35402 0.08677
#
# Static dielectric constant tensor:
#      x y z
#    x 4.001320 0.000000 -0.229380 
#    y 0.000000 3.796030 0.000000 
#    z -0.229380 0.000000 4.221860 
# 
# 
# High freq. dielectric constant tensor:
#      x y z
#    x 1.778920 0.000000 0.010200 
#    y 0.000000 1.760870 0.000000 
#    z 0.010200 0.000000 1.771130 
# 
# From -- ./inp_files/249958.got.cif
#   From: 2010.06.25/outbox.cif.g09.slc.cpg/sg12_125_cif.got.tgz:249958.got - 2010.06.28 00:19:55.
