data_PCOD8102143
_publ_section_title
;
Structure prediction by ZEFSAII (Michael W. Deem and Ramdas Pophale) SiO2 
 PCOD8102143
Probable space group: C 2/M
;
_chemical_formula_sum "Si O2"
_cell_formula_units_Z 48
_cell_length_a 18.906848
_cell_length_b 13.592465
_cell_length_c 9.013462
_cell_angle_alpha 90.000000
_cell_angle_beta 90.038085
_cell_angle_gamma 90.000000
_cell_volume 2316.375124
_symmetry_space_group_name_H-M "C 2/M"
_symmetry_group_IT_number 12
_symmetry_cell_setting 'monoclinic'
loop_
_space_group_symop_operation_xyz
x,y,z
-x,y,-z
-x,-y,-z
x,-y,z
1/2+x,1/2+y,z
1/2-x,1/2+y,-z
1/2-x,1/2-y,-z
1/2+x,1/2-y,z
loop_
_atom_site_type_symbol
_atom_site_label
_atom_site_fract_x
_atom_site_fract_y
_atom_site_fract_z
Si Si1 0.319996 0.214028 0.420169
Si Si2 0.937573 0.317668 0.891393
Si Si3 0.148599 0.000000 0.310977
Si Si4 0.816337 0.286110 0.093626
Si Si5 0.343857 0.000000 0.800407
Si Si6 0.287951 0.000000 0.477206
Si Si7 0.938428 0.189669 0.612939
Si Si8 0.230512 0.500000 0.917525
O O1 0.250000 0.250000 0.500000
O O2 0.321738 0.263995 0.256329
O O3 0.386185 0.243274 0.518496
O O4 0.321368 0.096141 0.402251
O O5 0.894337 0.406989 0.820550
O O6 0.966727 0.251332 0.755412
O O7 0.884478 0.256305 0.996874
O O8 0.000000 0.354769 0.000000
O O9 0.203500 0.000000 0.447923
O O10 0.099640 0.905101 0.320311
O O11 0.190988 0.000000 0.153528
O O12 0.811974 0.402423 0.129921
O O13 0.750000 0.250000 0.000000
O O14 0.303940 0.000000 0.647876
O O15 0.273799 0.000000 0.904129
O O16 0.000000 0.157668 0.500000
#
# Coordination Sequence:
#
# PCOD8102143 Si02
#       8
#     8   8   4   8   4   4   8   4
#     4  12  22  40  66  97 133 172 222 279 333 397
#     4  11  23  43  63  91 133 176 221 271 332 405
#     4  12  23  44  67  95 133 173 223 283 328 398
#     4  11  22  37  62  94 124 167 215 269 329 385
#     4  10  23  38  66 102 133 167 212 274 345 403
#     4  12  22  40  68 103 132 167 218 273 341 389
#     4  12  26  44  65  94 134 183 226 277 334 400
#     4  10  20  36  60  90 126 158 204 266 328 373
#
# _framework density 20.722031999999999
#
# number of rings (size 3 to 8) (size 9 to 14) (size 15 to 20)
#    0.000    0.667    5.000    3.500    2.333    0.000 
#    0.000    3.750    0.000    0.000    0.000    0.000 
#    0.000    0.000    0.000    0.000    0.000    0.000 
#
# Total GULP energy -297440.673024 kJ/mol
# GULP energy per Si atom -12393.361376 kJ/mol
# Density = 2.067487 g / cm^3
# Si number density = 20.722032 Si / 1000 Ang^3
#
#
#
# Elastic Constant Matrix: (Units=GPa)
#
#
# Indices 1 2 3 4 5 6 
#
# 1 93.4626 17.5000 43.6044 0.0000 -8.4321 0.0000
# 2 17.5000 83.7305 29.5605 0.0000 0.5268 0.0000
# 3 43.6044 29.5605 174.0599 0.0000 -1.0206 0.0000
# 4 0.0000 0.0000 0.0000 24.7876 0.0000 -1.3908
# 5 -8.4321 0.5268 -1.0206 0.0000 49.0819 0.0000
# 6 0.0000 0.0000 0.0000 -1.3908 0.0000 23.7757
#
#
#
# Elastic Compliance Matrix: (Units=1/GPa)
#
#
# Indices 1 2 3 4 5 6 
#
# 1 0.012523 -0.001625 -0.002849 0.000000 0.002110 0.000000
# 2 -0.001625 0.012917 -0.001789 0.000000 -0.000455 0.000000
# 3 -0.002849 -0.001789 0.006761 0.000000 -0.000330 0.000000
# 4 0.000000 0.000000 0.000000 0.040476 0.000000 0.002368
# 5 0.002110 -0.000455 -0.000330 0.000000 0.020735 0.000000
# 6 0.000000 0.000000 0.000000 0.002368 0.000000 0.042198
#
#
# Mechanical properties :
#
#
# Convention : Reuss Voigt Hill
#
# Bulk Modulus (GPa) = 50.82599 59.17586 55.00093
# Shear Modulus (GPa) = 32.32183 36.90159 34.61171
#
# Velocity S-wave (km/s) = 3.95369 4.22452 4.09135
# Velocity P-wave (km/s) = 6.73966 7.23978 6.99419
#
# Compressibility (1/GPa) = 0.01967497
#
# Stress axis : x y z
#
# Youngs Moduli (GPa) = 79.85197 77.41582 147.91172
#
# Poissons Ratio (x) = 0.12579 0.42139
# Poissons Ratio (y) = 0.12975 0.26466
# Poissons Ratio (z) = 0.22749 0.13852
#
# Static dielectric constant tensor:
#      x y z
#    x 5.286060 0.000000 -0.619600 
#    y 0.000000 3.809320 0.000000 
#    z -0.619600 0.000000 4.474890 
# 
# 
# High freq. dielectric constant tensor:
#      x y z
#    x 1.794620 0.000000 -0.005260 
#    y 0.000000 1.804940 0.000000 
#    z -0.005260 0.000000 1.839020 
# 
# From -- ./inp_files/73714.got.cif
#   From: 2010.06.25/outbox.cif.g09.slc.cpg/sg12_37_cif.got.tgz:73714.got - 2010.06.28 00:19:55.
