data_PCOD8102236
_publ_section_title
;
Structure prediction by ZEFSAII (Michael W. Deem and Ramdas Pophale) SiO2 
 PCOD8102236
Probable space group: C 2/M
;
_chemical_formula_sum "Si O2"
_cell_formula_units_Z 56
_cell_length_a 9.624590
_cell_length_b 19.613202
_cell_length_c 19.138579
_cell_angle_alpha 90.000000
_cell_angle_beta 49.302320
_cell_angle_gamma 90.000000
_cell_volume 2739.061099
_symmetry_space_group_name_H-M "C 2/M"
_symmetry_group_IT_number 12
_symmetry_cell_setting 'monoclinic'
loop_
_space_group_symop_operation_xyz
x,y,z
-x,y,-z
-x,-y,-z
x,-y,z
1/2+x,1/2+y,z
1/2-x,1/2+y,-z
1/2-x,1/2-y,-z
1/2+x,1/2-y,z
loop_
_atom_site_type_symbol
_atom_site_label
_atom_site_fract_x
_atom_site_fract_y
_atom_site_fract_z
Si Si1 0.370829 0.782800 0.224719
Si Si2 0.913130 0.196426 0.951449
Si Si3 0.712497 0.922613 0.938922
Si Si4 0.985284 0.923657 0.430040
Si Si5 0.223411 0.422587 0.779284
Si Si6 0.840248 0.349650 0.501569
Si Si7 0.462972 0.754521 0.347166
O O1 0.427129 0.725298 0.150467
O O2 0.423403 0.860528 0.181594
O O3 0.479624 0.770041 0.260046
O O4 0.153893 0.777317 0.309591
O O5 0.832611 0.124320 0.950822
O O6 0.750000 0.250000 0.000000
O O7 0.000000 0.187468 0.000000
O O8 0.802340 0.920063 0.832139
O O9 0.717175 0.000000 0.967323
O O10 0.500000 0.898754 0.000000
O O11 0.775880 0.917674 0.474301
O O12 0.000000 0.882980 0.500000
O O13 0.118501 0.898359 0.325460
O O14 0.042392 0.000000 0.426202
O O15 0.146356 0.500000 0.789694
O O16 0.704944 0.295187 0.581025
O O17 0.927591 0.323973 0.400733
O O18 0.000000 0.371383 0.500000
#
# Coordination Sequence:
#
# PCOD8102236 Si02
#       7
#     8   8   8   8   8   8   8
#     4  12  22  39  62  87 124 159 205 258 314 368
#     4  12  25  41  64  96 130 166 208 262 318 375
#     4  10  22  42  68  95 127 167 210 258 316 381
#     4  10  21  37  59  85 118 163 208 254 305 372
#     4  10  20  36  61  89 117 159 210 253 304 375
#     4  11  22  36  55  84 121 150 201 255 307 360
#     4  11  23  36  56  88 113 158 200 254 307 365
#
# _framework density 20.444960999999999
#
# number of rings (size 3 to 8) (size 9 to 14) (size 15 to 20)
#    0.000    1.143    2.857    4.714    0.000    0.571 
#    0.000    0.000    0.000    3.429    0.000    0.000 
#    0.000    0.000    0.000    0.000    0.000    0.000 
#
# Total GULP energy -346947.459622 kJ/mol
# GULP energy per Si atom -12390.980701 kJ/mol
# Density = 2.039843 g / cm^3
# Si number density = 20.444961 Si / 1000 Ang^3
#
#
#
# Elastic Constant Matrix: (Units=GPa)
#
#
# Indices 1 2 3 4 5 6 
#
# 1 111.0040 32.0782 44.4810 -0.0001 13.5022 0.0002
# 2 32.0782 93.4655 33.5508 0.0000 1.5296 0.0000
# 3 44.4810 33.5508 113.9807 0.0000 22.5557 0.0000
# 4 -0.0001 0.0000 0.0000 14.1301 0.0000 -7.8273
# 5 13.5022 1.5296 22.5557 0.0000 31.7906 0.0000
# 6 0.0002 0.0000 0.0000 -7.8273 0.0000 29.3289
#
#
#
# Elastic Compliance Matrix: (Units=1/GPa)
#
#
# Indices 1 2 3 4 5 6 
#
# 1 0.011356 -0.002730 -0.003141 0.000000 -0.002463 0.000000
# 2 -0.002730 0.012758 -0.003255 0.000000 0.002855 0.000000
# 3 -0.003141 -0.003255 0.012404 0.000000 -0.007310 0.000000
# 4 0.000000 0.000000 0.000000 0.083049 0.000000 0.022164
# 5 -0.002463 0.002855 -0.007310 0.000000 0.037551 0.000000
# 6 0.000000 0.000000 0.000000 0.022164 0.000000 0.040011
#
#
# Mechanical properties :
#
#
# Convention : Reuss Voigt Hill
#
# Bulk Modulus (GPa) = 54.74483 59.85224 57.29854
# Shear Modulus (GPa) = 22.57666 28.93925 25.75795
#
# Velocity S-wave (km/s) = 3.32665 3.76636 3.55331
# Velocity P-wave (km/s) = 6.44906 6.94639 6.70234
#
# Compressibility (1/GPa) = 0.01826657
#
# Stress axis : x y z
#
# Youngs Moduli (GPa) = 88.06209 78.38410 80.62086
#
# Poissons Ratio (x) = 0.21396 0.25319
# Poissons Ratio (y) = 0.24038 0.26242
# Poissons Ratio (z) = 0.27656 0.25514
#
# Static dielectric constant tensor:
#      x y z
#    x 3.535770 0.000000 0.086350 
#    y 0.000000 3.787600 0.000000 
#    z 0.086350 0.000000 4.095930 
# 
# 
# High freq. dielectric constant tensor:
#      x y z
#    x 1.777380 0.000000 0.010750 
#    y 0.000000 1.799000 0.000000 
#    z 0.010750 0.000000 1.817710 
# 
# From -- ./inp_files/257973.got.cif
#   From: 2010.06.25/outbox.cif.g09.slc.cpg/sg12_129_cif.got.tgz:257973.got - 2010.06.28 00:19:55.
