data_PCOD8102720
_publ_section_title
;
Structure prediction by ZEFSAII (Michael W. Deem and Ramdas Pophale) SiO2 
 PCOD8102720
Probable space group: C 2/M
;
_chemical_formula_sum "Si O2"
_cell_formula_units_Z 64
_cell_length_a 22.064832
_cell_length_b 23.238140
_cell_length_c 16.642861
_cell_angle_alpha 90.000000
_cell_angle_beta 158.653853
_cell_angle_gamma 90.000000
_cell_volume 3106.226806
_symmetry_space_group_name_H-M "C 2/M"
_symmetry_group_IT_number 12
_symmetry_cell_setting 'monoclinic'
loop_
_space_group_symop_operation_xyz
x,y,z
-x,y,-z
-x,-y,-z
x,-y,z
1/2+x,1/2+y,z
1/2-x,1/2+y,-z
1/2-x,1/2-y,-z
1/2+x,1/2-y,z
loop_
_atom_site_type_symbol
_atom_site_label
_atom_site_fract_x
_atom_site_fract_y
_atom_site_fract_z
Si Si1 0.064195 0.674905 0.263112
Si Si2 0.612479 0.364701 0.427321
Si Si3 0.182967 0.435069 0.201456
Si Si4 0.043269 0.251449 0.392579
Si Si5 0.680337 0.435011 0.970952
Si Si6 0.658958 0.831348 0.750820
Si Si7 0.134614 0.436562 0.960521
Si Si8 0.365206 0.255908 0.898866
O O1 0.999381 0.613709 0.215882
O O2 0.242333 0.664035 0.444486
O O3 0.101308 0.714753 0.385113
O O4 0.936325 0.702757 0.040053
O O5 0.681699 0.394942 0.591599
O O6 0.486698 0.312901 0.297433
O O7 0.506140 0.410978 0.245519
O O8 0.201861 0.500000 0.257703
O O9 0.217833 0.431377 0.150274
O O10 0.000000 0.411742 0.000000
O O11 0.195692 0.240362 0.642747
O O12 0.885959 0.283809 0.237069
O O13 0.693441 0.500000 0.020636
O O14 0.810526 0.394811 0.177622
O O15 0.719150 0.431874 0.924015
O O16 0.500000 0.839349 0.500000
O O17 0.822014 0.809069 0.904563
O O18 0.047357 0.500000 0.845007
O O19 0.500000 0.276395 0.000000
#
# Coordination Sequence:
#
# PCOD8102720 Si02
#       8
#     8   8   8   8   8   8   8   8
#     4  12  23  40  65  93 133 173 213 259 325 387
#     4  12  24  36  61  96 130 168 209 267 316 380
#     4  10  20  37  58  85 125 172 211 252 310 376
#     4  11  24  41  63  98 128 173 213 261 326 386
#     4  11  25  44  65  94 124 164 222 275 320 375
#     4  10  24  46  68  93 127 169 211 269 329 385
#     4  10  22  39  63  89 124 170 220 265 310 380
#     4  11  24  41  66  98 133 165 215 262 315 394
#
# _framework density 20.603777000000001
#
# number of rings (size 3 to 8) (size 9 to 14) (size 15 to 20)
#    0.000    1.125    3.750    2.250    3.500    2.250 
#    2.250    1.875    0.000    0.375    0.000    0.000 
#    0.000    0.000    0.000    0.000    0.000    0.000 
#
# Total GULP energy -396770.069859 kJ/mol
# GULP energy per Si atom -12399.064683 kJ/mol
# Density = 2.055688 g / cm^3
# Si number density = 20.603777 Si / 1000 Ang^3
#
#
#
# Elastic Constant Matrix: (Units=GPa)
#
#
# Indices 1 2 3 4 5 6 
#
# 1 90.2086 43.6903 24.8684 0.0001 3.3774 0.0001
# 2 43.6903 164.3394 52.8836 0.0000 6.1099 0.0000
# 3 24.8684 52.8836 62.7429 0.0002 8.5475 0.0002
# 4 0.0001 0.0000 0.0002 33.5131 0.0001 -7.3740
# 5 3.3774 6.1099 8.5475 0.0001 21.9775 0.0001
# 6 0.0001 0.0000 0.0002 -7.3740 0.0001 23.1096
#
#
#
# Elastic Compliance Matrix: (Units=1/GPa)
#
#
# Indices 1 2 3 4 5 6 
#
# 1 0.013152 -0.002497 -0.003091 0.000000 -0.000125 0.000000
# 2 -0.002497 0.008828 -0.006514 0.000000 0.000463 0.000000
# 3 -0.003091 -0.006514 0.023592 0.000000 -0.006890 0.000000
# 4 0.000000 0.000000 0.000000 0.032092 0.000000 0.010240
# 5 -0.000125 0.000463 -0.006890 0.000000 0.048071 0.000000
# 6 0.000000 0.000000 0.000000 0.010240 0.000000 0.046540
#
#
# Mechanical properties :
#
#
# Convention : Reuss Voigt Hill
#
# Bulk Modulus (GPa) = 46.80015 62.24170 54.52093
# Shear Modulus (GPa) = 24.55785 28.77662 26.66723
#
# Velocity S-wave (km/s) = 3.45615 3.74126 3.60153
# Velocity P-wave (km/s) = 6.22015 6.99551 6.61919
#
# Compressibility (1/GPa) = 0.02136745
#
# Stress axis : x y z
#
# Youngs Moduli (GPa) = 76.03629 113.27881 42.38704
#
# Poissons Ratio (x) = 0.28287 0.13102
# Poissons Ratio (y) = 0.18987 0.27611
# Poissons Ratio (z) = 0.23503 0.73789
#
# Static dielectric constant tensor:
#      x y z
#    x 3.871550 0.000000 -0.042830 
#    y 0.000000 4.018580 0.000000 
#    z -0.042830 0.000000 3.537240 
# 
# 
# High freq. dielectric constant tensor:
#      x y z
#    x 1.806190 0.000000 -0.000010 
#    y 0.000000 1.818790 0.000000 
#    z -0.000010 0.000000 1.791570 
# 
# From -- ./inp_files/272810.got.cif
#   From: 2010.06.25/outbox.cif.g09.slc.cpg/sg12_137_cif.got.tgz:272810.got - 2010.06.28 00:19:55.
