data_PCOD8102883
_publ_section_title
;
Structure prediction by ZEFSAII (Michael W. Deem and Ramdas Pophale) SiO2 
 PCOD8102883
Probable space group: C 2/M
;
_chemical_formula_sum "Si O2"
_cell_formula_units_Z 40
_cell_length_a 14.920053
_cell_length_b 25.711992
_cell_length_c 11.534944
_cell_angle_alpha 90.000000
_cell_angle_beta 153.478840
_cell_angle_gamma 90.000000
_cell_volume 1975.925482
_symmetry_space_group_name_H-M "C 2/M"
_symmetry_group_IT_number 12
_symmetry_cell_setting 'monoclinic'
loop_
_space_group_symop_operation_xyz
x,y,z
-x,y,-z
-x,-y,-z
x,-y,z
1/2+x,1/2+y,z
1/2-x,1/2+y,-z
1/2-x,1/2-y,-z
1/2+x,1/2-y,z
loop_
_atom_site_type_symbol
_atom_site_label
_atom_site_fract_x
_atom_site_fract_y
_atom_site_fract_z
Si Si1 0.430726 0.155310 0.243729
Si Si2 0.781046 0.090838 0.304129
Si Si3 0.731686 0.700159 0.789392
Si Si4 0.709498 0.687621 0.206863
Si Si5 0.055015 0.442302 0.249695
O O1 0.296301 0.152413 0.203502
O O2 0.631693 0.188572 0.503079
O O3 0.506557 0.097956 0.296005
O O4 0.290714 0.183568 0.987817
O O5 0.711374 0.151409 0.226401
O O6 0.758376 0.072085 0.411481
O O7 0.000000 0.084992 0.500000
O O8 0.632269 0.056919 0.054585
O O9 0.500000 0.713371 0.500000
O O10 0.845938 0.753213 0.893092
O O11 0.500000 0.661032 0.000000
O O12 0.081343 0.500000 0.333477
#
# Coordination Sequence:
#
# PCOD8102883 Si02
#       5
#     8   8   8   8   8
#     4  10  23  42  56  85 124 151 203 244 281 355
#     4   9  19  34  56  89 123 144 185 235 295 365
#     4  10  20  37  59  88 124 158 183 232 299 358
#     4  11  24  38  59  83 118 163 201 237 287 339
#     4  10  21  37  59  83 113 155 195 242 295 336
#
# _framework density 20.243679
#
# number of rings (size 3 to 8) (size 9 to 14) (size 15 to 20)
#    0.000    2.000    2.000    1.800    5.600    7.200 
#    0.000    2.000    0.000    1.200    0.000    0.000 
#    0.000    0.000    0.000    0.000    0.000    0.000 
#
# Total GULP energy -247818.405361 kJ/mol
# GULP energy per Si atom -12390.920268 kJ/mol
# Density = 2.019760 g / cm^3
# Si number density = 20.243679 Si / 1000 Ang^3
#
#
#
# Elastic Constant Matrix: (Units=GPa)
#
#
# Indices 1 2 3 4 5 6 
#
# 1 111.5653 66.4833 61.2804 0.0001 24.8431 0.0000
# 2 66.4833 139.4881 11.5132 0.0000 -0.9642 0.0000
# 3 61.2804 11.5132 99.3401 0.0000 9.6358 0.0000
# 4 0.0001 0.0000 0.0000 7.7872 0.0000 2.4883
# 5 24.8431 -0.9642 9.6358 0.0000 38.7230 0.0000
# 6 0.0000 0.0000 0.0000 2.4883 0.0000 11.5029
#
#
#
# Elastic Compliance Matrix: (Units=1/GPa)
#
#
# Indices 1 2 3 4 5 6 
#
# 1 0.026411 -0.011560 -0.013609 0.000000 -0.013845 0.000000
# 2 -0.011560 0.012304 0.005079 0.000000 0.006459 0.000000
# 3 -0.013609 0.005079 0.017435 0.000000 0.004519 0.000000
# 4 0.000000 0.000000 0.000000 0.137951 0.000000 -0.029841
# 5 -0.013845 0.006459 0.004519 0.000000 0.033743 0.000000
# 6 0.000000 0.000000 0.000000 -0.029841 0.000000 0.093390
#
#
# Mechanical properties :
#
#
# Convention : Reuss Voigt Hill
#
# Bulk Modulus (GPa) = 62.62543 69.88302 66.25422
# Shear Modulus (GPa) = 13.63368 25.67706 19.65537
#
# Velocity S-wave (km/s) = 2.59796 3.56532 3.11937
# Velocity P-wave (km/s) = 6.32473 7.17945 6.76560
#
# Compressibility (1/GPa) = 0.01596795
#
# Stress axis : x y z
#
# Youngs Moduli (GPa) = 37.86351 81.27136 57.35689
#
# Poissons Ratio (x) = 0.93952 0.78059
# Poissons Ratio (y) = 0.43772 -0.29130
# Poissons Ratio (z) = 0.51530 -0.41275
#
# Static dielectric constant tensor:
#      x y z
#    x 3.691210 0.000000 0.116890 
#    y 0.000000 3.646750 0.000000 
#    z 0.116890 0.000000 3.655680 
# 
# 
# High freq. dielectric constant tensor:
#      x y z
#    x 1.781650 0.000000 0.016680 
#    y 0.000000 1.782120 0.000000 
#    z 0.016680 0.000000 1.780960 
# 
# From -- ./inp_files/149348.got.cif
#   From: 2010.06.25/outbox.cif.g09.slc.cpg/sg12_75_cif.got.tgz:149348.got - 2010.06.28 00:19:55.
