data_PCOD8102957
_publ_section_title
;
Structure prediction by ZEFSAII (Michael W. Deem and Ramdas Pophale) SiO2 
 PCOD8102957
Probable space group: C 2/M
;
_chemical_formula_sum "Si O2"
_cell_formula_units_Z 64
_cell_length_a 31.876569
_cell_length_b 18.535293
_cell_length_c 9.393427
_cell_angle_alpha 90.000000
_cell_angle_beta 36.684611
_cell_angle_gamma 90.000000
_cell_volume 3315.640355
_symmetry_space_group_name_H-M "C 2/M"
_symmetry_group_IT_number 12
_symmetry_cell_setting 'monoclinic'
loop_
_space_group_symop_operation_xyz
x,y,z
-x,y,-z
-x,-y,-z
x,-y,z
1/2+x,1/2+y,z
1/2-x,1/2+y,-z
1/2-x,1/2-y,-z
1/2+x,1/2-y,z
loop_
_atom_site_type_symbol
_atom_site_label
_atom_site_fract_x
_atom_site_fract_y
_atom_site_fract_z
Si Si1 0.193117 0.838579 0.265440
Si Si2 0.168776 0.678810 0.281006
Si Si3 0.810512 0.331991 0.450974
Si Si4 0.958618 0.580780 0.477971
Si Si5 0.414990 0.416489 0.615581
Si Si6 0.444615 0.079489 0.045362
Si Si7 0.433767 0.585693 0.879429
Si Si8 0.676470 0.334403 0.635982
O O1 0.152298 0.764032 0.339776
O O2 0.154267 0.900929 0.285305
O O3 0.192017 0.860916 0.433618
O O4 0.273460 0.834387 0.997261
O O5 0.196945 0.654596 0.359370
O O6 0.100369 0.635152 0.419044
O O7 0.872920 0.379054 0.220593
O O8 0.739184 0.358032 0.570366
O O9 0.830224 0.251410 0.351376
O O10 0.926894 0.500000 0.593842
O O11 0.000000 0.613425 0.500000
O O12 0.021409 0.573018 0.198738
O O13 0.425772 0.500000 0.609794
O O14 0.484186 0.390484 0.340913
O O15 0.406468 0.386104 0.799368
O O16 0.427723 0.000000 0.155564
O O17 0.500000 0.119454 0.000000
O O18 0.422592 0.500000 0.935393
O O19 0.394376 0.629321 0.111671
#
# Coordination Sequence:
#
# PCOD8102957 Si02
#       8
#     8   8   8   8   8   8   8   8
#     4  10  22  37  56  84 116 146 190 236 281 333
#     4  10  21  39  57  80 116 154 188 230 280 338
#     4  10  21  38  58  80 116 153 188 232 280 333
#     4  10  22  39  58  84 116 148 187 236 284 331
#     4   9  19  38  60  81 110 146 185 232 280 338
#     4  10  20  37  60  84 110 146 193 235 276 335
#     4   9  19  38  60  82 110 145 187 230 278 340
#     4  10  22  37  56  85 115 147 187 238 282 331
#
# _framework density 19.302454000000001
#
# number of rings (size 3 to 8) (size 9 to 14) (size 15 to 20)
#    0.000    2.250    1.250    1.500    1.750    4.000 
#    2.250    1.250    0.000    0.000    0.000    0.000 
#    0.000    0.000    0.000    0.000    0.000    0.000 
#
# Total GULP energy -396658.210922 kJ/mol
# GULP energy per Si atom -12395.569091 kJ/mol
# Density = 1.925852 g / cm^3
# Si number density = 19.302454 Si / 1000 Ang^3
#
#
#
# Elastic Constant Matrix: (Units=GPa)
#
#
# Indices 1 2 3 4 5 6 
#
# 1 107.1233 24.8609 33.9723 0.0000 11.4443 0.0000
# 2 24.8609 40.7600 31.1610 0.0000 -3.4012 0.0000
# 3 33.9723 31.1610 110.4220 0.0000 14.2139 0.0000
# 4 0.0000 0.0000 0.0000 32.8287 0.0000 -2.4199
# 5 11.4443 -3.4012 14.2139 0.0000 30.3686 0.0000
# 6 0.0000 0.0000 0.0000 -2.4199 0.0000 28.9134
#
#
#
# Elastic Compliance Matrix: (Units=1/GPa)
#
#
# Indices 1 2 3 4 5 6 
#
# 1 0.011741 -0.006687 -0.001127 0.000000 -0.004646 0.000000
# 2 -0.006687 0.037096 -0.009865 0.000000 0.011292 0.000000
# 3 -0.001127 -0.009865 0.013061 0.000000 -0.006793 0.000000
# 4 0.000000 0.000000 0.000000 0.030650 0.000000 0.002565
# 5 -0.004646 0.011292 -0.006793 0.000000 0.039124 0.000000
# 6 0.000000 0.000000 0.000000 0.002565 0.000000 0.034801
#
#
# Mechanical properties :
#
#
# Convention : Reuss Voigt Hill
#
# Bulk Modulus (GPa) = 37.67821 48.69929 43.18875
# Shear Modulus (GPa) = 23.73295 29.64288 26.68792
#
# Velocity S-wave (km/s) = 3.51027 3.92306 3.72239
# Velocity P-wave (km/s) = 5.99930 6.76793 6.39517
#
# Compressibility (1/GPa) = 0.02654054
#
# Stress axis : x y z
#
# Youngs Moduli (GPa) = 85.17367 26.95684 76.56282
#
# Poissons Ratio (x) = 0.18026 0.08629
# Poissons Ratio (y) = 0.56957 0.75527
# Poissons Ratio (z) = 0.09599 0.26592
#
# Static dielectric constant tensor:
#      x y z
#    x 3.587930 0.000000 0.154640 
#    y 0.000000 3.449940 0.000000 
#    z 0.154640 0.000000 3.495880 
# 
# 
# High freq. dielectric constant tensor:
#      x y z
#    x 1.755250 0.000000 0.008240 
#    y 0.000000 1.735530 0.000000 
#    z 0.008240 0.000000 1.755950 
# 
# From -- ./inp_files/112821.got.cif
#   From: 2010.06.25/outbox.cif.g09.slc.cpg/sg12_57_cif.got.tgz:112821.got - 2010.06.28 00:19:55.
