data_PCOD8102293
_publ_section_title
;
Structure prediction by ZEFSAII (Michael W. Deem and Ramdas Pophale) SiO2 
 PCOD8102293
Probable space group: C 2/M
;
_chemical_formula_sum "Si O2"
_cell_formula_units_Z 56
_cell_length_a 20.381381
_cell_length_b 13.334244
_cell_length_c 22.619191
_cell_angle_alpha 90.000000
_cell_angle_beta 153.618891
_cell_angle_gamma 90.000000
_cell_volume 2731.456683
_symmetry_space_group_name_H-M "C 2/M"
_symmetry_group_IT_number 12
_symmetry_cell_setting 'monoclinic'
loop_
_space_group_symop_operation_xyz
x,y,z
-x,y,-z
-x,-y,-z
x,-y,z
1/2+x,1/2+y,z
1/2-x,1/2+y,-z
1/2-x,1/2-y,-z
1/2+x,1/2-y,z
loop_
_atom_site_type_symbol
_atom_site_label
_atom_site_fract_x
_atom_site_fract_y
_atom_site_fract_z
Si Si1 0.084556 0.385958 0.629891
Si Si2 0.161719 0.265773 0.519129
Si Si3 0.057111 0.203028 0.314345
Si Si4 0.264542 0.614193 0.106161
Si Si5 0.536870 0.110780 0.825158
Si Si6 0.243770 0.389463 0.319229
Si Si7 0.671433 0.772753 0.147266
O O1 0.128477 0.500000 0.678635
O O2 0.236512 0.323490 0.756075
O O3 0.000000 0.374852 0.500000
O O4 0.966235 0.348563 0.582721
O O5 0.141616 0.197674 0.444895
O O6 0.324517 0.317727 0.643319
O O7 0.145255 0.194036 0.563904
O O8 0.931095 0.118920 0.215348
O O9 0.979230 0.311606 0.241671
O O10 0.226082 0.500000 0.092752
O O11 0.243406 0.685800 0.145372
O O12 0.160616 0.651886 0.969619
O O13 0.386411 0.103825 0.739314
O O14 0.578525 0.000000 0.833922
O O15 0.318749 0.500000 0.374095
O O16 0.182940 0.358682 0.206074
O O17 0.500000 0.743000 0.000000
#
# Coordination Sequence:
#
# PCOD8102293 Si02
#       7
#     8   8   8   8   8   8   8
#     4  11  24  44  66  88 119 162 212 260 312 365
#     4  10  21  40  61  86 118 162 206 254 309 358
#     4  10  21  37  60  85 119 160 204 250 297 357
#     4  11  22  36  58  92 127 158 197 246 304 372
#     4   9  19  36  58  86 121 161 202 245 300 363
#     4  10  20  36  61  93 127 161 200 248 312 373
#     4  12  23  40  67  95 126 162 202 254 316 375
#
# _framework density 20.501881000000001
#
# number of rings (size 3 to 8) (size 9 to 14) (size 15 to 20)
#    0.000    1.571    4.286    0.857    0.000    2.571 
#    0.000    3.571    0.000    0.000    0.000    0.000 
#    0.000    0.000    0.000    0.000    0.000    0.000 
#
# Total GULP energy -347107.719907 kJ/mol
# GULP energy per Si atom -12396.704282 kJ/mol
# Density = 2.045522 g / cm^3
# Si number density = 20.501881 Si / 1000 Ang^3
#
#
#
# Elastic Constant Matrix: (Units=GPa)
#
#
# Indices 1 2 3 4 5 6 
#
# 1 55.5919 30.4682 27.3686 0.0003 0.0763 -0.0001
# 2 30.4682 95.1740 49.0439 0.0044 7.3135 0.0007
# 3 27.3686 49.0439 92.9347 0.0105 -8.2066 0.0021
# 4 0.0003 0.0044 0.0105 26.5412 0.0014 0.9734
# 5 0.0763 7.3135 -8.2066 0.0014 25.3786 0.0002
# 6 -0.0001 0.0007 0.0021 0.9734 0.0002 21.4442
#
#
#
# Elastic Compliance Matrix: (Units=1/GPa)
#
#
# Indices 1 2 3 4 5 6 
#
# 1 0.022818 -0.005311 -0.003899 0.000002 0.000201 0.000001
# 2 -0.005311 0.016912 -0.008019 0.000001 -0.007451 0.000000
# 3 -0.003899 -0.008019 0.016826 -0.000006 0.007763 -0.000001
# 4 0.000002 0.000001 -0.000006 0.037740 -0.000004 -0.001713
# 5 0.000201 -0.007451 0.007763 -0.000004 0.044060 -0.000001
# 6 0.000001 0.000000 -0.000001 -0.001713 -0.000001 0.046710
#
#
# Mechanical properties :
#
#
# Convention : Reuss Voigt Hill
#
# Bulk Modulus (GPa) = 45.25290 50.82911 48.04101
# Shear Modulus (GPa) = 22.03702 23.79413 22.91557
#
# Velocity S-wave (km/s) = 3.28209 3.41043 3.34687
# Velocity P-wave (km/s) = 6.04014 6.35250 6.19829
#
# Compressibility (1/GPa) = 0.02209803
#
# Stress axis : x y z
#
# Youngs Moduli (GPa) = 43.82416 59.12994 59.43254
#
# Poissons Ratio (x) = 0.31404 0.23175
# Poissons Ratio (y) = 0.23275 0.47657
# Poissons Ratio (z) = 0.17089 0.47415
#
# Static dielectric constant tensor:
#      x y z
#    x 3.660530 0.000010 0.007780 
#    y 0.000010 3.272020 0.000040 
#    z 0.007780 0.000040 3.856020 
# 
# 
# High freq. dielectric constant tensor:
#      x y z
#    x 1.795370 0.000000 -0.003070 
#    y 0.000000 1.784770 0.000000 
#    z -0.003070 0.000000 1.809210 
# 
# From -- ./inp_files/86386.got.cif
#   From: 2010.06.25/outbox.cif.g09.slc.cpg/sg12_44_cif.got.tgz:86386.got - 2010.06.28 00:19:55.
