data_PCOD8102129
_publ_section_title
;
Structure prediction by ZEFSAII (Michael W. Deem and Ramdas Pophale) SiO2 
 PCOD8102129
Probable space group: C 2/M
;
_chemical_formula_sum "Si O2"
_cell_formula_units_Z 40
_cell_length_a 23.939447
_cell_length_b 8.778083
_cell_length_c 9.578009
_cell_angle_alpha 90.000000
_cell_angle_beta 77.694235
_cell_angle_gamma 90.000000
_cell_volume 1966.501716
_symmetry_space_group_name_H-M "C 2/M"
_symmetry_group_IT_number 12
_symmetry_cell_setting 'monoclinic'
loop_
_space_group_symop_operation_xyz
x,y,z
-x,y,-z
-x,-y,-z
x,-y,z
1/2+x,1/2+y,z
1/2-x,1/2+y,-z
1/2-x,1/2-y,-z
1/2+x,1/2-y,z
loop_
_atom_site_type_symbol
_atom_site_label
_atom_site_fract_x
_atom_site_fract_y
_atom_site_fract_z
Si Si1 0.474508 0.826273 0.656470
Si Si2 0.737196 0.819072 0.355884
Si Si3 0.664245 0.320496 0.901714
Si Si4 0.356334 0.679708 0.777066
Si Si5 0.549596 0.827016 0.876270
O O1 0.500000 0.761467 0.500000
O O2 0.422999 0.721204 0.735891
O O3 0.528314 0.817917 0.730178
O O4 0.452244 0.000000 0.653389
O O5 0.750000 0.750000 0.500000
O O6 0.783459 0.757296 0.218759
O O7 0.675915 0.763635 0.332294
O O8 0.737754 0.000000 0.369024
O O9 0.665366 0.500000 0.901641
O O10 0.606349 0.270153 0.858482
O O11 0.667954 0.261958 0.059947
O O12 0.348736 0.500000 0.763669
O O13 0.562995 0.000000 0.916648
O O14 0.500000 0.757430 0.000000
#
# Coordination Sequence:
#
# PCOD8102129 Si02
#       5
#     8   8   8   8   8
#     4  10  22  39  59  88 125 163 202 246 299 357
#     4  11  25  44  64  90 122 158 201 252 306 361
#     4  10  23  41  63  90 122 159 201 250 302 357
#     4  11  23  41  64  91 121 160 205 249 302 359
#     4  10  20  36  60  90 121 157 201 244 294 357
#
# _framework density 20.340689000000001
#
# number of rings (size 3 to 8) (size 9 to 14) (size 15 to 20)
#    0.000    1.600    2.000    1.800    2.800    4.000 
#    0.000    0.000    0.000    0.000    0.000    0.000 
#    0.000    0.000    0.000    0.000    0.000    0.000 
#
# Total GULP energy -248064.712321 kJ/mol
# GULP energy per Si atom -12403.235616 kJ/mol
# Density = 2.029439 g / cm^3
# Si number density = 20.340689 Si / 1000 Ang^3
#
#
#
# Elastic Constant Matrix: (Units=GPa)
#
#
# Indices 1 2 3 4 5 6 
#
# 1 82.2537 18.9352 31.3167 0.0000 11.6807 0.0000
# 2 18.9352 39.8311 39.2660 0.0000 0.8762 0.0000
# 3 31.3167 39.2660 137.9142 0.0000 7.0171 0.0000
# 4 0.0000 0.0000 0.0000 29.0092 0.0000 2.2219
# 5 11.6807 0.8762 7.0171 0.0000 35.5761 0.0000
# 6 0.0000 0.0000 0.0000 2.2219 0.0000 38.5234
#
#
#
# Elastic Compliance Matrix: (Units=1/GPa)
#
#
# Indices 1 2 3 4 5 6 
#
# 1 0.014595 -0.005274 -0.001591 0.000000 -0.004348 0.000000
# 2 -0.005274 0.036851 -0.009431 0.000000 0.002684 0.000000
# 3 -0.001591 -0.009431 0.010363 0.000000 -0.001289 0.000000
# 4 0.000000 0.000000 0.000000 0.034625 0.000000 -0.001997
# 5 -0.004348 0.002684 -0.001289 0.000000 0.029725 0.000000
# 6 0.000000 0.000000 0.000000 -0.001997 0.000000 0.026073
#
#
# Mechanical properties :
#
#
# Convention : Reuss Voigt Hill
#
# Bulk Modulus (GPa) = 34.22696 48.78166 41.50431
# Shear Modulus (GPa) = 25.69856 31.98716 28.84286
#
# Velocity S-wave (km/s) = 3.55830 3.96987 3.76970
# Velocity P-wave (km/s) = 5.80908 6.71174 6.27666
#
# Compressibility (1/GPa) = 0.02921674
#
# Stress axis : x y z
#
# Youngs Moduli (GPa) = 68.51694 27.13605 96.49708
#
# Poissons Ratio (x) = 0.14311 0.15356
# Poissons Ratio (y) = 0.36134 0.91007
# Poissons Ratio (z) = 0.10904 0.25592
#
# Static dielectric constant tensor:
#      x y z
#    x 3.636680 0.000000 -0.064450 
#    y 0.000000 3.545450 0.000000 
#    z -0.064450 0.000000 3.974960 
# 
# 
# High freq. dielectric constant tensor:
#      x y z
#    x 1.798790 0.000000 0.004500 
#    y 0.000000 1.783230 0.000000 
#    z 0.004500 0.000000 1.809340 
# 
# From -- ./inp_files/92780.got.cif
#   From: 2010.06.25/outbox.cif.g09.slc.cpg/sg12_47_cif.got.tgz:92780.got - 2010.06.28 00:19:55.
