data_PCOD8102660
_publ_section_title
;
Structure prediction by ZEFSAII (Michael W. Deem and Ramdas Pophale) SiO2 
 PCOD8102660
Probable space group: C 2/M
;
_chemical_formula_sum "Si O2"
_cell_formula_units_Z 56
_cell_length_a 19.939339
_cell_length_b 9.049819
_cell_length_c 19.499590
_cell_angle_alpha 90.000000
_cell_angle_beta 121.484788
_cell_angle_gamma 90.000000
_cell_volume 3000.630745
_symmetry_space_group_name_H-M "C 2/M"
_symmetry_group_IT_number 12
_symmetry_cell_setting 'monoclinic'
loop_
_space_group_symop_operation_xyz
x,y,z
-x,y,-z
-x,-y,-z
x,-y,z
1/2+x,1/2+y,z
1/2-x,1/2+y,-z
1/2-x,1/2-y,-z
1/2+x,1/2-y,z
loop_
_atom_site_type_symbol
_atom_site_label
_atom_site_fract_x
_atom_site_fract_y
_atom_site_fract_z
Si Si1 0.458771 0.829011 0.906729
Si Si2 0.278949 0.324701 0.084211
Si Si3 0.157278 0.671308 0.658441
Si Si4 0.798614 0.825924 0.830424
Si Si5 0.001077 0.668879 0.653179
Si Si6 0.440007 0.169427 0.171609
Si Si7 0.419345 0.332992 0.498244
O O1 0.385096 0.723262 0.853925
O O2 0.520022 0.795367 0.879132
O O3 0.432156 0.000000 0.891986
O O4 0.500000 0.786732 0.000000
O O5 0.270676 0.500000 0.074547
O O6 0.223226 0.266620 0.114384
O O7 0.368541 0.280284 0.145562
O O8 0.250000 0.250000 0.000000
O O9 0.153413 0.500000 0.639006
O O10 0.239426 0.714916 0.737299
O O11 0.149766 0.755598 0.581966
O O12 0.087454 0.717501 0.672919
O O13 0.795727 0.000000 0.845415
O O14 0.985305 0.500000 0.625345
O O15 0.931825 0.761252 0.579792
O O16 0.998088 0.695387 0.733416
O O17 0.408965 0.000000 0.157652
O O18 0.500000 0.315536 0.500000
O O19 0.393733 0.500000 0.496079
#
# Coordination Sequence:
#
# PCOD8102660 Si02
#       7
#     8   8   8   8   8   8   8
#     4  10  22  39  58  81 111 149 189 230 280 336
#     4  12  24  37  57  83 112 143 182 231 284 333
#     4   9  17  31  51  76 107 144 181 219 270 330
#     4  11  22  38  59  83 113 146 187 232 277 333
#     4   9  16  30  51  75 107 146 182 219 270 330
#     4  10  20  37  58  81 113 148 187 230 278 337
#     4   9  17  27  44  75 111 141 174 222 272 321
#
# _framework density 18.662742000000001
#
# number of rings (size 3 to 8) (size 9 to 14) (size 15 to 20)
#    0.000    2.000    1.429    3.000    0.000    5.429 
#    0.000    0.000    0.000    0.857    0.000    0.000 
#    0.000    0.000    0.000    0.000    0.000    0.000 
#
# Total GULP energy -347259.874749 kJ/mol
# GULP energy per Si atom -12402.138384 kJ/mol
# Density = 1.862027 g / cm^3
# Si number density = 18.662742 Si / 1000 Ang^3
#
#
#
# Elastic Constant Matrix: (Units=GPa)
#
#
# Indices 1 2 3 4 5 6 
#
# 1 37.3413 15.1670 13.0711 0.0000 -1.9074 0.0000
# 2 15.1670 89.0932 43.4907 0.0000 3.2467 0.0000
# 3 13.0711 43.4907 116.9397 0.0000 -4.6069 0.0000
# 4 0.0000 0.0000 0.0000 30.8838 0.0000 4.7237
# 5 -1.9074 3.2467 -4.6069 0.0000 25.2506 0.0000
# 6 0.0000 0.0000 0.0000 4.7237 0.0000 23.9069
#
#
#
# Elastic Compliance Matrix: (Units=1/GPa)
#
#
# Indices 1 2 3 4 5 6 
#
# 1 0.029200 -0.004295 -0.001569 0.000000 0.002472 0.000000
# 2 -0.004295 0.014533 -0.005047 0.000000 -0.003114 0.000000
# 3 -0.001569 -0.005047 0.010702 0.000000 0.002483 0.000000
# 4 0.000000 0.000000 0.000000 0.033388 0.000000 -0.006597
# 5 0.002472 -0.003114 0.002483 0.000000 0.040643 0.000000
# 6 0.000000 0.000000 0.000000 -0.006597 0.000000 0.043132
#
#
# Mechanical properties :
#
#
# Convention : Reuss Voigt Hill
#
# Bulk Modulus (GPa) = 30.66413 42.98132 36.82272
# Shear Modulus (GPa) = 24.47471 27.45127 25.96299
#
# Velocity S-wave (km/s) = 3.62528 3.83941 3.73388
# Velocity P-wave (km/s) = 5.83009 6.53722 6.19375
#
# Compressibility (1/GPa) = 0.03261139
#
# Stress axis : x y z
#
# Youngs Moduli (GPa) = 34.24647 68.81006 93.44224
#
# Poissons Ratio (x) = 0.29554 0.14662
# Poissons Ratio (y) = 0.14709 0.47164
# Poissons Ratio (z) = 0.05374 0.34731
#
# Static dielectric constant tensor:
#      x y z
#    x 3.125670 0.000000 -0.101630 
#    y 0.000000 3.510920 0.000000 
#    z -0.101630 0.000000 3.641500 
# 
# 
# High freq. dielectric constant tensor:
#      x y z
#    x 1.684090 0.000000 -0.007720 
#    y 0.000000 1.724640 0.000000 
#    z -0.007720 0.000000 1.742380 
# 
# From -- ./inp_files/281027.got.cif
#   From: 2010.06.25/outbox.cif.g09.slc.cpg/sg12_141_cif.got.tgz:281027.got - 2010.06.28 00:19:55.
