data_PCOD8102551
_publ_section_title
;
Structure prediction by ZEFSAII (Michael W. Deem and Ramdas Pophale) SiO2 
 PCOD8102551
Probable space group: C 2/M
;
_chemical_formula_sum "Si O2"
_cell_formula_units_Z 60
_cell_length_a 9.666744
_cell_length_b 22.381583
_cell_length_c 24.353754
_cell_angle_alpha 90.000000
_cell_angle_beta 141.570497
_cell_angle_gamma 90.000000
_cell_volume 3275.019349
_symmetry_space_group_name_H-M "C 2/M"
_symmetry_group_IT_number 12
_symmetry_cell_setting 'monoclinic'
loop_
_space_group_symop_operation_xyz
x,y,z
-x,y,-z
-x,-y,-z
x,-y,z
1/2+x,1/2+y,z
1/2-x,1/2+y,-z
1/2-x,1/2-y,-z
1/2+x,1/2-y,z
loop_
_atom_site_type_symbol
_atom_site_label
_atom_site_fract_x
_atom_site_fract_y
_atom_site_fract_z
Si Si1 0.121981 0.257863 0.694598
Si Si2 0.173077 0.187181 0.602276
Si Si3 0.993811 0.151425 0.172679
Si Si4 0.500000 0.387911 0.000000
Si Si5 0.798662 0.318765 0.011494
Si Si6 0.764261 0.858768 0.207047
Si Si7 0.759619 0.936182 0.828580
Si Si8 0.246542 0.431934 0.309452
O O1 0.101992 0.237164 0.624921
O O2 0.363037 0.288566 0.775176
O O3 0.126269 0.199176 0.732614
O O4 0.919758 0.299860 0.653533
O O5 0.142725 0.120317 0.618979
O O6 0.000000 0.193138 0.500000
O O7 0.149029 0.109061 0.186561
O O8 0.756218 0.163318 0.068599
O O9 0.934213 0.120823 0.212220
O O10 0.609596 0.347211 0.989090
O O11 0.320424 0.426778 0.911430
O O12 0.750000 0.250000 0.000000
O O13 0.033759 0.340894 0.106499
O O14 0.743404 0.912055 0.244484
O O15 0.497692 0.935262 0.742849
O O16 0.856541 0.000000 0.841018
O O17 0.352632 0.500000 0.347165
#
# Coordination Sequence:
#
# PCOD8102551 Si02
#       8
#     8   8   8   4   8   8   8   8
#     4  11  21  37  60  87 118 154 184 225 299 350
#     4  11  23  40  63  91 118 145 186 242 299 359
#     4  11  22  34  54  83 118 153 195 234 280 339
#     4  10  21  34  52  78 106 150 195 238 276 328
#     4  11  22  30  52  81 119 153 190 234 283 328
#     4  11  22  37  55  84 123 156 190 238 283 341
#     4  10  20  37  57  77 107 151 200 240 277 330
#     4  10  22  40  63  84 111 154 197 237 289 347
#
# _framework density 18.320502000000001
#
# number of rings (size 3 to 8) (size 9 to 14) (size 15 to 20)
#    0.000    1.333    5.333    1.000    1.867    0.800 
#    0.000    0.000    0.000    2.400    0.000    0.933 
#    0.000    0.000    0.000    0.000    0.000    0.000 
#
# Total GULP energy -371680.010940 kJ/mol
# GULP energy per Si atom -12389.333698 kJ/mol
# Density = 1.827880 g / cm^3
# Si number density = 18.320502 Si / 1000 Ang^3
#
#
#
# Elastic Constant Matrix: (Units=GPa)
#
#
# Indices 1 2 3 4 5 6 
#
# 1 79.2139 25.0990 31.7921 0.0003 -20.0296 0.0006
# 2 25.0990 100.4052 29.6196 -0.0003 -16.0319 -0.0001
# 3 31.7921 29.6196 101.8757 0.0001 -15.5487 -0.0004
# 4 0.0003 -0.0003 0.0001 33.2418 -0.0001 15.8550
# 5 -20.0296 -16.0319 -15.5487 -0.0001 29.2254 -0.0002
# 6 0.0006 -0.0001 -0.0004 15.8550 -0.0002 18.0119
#
#
#
# Elastic Compliance Matrix: (Units=1/GPa)
#
#
# Indices 1 2 3 4 5 6 
#
# 1 0.016748 -0.001803 -0.003376 0.000000 0.008694 -0.000001
# 2 -0.001803 0.011707 -0.002231 0.000000 0.004000 0.000000
# 3 -0.003376 -0.002231 0.011948 0.000000 0.002820 0.000001
# 4 0.000000 0.000000 0.000000 0.051853 0.000000 -0.045643
# 5 0.008694 0.004000 0.002820 0.000000 0.043869 0.000000
# 6 -0.000001 0.000000 0.000001 -0.045643 0.000000 0.095697
#
#
# Mechanical properties :
#
#
# Convention : Reuss Voigt Hill
#
# Bulk Modulus (GPa) = 39.08486 50.50180 44.79333
# Shear Modulus (GPa) = 19.59492 29.09474 24.34483
#
# Velocity S-wave (km/s) = 3.27396 3.98942 3.64927
# Velocity P-wave (km/s) = 5.97261 6.98900 6.50070
#
# Compressibility (1/GPa) = 0.02558536
#
# Stress axis : x y z
#
# Youngs Moduli (GPa) = 59.70777 85.41903 83.69460
#
# Poissons Ratio (x) = 0.15399 0.28252
# Poissons Ratio (y) = 0.10764 0.18670
# Poissons Ratio (z) = 0.20155 0.19054
#
# Static dielectric constant tensor:
#      x y z
#    x 3.407380 0.000000 -0.174500 
#    y 0.000000 3.598760 0.000000 
#    z -0.174500 0.000000 3.409800 
# 
# 
# High freq. dielectric constant tensor:
#      x y z
#    x 1.715950 0.000000 -0.013620 
#    y 0.000000 1.706240 0.000000 
#    z -0.013620 0.000000 1.702930 
# 
# From -- ./inp_files/301928.got.cif
#   From: 2010.06.25/outbox.cif.g09.slc.cpg/sg12_151_cif.got.tgz:301928.got - 2010.06.28 00:19:55.
