data_PCOD8102186
_publ_section_title
;
Structure prediction by ZEFSAII (Michael W. Deem and Ramdas Pophale) SiO2 
 PCOD8102186
Probable space group: C 2/M
;
_chemical_formula_sum "Si O2"
_cell_formula_units_Z 48
_cell_length_a 5.223415
_cell_length_b 15.690766
_cell_length_c 30.305197
_cell_angle_alpha 90.000000
_cell_angle_beta 64.273048
_cell_angle_gamma 90.000000
_cell_volume 2237.583883
_symmetry_space_group_name_H-M "C 2/M"
_symmetry_group_IT_number 12
_symmetry_cell_setting 'monoclinic'
loop_
_space_group_symop_operation_xyz
x,y,z
-x,y,-z
-x,-y,-z
x,-y,z
1/2+x,1/2+y,z
1/2-x,1/2+y,-z
1/2-x,1/2-y,-z
1/2+x,1/2-y,z
loop_
_atom_site_type_symbol
_atom_site_label
_atom_site_fract_x
_atom_site_fract_y
_atom_site_fract_z
Si Si1 0.859800 0.601679 0.555366
Si Si2 0.909327 0.400234 0.128845
Si Si3 0.803446 0.345286 0.978780
Si Si4 0.745326 0.599419 0.810688
Si Si5 0.220292 0.601051 0.610826
Si Si6 0.989225 0.303766 0.290084
O O1 0.859564 0.500000 0.555369
O O2 0.539786 0.637277 0.582974
O O3 0.000000 0.636559 0.500000
O O4 0.039373 0.637107 0.583249
O O5 0.956952 0.500000 0.115544
O O6 0.579257 0.376201 0.155190
O O7 0.049637 0.344836 0.079766
O O8 0.058439 0.372732 0.163127
O O9 0.500000 0.393499 0.000000
O O10 0.750000 0.250000 0.000000
O O11 0.000000 0.393595 0.000000
O O12 0.778007 0.500000 0.798476
O O13 0.840528 0.648701 0.760563
O O14 0.223633 0.500000 0.609800
O O15 0.075433 0.629536 0.666717
O O16 0.690154 0.270242 0.293910
#
# Coordination Sequence:
#
# PCOD8102186 Si02
#       6
#     8   8   8   8   8   8
#     4   9  17  31  56  91 120 149 203 259 297 343
#     4  10  21  39  64  88 115 153 196 242 291 344
#     4  10  21  38  54  85 119 155 190 228 285 341
#     4  10  22  43  65  89 118 153 198 249 299 356
#     4  10  20  36  61  86 117 163 199 244 304 354
#     4  12  25  42  59  90 122 155 200 246 304 357
#
# _framework density 21.451712000000001
#
# number of rings (size 3 to 8) (size 9 to 14) (size 15 to 20)
#    0.000    1.833    0.000    4.000    0.000    2.667 
#   18.000    6.667    0.000   10.000    0.000    0.000 
#    0.000    0.000    0.000    0.000    0.000    0.000 
#
# Total GULP energy -297655.877894 kJ/mol
# GULP energy per Si atom -12402.328246 kJ/mol
# Density = 2.140289 g / cm^3
# Si number density = 21.451712 Si / 1000 Ang^3
#
#
#
# Elastic Constant Matrix: (Units=GPa)
#
#
# Indices 1 2 3 4 5 6 
#
# 1 170.4657 17.3613 43.7834 0.0000 4.7264 0.0000
# 2 17.3613 28.3856 35.0373 0.0000 1.1438 0.0000
# 3 43.7834 35.0373 147.5201 0.0000 5.4015 0.0000
# 4 0.0000 0.0000 0.0000 19.0424 0.0000 0.1273
# 5 4.7264 1.1438 5.4015 0.0000 39.8819 0.0000
# 6 0.0000 0.0000 0.0000 0.1273 0.0000 10.2252
#
#
#
# Elastic Compliance Matrix: (Units=1/GPa)
#
#
# Indices 1 2 3 4 5 6 
#
# 1 0.006460 -0.002245 -0.001365 0.000000 -0.000516 0.000000
# 2 -0.002245 0.050622 -0.011370 0.000000 0.000354 0.000000
# 3 -0.001365 -0.011370 0.009916 0.000000 -0.000855 0.000000
# 4 0.000000 0.000000 0.000000 0.052519 0.000000 -0.000654
# 5 -0.000516 0.000354 -0.000855 0.000000 0.025241 0.000000
# 6 0.000000 0.000000 0.000000 -0.000654 0.000000 0.097806
#
#
# Mechanical properties :
#
#
# Convention : Reuss Voigt Hill
#
# Bulk Modulus (GPa) = 26.99973 59.85948 43.42960
# Shear Modulus (GPa) = 17.55194 30.50921 24.03058
#
# Velocity S-wave (km/s) = 2.86354 3.77533 3.35060
# Velocity P-wave (km/s) = 4.85250 6.85340 5.93784
#
# Compressibility (1/GPa) = 0.03703741
#
# Stress axis : x y z
#
# Youngs Moduli (GPa) = 154.80156 19.75424 100.85099
#
# Poissons Ratio (x) = 0.04435 0.13767
# Poissons Ratio (y) = 0.34756 1.14665
# Poissons Ratio (z) = 0.21132 0.22460
#
# Static dielectric constant tensor:
#      x y z
#    x 24.053850 0.000000 0.525550 
#    y 0.000000 3.461490 0.000000 
#    z 0.525550 0.000000 3.901640 
# 
# 
# High freq. dielectric constant tensor:
#      x y z
#    x 1.869910 0.000000 0.001310 
#    y 0.000000 1.812290 0.000000 
#    z 0.001310 0.000000 1.855150 
# 
# From -- ./inp_files/354872.got.cif
#   From: 2010.06.25/outbox.cif.g09.slc.cpg/sg12_178_cif.got.tgz:354872.got - 2010.06.28 00:19:55.
