data_PCOD8102442
_publ_section_title
;
Structure prediction by ZEFSAII (Michael W. Deem and Ramdas Pophale) SiO2 
 PCOD8102442
Probable space group: C 2/M
;
_chemical_formula_sum "Si O2"
_cell_formula_units_Z 64
_cell_length_a 21.922832
_cell_length_b 14.858952
_cell_length_c 9.216301
_cell_angle_alpha 90.000000
_cell_angle_beta 90.168666
_cell_angle_gamma 90.000000
_cell_volume 3002.199885
_symmetry_space_group_name_H-M "C 2/M"
_symmetry_group_IT_number 12
_symmetry_cell_setting 'monoclinic'
loop_
_space_group_symop_operation_xyz
x,y,z
-x,y,-z
-x,-y,-z
x,-y,z
1/2+x,1/2+y,z
1/2-x,1/2+y,-z
1/2-x,1/2-y,-z
1/2+x,1/2-y,z
loop_
_atom_site_type_symbol
_atom_site_label
_atom_site_fract_x
_atom_site_fract_y
_atom_site_fract_z
Si Si1 0.944965 0.269453 0.604175
Si Si2 0.048516 0.603824 0.122243
Si Si3 0.358347 0.212995 0.355725
Si Si4 0.873316 0.098369 0.699159
Si Si5 0.336674 0.836429 0.046051
Si Si6 0.748113 0.099594 0.544037
Si Si7 0.298729 0.638724 0.970508
Si Si8 0.678188 0.403131 0.707540
O O1 0.962455 0.338501 0.731888
O O2 0.898227 0.319080 0.492747
O O3 0.921830 0.177940 0.679008
O O4 0.000000 0.242676 0.500000
O O5 0.037239 0.500000 0.162568
O O6 0.117878 0.614305 0.064670
O O7 0.000000 0.635915 0.000000
O O8 0.289970 0.180856 0.390213
O O9 0.365084 0.320624 0.339362
O O10 0.374274 0.171161 0.198361
O O11 0.818167 0.115552 0.588999
O O12 0.845279 0.094689 0.859369
O O13 0.903857 0.000000 0.672358
O O14 0.315177 0.743673 0.974112
O O15 0.271525 0.885209 0.075048
O O16 0.754837 0.106499 0.369067
O O17 0.723428 0.000000 0.590520
O O18 0.310117 0.593778 0.123461
O O19 0.648395 0.500000 0.662794
#
# Coordination Sequence:
#
# PCOD8102442 Si02
#       8
#     8   8   8   8   8   8   8   8
#     4  12  27  45  69  95 123 170 223 274 322 377
#     4  11  26  48  72  95 126 169 219 269 320 382
#     4  11  22  38  65  89 131 170 211 263 315 383
#     4  11  22  41  66  96 134 172 210 259 324 390
#     4  10  21  38  63  98 131 173 216 259 318 381
#     4  10  21  36  58  93 133 171 206 252 320 389
#     4  10  20  36  63  97 135 172 211 259 319 387
#     4  10  21  34  56  93 134 170 207 252 309 379
#
# _framework density 21.317702000000001
#
# number of rings (size 3 to 8) (size 9 to 14) (size 15 to 20)
#    0.000    1.375    3.750    1.500    1.750    2.500 
#    0.000    0.000    0.000    0.375    0.000    0.000 
#    0.000    0.000    0.000    0.000    0.000    0.000 
#
# Total GULP energy -396515.417221 kJ/mol
# GULP energy per Si atom -12391.106788 kJ/mol
# Density = 2.126918 g / cm^3
# Si number density = 21.317702 Si / 1000 Ang^3
#
#
#
# Elastic Constant Matrix: (Units=GPa)
#
#
# Indices 1 2 3 4 5 6 
#
# 1 77.3066 37.5051 39.5154 0.0000 -6.2265 0.0000
# 2 37.5051 100.1739 44.6155 0.0000 -3.0814 0.0000
# 3 39.5154 44.6155 136.7084 0.0000 -4.4249 0.0000
# 4 0.0000 0.0000 0.0000 20.1330 0.0000 -3.1623
# 5 -6.2265 -3.0814 -4.4249 0.0000 38.7907 0.0000
# 6 0.0000 0.0000 0.0000 -3.1623 0.0000 13.3368
#
#
#
# Elastic Compliance Matrix: (Units=1/GPa)
#
#
# Indices 1 2 3 4 5 6 
#
# 1 0.017155 -0.004893 -0.003297 0.000000 0.001989 0.000000
# 2 -0.004893 0.013086 -0.002859 0.000000 -0.000072 0.000000
# 3 -0.003297 -0.002859 0.009210 0.000000 0.000294 0.000000
# 4 0.000000 0.000000 0.000000 0.051591 0.000000 0.012233
# 5 0.001989 -0.000072 0.000294 0.000000 0.026126 0.000000
# 6 0.000000 0.000000 0.000000 0.012233 0.000000 0.077881
#
#
# Mechanical properties :
#
#
# Convention : Reuss Voigt Hill
#
# Bulk Modulus (GPa) = 57.62712 61.94011 59.78361
# Shear Modulus (GPa) = 22.42839 27.28896 24.85867
#
# Velocity S-wave (km/s) = 3.24713 3.58174 3.41853
# Velocity P-wave (km/s) = 6.41480 6.79882 6.60960
#
# Compressibility (1/GPa) = 0.01735294
#
# Stress axis : x y z
#
# Youngs Moduli (GPa) = 58.29194 76.42038 108.57335
#
# Poissons Ratio (x) = 0.37393 0.35801
# Poissons Ratio (y) = 0.28523 0.31036
# Poissons Ratio (z) = 0.19221 0.21845
#
# Static dielectric constant tensor:
#      x y z
#    x 3.580950 0.000000 -0.025510 
#    y 0.000000 3.845310 0.000000 
#    z -0.025510 0.000000 4.129700 
# 
# 
# High freq. dielectric constant tensor:
#      x y z
#    x 1.792160 0.000000 -0.009340 
#    y 0.000000 1.839250 0.000000 
#    z -0.009340 0.000000 1.862650 
# 
# From -- ./inp_files/96912.got.cif
#   From: 2010.06.25/outbox.cif.g09.slc.cpg/sg12_49_cif.got.tgz:96912.got - 2010.06.28 00:19:55.
