data_PCOD8102686
_publ_section_title
;
Structure prediction by ZEFSAII (Michael W. Deem and Ramdas Pophale) SiO2 
 PCOD8102686
Probable space group: C 2/M
;
_chemical_formula_sum "Si O2"
_cell_formula_units_Z 56
_cell_length_a 11.832932
_cell_length_b 14.214089
_cell_length_c 19.146533
_cell_angle_alpha 90.000000
_cell_angle_beta 71.578699
_cell_angle_gamma 90.000000
_cell_volume 3055.323973
_symmetry_space_group_name_H-M "C 2/M"
_symmetry_group_IT_number 12
_symmetry_cell_setting 'monoclinic'
loop_
_space_group_symop_operation_xyz
x,y,z
-x,y,-z
-x,-y,-z
x,-y,z
1/2+x,1/2+y,z
1/2-x,1/2+y,-z
1/2-x,1/2-y,-z
1/2+x,1/2-y,z
loop_
_atom_site_type_symbol
_atom_site_label
_atom_site_fract_x
_atom_site_fract_y
_atom_site_fract_z
Si Si1 0.565694 0.396999 0.417256
Si Si2 0.906870 0.500000 0.432157
Si Si3 0.115605 0.861953 0.666069
Si Si4 0.283506 0.194649 0.421808
Si Si5 0.213761 0.108638 0.053517
Si Si6 0.546778 0.393803 0.836596
Si Si7 0.829258 0.500000 0.604507
Si Si8 0.629186 0.723999 0.943563
O O1 0.500000 0.365153 0.500000
O O2 0.622299 0.500000 0.418172
O O3 0.479924 0.406568 0.367644
O O4 0.670336 0.320375 0.392466
O O5 0.844247 0.594701 0.419543
O O6 0.886169 0.500000 0.517999
O O7 0.045471 0.500000 0.376857
O O8 0.125059 0.754276 0.641854
O O9 0.064533 0.869272 0.752968
O O10 0.246012 0.909610 0.634872
O O11 0.250000 0.250000 0.500000
O O12 0.308240 0.174330 0.075492
O O13 0.091804 0.115900 0.119564
O O14 0.257624 0.000000 0.041024
O O15 0.200429 0.150113 0.978103
O O16 0.589959 0.500000 0.843968
O O17 0.623559 0.322246 0.868184
O O18 0.500000 0.742109 0.000000
#
# Coordination Sequence:
#
# PCOD8102686 Si02
#       8
#     8   4   8   8   8   8   4   8
#     4  11  21  37  60  80 109 141 189 250 293 353
#     4  11  24  41  57  83 115 146 191 254 308 358
#     4  12  24  38  59  89 112 154 201 244 306 354
#     4  12  24  38  60  84 110 147 194 246 306 361
#     4   9  18  34  59  90 120 152 193 233 279 331
#     4  10  20  37  58  83 116 151 193 239 283 341
#     4  11  22  39  61  83 118 146 195 249 301 361
#     4   9  18  34  59  89 119 154 191 231 279 340
#
# _framework density 18.328662000000001
#
# number of rings (size 3 to 8) (size 9 to 14) (size 15 to 20)
#    0.000    1.429    5.000    0.429    2.000    3.143 
#    0.000    0.000    1.571    0.000    0.000    0.000 
#    0.000    0.000    0.000    0.000    0.000    0.000 
#
# Total GULP energy -346983.959196 kJ/mol
# GULP energy per Si atom -12392.284257 kJ/mol
# Density = 1.828695 g / cm^3
# Si number density = 18.328662 Si / 1000 Ang^3
#
#
#
# Elastic Constant Matrix: (Units=GPa)
#
#
# Indices 1 2 3 4 5 6 
#
# 1 91.2852 56.6889 34.4564 0.0000 12.9978 0.0000
# 2 56.6889 148.7409 35.4528 0.0000 2.2208 0.0000
# 3 34.4564 35.4528 95.7613 0.0000 13.9794 0.0000
# 4 0.0000 0.0000 0.0000 20.1441 0.0000 -7.9664
# 5 12.9978 2.2208 13.9794 0.0000 17.2709 0.0000
# 6 0.0000 0.0000 0.0000 -7.9664 0.0000 34.6716
#
#
#
# Elastic Compliance Matrix: (Units=1/GPa)
#
#
# Indices 1 2 3 4 5 6 
#
# 1 0.016834 -0.005669 -0.002512 0.000000 -0.009907 0.000000
# 2 -0.005669 0.009314 -0.002105 0.000000 0.004773 0.000000
# 3 -0.002512 -0.002105 0.013393 0.000000 -0.008679 0.000000
# 4 0.000000 0.000000 0.000000 0.054604 0.000000 0.012546
# 5 -0.009907 0.004773 -0.008679 0.000000 0.071768 0.000000
# 6 0.000000 0.000000 0.000000 0.012546 0.000000 0.031725
#
#
# Mechanical properties :
#
#
# Convention : Reuss Voigt Hill
#
# Bulk Modulus (GPa) = 52.71969 65.44262 59.08116
# Shear Modulus (GPa) = 22.26836 28.36327 25.31582
#
# Velocity S-wave (km/s) = 3.48939 3.93807 3.72050
# Velocity P-wave (km/s) = 6.71271 7.51402 7.12464
#
# Compressibility (1/GPa) = 0.01896824
#
# Stress axis : x y z
#
# Youngs Moduli (GPa) = 59.40311 107.36162 74.66624
#
# Poissons Ratio (x) = 0.60866 0.18757
# Poissons Ratio (y) = 0.33677 0.15719
# Poissons Ratio (z) = 0.14923 0.22602
#
# Static dielectric constant tensor:
#      x y z
#    x 3.575230 0.000000 0.045160 
#    y 0.000000 3.566550 0.000000 
#    z 0.045160 0.000000 3.171810 
# 
# 
# High freq. dielectric constant tensor:
#      x y z
#    x 1.711590 0.000000 0.000360 
#    y 0.000000 1.725620 0.000000 
#    z 0.000360 0.000000 1.684900 
# 
# From -- ./inp_files/305146.got.cif
#   From: 2010.06.25/outbox.cif.g09.slc.cpg/sg12_153_cif.got.tgz:305146.got - 2010.06.28 00:19:55.
