data_PCOD8102806
_publ_section_title
;
Structure prediction by ZEFSAII (Michael W. Deem and Ramdas Pophale) SiO2 
 PCOD8102806
Probable space group: C 2/M
;
_chemical_formula_sum "Si O2"
_cell_formula_units_Z 56
_cell_length_a 30.060990
_cell_length_b 8.897751
_cell_length_c 12.684835
_cell_angle_alpha 90.000000
_cell_angle_beta 116.492332
_cell_angle_gamma 90.000000
_cell_volume 3036.606427
_symmetry_space_group_name_H-M "C 2/M"
_symmetry_group_IT_number 12
_symmetry_cell_setting 'monoclinic'
loop_
_space_group_symop_operation_xyz
x,y,z
-x,y,-z
-x,-y,-z
x,-y,z
1/2+x,1/2+y,z
1/2-x,1/2+y,-z
1/2-x,1/2-y,-z
1/2+x,1/2-y,z
loop_
_atom_site_type_symbol
_atom_site_label
_atom_site_fract_x
_atom_site_fract_y
_atom_site_fract_z
Si Si1 0.507394 0.175603 0.627093
Si Si2 0.391633 0.677308 0.226033
Si Si3 0.595079 0.176395 0.369195
Si Si4 0.147188 0.330080 0.016045
Si Si5 0.227606 0.669703 0.256911
Si Si6 0.659821 0.321883 0.613556
Si Si7 0.866501 0.177491 0.792410
O O1 0.500000 0.232412 0.500000
O O2 0.552384 0.264748 0.728010
O O3 0.458544 0.215696 0.640755
O O4 0.520098 0.000000 0.642536
O O5 0.390292 0.500000 0.214674
O O6 0.369814 0.732036 0.314531
O O7 0.357312 0.744717 0.098483
O O8 0.637694 0.240839 0.489108
O O9 0.597942 0.255141 0.259151
O O10 0.603153 0.000000 0.365256
O O11 0.127020 0.500000 0.983241
O O12 0.205364 0.328964 0.113585
O O13 0.115964 0.245424 0.075896
O O14 0.226391 0.500000 0.300948
O O15 0.283300 0.732648 0.314811
O O16 0.191168 0.772710 0.290775
O O17 0.655959 0.500000 0.594798
O O18 0.871217 0.000000 0.798538
#
# Coordination Sequence:
#
# PCOD8102806 Si02
#       7
#     8   8   8   8   8   8   8
#     4  10  21  39  59  82 113 150 189 228 275 339
#     4  11  22  35  58  88 118 147 185 235 287 331
#     4  11  22  37  59  84 113 149 191 231 280 337
#     4   9  19  38  60  80 112 154 191 229 275 331
#     4   8  18  37  57  80 113 153 191 227 274 333
#     4  10  21  36  55  85 118 150 189 232 280 333
#     4  10  20  37  59  83 113 147 187 236 285 328
#
# _framework density 18.441638999999999
#
# number of rings (size 3 to 8) (size 9 to 14) (size 15 to 20)
#    0.857    1.286    1.429    2.143    0.000    3.714 
#    0.000    0.714    0.000    4.286    0.000    0.000 
#    0.000    0.000    0.000    0.000    0.000    0.000 
#
# Total GULP energy -347120.320922 kJ/mol
# GULP energy per Si atom -12397.154319 kJ/mol
# Density = 1.839966 g / cm^3
# Si number density = 18.441639 Si / 1000 Ang^3
#
#
#
# Elastic Constant Matrix: (Units=GPa)
#
#
# Indices 1 2 3 4 5 6 
#
# 1 68.3815 24.8669 1.1677 0.0000 -2.1521 0.0000
# 2 24.8669 67.0499 11.1244 0.0000 -6.8476 0.0000
# 3 1.1677 11.1244 39.0412 0.0000 -10.7311 0.0000
# 4 0.0000 0.0000 0.0000 36.0732 0.0000 -1.5107
# 5 -2.1521 -6.8476 -10.7311 0.0000 26.1701 0.0000
# 6 0.0000 0.0000 0.0000 -1.5107 0.0000 25.0906
#
#
#
# Elastic Compliance Matrix: (Units=1/GPa)
#
#
# Indices 1 2 3 4 5 6 
#
# 1 0.016973 -0.006502 0.001421 0.000000 0.000277 0.000000
# 2 -0.006502 0.018298 -0.004340 0.000000 0.002474 0.000000
# 3 0.001421 -0.004340 0.029898 0.000000 0.011241 0.000000
# 4 0.000000 0.000000 0.000000 0.027791 0.000000 0.001673
# 5 0.000277 0.002474 0.011241 0.000000 0.043491 0.000000
# 6 0.000000 0.000000 0.000000 0.001673 0.000000 0.039956
#
#
# Mechanical properties :
#
#
# Convention : Reuss Voigt Hill
#
# Bulk Modulus (GPa) = 21.58520 27.64339 24.61429
# Shear Modulus (GPa) = 23.73139 26.62102 25.17620
#
# Velocity S-wave (km/s) = 3.59114 3.80350 3.69885
# Velocity P-wave (km/s) = 5.37821 5.85756 5.62299
#
# Compressibility (1/GPa) = 0.04632804
#
# Stress axis : x y z
#
# Youngs Moduli (GPa) = 58.91775 54.64964 33.44733
#
# Poissons Ratio (x) = 0.35534 -0.04754
# Poissons Ratio (y) = 0.38310 0.14515
# Poissons Ratio (z) = -0.08374 0.23715
#
# Static dielectric constant tensor:
#      x y z
#    x 3.331240 0.000000 -0.041990 
#    y 0.000000 3.334730 0.000000 
#    z -0.041990 0.000000 3.263220 
# 
# 
# High freq. dielectric constant tensor:
#      x y z
#    x 1.705660 0.000000 -0.003450 
#    y 0.000000 1.720100 0.000000 
#    z -0.003450 0.000000 1.707470 
# 
# From -- ./inp_files/186860.got.cif
#   From: 2010.06.25/outbox.cif.g09.slc.cpg/sg12_94_cif.got.tgz:186860.got - 2010.06.28 00:19:55.
