data_PCOD8102117
_publ_section_title
;
Structure prediction by ZEFSAII (Michael W. Deem and Ramdas Pophale) SiO2 
 PCOD8102117
Probable space group: C 2/M
;
_chemical_formula_sum "Si O2"
_cell_formula_units_Z 64
_cell_length_a 26.712539
_cell_length_b 13.901887
_cell_length_c 19.253033
_cell_angle_alpha 90.000000
_cell_angle_beta 25.008428
_cell_angle_gamma 90.000000
_cell_volume 3022.548717
_symmetry_space_group_name_H-M "C 2/M"
_symmetry_group_IT_number 12
_symmetry_cell_setting 'monoclinic'
loop_
_space_group_symop_operation_xyz
x,y,z
-x,y,-z
-x,-y,-z
x,-y,z
1/2+x,1/2+y,z
1/2-x,1/2+y,-z
1/2-x,1/2-y,-z
1/2+x,1/2-y,z
loop_
_atom_site_type_symbol
_atom_site_label
_atom_site_fract_x
_atom_site_fract_y
_atom_site_fract_z
Si Si1 0.272937 0.391186 0.874561
Si Si2 0.170620 0.110236 0.953787
Si Si3 0.942440 0.388371 0.640654
Si Si4 0.479251 0.108191 0.741964
Si Si5 0.270226 0.611838 0.618341
Si Si6 0.038814 0.886665 0.254847
Si Si7 0.664127 0.207792 0.883455
Si Si8 0.436565 0.887892 0.221977
O O1 0.300851 0.500000 0.815732
O O2 0.383387 0.346201 0.778672
O O3 0.253988 0.329084 0.829581
O O4 0.158975 0.387977 0.066585
O O5 0.302263 0.120812 0.816898
O O6 0.151859 0.176744 0.909202
O O7 0.140906 0.000000 0.970569
O O8 0.085673 0.151984 0.121718
O O9 0.979643 0.500000 0.594368
O O10 0.993983 0.340481 0.647819
O O11 0.000000 0.338215 0.500000
O O12 0.555604 0.155441 0.709000
O O13 0.523767 0.000000 0.677373
O O14 0.263032 0.500000 0.651379
O O15 0.403150 0.643426 0.434191
O O16 0.219801 0.682799 0.739668
O O17 0.193781 0.627858 0.644616
O O18 0.058141 0.000000 0.229113
O O19 0.534357 0.160943 0.050051
O O20 0.472143 0.000000 0.180181
#
# Coordination Sequence:
#
# PCOD8102117 Si02
#       8
#     8   8   8   8   8   8   8   8
#     4   9  16  30  52  80 117 154 186 230 295 364
#     4  10  21  39  57  79 115 161 202 236 283 352
#     4   9  16  30  54  80 110 147 190 242 290 330
#     4   8  13  26  50  80 111 141 178 228 283 341
#     4  10  20  36  60  90 119 151 190 243 305 355
#     4   9  18  35  58  81 117 161 196 235 289 360
#     4  11  21  33  54  87 118 153 192 246 296 352
#     4   9  18  34  58  86 117 151 191 240 299 359
#
# _framework density 21.174182999999999
#
# number of rings (size 3 to 8) (size 9 to 14) (size 15 to 20)
#    0.000    2.625    1.250    2.250    0.000    2.000 
#    2.250    2.500    0.000    3.000    0.000    4.375 
#    0.000    0.000    0.000    0.000    0.000    0.000 
#
# Total GULP energy -396611.090974 kJ/mol
# GULP energy per Si atom -12394.096593 kJ/mol
# Density = 2.112599 g / cm^3
# Si number density = 21.174183 Si / 1000 Ang^3
#
#
#
# Elastic Constant Matrix: (Units=GPa)
#
#
# Indices 1 2 3 4 5 6 
#
# 1 131.7252 26.0634 71.7140 0.0000 -0.1375 0.0000
# 2 26.0634 59.3513 9.3663 0.0000 -3.9297 0.0000
# 3 71.7140 9.3663 96.6064 0.0000 1.0136 0.0000
# 4 0.0000 0.0000 0.0000 5.5512 0.0000 2.5147
# 5 -0.1375 -3.9297 1.0136 0.0000 37.2263 0.0000
# 6 0.0000 0.0000 0.0000 2.5147 0.0000 15.1118
#
#
#
# Elastic Compliance Matrix: (Units=1/GPa)
#
#
# Indices 1 2 3 4 5 6 
#
# 1 0.013844 -0.004538 -0.009835 0.000000 -0.000160 0.000000
# 2 -0.004538 0.018727 0.001533 0.000000 0.001918 0.000000
# 3 -0.009835 0.001533 0.017507 0.000000 -0.000351 0.000000
# 4 0.000000 0.000000 0.000000 0.194826 0.000000 -0.032420
# 5 -0.000160 0.001918 -0.000351 0.000000 0.027074 0.000000
# 6 0.000000 0.000000 0.000000 -0.032420 0.000000 0.071568
#
#
# Mechanical properties :
#
#
# Convention : Reuss Voigt Hill
#
# Bulk Modulus (GPa) = 40.98761 55.77445 48.38103
# Shear Modulus (GPa) = 13.25001 23.61382 18.43192
#
# Velocity S-wave (km/s) = 2.50424 3.34311 2.95361
# Velocity P-wave (km/s) = 5.26887 6.42649 5.87626
#
# Compressibility (1/GPa) = 0.02439762
#
# Stress axis : x y z
#
# Youngs Moduli (GPa) = 72.23573 53.39978 57.11968
#
# Poissons Ratio (x) = 0.24232 0.56177
# Poissons Ratio (y) = 0.32779 -0.08755
# Poissons Ratio (z) = 0.71043 -0.08185
#
# Static dielectric constant tensor:
#      x y z
#    x 3.970520 0.000000 0.081800 
#    y 0.000000 3.720050 0.000000 
#    z 0.081800 0.000000 3.663650 
# 
# 
# High freq. dielectric constant tensor:
#      x y z
#    x 1.824360 0.000000 0.003110 
#    y 0.000000 1.815070 0.000000 
#    z 0.003110 0.000000 1.808610 
# 
# From -- ./inp_files/278177.got.cif
#   From: 2010.06.25/outbox.cif.g09.slc.cpg/sg12_140_cif.got.tgz:278177.got - 2010.06.28 00:19:55.
