data_PCOD8102020
_publ_section_title
;
Structure prediction by ZEFSAII (Michael W. Deem and Ramdas Pophale) SiO2 
 PCOD8102020
Probable space group: C 2/M
;
_chemical_formula_sum "Si O2"
_cell_formula_units_Z 44
_cell_length_a 26.915554
_cell_length_b 13.115231
_cell_length_c 6.096450
_cell_angle_alpha 90.000000
_cell_angle_beta 80.449916
_cell_angle_gamma 90.000000
_cell_volume 2122.243822
_symmetry_space_group_name_H-M "C 2/M"
_symmetry_group_IT_number 12
_symmetry_cell_setting 'monoclinic'
loop_
_space_group_symop_operation_xyz
x,y,z
-x,y,-z
-x,-y,-z
x,-y,z
1/2+x,1/2+y,z
1/2-x,1/2+y,-z
1/2-x,1/2-y,-z
1/2+x,1/2-y,z
loop_
_atom_site_type_symbol
_atom_site_label
_atom_site_fract_x
_atom_site_fract_y
_atom_site_fract_z
Si Si1 0.593131 0.193034 0.609987
Si Si2 0.025461 0.500000 0.730500
Si Si3 0.306913 0.786464 0.227140
Si Si4 0.369751 0.295713 0.804378
Si Si5 0.557824 0.615939 0.900624
Si Si6 0.211186 0.114630 0.436092
O O1 0.648272 0.165689 0.661123
O O2 0.597472 0.208216 0.344390
O O3 0.573326 0.302340 0.708272
O O4 0.557065 0.103000 0.708698
O O5 0.000000 0.500000 0.500000
O O6 0.000000 0.500000 0.000000
O O7 0.260167 0.864121 0.248204
O O8 0.286698 0.681418 0.346098
O O9 0.327600 0.764529 0.971343
O O10 0.340740 0.366709 0.653933
O O11 0.407141 0.366423 0.914005
O O12 0.566383 0.500000 0.809310
O O13 0.500000 0.633754 0.000000
O O14 0.212169 0.000000 0.518253
#
# Coordination Sequence:
#
# PCOD8102020 Si02
#       6
#     8   4   8   8   8   8
#     4  10  24  42  65  93 131 171 222 278 338 410
#     4  12  30  48  76 104 140 190 240 290 345 409
#     4   9  21  39  59  86 127 157 211 269 331 400
#     4  10  21  38  60  90 126 162 213 273 337 406
#     4  10  22  39  63  91 126 167 213 274 341 408
#     4  10  20  36  60  87 118 166 210 265 331 405
#
# _framework density 20.732773000000002
#
# number of rings (size 3 to 8) (size 9 to 14) (size 15 to 20)
#    0.000    2.000    0.000    1.636    8.909    8.000 
#    1.636    1.818    0.000    0.000    0.000    0.000 
#    0.000    0.000    0.000    0.000    0.000    0.000 
#
# Total GULP energy -272625.687704 kJ/mol
# GULP energy per Si atom -12392.076714 kJ/mol
# Density = 2.068558 g / cm^3
# Si number density = 20.732773 Si / 1000 Ang^3
#
#
#
# Elastic Constant Matrix: (Units=GPa)
#
#
# Indices 1 2 3 4 5 6 
#
# 1 96.1384 44.4239 29.5495 0.0000 -19.1157 0.0000
# 2 44.4239 118.0923 52.5228 0.0000 -13.9204 0.0000
# 3 29.5495 52.5228 119.2098 0.0000 -21.2982 0.0000
# 4 0.0000 0.0000 0.0000 7.3387 0.0000 4.8300
# 5 -19.1157 -13.9204 -21.2982 0.0000 29.9615 0.0000
# 6 0.0000 0.0000 0.0000 4.8300 0.0000 19.0349
#
#
#
# Elastic Compliance Matrix: (Units=1/GPa)
#
#
# Indices 1 2 3 4 5 6 
#
# 1 0.013782 -0.004245 -0.000375 0.000000 0.006554 0.000000
# 2 -0.004245 0.011927 -0.004234 0.000000 -0.000177 0.000000
# 3 -0.000375 -0.004234 0.011401 0.000000 0.005898 0.000000
# 4 0.000000 0.000000 0.000000 0.163583 0.000000 -0.041509
# 5 0.006554 -0.000177 0.005898 0.000000 0.041668 0.000000
# 6 0.000000 0.000000 0.000000 -0.041509 0.000000 0.063068
#
#
# Mechanical properties :
#
#
# Convention : Reuss Voigt Hill
#
# Bulk Modulus (GPa) = 51.54349 65.15920 58.35135
# Shear Modulus (GPa) = 15.16969 25.06331 20.11650
#
# Velocity S-wave (km/s) = 2.70789 3.48066 3.11830
# Velocity P-wave (km/s) = 5.88997 6.90287 6.41644
#
# Compressibility (1/GPa) = 0.01940109
#
# Stress axis : x y z
#
# Youngs Moduli (GPa) = 72.56033 83.84123 87.71276
#
# Poissons Ratio (x) = 0.35591 0.03288
# Poissons Ratio (y) = 0.30802 0.37141
# Poissons Ratio (z) = 0.02720 0.35502
#
# Static dielectric constant tensor:
#      x y z
#    x 4.057780 0.000000 -0.160570 
#    y 0.000000 3.615970 0.000000 
#    z -0.160570 0.000000 4.008650 
# 
# 
# High freq. dielectric constant tensor:
#      x y z
#    x 1.826020 0.000000 -0.012210 
#    y 0.000000 1.800490 0.000000 
#    z -0.012210 0.000000 1.813540 
# 
# From -- ./inp_files/27898.got.cif
#   From: 2010.06.25/outbox.cif.g09.slc.cpg/sg12_14_cif.got.tgz:27898.got - 2010.06.28 00:19:55.
