data_PCOD8102685
_publ_section_title
;
Structure prediction by ZEFSAII (Michael W. Deem and Ramdas Pophale) SiO2 
 PCOD8102685
Probable space group: C 2/M
;
_chemical_formula_sum "Si O2"
_cell_formula_units_Z 56
_cell_length_a 11.847894
_cell_length_b 14.209223
_cell_length_c 27.273076
_cell_angle_alpha 90.000000
_cell_angle_beta 41.697084
_cell_angle_gamma 90.000000
_cell_volume 3054.167573
_symmetry_space_group_name_H-M "C 2/M"
_symmetry_group_IT_number 12
_symmetry_cell_setting 'monoclinic'
loop_
_space_group_symop_operation_xyz
x,y,z
-x,y,-z
-x,-y,-z
x,-y,z
1/2+x,1/2+y,z
1/2-x,1/2+y,-z
1/2-x,1/2-y,-z
1/2+x,1/2-y,z
loop_
_atom_site_type_symbol
_atom_site_label
_atom_site_fract_x
_atom_site_fract_y
_atom_site_fract_z
Si Si1 0.515186 0.862165 0.165828
Si Si2 0.851056 0.108747 0.446493
Si Si3 0.389997 0.305501 0.921716
Si Si4 0.756270 0.500000 0.068394
Si Si5 0.060072 0.500000 0.896210
Si Si6 0.243896 0.106156 0.336760
Si Si7 0.697394 0.275834 0.443505
Si Si8 0.882170 0.103241 0.082629
O O1 0.559577 0.754328 0.141922
O O2 0.459233 0.909556 0.132640
O O3 0.363245 0.870730 0.252805
O O4 0.684784 0.906144 0.133607
O O5 0.782640 0.174123 0.424649
O O6 0.772967 0.150185 0.522052
O O7 0.052735 0.116660 0.380333
O O8 0.792704 0.000000 0.458887
O O9 0.334243 0.405289 0.919277
O O10 0.568539 0.320943 0.892222
O O11 0.250000 0.250000 0.000000
O O12 0.771094 0.500000 0.123881
O O13 0.927639 0.500000 0.982578
O O14 0.283164 0.178121 0.367903
O O15 0.275313 0.000000 0.345498
O O16 0.500000 0.257995 0.500000
O O17 0.942184 0.000000 0.080474
O O18 0.000000 0.136092 0.000000
#
# Coordination Sequence:
#
# PCOD8102685 Si02
#       8
#     8   8   8   4   4   8   8   8
#     4  12  24  38  59  89 112 155 198 246 304 353
#     4   9  18  34  58  89 121 155 189 231 282 329
#     4  12  24  38  59  83 110 146 194 242 302 362
#     4  11  24  41  57  83 113 146 189 255 305 358
#     4  11  22  39  61  83 116 140 197 249 300 355
#     4  10  20  37  58  83 116 150 194 236 284 341
#     4   9  18  34  59  88 117 152 196 233 271 337
#     4  11  21  37  60  79 110 144 190 248 293 348
#
# _framework density 18.335602000000002
#
# number of rings (size 3 to 8) (size 9 to 14) (size 15 to 20)
#    0.000    1.429    5.000    0.429    2.000    3.143 
#    0.000    0.000    0.000    0.000    0.000    0.000 
#    0.000    0.000    0.000    0.000    0.000    0.000 
#
# Total GULP energy -346983.344550 kJ/mol
# GULP energy per Si atom -12392.262305 kJ/mol
# Density = 1.829387 g / cm^3
# Si number density = 18.335602 Si / 1000 Ang^3
#
#
#
# Elastic Constant Matrix: (Units=GPa)
#
#
# Indices 1 2 3 4 5 6 
#
# 1 96.2996 64.0334 34.9508 0.0003 15.4444 0.0001
# 2 64.0334 154.0630 38.3125 0.0002 9.7876 0.0000
# 3 34.9508 38.3125 88.5162 -0.0003 10.7273 0.0003
# 4 0.0003 0.0002 -0.0003 -91.4923 -0.0004 -1.9623
# 5 15.4444 9.7876 10.7273 -0.0004 16.5869 -0.0001
# 6 0.0001 0.0000 0.0003 -1.9623 -0.0001 42.9735
#
#
#
# Elastic Compliance Matrix: (Units=1/GPa)
#
#
# Indices 1 2 3 4 5 6 
#
# 1 0.016871 -0.005609 -0.002963 0.000000 -0.010482 0.000000
# 2 -0.005609 0.009231 -0.001903 0.000000 0.001006 0.000000
# 3 -0.002963 -0.001903 0.013911 0.000000 -0.005115 0.000000
# 4 0.000000 0.000000 0.000000 -0.010919 0.000000 -0.000499
# 5 -0.010482 0.001006 -0.005115 0.000000 0.072763 0.000000
# 6 0.000000 0.000000 0.000000 -0.000499 0.000000 0.023247
#
#
# Mechanical properties :
#
#
# Convention : Reuss Voigt Hill
#
# Bulk Modulus (GPa) = 52.45881 68.16357 60.31119
# Shear Modulus (GPa) = 32.80653 7.05241 19.92947
#
# Velocity S-wave (km/s) = 4.23451 1.96333 3.30044
# Velocity P-wave (km/s) = 7.25125 6.51120 6.89117
#
# Compressibility (1/GPa) = 0.01906257
#
# Stress axis : x y z
#
# Youngs Moduli (GPa) = 59.27482 108.32543 71.88639
#
# Poissons Ratio (x) = 0.60761 0.21302
# Poissons Ratio (y) = 0.33248 0.13679
# Poissons Ratio (z) = 0.17565 0.20612
#
# Static dielectric constant tensor:
#      x y z
#    x 3.629060 0.000000 0.008310 
#    y 0.000000 3.562390 0.000000 
#    z 0.008310 0.000000 3.158350 
# 
# 
# High freq. dielectric constant tensor:
#      x y z
#    x 1.712450 0.000000 0.002280 
#    y 0.000000 1.725800 0.000000 
#    z 0.002280 0.000000 1.684630 
# 
# From -- ./inp_files/358205.got.cif
#   From: 2010.06.25/outbox.cif.g09.slc.cpg/sg12_180_cif.got.tgz:358205.got - 2010.06.28 00:19:55.
