data_PCOD8102120
_publ_section_title
;
Structure prediction by ZEFSAII (Michael W. Deem and Ramdas Pophale) SiO2 
 PCOD8102120
Probable space group: C 2/M
;
_chemical_formula_sum "Si O2"
_cell_formula_units_Z 64
_cell_length_a 29.147967
_cell_length_b 8.913502
_cell_length_c 12.385519
_cell_angle_alpha 90.000000
_cell_angle_beta 89.257163
_cell_angle_gamma 90.000000
_cell_volume 3217.616972
_symmetry_space_group_name_H-M "C 2/M"
_symmetry_group_IT_number 12
_symmetry_cell_setting 'monoclinic'
loop_
_space_group_symop_operation_xyz
x,y,z
-x,y,-z
-x,-y,-z
x,-y,z
1/2+x,1/2+y,z
1/2-x,1/2+y,-z
1/2-x,1/2-y,-z
1/2+x,1/2-y,z
loop_
_atom_site_type_symbol
_atom_site_label
_atom_site_fract_x
_atom_site_fract_y
_atom_site_fract_z
Si Si1 0.764329 0.827351 0.610515
Si Si2 0.019488 0.674949 0.613151
Si Si3 0.107267 0.172275 0.545995
Si Si4 0.585722 0.827543 0.118930
Si Si5 0.495647 0.323376 0.175081
Si Si6 0.861334 0.174500 0.688648
Si Si7 0.830918 0.671853 0.304408
Si Si8 0.900750 0.671601 0.120481
O O1 0.750000 0.750000 0.500000
O O2 0.810609 0.760736 0.663102
O O3 0.724138 0.810006 0.701947
O O4 0.774118 0.000000 0.581271
O O5 0.012772 0.500000 0.636616
O O6 0.072816 0.718082 0.610680
O O7 0.000000 0.726945 0.500000
O O8 0.992899 0.770753 0.703505
O O9 0.107182 0.200874 0.417941
O O10 0.155624 0.218675 0.596781
O O11 0.095434 0.000000 0.572412
O O12 0.536532 0.746426 0.102659
O O13 0.617040 0.760471 0.211760
O O14 0.576082 0.000000 0.147008
O O15 0.612652 0.808607 0.004790
O O16 0.498427 0.500000 0.163637
O O17 0.445182 0.269901 0.145273
O O18 0.859254 0.000000 0.719513
O O19 0.843234 0.500000 0.332988
O O20 0.856533 0.721069 0.192735
O O21 0.914330 0.500000 0.145225
#
# Coordination Sequence:
#
# PCOD8102120 Si02
#       8
#     8   8   8   8   8   8   8   8
#     4  10  20  36  60  90 120 155 194 238 295 357
#     4  11  23  37  54  80 116 157 198 236 286 351
#     4  11  21  34  55  84 118 152 189 238 294 345
#     4  11  24  41  61  84 115 157 204 248 293 349
#     4  12  24  38  60  88 117 152 197 246 298 351
#     4  10  22  39  58  86 125 157 192 246 300 351
#     4  10  20  36  61  87 115 152 192 236 291 351
#     4  10  22  41  62  86 117 155 202 250 290 342
#
# _framework density 19.890495999999999
#
# number of rings (size 3 to 8) (size 9 to 14) (size 15 to 20)
#    0.000    1.375    2.500    3.375    0.000    7.000 
#    0.000    0.625    0.000    0.000    0.000    0.000 
#    0.000    0.000    0.000    0.000    0.000    0.000 
#
# Total GULP energy -396785.492504 kJ/mol
# GULP energy per Si atom -12399.546641 kJ/mol
# Density = 1.984522 g / cm^3
# Si number density = 19.890496 Si / 1000 Ang^3
#
#
#
# Elastic Constant Matrix: (Units=GPa)
#
#
# Indices 1 2 3 4 5 6 
#
# 1 87.8410 28.5047 28.8486 0.0000 -10.9761 0.0000
# 2 28.5047 88.8676 40.5648 0.0000 -2.5196 0.0000
# 3 28.8486 40.5648 99.3397 0.0000 -9.2297 0.0000
# 4 0.0000 0.0000 0.0000 25.4292 0.0000 3.7323
# 5 -10.9761 -2.5196 -9.2297 0.0000 24.8177 0.0000
# 6 0.0000 0.0000 0.0000 3.7323 0.0000 25.3220
#
#
#
# Elastic Compliance Matrix: (Units=1/GPa)
#
#
# Indices 1 2 3 4 5 6 
#
# 1 0.013790 -0.003275 -0.002208 0.000000 0.004945 0.000000
# 2 -0.003275 0.014621 -0.005195 0.000000 -0.001896 0.000000
# 3 -0.002208 -0.005195 0.013144 0.000000 0.003384 0.000000
# 4 0.000000 0.000000 0.000000 0.040194 0.000000 -0.005924
# 5 0.004945 -0.001896 0.003384 0.000000 0.043547 0.000000
# 6 0.000000 0.000000 0.000000 -0.005924 0.000000 0.040365
#
#
# Mechanical properties :
#
#
# Convention : Reuss Voigt Hill
#
# Bulk Modulus (GPa) = 49.51064 52.43162 50.97113
# Shear Modulus (GPa) = 25.80642 26.98912 26.39777
#
# Velocity S-wave (km/s) = 3.60589 3.68759 3.64697
# Velocity P-wave (km/s) = 6.50248 6.67446 6.58903
#
# Compressibility (1/GPa) = 0.02019768
#
# Stress axis : x y z
#
# Youngs Moduli (GPa) = 72.51606 68.39468 76.08278
#
# Poissons Ratio (x) = 0.22401 0.16797
# Poissons Ratio (y) = 0.23751 0.39528
# Poissons Ratio (z) = 0.16010 0.35534
#
# Static dielectric constant tensor:
#      x y z
#    x 3.746620 0.000000 -0.149520 
#    y 0.000000 3.533890 0.000000 
#    z -0.149520 0.000000 3.702630 
# 
# 
# High freq. dielectric constant tensor:
#      x y z
#    x 1.773440 0.000000 -0.011160 
#    y 0.000000 1.773070 0.000000 
#    z -0.011160 0.000000 1.775420 
# 
# From -- ./inp_files/187531.got.cif
#   From: 2010.06.25/outbox.cif.g09.slc.cpg/sg12_94_cif.got.tgz:187531.got - 2010.06.28 00:19:55.
