data_PCOD8102713
_publ_section_title
;
Structure prediction by ZEFSAII (Michael W. Deem and Ramdas Pophale) SiO2 
 PCOD8102713
Probable space group: C 2/M
;
_chemical_formula_sum "Si O2"
_cell_formula_units_Z 56
_cell_length_a 16.000139
_cell_length_b 18.084186
_cell_length_c 12.915739
_cell_angle_alpha 90.000000
_cell_angle_beta 130.609106
_cell_angle_gamma 90.000000
_cell_volume 2837.133688
_symmetry_space_group_name_H-M "C 2/M"
_symmetry_group_IT_number 12
_symmetry_cell_setting 'monoclinic'
loop_
_space_group_symop_operation_xyz
x,y,z
-x,y,-z
-x,-y,-z
x,-y,z
1/2+x,1/2+y,z
1/2-x,1/2+y,-z
1/2-x,1/2-y,-z
1/2+x,1/2-y,z
loop_
_atom_site_type_symbol
_atom_site_label
_atom_site_fract_x
_atom_site_fract_y
_atom_site_fract_z
Si Si1 0.777986 0.725118 0.638967
Si Si2 0.910367 0.193236 0.355094
Si Si3 0.041697 0.351737 0.645482
Si Si4 0.642913 0.623821 0.279698
Si Si5 0.277037 0.583379 0.868601
Si Si6 0.410470 0.414733 0.175400
Si Si7 0.340075 0.084851 0.590298
O O1 0.750000 0.750000 0.500000
O O2 0.682130 0.728701 0.646257
O O3 0.866177 0.787157 0.745119
O O4 0.816984 0.639761 0.668457
O O5 0.971325 0.263126 0.349207
O O6 0.867359 0.135015 0.236062
O O7 0.000000 0.151829 0.500000
O O8 0.169053 0.368343 0.766795
O O9 0.000000 0.377147 0.500000
O O10 0.965677 0.397402 0.662138
O O11 0.643880 0.586495 0.167838
O O12 0.540880 0.595125 0.264343
O O13 0.755979 0.601038 0.428709
O O14 0.239662 0.500000 0.858490
O O15 0.345977 0.612944 0.022079
O O16 0.385572 0.500000 0.181193
O O17 0.329994 0.000000 0.618844
#
# Coordination Sequence:
#
# PCOD8102713 Si02
#       7
#     8   8   8   8   8   8   8
#     4  10  20  37  58  85 117 152 198 247 293 351
#     4  11  21  39  62  86 118 158 197 247 297 352
#     4  11  20  37  59  89 117 148 199 252 297 347
#     4  11  19  38  58  85 122 158 201 246 297 355
#     4  11  22  37  59  88 124 159 197 249 301 353
#     4  11  25  39  58  89 125 162 198 242 298 363
#     4  11  21  32  57  90 118 150 192 247 304 353
#
# _framework density 19.738230999999999
#
# number of rings (size 3 to 8) (size 9 to 14) (size 15 to 20)
#    0.000    1.143    2.857    7.286    0.000    3.143 
#    0.000    0.000    0.000    0.000    0.000    3.000 
#    0.000    0.000    0.000    0.000    0.000    0.000 
#
# Total GULP energy -347097.036661 kJ/mol
# GULP energy per Si atom -12396.322738 kJ/mol
# Density = 1.969331 g / cm^3
# Si number density = 19.738231 Si / 1000 Ang^3
#
#
#
# Elastic Constant Matrix: (Units=GPa)
#
#
# Indices 1 2 3 4 5 6 
#
# 1 71.9925 23.6767 25.4336 0.0000 0.6868 0.0000
# 2 23.6767 128.4162 30.7787 0.0000 -4.0746 0.0000
# 3 25.4336 30.7787 70.9023 0.0000 -4.5825 0.0000
# 4 0.0000 0.0000 0.0000 26.5912 0.0000 -5.6533
# 5 0.6868 -4.0746 -4.5825 0.0000 20.9100 0.0000
# 6 0.0000 0.0000 0.0000 -5.6533 0.0000 22.8589
#
#
#
# Elastic Compliance Matrix: (Units=1/GPa)
#
#
# Indices 1 2 3 4 5 6 
#
# 1 0.016350 -0.001832 -0.005201 0.000000 -0.002034 0.000000
# 2 -0.001832 0.008913 -0.003140 0.000000 0.001109 0.000000
# 3 -0.005201 -0.003140 0.017553 0.000000 0.003406 0.000000
# 4 0.000000 0.000000 0.000000 0.039693 0.000000 0.009817
# 5 -0.002034 0.001109 0.003406 0.000000 0.048853 0.000000
# 6 0.000000 0.000000 0.000000 0.009817 0.000000 0.046174
#
#
# Mechanical properties :
#
#
# Convention : Reuss Voigt Hill
#
# Bulk Modulus (GPa) = 44.50663 47.89878 46.20271
# Shear Modulus (GPa) = 24.34595 26.83347 25.58971
#
# Velocity S-wave (km/s) = 3.51585 3.69109 3.60454
# Velocity P-wave (km/s) = 6.25132 6.51807 6.38609
#
# Compressibility (1/GPa) = 0.02246856
#
# Stress axis : x y z
#
# Youngs Moduli (GPa) = 61.16297 112.19775 56.97114
#
# Poissons Ratio (x) = 0.20560 0.29630
# Poissons Ratio (y) = 0.11208 0.17889
# Poissons Ratio (z) = 0.31810 0.35231
#
# Static dielectric constant tensor:
#      x y z
#    x 3.500700 0.000000 -0.019870 
#    y 0.000000 3.922150 0.000000 
#    z -0.019870 0.000000 3.422150 
# 
# 
# High freq. dielectric constant tensor:
#      x y z
#    x 1.766350 0.000000 0.001640 
#    y 0.000000 1.779650 0.000000 
#    z 0.001640 0.000000 1.736410 
# 
# From -- ./inp_files/146246.got.cif
#   From: 2010.06.25/outbox.cif.g09.slc.cpg/sg12_74_cif.got.tgz:146246.got - 2010.06.28 00:19:55.
