data_PCOD8102869
_publ_section_title
;
Structure prediction by ZEFSAII (Michael W. Deem and Ramdas Pophale) SiO2 
 PCOD8102869
Probable space group: C 2/M
;
_chemical_formula_sum "Si O2"
_cell_formula_units_Z 64
_cell_length_a 32.504196
_cell_length_b 8.815290
_cell_length_c 16.535446
_cell_angle_alpha 90.000000
_cell_angle_beta 137.498770
_cell_angle_gamma 90.000000
_cell_volume 3200.998465
_symmetry_space_group_name_H-M "C 2/M"
_symmetry_group_IT_number 12
_symmetry_cell_setting 'monoclinic'
loop_
_space_group_symop_operation_xyz
x,y,z
-x,y,-z
-x,-y,-z
x,-y,z
1/2+x,1/2+y,z
1/2-x,1/2+y,-z
1/2-x,1/2-y,-z
1/2+x,1/2-y,z
loop_
_atom_site_type_symbol
_atom_site_label
_atom_site_fract_x
_atom_site_fract_y
_atom_site_fract_z
Si Si1 0.593899 0.321078 0.765700
Si Si2 0.113239 0.819991 0.974186
Si Si3 0.353611 0.821033 0.308290
Si Si4 0.905395 0.674877 0.654662
Si Si5 0.276850 0.320580 0.458272
Si Si6 0.263928 0.680215 0.762791
Si Si7 0.995563 0.822144 0.899812
Si Si8 0.967883 0.674366 0.579104
O O1 0.598160 0.500000 0.770660
O O2 0.608825 0.256031 0.876543
O O3 0.643561 0.254853 0.775769
O O4 0.526617 0.271326 0.640557
O O5 0.056198 0.760750 0.943755
O O6 0.112741 0.000000 0.971799
O O7 0.175190 0.761901 0.104810
O O8 0.292689 0.765974 0.264668
O O9 0.411060 0.766847 0.444472
O O10 0.352920 0.000000 0.296473
O O11 0.885798 0.500000 0.635771
O O12 0.846508 0.772475 0.548484
O O13 0.936663 0.734191 0.781514
O O14 0.953491 0.697052 0.652452
O O15 0.271630 0.500000 0.455181
O O16 0.250000 0.250000 0.500000
O O17 0.237878 0.259815 0.326583
O O18 0.263098 0.500000 0.748286
O O19 0.986006 0.000000 0.870267
O O20 0.000000 0.783553 0.000000
O O21 0.982185 0.500000 0.579536
#
# Coordination Sequence:
#
# PCOD8102869 Si02
#       8
#     8   8   8   8   8   8   8   8
#     4  11  22  36  57  88 120 155 200 249 303 361
#     4   9  20  38  59  85 122 160 199 248 304 363
#     4  10  21  38  59  84 117 157 202 249 304 363
#     4  11  22  40  65  93 123 160 202 249 303 361
#     4  12  26  43  65  94 126 160 200 251 303 360
#     4  10  21  42  65  86 118 164 207 248 301 363
#     4  10  21  38  61  92 124 162 204 245 305 369
#     4  10  20  37  59  86 119 157 197 243 302 361
#
# _framework density 19.993760999999999
#
# number of rings (size 3 to 8) (size 9 to 14) (size 15 to 20)
#    0.000    1.625    2.500    2.250    1.750    3.750 
#    0.000    1.875    0.000    0.000    0.000    0.000 
#    0.000    0.000    0.000    0.000    0.000    0.000 
#
# Total GULP energy -396957.183616 kJ/mol
# GULP energy per Si atom -12404.911988 kJ/mol
# Density = 1.994825 g / cm^3
# Si number density = 19.993761 Si / 1000 Ang^3
#
#
#
# Elastic Constant Matrix: (Units=GPa)
#
#
# Indices 1 2 3 4 5 6 
#
# 1 99.0610 31.2251 46.4368 0.0000 -16.5427 0.0000
# 2 31.2251 57.9892 30.4002 0.0000 -6.7113 0.0000
# 3 46.4368 30.4002 132.3019 0.0000 -5.1760 0.0000
# 4 0.0000 0.0000 0.0000 30.5148 0.0000 -4.1656
# 5 -16.5427 -6.7113 -5.1760 0.0000 36.3228 0.0000
# 6 0.0000 0.0000 0.0000 -4.1656 0.0000 31.0228
#
#
#
# Elastic Compliance Matrix: (Units=1/GPa)
#
#
# Indices 1 2 3 4 5 6 
#
# 1 0.014270 -0.005207 -0.003616 0.000000 0.005022 0.000000
# 2 -0.005207 0.021836 -0.003142 0.000000 0.001215 0.000000
# 3 -0.003616 -0.003142 0.009515 0.000000 -0.000871 0.000000
# 4 0.000000 0.000000 0.000000 0.033383 0.000000 0.004482
# 5 0.005022 0.001215 -0.000871 0.000000 0.029918 0.000000
# 6 0.000000 0.000000 0.000000 0.004482 0.000000 0.032836
#
#
# Mechanical properties :
#
#
# Convention : Reuss Voigt Hill
#
# Bulk Modulus (GPa) = 46.10110 56.16404 51.13257
# Shear Modulus (GPa) = 28.91522 31.65809 30.28665
#
# Velocity S-wave (km/s) = 3.80704 3.98351 3.89627
# Velocity P-wave (km/s) = 6.51402 7.02208 6.77282
#
# Compressibility (1/GPa) = 0.02169145
#
# Stress axis : x y z
#
# Youngs Moduli (GPa) = 70.07931 45.79508 105.09211
#
# Poissons Ratio (x) = 0.23846 0.37997
# Poissons Ratio (y) = 0.36491 0.33024
# Poissons Ratio (z) = 0.25338 0.14391
#
# Static dielectric constant tensor:
#      x y z
#    x 3.766440 0.000000 -0.062900 
#    y 0.000000 3.432200 0.000000 
#    z -0.062900 0.000000 3.756170 
# 
# 
# High freq. dielectric constant tensor:
#      x y z
#    x 1.790680 0.000000 -0.006290 
#    y 0.000000 1.760010 0.000000 
#    z -0.006290 0.000000 1.787950 
# 
# From -- ./inp_files/250019.got.cif
#   From: 2010.06.25/outbox.cif.g09.slc.cpg/sg12_126_cif.got.tgz:250019.got - 2010.06.28 00:19:55.
