data_PCOD8102857
_publ_section_title
;
Structure prediction by ZEFSAII (Michael W. Deem and Ramdas Pophale) SiO2 
 PCOD8102857
Probable space group: C 2/M
;
_chemical_formula_sum "Si O2"
_cell_formula_units_Z 64
_cell_length_a 14.608894
_cell_length_b 8.641298
_cell_length_c 33.240727
_cell_angle_alpha 90.000000
_cell_angle_beta 50.335860
_cell_angle_gamma 90.000000
_cell_volume 3230.310621
_symmetry_space_group_name_H-M "C 2/M"
_symmetry_group_IT_number 12
_symmetry_cell_setting 'monoclinic'
loop_
_space_group_symop_operation_xyz
x,y,z
-x,y,-z
-x,-y,-z
x,-y,z
1/2+x,1/2+y,z
1/2-x,1/2+y,-z
1/2-x,1/2-y,-z
1/2+x,1/2-y,z
loop_
_atom_site_type_symbol
_atom_site_label
_atom_site_fract_x
_atom_site_fract_y
_atom_site_fract_z
Si Si1 0.211271 0.183701 0.774822
Si Si2 0.358081 0.182429 0.944735
Si Si3 0.610757 0.316971 0.495136
Si Si4 0.810456 0.179982 0.873616
Si Si5 0.399516 0.317893 0.111046
Si Si6 0.533401 0.319875 0.756903
Si Si7 0.860471 0.181954 0.421910
Si Si8 0.979141 0.318190 0.690523
O O1 0.154948 0.247243 0.831909
O O2 0.344814 0.245435 0.731936
O O3 0.133557 0.243104 0.759200
O O4 0.209671 0.000000 0.777450
O O5 0.367192 0.263112 0.898995
O O6 0.479948 0.226532 0.933113
O O7 0.343631 0.000000 0.944472
O O8 0.250000 0.250000 0.000000
O O9 0.500000 0.250226 0.500000
O O10 0.612280 0.500000 0.491258
O O11 0.735448 0.255006 0.442744
O O12 0.600594 0.261858 0.544395
O O13 0.692478 0.279049 0.898580
O O14 0.904285 0.211038 0.811921
O O15 0.778338 0.000000 0.886046
O O16 0.425270 0.500000 0.105199
O O17 0.552603 0.500000 0.742099
O O18 0.548683 0.223739 0.711782
O O19 0.963510 0.233456 0.363233
O O20 0.844858 0.000000 0.425243
O O21 0.983965 0.500000 0.681708
#
# Coordination Sequence:
#
# PCOD8102857 Si02
#       8
#     8   8   8   8   8   8   8   8
#     4   9  19  36  58  84 116 156 196 239 294 352
#     4  12  26  44  65  92 122 158 202 252 309 366
#     4   9  19  38  63  87 115 151 196 245 296 350
#     4  11  22  39  64  93 123 158 198 248 302 364
#     4  11  21  40  65  91 123 158 199 248 302 362
#     4  10  20  37  59  85 117 155 197 243 295 352
#     4  10  21  37  57  85 120 156 194 242 297 351
#     4  11  22  37  57  85 121 159 200 245 294 350
#
# _framework density 19.812335999999998
#
# number of rings (size 3 to 8) (size 9 to 14) (size 15 to 20)
#    0.000    1.625    2.500    2.625    0.000    2.750 
#    0.000    6.250    0.000    0.000    0.000    0.000 
#    0.000    0.000    0.000    0.000    0.000    0.000 
#
# Total GULP energy -396936.935465 kJ/mol
# GULP energy per Si atom -12404.279233 kJ/mol
# Density = 1.976724 g / cm^3
# Si number density = 19.812336 Si / 1000 Ang^3
#
#
#
# Elastic Constant Matrix: (Units=GPa)
#
#
# Indices 1 2 3 4 5 6 
#
# 1 110.1233 20.9301 13.3546 0.0001 -9.0793 0.0001
# 2 20.9301 37.5616 29.5828 -0.0003 0.8120 -0.0003
# 3 13.3546 29.5828 67.9326 0.0001 -11.2529 0.0001
# 4 0.0001 -0.0003 0.0001 30.1420 -0.0001 -0.4571
# 5 -9.0793 0.8120 -11.2529 -0.0001 28.6948 -0.0002
# 6 0.0001 -0.0003 0.0001 -0.4571 -0.0002 32.5324
#
#
#
# Elastic Compliance Matrix: (Units=1/GPa)
#
#
# Indices 1 2 3 4 5 6 
#
# 1 0.010635 -0.007514 0.001897 0.000000 0.004322 0.000000
# 2 -0.007514 0.047929 -0.021403 0.000001 -0.012127 0.000001
# 3 0.001897 -0.021403 0.025526 0.000000 0.011216 0.000000
# 4 0.000000 0.000001 0.000000 0.033183 0.000000 0.000466
# 5 0.004322 -0.012127 0.011216 0.000000 0.040959 0.000000
# 6 0.000000 0.000001 0.000000 0.000466 0.000000 0.030745
#
#
# Mechanical properties :
#
#
# Convention : Reuss Voigt Hill
#
# Bulk Modulus (GPa) = 33.27785 38.15027 35.71406
# Shear Modulus (GPa) = 19.76023 28.39051 24.07537
#
# Velocity S-wave (km/s) = 3.16154 3.78957 3.48971
# Velocity P-wave (km/s) = 5.49182 6.20043 5.85686
#
# Compressibility (1/GPa) = 0.03005002
#
# Stress axis : x y z
#
# Youngs Moduli (GPa) = 94.02897 20.86429 39.17562
#
# Poissons Ratio (x) = 0.15677 -0.07432
# Poissons Ratio (y) = 0.70650 0.83849
# Poissons Ratio (z) = -0.17839 0.44657
#
# Static dielectric constant tensor:
#      x y z
#    x 3.786770 0.000000 -0.008210 
#    y 0.000000 3.427250 0.000000 
#    z -0.008210 0.000000 3.565590 
# 
# 
# High freq. dielectric constant tensor:
#      x y z
#    x 1.784110 0.000000 -0.002330 
#    y 0.000000 1.763810 0.000000 
#    z -0.002330 0.000000 1.768370 
# 
# From -- ./inp_files/359987.got.cif
#   From: 2010.06.25/outbox.cif.g09.slc.cpg/sg12_180_cif.got.tgz:359987.got - 2010.06.28 00:19:55.
