data_PCOD8102161
_publ_section_title
;
Structure prediction by ZEFSAII (Michael W. Deem and Ramdas Pophale) SiO2 
 PCOD8102161
Probable space group: C 2/M
;
_chemical_formula_sum "Si O2"
_cell_formula_units_Z 40
_cell_length_a 15.151589
_cell_length_b 8.539739
_cell_length_c 14.157370
_cell_angle_alpha 90.000000
_cell_angle_beta 84.771420
_cell_angle_gamma 90.000000
_cell_volume 1824.208691
_symmetry_space_group_name_H-M "C 2/M"
_symmetry_group_IT_number 12
_symmetry_cell_setting 'monoclinic'
loop_
_space_group_symop_operation_xyz
x,y,z
-x,y,-z
-x,-y,-z
x,-y,z
1/2+x,1/2+y,z
1/2-x,1/2+y,-z
1/2-x,1/2-y,-z
1/2+x,1/2-y,z
loop_
_atom_site_type_symbol
_atom_site_label
_atom_site_fract_x
_atom_site_fract_y
_atom_site_fract_z
Si Si1 0.913312 0.819100 0.107759
Si Si2 0.514739 0.818028 0.606438
Si Si3 0.322339 0.318781 0.311374
Si Si4 0.896165 0.317286 0.917108
Si Si5 0.647770 0.683165 0.271664
O O1 0.848802 0.785566 0.200725
O O2 0.999988 0.712769 0.111095
O O3 0.942932 0.000000 0.101610
O O4 0.864031 0.771590 0.015299
O O5 0.500000 0.770056 0.500000
O O6 0.615383 0.777489 0.623845
O O7 0.449380 0.717954 0.678203
O O8 0.495177 0.000000 0.625665
O O9 0.328627 0.500000 0.338110
O O10 0.221622 0.259482 0.333005
O O11 0.877865 0.500000 0.930529
O O12 0.840898 0.254392 0.833817
O O13 0.662981 0.500000 0.264814
#
# Coordination Sequence:
#
# PCOD8102161 Si02
#       5
#     8   8   8   8   8
#     4  10  20  36  60  91 128 169 214 260 314 375
#     4  11  25  46  71  97 127 163 207 263 325 387
#     4  11  24  42  67  97 130 169 213 263 317 378
#     4  11  21  35  60  91 128 171 215 261 313 374
#     4  12  25  42  66  95 130 171 214 264 316 377
#
# _framework density 21.927316999999999
#
# number of rings (size 3 to 8) (size 9 to 14) (size 15 to 20)
#    0.000    1.000    2.000    6.600    0.000    5.600 
#    0.000    0.000    0.000    0.000    0.000    0.000 
#    0.000    0.000    0.000    0.000    0.000    0.000 
#
# Total GULP energy -248140.525248 kJ/mol
# GULP energy per Si atom -12407.026262 kJ/mol
# Density = 2.187741 g / cm^3
# Si number density = 21.927317 Si / 1000 Ang^3
#
#
#
# Elastic Constant Matrix: (Units=GPa)
#
#
# Indices 1 2 3 4 5 6 
#
# 1 77.7422 5.1998 20.9880 0.0000 31.7908 0.0000
# 2 5.1998 101.1170 35.7078 0.0000 6.8117 0.0000
# 3 20.9880 35.7078 96.3752 0.0000 28.4424 0.0000
# 4 0.0000 0.0000 0.0000 32.5813 0.0000 3.2330
# 5 31.7908 6.8117 28.4424 0.0000 30.1040 0.0000
# 6 0.0000 0.0000 0.0000 3.2330 0.0000 35.8342
#
#
#
# Elastic Compliance Matrix: (Units=1/GPa)
#
#
# Indices 1 2 3 4 5 6 
#
# 1 0.023281 -0.000485 0.003235 0.000000 -0.027532 0.000000
# 2 -0.000485 0.011472 -0.004895 0.000000 0.002541 0.000000
# 3 0.003235 -0.004895 0.016870 0.000000 -0.018248 0.000000
# 4 0.000000 0.000000 0.000000 0.030970 0.000000 -0.002794
# 5 -0.027532 0.002541 -0.018248 0.000000 0.078958 0.000000
# 6 0.000000 0.000000 0.000000 -0.002794 0.000000 0.028158
#
#
# Mechanical properties :
#
#
# Convention : Reuss Voigt Hill
#
# Bulk Modulus (GPa) = 21.12661 44.33620 32.73140
# Shear Modulus (GPa) = 23.83491 33.92648 28.88069
#
# Velocity S-wave (km/s) = 3.30054 3.93774 3.63314
# Velocity P-wave (km/s) = 4.91737 6.39828 5.70607
#
# Compressibility (1/GPa) = 0.04733367
#
# Stress axis : x y z
#
# Youngs Moduli (GPa) = 42.95438 87.17059 59.27509
#
# Poissons Ratio (x) = 0.04227 -0.19175
# Poissons Ratio (y) = 0.02083 0.29013
# Poissons Ratio (z) = -0.13895 0.42667
#
# Static dielectric constant tensor:
#      x y z
#    x 3.827260 0.000000 0.156350 
#    y 0.000000 3.889170 0.000000 
#    z 0.156350 0.000000 4.062110 
# 
# 
# High freq. dielectric constant tensor:
#      x y z
#    x 1.856210 0.000000 0.013090 
#    y 0.000000 1.870980 0.000000 
#    z 0.013090 0.000000 1.862350 
# 
# From -- ./inp_files/211347.got.cif
#   From: 2010.06.25/outbox.cif.g09.slc.cpg/sg12_106_cif.got.tgz:211347.got - 2010.06.28 00:19:55.
