data_PCOD8102127
_publ_section_title
;
Structure prediction by ZEFSAII (Michael W. Deem and Ramdas Pophale) SiO2 
 PCOD8102127
Probable space group: C 2/M
;
_chemical_formula_sum "Si O2"
_cell_formula_units_Z 48
_cell_length_a 14.897721
_cell_length_b 8.456591
_cell_length_c 26.395667
_cell_angle_alpha 90.000000
_cell_angle_beta 45.535668
_cell_angle_gamma 90.000000
_cell_volume 2373.314941
_symmetry_space_group_name_H-M "C 2/M"
_symmetry_group_IT_number 12
_symmetry_cell_setting 'monoclinic'
loop_
_space_group_symop_operation_xyz
x,y,z
-x,y,-z
-x,-y,-z
x,-y,z
1/2+x,1/2+y,z
1/2-x,1/2+y,-z
1/2-x,1/2-y,-z
1/2+x,1/2-y,z
loop_
_atom_site_type_symbol
_atom_site_label
_atom_site_fract_x
_atom_site_fract_y
_atom_site_fract_z
Si Si1 0.726455 0.817291 0.320680
Si Si2 0.248386 0.317779 0.582154
Si Si3 0.177553 0.184442 0.076942
Si Si4 0.630917 0.316478 0.923702
Si Si5 0.909329 0.317843 0.168095
Si Si6 0.938477 0.315938 0.432239
O O1 0.766555 0.789577 0.362622
O O2 0.809131 0.708858 0.251766
O O3 0.582493 0.765630 0.369382
O O4 0.747846 0.000000 0.298365
O O5 0.246321 0.500000 0.599217
O O6 0.131635 0.273863 0.592202
O O7 0.378975 0.281600 0.502005
O O8 0.257393 0.215234 0.095926
O O9 0.045260 0.271088 0.135495
O O10 0.152999 0.000000 0.079153
O O11 0.250000 0.250000 0.000000
O O12 0.655578 0.500000 0.925311
O O13 0.628234 0.287654 0.865056
O O14 0.500000 0.260327 0.000000
O O15 0.909867 0.500000 0.151515
O O16 0.924084 0.500000 0.451356
#
# Coordination Sequence:
#
# PCOD8102127 Si02
#       6
#     8   8   8   8   8   8
#     4  11  23  40  60  84 122 164 204 250 307 371
#     4  10  20  36  60  90 121 156 203 254 302 360
#     4  12  24  41  66  94 123 158 202 252 307 366
#     4  11  23  41  67  94 123 159 201 252 308 367
#     4  12  26  43  63  91 126 164 208 258 313 373
#     4   9  20  38  60  86 119 161 202 246 302 363
#
# _framework density 20.224876999999999
#
# number of rings (size 3 to 8) (size 9 to 14) (size 15 to 20)
#    0.000    1.167    1.667    5.000    0.000    6.000 
#    0.000    5.000    0.000    0.000    0.000    0.000 
#    0.000    0.000    0.000    0.000    0.000    0.000 
#
# Total GULP energy -297803.156563 kJ/mol
# GULP energy per Si atom -12408.464857 kJ/mol
# Density = 2.017884 g / cm^3
# Si number density = 20.224877 Si / 1000 Ang^3
#
#
#
# Elastic Constant Matrix: (Units=GPa)
#
#
# Indices 1 2 3 4 5 6 
#
# 1 110.2793 13.5277 54.5125 -0.0002 4.3107 -0.0017
# 2 13.5277 66.5312 22.1924 -0.0008 -1.6288 -0.0028
# 3 54.5125 22.1924 117.2333 0.0001 0.1681 -0.0001
# 4 -0.0002 -0.0008 0.0001 33.7265 0.0001 2.4378
# 5 4.3107 -1.6288 0.1681 0.0001 16.7071 0.0002
# 6 -0.0017 -0.0028 -0.0001 2.4378 0.0002 35.1494
#
#
#
# Elastic Compliance Matrix: (Units=1/GPa)
#
#
# Indices 1 2 3 4 5 6 
#
# 1 0.011955 -0.000698 -0.005422 0.000000 -0.003098 0.000001
# 2 -0.000698 0.016127 -0.002731 0.000000 0.001780 0.000001
# 3 -0.005422 -0.002731 0.011567 0.000000 0.001016 0.000000
# 4 0.000000 0.000000 0.000000 0.029800 0.000000 -0.002067
# 5 -0.003098 0.001780 0.001016 0.000000 0.060817 0.000000
# 6 0.000001 0.000001 0.000000 -0.002067 0.000000 0.028593
#
#
# Mechanical properties :
#
#
# Convention : Reuss Voigt Hill
#
# Bulk Modulus (GPa) = 45.56556 52.72320 49.14438
# Shear Modulus (GPa) = 27.19210 30.70402 28.94806
#
# Velocity S-wave (km/s) = 3.67070 3.90055 3.78737
# Velocity P-wave (km/s) = 6.36740 6.81255 6.59373
#
# Compressibility (1/GPa) = 0.02194640
#
# Stress axis : x y z
#
# Youngs Moduli (GPa) = 83.64729 62.00801 86.45380
#
# Poissons Ratio (x) = 0.04328 0.46879
# Poissons Ratio (y) = 0.05838 0.23609
# Poissons Ratio (z) = 0.45357 0.16934
#
# Static dielectric constant tensor:
#      x y z
#    x 3.972470 0.000000 -0.064860 
#    y 0.000000 3.711520 0.000000 
#    z -0.064860 0.000000 3.573300 
# 
# 
# High freq. dielectric constant tensor:
#      x y z
#    x 1.802580 0.000000 -0.002100 
#    y 0.000000 1.797270 0.000000 
#    z -0.002100 0.000000 1.784800 
# 
# From -- ./inp_files/360257.got.cif
#   From: 2010.06.25/outbox.cif.g09.slc.cpg/sg12_181_cif.got.tgz:360257.got - 2010.06.28 00:19:55.
