data_PCOD8102864
_publ_section_title
;
Structure prediction by ZEFSAII (Michael W. Deem and Ramdas Pophale) SiO2 
 PCOD8102864
Probable space group: C 2/M
;
_chemical_formula_sum "Si O2"
_cell_formula_units_Z 48
_cell_length_a 16.860682
_cell_length_b 18.195463
_cell_length_c 13.302130
_cell_angle_alpha 90.000000
_cell_angle_beta 31.885699
_cell_angle_gamma 90.000000
_cell_volume 2155.656469
_symmetry_space_group_name_H-M "C 2/M"
_symmetry_group_IT_number 12
_symmetry_cell_setting 'monoclinic'
loop_
_space_group_symop_operation_xyz
x,y,z
-x,y,-z
-x,-y,-z
x,-y,z
1/2+x,1/2+y,z
1/2-x,1/2+y,-z
1/2-x,1/2-y,-z
1/2+x,1/2-y,z
loop_
_atom_site_type_symbol
_atom_site_label
_atom_site_fract_x
_atom_site_fract_y
_atom_site_fract_z
Si Si1 0.155813 0.582972 0.383893
Si Si2 0.041569 0.916054 0.247298
Si Si3 0.414733 0.228961 0.291080
Si Si4 0.580821 0.274883 0.310622
Si Si5 0.191355 0.419584 0.579854
Si Si6 0.354032 0.676988 0.040826
O O1 0.190747 0.500000 0.310911
O O2 0.143242 0.587266 0.516094
O O3 0.296475 0.634820 0.201466
O O4 0.000000 0.610293 0.500000
O O5 0.072691 0.863903 0.309978
O O6 0.868923 0.908651 0.400012
O O7 0.085388 0.000000 0.225743
O O8 0.146409 0.885339 0.045198
O O9 0.250000 0.250000 0.500000
O O10 0.510005 0.235937 0.290015
O O11 0.403387 0.144590 0.262237
O O12 0.481250 0.283235 0.132492
O O13 0.500000 0.250395 0.500000
O O14 0.750361 0.247014 0.129010
O O15 0.144833 0.500000 0.672076
#
# Coordination Sequence:
#
# PCOD8102864 Si02
#       6
#     8   8   8   8   8   8
#     4  10  21  37  59  90 126 159 191 239 302 359
#     4  10  21  38  59  83 113 153 199 243 286 343
#     4  11  20  38  59  85 119 155 194 238 294 349
#     4  11  23  40  60  86 118 151 195 244 292 347
#     4  10  20  37  59  85 119 157 193 238 294 354
#     4  11  21  37  60  87 122 149 196 240 292 355
#
# _framework density 22.266998000000001
#
# number of rings (size 3 to 8) (size 9 to 14) (size 15 to 20)
#    0.000    1.500    3.333    5.000    0.000    1.000 
#    3.000    7.500    0.000    0.000    0.000    2.333 
#    0.000    0.000    0.000    0.000    0.000    0.000 
#
# Total GULP energy -297366.791689 kJ/mol
# GULP energy per Si atom -12390.282987 kJ/mol
# Density = 2.221632 g / cm^3
# Si number density = 22.266998 Si / 1000 Ang^3
#
#
#
# Elastic Constant Matrix: (Units=GPa)
#
#
# Indices 1 2 3 4 5 6 
#
# 1 22.2339 5.2434 -3.6287 -0.0058 -9.5605 0.0007
# 2 5.2434 201.1695 54.5857 -0.0083 -10.2778 0.0039
# 3 -3.6287 54.5857 91.4568 -0.0157 -9.2664 0.0075
# 4 -0.0058 -0.0083 -0.0157 41.7334 0.0111 -7.4529
# 5 -9.5605 -10.2778 -9.2664 0.0111 22.7011 -0.0045
# 6 0.0007 0.0039 0.0075 -7.4529 -0.0045 28.2559
#
#
#
# Elastic Compliance Matrix: (Units=1/GPa)
#
#
# Indices 1 2 3 4 5 6 
#
# 1 0.057483 -0.001799 0.005972 0.000003 0.025832 0.000002
# 2 -0.001799 0.006024 -0.003617 -0.000001 0.000494 0.000000
# 3 0.005972 -0.003617 0.013998 0.000003 0.006591 -0.000001
# 4 0.000003 -0.000001 0.000003 0.025146 -0.000008 0.006633
# 5 0.025832 0.000494 0.006591 -0.000008 0.057844 0.000005
# 6 0.000002 0.000000 -0.000001 0.006633 0.000005 0.037140
#
#
# Mechanical properties :
#
#
# Convention : Reuss Voigt Hill
#
# Bulk Modulus (GPa) = 12.71998 47.47347 30.09672
# Shear Modulus (GPa) = 22.44878 35.78206 29.11542
#
# Velocity S-wave (km/s) = 3.17860 4.01303 3.61994
# Velocity P-wave (km/s) = 4.38135 6.54515 5.56935
#
# Compressibility (1/GPa) = 0.07861648
#
# Stress axis : x y z
#
# Youngs Moduli (GPa) = 17.39649 165.98893 71.44029
#
# Poissons Ratio (x) = 0.29859 -0.42662
# Poissons Ratio (y) = 0.03129 0.25840
# Poissons Ratio (z) = -0.10389 0.60039
#
# Static dielectric constant tensor:
#      x y z
#    x 4.249660 -0.000120 -0.483230 
#    y -0.000120 5.081360 0.000070 
#    z -0.483230 0.000070 4.291110 
# 
# 
# High freq. dielectric constant tensor:
#      x y z
#    x 1.845140 0.000000 -0.015740 
#    y 0.000000 1.905100 0.000000 
#    z -0.015740 0.000000 1.861870 
# 
# From -- ./inp_files/75088.got.cif
#   From: 2010.06.25/outbox.cif.g09.slc.cpg/sg12_38_cif.got.tgz:75088.got - 2010.06.28 00:19:55.
