data_PCOD8102225
_publ_section_title
;
Structure prediction by ZEFSAII (Michael W. Deem and Ramdas Pophale) SiO2 
 PCOD8102225
Probable space group: C 2/M
;
_chemical_formula_sum "Si O2"
_cell_formula_units_Z 64
_cell_length_a 23.948448
_cell_length_b 8.641882
_cell_length_c 15.525883
_cell_angle_alpha 90.000000
_cell_angle_beta 90.348567
_cell_angle_gamma 90.000000
_cell_volume 3213.172031
_symmetry_space_group_name_H-M "C 2/M"
_symmetry_group_IT_number 12
_symmetry_cell_setting 'monoclinic'
loop_
_space_group_symop_operation_xyz
x,y,z
-x,y,-z
-x,-y,-z
x,-y,z
1/2+x,1/2+y,z
1/2-x,1/2+y,-z
1/2-x,1/2-y,-z
1/2+x,1/2-y,z
loop_
_atom_site_type_symbol
_atom_site_label
_atom_site_fract_x
_atom_site_fract_y
_atom_site_fract_z
Si Si1 0.253035 0.318399 0.094467
Si Si2 0.064018 0.818703 0.991224
Si Si3 0.252594 0.816325 0.405053
Si Si4 0.634663 0.683369 0.659793
Si Si5 0.359605 0.680555 0.848523
Si Si6 0.562496 0.315368 0.497675
Si Si7 0.633544 0.817809 0.838467
Si Si8 0.133762 0.181071 0.342026
O O1 0.262095 0.500000 0.087863
O O2 0.196186 0.280154 0.143099
O O3 0.304902 0.247634 0.145354
O O4 0.250000 0.250000 0.000000
O O5 0.091067 0.726512 0.913354
O O6 0.069532 0.000000 0.971828
O O7 0.095328 0.772653 0.079491
O O8 0.000000 0.767722 0.000000
O O9 0.250000 0.750000 0.500000
O O10 0.303135 0.745303 0.352231
O O11 0.196784 0.760024 0.356037
O O12 0.258516 0.000000 0.408438
O O13 0.635686 0.500000 0.663633
O O14 0.595672 0.743338 0.581897
O O15 0.610172 0.748986 0.748866
O O16 0.343559 0.500000 0.855029
O O17 0.386026 0.720193 0.755277
O O18 0.500000 0.248239 0.500000
O O19 0.561519 0.500000 0.495739
O O20 0.592025 0.245255 0.412289
O O21 0.637594 0.000000 0.831764
O O22 0.133131 0.000000 0.359102
#
# Coordination Sequence:
#
# PCOD8102225 Si02
#       8
#     8   8   8   8   8   8   8   8
#     4  12  23  38  62  91 123 156 197 249 306 366
#     4  10  22  40  62  90 121 159 207 255 301 353
#     4  11  20  34  57  85 120 157 197 243 301 363
#     4  11  22  38  61  91 122 154 200 252 304 364
#     4  10  20  36  61  88 122 159 197 246 301 362
#     4   9  18  34  58  87 118 153 199 250 296 346
#     4  12  25  41  62  89 123 164 204 247 306 369
#     4   9  18  33  54  84 115 150 192 238 291 350
#
# _framework density 19.918012000000001
#
# number of rings (size 3 to 8) (size 9 to 14) (size 15 to 20)
#    0.000    1.500    2.500    3.750    0.000    2.250 
#    0.000    4.375    0.000    1.500    0.000    0.000 
#    0.000    0.000    0.000    0.000    0.000    0.000 
#
# Total GULP energy -396875.552678 kJ/mol
# GULP energy per Si atom -12402.361021 kJ/mol
# Density = 1.987268 g / cm^3
# Si number density = 19.918012 Si / 1000 Ang^3
#
#
#
# Elastic Constant Matrix: (Units=GPa)
#
#
# Indices 1 2 3 4 5 6 
#
# 1 150.1642 33.0934 72.2256 0.0000 -4.1255 0.0000
# 2 33.0934 76.0315 38.5138 0.0000 -3.7348 0.0000
# 3 72.2256 38.5138 175.8975 0.0000 -5.0751 0.0000
# 4 0.0000 0.0000 0.0000 27.6260 0.0000 -5.2444
# 5 -4.1255 -3.7348 -5.0751 0.0000 12.0520 0.0000
# 6 0.0000 0.0000 0.0000 -5.2444 0.0000 24.4700
#
#
#
# Elastic Compliance Matrix: (Units=1/GPa)
#
#
# Indices 1 2 3 4 5 6 
#
# 1 0.008626 -0.002166 -0.003039 0.000000 0.001002 0.000000
# 2 -0.002166 0.015465 -0.002409 0.000000 0.003037 0.000000
# 3 -0.003039 -0.002409 0.007500 0.000000 0.001372 0.000000
# 4 0.000000 0.000000 0.000000 0.037733 0.000000 0.008087
# 5 0.001002 0.003037 0.001372 0.000000 0.084835 0.000000
# 6 0.000000 0.000000 0.000000 0.008087 0.000000 0.042600
#
#
# Mechanical properties :
#
#
# Convention : Reuss Voigt Hill
#
# Bulk Modulus (GPa) = 61.11405 76.63986 68.87695
# Shear Modulus (GPa) = 22.99487 30.04695 26.52091
#
# Velocity S-wave (km/s) = 3.40144 3.88820 3.65294
# Velocity P-wave (km/s) = 6.79528 7.66281 7.24205
#
# Compressibility (1/GPa) = 0.01636285
#
# Stress axis : x y z
#
# Youngs Moduli (GPa) = 115.93147 64.66336 133.33495
#
# Poissons Ratio (x) = 0.14006 0.40516
# Poissons Ratio (y) = 0.25111 0.32122
# Poissons Ratio (z) = 0.35228 0.15578
#
# Static dielectric constant tensor:
#      x y z
#    x 3.821180 0.000000 -0.004740 
#    y 0.000000 3.432220 0.000000 
#    z -0.004740 0.000000 3.879790 
# 
# 
# High freq. dielectric constant tensor:
#      x y z
#    x 1.774380 0.000000 -0.001080 
#    y 0.000000 1.753590 0.000000 
#    z -0.001080 0.000000 1.797800 
# 
# From -- ./inp_files/238668.got.cif
#   From: 2010.06.25/outbox.cif.g09.slc.cpg/sg12_120_cif.got.tgz:238668.got - 2010.06.28 00:19:55.
