data_PCOD8102777
_publ_section_title
;
Structure prediction by ZEFSAII (Michael W. Deem and Ramdas Pophale) SiO2 
 PCOD8102777
Probable space group: C 2/M
;
_chemical_formula_sum "Si O2"
_cell_formula_units_Z 64
_cell_length_a 30.886944
_cell_length_b 17.762896
_cell_length_c 9.575618
_cell_angle_alpha 90.000000
_cell_angle_beta 40.607514
_cell_angle_gamma 90.000000
_cell_volume 3419.418890
_symmetry_space_group_name_H-M "C 2/M"
_symmetry_group_IT_number 12
_symmetry_cell_setting 'monoclinic'
loop_
_space_group_symop_operation_xyz
x,y,z
-x,y,-z
-x,-y,-z
x,-y,z
1/2+x,1/2+y,z
1/2-x,1/2+y,-z
1/2-x,1/2-y,-z
1/2+x,1/2-y,z
loop_
_atom_site_type_symbol
_atom_site_label
_atom_site_fract_x
_atom_site_fract_y
_atom_site_fract_z
Si Si1 0.421484 0.202142 0.433987
Si Si2 0.313994 0.087818 0.804900
Si Si3 0.813074 0.412414 0.130488
Si Si4 0.071028 0.304251 0.103623
Si Si5 0.185224 0.088151 0.618436
Si Si6 0.185797 0.087445 0.941636
Si Si7 0.573443 0.307861 0.335264
Si Si8 0.923768 0.204316 0.166368
O O1 0.374868 0.135183 0.597140
O O2 0.495903 0.167976 0.260828
O O3 0.413365 0.280378 0.539547
O O4 0.404889 0.228040 0.317813
O O5 0.250675 0.111335 0.868604
O O6 0.331279 0.000000 0.744263
O O7 0.300013 0.107823 0.000587
O O8 0.825551 0.500000 0.120671
O O9 0.750166 0.385217 0.374752
O O10 0.878628 0.373461 0.032084
O O11 0.078286 0.270091 0.239260
O O12 0.089391 0.237154 0.954105
O O13 0.195764 0.108471 0.755259
O O14 0.122642 0.131330 0.704864
O O15 0.171645 0.000000 0.630301
O O16 0.170322 0.000000 0.997917
O O17 0.124572 0.130155 0.160109
O O18 0.500000 0.343928 0.500000
O O19 0.000000 0.178020 0.000000
#
# Coordination Sequence:
#
# PCOD8102777 Si02
#       8
#     8   8   8   8   8   8   8   8
#     4  10  22  37  58  86 113 147 185 232 282 330
#     4  10  22  39  57  83 116 147 186 231 279 333
#     4  10  22  38  58  84 113 148 189 232 276 329
#     4  10  20  39  58  82 115 144 187 234 277 330
#     4  10  22  40  59  81 112 150 190 229 276 333
#     4  10  22  39  58  82 114 150 187 229 279 333
#     4  10  20  37  59  82 112 144 184 233 278 331
#     4  10  22  39  59  84 113 146 187 232 278 330
#
# _framework density 18.716629999999999
#
# number of rings (size 3 to 8) (size 9 to 14) (size 15 to 20)
#    0.000    2.000    2.500    0.000    3.500    3.000 
#    0.000    1.250    0.000    2.250    0.000    0.000 
#    0.000    0.000    0.000    0.000    0.000    0.000 
#
# Total GULP energy -396844.882441 kJ/mol
# GULP energy per Si atom -12401.402576 kJ/mol
# Density = 1.867403 g / cm^3
# Si number density = 18.716630 Si / 1000 Ang^3
#
#
#
# Elastic Constant Matrix: (Units=GPa)
#
#
# Indices 1 2 3 4 5 6 
#
# 1 103.1846 49.1834 59.1320 0.0000 -16.8507 0.0000
# 2 49.1834 65.6273 61.3622 0.0000 -22.7475 0.0000
# 3 59.1320 61.3622 143.9299 0.0000 -20.6832 0.0000
# 4 0.0000 0.0000 0.0000 38.0735 0.0000 -3.7514
# 5 -16.8507 -22.7475 -20.6832 0.0000 26.2501 0.0000
# 6 0.0000 0.0000 0.0000 -3.7514 0.0000 15.6821
#
#
#
# Elastic Compliance Matrix: (Units=1/GPa)
#
#
# Indices 1 2 3 4 5 6 
#
# 1 0.015545 -0.009475 -0.002360 0.000000 -0.000092 0.000000
# 2 -0.009475 0.037898 -0.009494 0.000000 0.019278 0.000000
# 3 -0.002360 -0.009494 0.011914 0.000000 -0.000355 0.000000
# 4 0.000000 0.000000 0.000000 0.026899 0.000000 0.006435
# 5 -0.000092 0.019278 -0.000355 0.000000 0.054462 0.000000
# 6 0.000000 0.000000 0.000000 0.006435 0.000000 0.065306
#
#
# Mechanical properties :
#
#
# Convention : Reuss Voigt Hill
#
# Bulk Modulus (GPa) = 44.05596 72.45522 58.25559
# Shear Modulus (GPa) = 19.06580 25.53874 22.30227
#
# Velocity S-wave (km/s) = 3.19510 3.69791 3.45567
# Velocity P-wave (km/s) = 6.09927 7.55172 6.86402
#
# Compressibility (1/GPa) = 0.02269840
#
# Stress axis : x y z
#
# Youngs Moduli (GPa) = 64.32783 26.38692 83.93409
#
# Poissons Ratio (x) = 0.25002 0.19810
# Poissons Ratio (y) = 0.60952 0.79687
# Poissons Ratio (z) = 0.15183 0.25052
#
# Static dielectric constant tensor:
#      x y z
#    x 3.557970 0.000000 0.097440 
#    y 0.000000 3.162640 0.000000 
#    z 0.097440 0.000000 3.625580 
# 
# 
# High freq. dielectric constant tensor:
#      x y z
#    x 1.733740 0.000000 0.006170 
#    y 0.000000 1.711300 0.000000 
#    z 0.006170 0.000000 1.741840 
# 
# From -- ./inp_files/112811.got.cif
#   From: 2010.06.25/outbox.cif.g09.slc.cpg/sg12_57_cif.got.tgz:112811.got - 2010.06.28 00:19:55.
