data_PCOD8102398
_publ_section_title
;
Structure prediction by ZEFSAII (Michael W. Deem and Ramdas Pophale) SiO2 
 PCOD8102398
Probable space group: C 2/M
;
_chemical_formula_sum "Si O2"
_cell_formula_units_Z 48
_cell_length_a 17.010870
_cell_length_b 15.211680
_cell_length_c 9.510738
_cell_angle_alpha 90.000000
_cell_angle_beta 86.114906
_cell_angle_gamma 90.000000
_cell_volume 2455.380153
_symmetry_space_group_name_H-M "C 2/M"
_symmetry_group_IT_number 12
_symmetry_cell_setting 'monoclinic'
loop_
_space_group_symop_operation_xyz
x,y,z
-x,y,-z
-x,-y,-z
x,-y,z
1/2+x,1/2+y,z
1/2-x,1/2+y,-z
1/2-x,1/2-y,-z
1/2+x,1/2-y,z
loop_
_atom_site_type_symbol
_atom_site_label
_atom_site_fract_x
_atom_site_fract_y
_atom_site_fract_z
Si Si1 0.673884 0.695453 0.662428
Si Si2 0.016090 0.900240 0.661440
Si Si3 0.580087 0.000000 0.572550
Si Si4 0.344679 0.834202 0.571176
Si Si5 0.054974 0.262317 0.194989
Si Si6 0.888202 0.310002 0.099879
Si Si7 0.421550 0.000000 0.102916
O O1 0.606233 0.622684 0.689726
O O2 0.655960 0.746110 0.520391
O O3 0.758079 0.647747 0.645465
O O4 0.676412 0.762855 0.794514
O O5 0.000000 0.886134 0.500000
O O6 0.956631 0.838095 0.754715
O O7 0.999231 0.000000 0.709732
O O8 0.500000 0.000000 0.500000
O O9 0.631673 0.914960 0.529496
O O10 0.556315 0.000000 0.736870
O O11 0.406681 0.821956 0.689042
O O12 0.971863 0.307407 0.170589
O O13 0.109263 0.259946 0.049613
O O14 0.869294 0.413155 0.075482
O O15 0.500000 0.000000 0.000000
#
# Coordination Sequence:
#
# PCOD8102398 Si02
#       7
#     8   8   4   8   8   8   4
#     4  10  22  40  58  87 118 161 190 239 307 353
#     4  10  20  36  63  87 110 150 202 249 284 343
#     4  12  26  36  64  96 119 152 200 255 296 350
#     4  11  23  38  60  86 126 151 193 246 298 359
#     4  10  20  37  59  88 116 153 200 243 297 354
#     4  10  21  36  61  86 118 162 197 244 298 355
#     4  12  20  36  56  88 122 151 200 247 291 355
#
# _framework density 19.548908000000001
#
# number of rings (size 3 to 8) (size 9 to 14) (size 15 to 20)
#    0.000    1.500    5.000    1.000    3.500    0.667 
#    0.000    6.667    1.833    0.000    0.000    0.000 
#    0.000    0.000    0.000    0.000    0.000    0.000 
#
# Total GULP energy -297653.080866 kJ/mol
# GULP energy per Si atom -12402.211703 kJ/mol
# Density = 1.950441 g / cm^3
# Si number density = 19.548908 Si / 1000 Ang^3
#
#
#
# Elastic Constant Matrix: (Units=GPa)
#
#
# Indices 1 2 3 4 5 6 
#
# 1 58.8907 31.2723 30.0740 0.0000 -12.3677 0.0000
# 2 31.2723 122.8658 46.7587 0.0000 -5.3904 0.0000
# 3 30.0740 46.7587 122.5613 0.0000 -16.3398 0.0000
# 4 0.0000 0.0000 0.0000 33.0877 0.0000 -5.9073
# 5 -12.3677 -5.3904 -16.3398 0.0000 26.0517 0.0000
# 6 0.0000 0.0000 0.0000 -5.9073 0.0000 22.2681
#
#
#
# Elastic Compliance Matrix: (Units=1/GPa)
#
#
# Indices 1 2 3 4 5 6 
#
# 1 0.022352 -0.004278 -0.002789 0.000000 0.007977 0.000000
# 2 -0.004278 0.010343 -0.003145 0.000000 -0.001863 0.000000
# 3 -0.002789 -0.003145 0.010672 0.000000 0.004719 0.000000
# 4 0.000000 0.000000 0.000000 0.031725 0.000000 0.008416
# 5 0.007977 -0.001863 0.004719 0.000000 0.044746 0.000000
# 6 0.000000 0.000000 0.000000 0.008416 0.000000 0.047140
#
#
# Mechanical properties :
#
#
# Convention : Reuss Voigt Hill
#
# Bulk Modulus (GPa) = 43.58447 57.83642 50.71044
# Shear Modulus (GPa) = 25.63451 29.36234 27.49842
#
# Velocity S-wave (km/s) = 3.62512 3.87976 3.75460
# Velocity P-wave (km/s) = 6.31391 7.05123 6.69273
#
# Compressibility (1/GPa) = 0.02294395
#
# Stress axis : x y z
#
# Youngs Moduli (GPa) = 44.73927 96.68633 93.69906
#
# Poissons Ratio (x) = 0.41359 0.26135
# Poissons Ratio (y) = 0.19138 0.29465
# Poissons Ratio (z) = 0.12479 0.30404
#
# Static dielectric constant tensor:
#      x y z
#    x 3.379530 0.000000 -0.172640 
#    y 0.000000 3.663010 0.000000 
#    z -0.172640 0.000000 3.743920 
# 
# 
# High freq. dielectric constant tensor:
#      x y z
#    x 1.733420 0.000000 -0.009400 
#    y 0.000000 1.760420 0.000000 
#    z -0.009400 0.000000 1.772060 
# 
# From -- ./inp_files/73663.got.cif
#   From: 2010.06.25/outbox.cif.g09.slc.cpg/sg12_37_cif.got.tgz:73663.got - 2010.06.28 00:19:55.
