data_PCOD8102803
_publ_section_title
;
Structure prediction by ZEFSAII (Michael W. Deem and Ramdas Pophale) SiO2 
 PCOD8102803
Probable space group: C 2/M
;
_chemical_formula_sum "Si O2"
_cell_formula_units_Z 44
_cell_length_a 18.268723
_cell_length_b 28.121984
_cell_length_c 4.995275
_cell_angle_alpha 90.000000
_cell_angle_beta 59.583453
_cell_angle_gamma 90.000000
_cell_volume 2213.124908
_symmetry_space_group_name_H-M "C 2/M"
_symmetry_group_IT_number 12
_symmetry_cell_setting 'monoclinic'
loop_
_space_group_symop_operation_xyz
x,y,z
-x,y,-z
-x,-y,-z
x,-y,z
1/2+x,1/2+y,z
1/2-x,1/2+y,-z
1/2-x,1/2-y,-z
1/2+x,1/2-y,z
loop_
_atom_site_type_symbol
_atom_site_label
_atom_site_fract_x
_atom_site_fract_y
_atom_site_fract_z
Si Si1 0.302393 0.206766 0.285733
Si Si2 0.904432 0.687278 0.607501
Si Si3 0.229266 0.894480 0.419747
Si Si4 0.169673 0.413089 0.260573
Si Si5 0.057738 0.946377 0.636166
Si Si6 0.060390 0.500000 0.632396
O O1 0.250000 0.250000 0.500000
O O2 0.380096 0.197132 0.345647
O O3 0.240067 0.161948 0.354598
O O4 0.343989 0.217681 0.919653
O O5 0.892914 0.631033 0.673317
O O6 0.000000 0.701882 0.500000
O O7 0.251737 0.903227 0.687107
O O8 0.133426 0.909435 0.540107
O O9 0.290091 0.924784 0.104664
O O10 0.118806 0.454139 0.502936
O O11 0.000000 0.928011 0.500000
O O12 0.092570 0.000000 0.515077
O O13 0.000000 0.946798 0.000000
O O14 0.000000 0.500000 0.500000
O O15 0.000000 0.500000 0.000000
#
# Coordination Sequence:
#
# PCOD8102803 Si02
#       6
#     8   8   8   8   8   4
#     4  10  21  38  59  84 114 146 188 242 291 346
#     4  10  20  37  59  83 112 149 191 231 283 347
#     4  10  21  38  58  81 110 150 191 230 290 347
#     4  10  22  35  56  82 111 153 188 230 274 334
#     4  10  21  36  56  82 111 148 190 243 293 336
#     4  12  24  36  52  82 120 152 188 234 280 320
#
# _framework density 19.881391000000001
#
# number of rings (size 3 to 8) (size 9 to 14) (size 15 to 20)
#    0.000    1.818    0.000    3.818    2.545    2.909 
#    0.000    2.727    0.000    0.000    0.000    0.000 
#    0.000    0.000    0.000    0.000    0.000    0.000 
#
# Total GULP energy -272738.916487 kJ/mol
# GULP energy per Si atom -12397.223477 kJ/mol
# Density = 1.983614 g / cm^3
# Si number density = 19.881391 Si / 1000 Ang^3
#
#
#
# Elastic Constant Matrix: (Units=GPa)
#
#
# Indices 1 2 3 4 5 6 
#
# 1 112.2062 24.2526 23.7682 0.0000 -6.9566 0.0000
# 2 24.2526 79.0212 39.9002 0.0000 -17.3307 0.0000
# 3 23.7682 39.9002 97.1877 0.0000 5.3304 0.0000
# 4 0.0000 0.0000 0.0000 23.6614 0.0000 3.0190
# 5 -6.9566 -17.3307 5.3304 0.0000 38.8386 0.0000
# 6 0.0000 0.0000 0.0000 3.0190 0.0000 20.8656
#
#
#
# Elastic Compliance Matrix: (Units=1/GPa)
#
#
# Indices 1 2 3 4 5 6 
#
# 1 0.009746 -0.001905 -0.001663 0.000000 0.001124 0.000000
# 2 -0.001905 0.019327 -0.007983 0.000000 0.009379 0.000000
# 3 -0.001663 -0.007983 0.014293 0.000000 -0.005822 0.000000
# 4 0.000000 0.000000 0.000000 0.043058 0.000000 -0.006230
# 5 0.001124 0.009379 -0.005822 0.000000 0.030933 0.000000
# 6 0.000000 0.000000 0.000000 -0.006230 0.000000 0.048827
#
#
# Mechanical properties :
#
#
# Convention : Reuss Voigt Hill
#
# Bulk Modulus (GPa) = 49.34955 51.58411 50.46683
# Shear Modulus (GPa) = 25.50481 30.03940 27.77211
#
# Velocity S-wave (km/s) = 3.58557 3.89129 3.74155
# Velocity P-wave (km/s) = 6.48210 6.79645 6.64114
#
# Compressibility (1/GPa) = 0.02026361
#
# Stress axis : x y z
#
# Youngs Moduli (GPa) = 102.60784 51.73987 69.96461
#
# Poissons Ratio (x) = 0.09856 0.11635
# Poissons Ratio (y) = 0.19546 0.55855
# Poissons Ratio (z) = 0.17064 0.41306
#
# Static dielectric constant tensor:
#      x y z
#    x 3.631220 0.000000 0.275910 
#    y 0.000000 3.477230 0.000000 
#    z 0.275910 0.000000 3.714440 
# 
# 
# High freq. dielectric constant tensor:
#      x y z
#    x 1.784930 0.000000 0.016970 
#    y 0.000000 1.752540 0.000000 
#    z 0.016970 0.000000 1.786240 
# 
# From -- ./inp_files/17555.got.cif
#   From: 2010.06.25/outbox.cif.g09.slc.cpg/sg12_9_cif.got.tgz:17555.got - 2010.06.28 00:19:55.
