data_PCOD8102273
_publ_section_title
;
Structure prediction by ZEFSAII (Michael W. Deem and Ramdas Pophale) SiO2 
 PCOD8102273
Probable space group: C 2/M
;
_chemical_formula_sum "Si O2"
_cell_formula_units_Z 64
_cell_length_a 19.122538
_cell_length_b 8.988990
_cell_length_c 30.730560
_cell_angle_alpha 90.000000
_cell_angle_beta 142.546697
_cell_angle_gamma 90.000000
_cell_volume 3212.272330
_symmetry_space_group_name_H-M "C 2/M"
_symmetry_group_IT_number 12
_symmetry_cell_setting 'monoclinic'
loop_
_space_group_symop_operation_xyz
x,y,z
-x,y,-z
-x,-y,-z
x,-y,z
1/2+x,1/2+y,z
1/2-x,1/2+y,-z
1/2-x,1/2-y,-z
1/2+x,1/2-y,z
loop_
_atom_site_type_symbol
_atom_site_label
_atom_site_fract_x
_atom_site_fract_y
_atom_site_fract_z
Si Si1 0.009520 0.175604 0.216034
Si Si2 0.239032 0.830583 0.775232
Si Si3 0.079741 0.170832 0.000157
Si Si4 0.495898 0.830697 0.874318
Si Si5 0.181910 0.825023 0.505415
Si Si6 0.758856 0.325318 0.639355
Si Si7 0.809588 0.670173 0.162763
Si Si8 0.575825 0.675739 0.617902
O O1 0.964741 0.236582 0.147790
O O2 0.133688 0.236821 0.289300
O O3 0.918984 0.227402 0.207521
O O4 0.014791 0.000000 0.217188
O O5 0.359098 0.819130 0.809744
O O6 0.243998 0.720111 0.818085
O O7 0.141087 0.774272 0.693861
O O8 0.216441 0.000000 0.779501
O O9 0.058883 0.269911 0.947860
O O10 0.047440 0.000000 0.974026
O O11 0.212917 0.188754 0.078219
O O12 0.000000 0.230506 0.000000
O O13 0.535859 0.000000 0.887266
O O14 0.250000 0.750000 0.500000
O O15 0.244772 0.788188 0.581667
O O16 0.052763 0.757664 0.444402
O O17 0.178429 0.000000 0.494823
O O18 0.780033 0.500000 0.657871
O O19 0.645369 0.270561 0.609454
O O20 0.850160 0.500000 0.186232
O O21 0.567043 0.500000 0.611186
#
# Coordination Sequence:
#
# PCOD8102273 Si02
#       8
#     8   8   8   8   8   8   8   8
#     4  12  26  42  62  89 124 162 204 255 310 364
#     4  10  20  36  61  92 123 157 202 253 300 360
#     4  10  21  39  62  90 123 161 203 252 306 362
#     4  11  22  39  65  93 123 159 203 253 305 365
#     4  10  22  38  61  91 125 162 200 246 300 357
#     4  10  20  40  65  89 118 160 209 250 297 360
#     4  11  24  41  62  88 124 162 202 252 307 366
#     4   9  18  37  63  89 119 158 204 247 293 355
#
# _framework density 19.923591999999999
#
# number of rings (size 3 to 8) (size 9 to 14) (size 15 to 20)
#    0.000    1.625    2.500    2.250    1.750    4.250 
#    0.000    0.625    0.000    1.500    0.000    0.000 
#    0.000    0.000    0.000    0.000    0.000    0.000 
#
# Total GULP energy -396931.854762 kJ/mol
# GULP energy per Si atom -12404.120461 kJ/mol
# Density = 1.987824 g / cm^3
# Si number density = 19.923592 Si / 1000 Ang^3
#
#
#
# Elastic Constant Matrix: (Units=GPa)
#
#
# Indices 1 2 3 4 5 6 
#
# 1 93.7323 41.2748 31.6698 0.0000 -0.2253 0.0001
# 2 41.2748 93.2868 46.3936 0.0001 -7.0108 -0.0002
# 3 31.6698 46.3936 79.4878 0.0000 -8.5816 0.0000
# 4 0.0000 0.0001 0.0000 26.6957 0.0000 -3.1642
# 5 -0.2253 -7.0108 -8.5816 0.0000 30.7191 0.0000
# 6 0.0001 -0.0002 0.0000 -3.1642 0.0000 33.7486
#
#
#
# Elastic Compliance Matrix: (Units=1/GPa)
#
#
# Indices 1 2 3 4 5 6 
#
# 1 0.013743 -0.004785 -0.002877 0.000000 -0.001795 0.000000
# 2 -0.004785 0.016800 -0.007722 0.000000 0.001642 0.000000
# 3 -0.002877 -0.007722 0.018602 0.000000 0.003413 0.000000
# 4 0.000000 0.000000 0.000000 0.037880 0.000000 0.003552
# 5 -0.001795 0.001642 0.003413 0.000000 0.033868 0.000000
# 6 0.000000 0.000000 0.000000 0.003552 0.000000 0.029964
#
#
# Mechanical properties :
#
#
# Convention : Reuss Voigt Hill
#
# Bulk Modulus (GPa) = 54.41083 56.13150 55.27117
# Shear Modulus (GPa) = 26.63089 28.04390 27.33739
#
# Velocity S-wave (km/s) = 3.65999 3.75583 3.70822
# Velocity P-wave (km/s) = 6.72531 6.85878 6.79237
#
# Compressibility (1/GPa) = 0.01837869
#
# Stress axis : x y z
#
# Youngs Moduli (GPa) = 72.76217 59.52209 53.75723
#
# Poissons Ratio (x) = 0.28482 0.15464
# Poissons Ratio (y) = 0.34817 0.41511
# Poissons Ratio (z) = 0.20931 0.45963
#
# Static dielectric constant tensor:
#      x y z
#    x 3.683300 0.000000 0.068770 
#    y 0.000000 3.449710 0.000000 
#    z 0.068770 0.000000 3.717810 
# 
# 
# High freq. dielectric constant tensor:
#      x y z
#    x 1.784790 0.000000 -0.001600 
#    y 0.000000 1.758320 0.000000 
#    z -0.001600 0.000000 1.786470 
# 
# From -- ./inp_files/378398.got.cif
#   From: 2010.06.25/outbox.cif.g09.slc.cpg/sg12_190_cif.got.tgz:378398.got - 2010.06.28 00:19:55.
