data_PCOD8102408
_publ_section_title
;
Structure prediction by ZEFSAII (Michael W. Deem and Ramdas Pophale) SiO2 
 PCOD8102408
Probable space group: C 2/M
;
_chemical_formula_sum "Si O2"
_cell_formula_units_Z 56
_cell_length_a 27.778138
_cell_length_b 13.841235
_cell_length_c 11.877442
_cell_angle_alpha 90.000000
_cell_angle_beta 40.376780
_cell_angle_gamma 90.000000
_cell_volume 2958.348675
_symmetry_space_group_name_H-M "C 2/M"
_symmetry_group_IT_number 12
_symmetry_cell_setting 'monoclinic'
loop_
_space_group_symop_operation_xyz
x,y,z
-x,y,-z
-x,-y,-z
x,-y,z
1/2+x,1/2+y,z
1/2-x,1/2+y,-z
1/2-x,1/2-y,-z
1/2+x,1/2-y,z
loop_
_atom_site_type_symbol
_atom_site_label
_atom_site_fract_x
_atom_site_fract_y
_atom_site_fract_z
Si Si1 0.459952 0.390307 0.689751
Si Si2 0.711767 0.612474 0.031944
Si Si3 0.074483 0.780032 0.624060
Si Si4 0.810455 0.270181 0.297725
Si Si5 0.585936 0.610846 0.822504
Si Si6 0.071318 0.390707 0.796243
Si Si7 0.278098 0.271809 0.768734
O O1 0.500000 0.379985 0.500000
O O2 0.468564 0.500000 0.720022
O O3 0.374440 0.361752 0.830854
O O4 0.496823 0.316790 0.711897
O O5 0.728496 0.500000 0.990316
O O6 0.737093 0.646621 0.110672
O O7 0.759091 0.666504 0.852189
O O8 0.103449 0.857929 0.663540
O O9 0.062387 0.676023 0.702433
O O10 0.135505 0.771735 0.418022
O O11 0.750000 0.250000 0.500000
O O12 0.863248 0.176048 0.186292
O O13 0.857891 0.361444 0.254979
O O14 0.773113 0.296268 0.246453
O O15 0.607327 0.500000 0.804467
O O16 0.500000 0.632159 0.000000
O O17 0.081627 0.500000 0.735641
O O18 0.000000 0.377943 0.000000
#
# Coordination Sequence:
#
# PCOD8102408 Si02
#       7
#     8   8   8   8   8   8   8
#     4  10  20  36  63  90 111 145 191 243 304 355
#     4  10  24  42  60  87 121 158 203 249 294 351
#     4  11  20  38  60  86 120 153 194 245 293 356
#     4  11  21  39  59  89 120 155 193 243 300 355
#     4  10  22  37  57  91 125 153 187 238 306 367
#     4  10  23  41  59  82 115 160 203 237 284 351
#     4  11  23  39  59  88 123 161 196 239 303 352
#
# _framework density 18.929480000000002
#
# number of rings (size 3 to 8) (size 9 to 14) (size 15 to 20)
#    0.000    1.571    4.286    2.143    4.000    2.857 
#    0.000    0.000    0.000    0.429    0.000    0.000 
#    0.000    0.000    0.000    0.000    0.000    0.000 
#
# Total GULP energy -347274.374648 kJ/mol
# GULP energy per Si atom -12402.656237 kJ/mol
# Density = 1.888640 g / cm^3
# Si number density = 18.929480 Si / 1000 Ang^3
#
#
#
# Elastic Constant Matrix: (Units=GPa)
#
#
# Indices 1 2 3 4 5 6 
#
# 1 123.2489 43.2379 22.0781 0.0000 0.2121 0.0000
# 2 43.2379 107.5142 24.3092 0.0000 -4.9649 0.0000
# 3 22.0781 24.3092 86.1881 0.0000 -2.7384 0.0000
# 4 0.0000 0.0000 0.0000 26.9583 0.0000 -0.4101
# 5 0.2121 -4.9649 -2.7384 0.0000 28.2696 0.0000
# 6 0.0000 0.0000 0.0000 -0.4101 0.0000 14.2020
#
#
#
# Elastic Compliance Matrix: (Units=1/GPa)
#
#
# Indices 1 2 3 4 5 6 
#
# 1 0.009637 -0.003579 -0.001486 0.000000 -0.000845 0.000000
# 2 -0.003579 0.011325 -0.002220 0.000000 0.001801 0.000000
# 3 -0.001486 -0.002220 0.012636 0.000000 0.000845 0.000000
# 4 0.000000 0.000000 0.000000 0.037111 0.000000 0.001071
# 5 -0.000845 0.001801 0.000845 0.000000 0.035778 0.000000
# 6 0.000000 0.000000 0.000000 0.001071 0.000000 0.070444
#
#
# Mechanical properties :
#
#
# Convention : Reuss Voigt Hill
#
# Bulk Modulus (GPa) = 52.55290 55.13351 53.84320
# Shear Modulus (GPa) = 25.27245 29.04103 27.15674
#
# Velocity S-wave (km/s) = 3.65784 3.92110 3.79176
# Velocity P-wave (km/s) = 6.75740 7.04904 6.90476
#
# Compressibility (1/GPa) = 0.01902845
#
# Stress axis : x y z
#
# Youngs Moduli (GPa) = 103.76962 88.29685 79.13686
#
# Poissons Ratio (x) = 0.31597 0.11760
# Poissons Ratio (y) = 0.37134 0.17572
# Poissons Ratio (z) = 0.15421 0.19606
#
# Static dielectric constant tensor:
#      x y z
#    x 3.586540 0.000000 -0.070140 
#    y 0.000000 3.503620 0.000000 
#    z -0.070140 0.000000 3.564220 
# 
# 
# High freq. dielectric constant tensor:
#      x y z
#    x 1.735480 0.000000 -0.002290 
#    y 0.000000 1.730510 0.000000 
#    z -0.002290 0.000000 1.745890 
# 
# From -- ./inp_files/183491.got.cif
#   From: 2010.06.25/outbox.cif.g09.slc.cpg/sg12_92_cif.got.tgz:183491.got - 2010.06.28 00:19:55.
