data_PCOD8102668
_publ_section_title
;
Structure prediction by ZEFSAII (Michael W. Deem and Ramdas Pophale) SiO2 
 PCOD8102668
Probable space group: C 2/M
;
_chemical_formula_sum "Si O2"
_cell_formula_units_Z 48
_cell_length_a 14.411463
_cell_length_b 8.660483
_cell_length_c 28.726762
_cell_angle_alpha 90.000000
_cell_angle_beta 137.911683
_cell_angle_gamma 90.000000
_cell_volume 2403.200932
_symmetry_space_group_name_H-M "C 2/M"
_symmetry_group_IT_number 12
_symmetry_cell_setting 'monoclinic'
loop_
_space_group_symop_operation_xyz
x,y,z
-x,y,-z
-x,-y,-z
x,-y,z
1/2+x,1/2+y,z
1/2-x,1/2+y,-z
1/2-x,1/2-y,-z
1/2+x,1/2-y,z
loop_
_atom_site_type_symbol
_atom_site_label
_atom_site_fract_x
_atom_site_fract_y
_atom_site_fract_z
Si Si1 0.920829 0.819125 0.347589
Si Si2 0.881057 0.679162 0.991387
Si Si3 0.090381 0.677803 0.890685
Si Si4 0.629618 0.820150 0.353236
Si Si5 0.136423 0.178596 0.256718
Si Si6 0.854271 0.178703 0.503433
O O1 0.783184 0.720726 0.288655
O O2 0.024272 0.782400 0.343835
O O3 0.990777 0.767644 0.423806
O O4 0.882760 0.000000 0.332649
O O5 0.844872 0.500000 0.969884
O O6 0.744086 0.778555 0.930855
O O7 0.931403 0.708671 0.062677
O O8 0.000000 0.734396 0.000000
O O9 0.062899 0.500000 0.867943
O O10 0.981883 0.785798 0.824390
O O11 0.611706 0.780661 0.293037
O O12 0.791905 0.785556 0.428805
O O13 0.595651 0.000000 0.348738
O O14 0.131868 0.000000 0.268542
O O15 0.750000 0.250000 0.500000
O O16 0.854012 0.000000 0.513476
#
# Coordination Sequence:
#
# PCOD8102668 Si02
#       6
#     8   8   8   8   8   8
#     4  10  20  37  58  82 112 148 190 237 292 348
#     4   9  19  38  64  90 115 145 180 219 271 334
#     4  10  21  38  59  85 117 148 183 230 277 327
#     4  10  20  37  58  82 111 146 191 241 293 346
#     4  12  25  39  55  80 116 157 196 236 283 334
#     4   8  16  31  54  79 106 141 184 237 290 342
#
# _framework density 19.973361000000001
#
# number of rings (size 3 to 8) (size 9 to 14) (size 15 to 20)
#    0.000    2.167    0.000    3.000    0.000    4.333 
#    0.000    8.333    0.000    0.000    0.000    0.000 
#    0.000    0.000    0.000    0.000    0.000    0.000 
#
# Total GULP energy -297434.149307 kJ/mol
# GULP energy per Si atom -12393.089554 kJ/mol
# Density = 1.992790 g / cm^3
# Si number density = 19.973361 Si / 1000 Ang^3
#
#
#
# Elastic Constant Matrix: (Units=GPa)
#
#
# Indices 1 2 3 4 5 6 
#
# 1 103.1952 16.5544 43.5600 0.0000 6.2922 0.0000
# 2 16.5544 53.9175 32.0827 0.0000 4.9548 0.0000
# 3 43.5600 32.0827 121.5442 0.0000 10.3502 0.0000
# 4 0.0000 0.0000 0.0000 30.3800 0.0000 2.4609
# 5 6.2922 4.9548 10.3502 0.0000 23.4256 0.0000
# 6 0.0000 0.0000 0.0000 2.4609 0.0000 27.9021
#
#
#
# Elastic Compliance Matrix: (Units=1/GPa)
#
#
# Indices 1 2 3 4 5 6 
#
# 1 0.011524 -0.001223 -0.003705 0.000000 -0.001200 0.000000
# 2 -0.001223 0.022239 -0.005257 0.000000 -0.002052 0.000000
# 3 -0.003705 -0.005257 0.011184 0.000000 -0.002835 0.000000
# 4 0.000000 0.000000 0.000000 0.033153 0.000000 -0.002924
# 5 -0.001200 -0.002052 -0.002835 0.000000 0.044697 0.000000
# 6 0.000000 0.000000 0.000000 -0.002924 0.000000 0.036097
#
#
# Mechanical properties :
#
#
# Convention : Reuss Voigt Hill
#
# Bulk Modulus (GPa) = 40.68916 51.45013 46.06964
# Shear Modulus (GPa) = 26.67271 28.77220 27.72246
#
# Velocity S-wave (km/s) = 3.65830 3.79955 3.72959
# Velocity P-wave (km/s) = 6.18548 6.71298 6.45462
#
# Compressibility (1/GPa) = 0.02457657
#
# Stress axis : x y z
#
# Youngs Moduli (GPa) = 86.77818 44.96575 89.41147
#
# Poissons Ratio (x) = 0.05501 0.33126
# Poissons Ratio (y) = 0.10616 0.47004
# Poissons Ratio (z) = 0.32150 0.23638
#
# Static dielectric constant tensor:
#      x y z
#    x 3.441660 0.000000 0.044660 
#    y 0.000000 3.636130 0.000000 
#    z 0.044660 0.000000 3.918940 
# 
# 
# High freq. dielectric constant tensor:
#      x y z
#    x 1.766900 0.000000 0.003490 
#    y 0.000000 1.781200 0.000000 
#    z 0.003490 0.000000 1.788250 
# 
# From -- ./inp_files/360335.got.cif
#   From: 2010.06.25/outbox.cif.g09.slc.cpg/sg12_181_cif.got.tgz:360335.got - 2010.06.28 00:19:55.
