data_PCOD8102813
_publ_section_title
;
Structure prediction by ZEFSAII (Michael W. Deem and Ramdas Pophale) SiO2 
 PCOD8102813
Probable space group: C 2/M
;
_chemical_formula_sum "Si O2"
_cell_formula_units_Z 64
_cell_length_a 18.700596
_cell_length_b 19.066193
_cell_length_c 19.092287
_cell_angle_alpha 90.000000
_cell_angle_beta 30.487545
_cell_angle_gamma 90.000000
_cell_volume 3453.710652
_symmetry_space_group_name_H-M "C 2/M"
_symmetry_group_IT_number 12
_symmetry_cell_setting 'monoclinic'
loop_
_space_group_symop_operation_xyz
x,y,z
-x,y,-z
-x,-y,-z
x,-y,z
1/2+x,1/2+y,z
1/2-x,1/2+y,-z
1/2-x,1/2-y,-z
1/2+x,1/2-y,z
loop_
_atom_site_type_symbol
_atom_site_label
_atom_site_fract_x
_atom_site_fract_y
_atom_site_fract_z
Si Si1 0.398390 0.658101 0.274050
Si Si2 0.048314 0.076610 0.036715
Si Si3 0.876990 0.578850 0.947232
Si Si4 0.591590 0.822961 0.578852
Si Si5 0.433365 0.319143 0.479692
Si Si6 0.113088 0.316714 0.725228
Si Si7 0.065144 0.916441 0.258387
Si Si8 0.849717 0.579196 0.804878
O O1 0.429436 0.618406 0.176801
O O2 0.231771 0.651589 0.422751
O O3 0.443501 0.737787 0.220457
O O4 0.481916 0.623435 0.267484
O O5 0.066376 0.000000 0.057462
O O6 0.200418 0.113851 0.910441
O O7 0.000000 0.067471 0.000000
O O8 0.922382 0.500000 0.930857
O O9 0.857067 0.583544 0.881647
O O10 0.003208 0.632714 0.858779
O O11 0.731931 0.599331 0.108889
O O12 0.544603 0.746595 0.591358
O O13 0.626438 0.827691 0.631176
O O14 0.467673 0.876509 0.665350
O O15 0.500000 0.305526 0.500000
O O16 0.265863 0.331661 0.630395
O O17 0.510430 0.385997 0.378846
O O18 0.035622 0.000000 0.280277
O O19 0.865014 0.500000 0.764359
#
# Coordination Sequence:
#
# PCOD8102813 Si02
#       8
#     8   8   8   8   8   8   8   8
#     4  11  19  35  59  84 111 144 193 233 271 335
#     4  10  21  36  52  77 117 153 182 228 285 338
#     4   9  19  35  57  86 113 141 187 236 278 331
#     4  10  20  37  59  83 116 146 187 237 283 330
#     4  11  23  40  58  82 117 152 187 236 289 337
#     4  10  20  38  59  86 114 147 187 236 285 333
#     4  11  21  36  59  86 112 147 194 237 278 334
#     4   9  18  32  53  83 114 144 183 229 280 334
#
# _framework density 18.530794
#
# number of rings (size 3 to 8) (size 9 to 14) (size 15 to 20)
#    0.000    1.875    3.750    1.125    0.000    5.250 
#    0.000    0.625    0.000    4.125    0.000    0.000 
#    0.000    0.000    0.000    0.000    0.000    0.000 
#
# Total GULP energy -396676.963510 kJ/mol
# GULP energy per Si atom -12396.155110 kJ/mol
# Density = 1.848862 g / cm^3
# Si number density = 18.530794 Si / 1000 Ang^3
#
#
#
# Elastic Constant Matrix: (Units=GPa)
#
#
# Indices 1 2 3 4 5 6 
#
# 1 63.7350 29.4300 39.8767 -0.0003 -10.8841 0.0022
# 2 29.4300 103.6279 75.9990 0.0055 -12.2630 -0.0089
# 3 39.8767 75.9990 115.1160 0.0150 -21.4692 -0.0148
# 4 -0.0003 0.0055 0.0150 30.9364 -0.0049 -7.7740
# 5 -10.8841 -12.2630 -21.4692 -0.0049 19.9243 0.0024
# 6 0.0022 -0.0089 -0.0148 -7.7740 0.0024 17.3180
#
#
#
# Elastic Compliance Matrix: (Units=1/GPa)
#
#
# Indices 1 2 3 4 5 6 
#
# 1 0.020432 -0.001350 -0.005331 0.000002 0.004586 -0.000008
# 2 -0.001350 0.018878 -0.012472 0.000002 -0.002558 0.000001
# 3 -0.005331 -0.012472 0.021016 -0.000004 0.012057 0.000009
# 4 0.000002 0.000002 -0.000004 0.036434 0.000005 0.016355
# 5 0.004586 -0.002558 0.012057 0.000005 0.064113 0.000002
# 6 -0.000008 0.000001 0.000009 0.016355 0.000002 0.065085
#
#
# Mechanical properties :
#
#
# Convention : Reuss Voigt Hill
#
# Bulk Modulus (GPa) = 45.41532 63.67670 54.54601
# Shear Modulus (GPa) = 18.40905 22.78061 20.59483
#
# Velocity S-wave (km/s) = 3.15529 3.51000 3.33736
# Velocity P-wave (km/s) = 6.15107 7.13190 6.65957
#
# Compressibility (1/GPa) = 0.02201900
#
# Stress axis : x y z
#
# Youngs Moduli (GPa) = 48.94266 52.97279 47.58173
#
# Poissons Ratio (x) = 0.07153 0.25366
# Poissons Ratio (y) = 0.06608 0.59345
# Poissons Ratio (z) = 0.26092 0.66069
#
# Static dielectric constant tensor:
#      x y z
#    x 3.089690 0.000070 0.129680 
#    y 0.000070 3.745170 -0.000260 
#    z 0.129680 -0.000260 2.493780 
# 
# 
# High freq. dielectric constant tensor:
#      x y z
#    x 1.696260 0.000000 -0.014470 
#    y 0.000000 1.722530 0.000000 
#    z -0.014470 0.000000 1.726110 
# 
# From -- ./inp_files/279079.got.cif
#   From: 2010.06.25/outbox.cif.g09.slc.cpg/sg12_140_cif.got.tgz:279079.got - 2010.06.28 00:19:55.
