data_PCOD8102358
_publ_section_title
;
Structure prediction by ZEFSAII (Michael W. Deem and Ramdas Pophale) SiO2 
 PCOD8102358
Probable space group: C 2/M
;
_chemical_formula_sum "Si O2"
_cell_formula_units_Z 40
_cell_length_a 9.238360
_cell_length_b 15.690990
_cell_length_c 12.273297
_cell_angle_alpha 90.000000
_cell_angle_beta 82.121508
_cell_angle_gamma 90.000000
_cell_volume 1762.331854
_symmetry_space_group_name_H-M "C 2/M"
_symmetry_group_IT_number 12
_symmetry_cell_setting 'monoclinic'
loop_
_space_group_symop_operation_xyz
x,y,z
-x,y,-z
-x,-y,-z
x,-y,z
1/2+x,1/2+y,z
1/2-x,1/2+y,-z
1/2-x,1/2-y,-z
1/2+x,1/2-y,z
loop_
_atom_site_type_symbol
_atom_site_label
_atom_site_fract_x
_atom_site_fract_y
_atom_site_fract_z
Si Si1 0.165207 0.170500 0.954868
Si Si2 0.628191 0.398606 0.726678
Si Si3 0.699848 0.601921 0.298433
Si Si4 0.164713 0.600967 0.492395
Si Si5 0.868049 0.593934 0.078276
O O1 0.183817 0.155713 0.824187
O O2 0.250000 0.250000 0.000000
O O3 0.230310 0.088235 0.010446
O O4 0.000000 0.180697 0.000000
O O5 0.632529 0.500000 0.749631
O O6 0.465763 0.368808 0.708243
O O7 0.740552 0.371729 0.620963
O O8 0.704871 0.500000 0.293370
O O9 0.754393 0.637858 0.408668
O O10 0.813222 0.639359 0.195470
O O11 0.158432 0.500000 0.503368
O O12 0.000000 0.637867 0.500000
O O13 0.925007 0.500000 0.102432
O O14 0.000000 0.643081 0.000000
#
# Coordination Sequence:
#
# PCOD8102358 Si02
#       5
#     8   8   8   8   8
#     4  12  25  42  60  85 118 164 206 253 310 370
#     4  10  20  36  62  91 121 158 202 249 299 361
#     4   9  17  32  55  86 122 156 190 237 296 355
#     4   9  18  31  53  91 129 156 189 243 303 356
#     4  10  21  36  60  92 122 154 198 253 305 363
#
# _framework density 22.697199999999999
#
# number of rings (size 3 to 8) (size 9 to 14) (size 15 to 20)
#    0.000    2.000    2.000    1.800    2.800    3.200 
#    0.000    0.000    0.000    1.200    0.000    0.000 
#    0.000    0.000    0.000    0.000    0.000    0.000 
#
# Total GULP energy -247801.206806 kJ/mol
# GULP energy per Si atom -12390.060340 kJ/mol
# Density = 2.264554 g / cm^3
# Si number density = 22.697200 Si / 1000 Ang^3
#
#
#
# Elastic Constant Matrix: (Units=GPa)
#
#
# Indices 1 2 3 4 5 6 
#
# 1 166.7145 25.5845 112.7806 0.0000 -13.9498 0.0000
# 2 25.5845 28.8566 27.3768 0.0000 0.9491 0.0000
# 3 112.7806 27.3768 251.4176 0.0000 -5.2075 0.0000
# 4 0.0000 0.0000 0.0000 13.6232 0.0000 15.6639
# 5 -13.9498 0.9491 -5.2075 0.0000 55.8453 0.0000
# 6 0.0000 0.0000 0.0000 15.6639 0.0000 -2.4121
#
#
#
# Elastic Compliance Matrix: (Units=1/GPa)
#
#
# Indices 1 2 3 4 5 6 
#
# 1 0.009388 -0.004949 -0.003629 0.000000 0.002091 0.000000
# 2 -0.004949 0.041317 -0.002324 0.000000 -0.002155 0.000000
# 3 -0.003629 -0.002324 0.005852 0.000000 -0.000321 0.000000
# 4 0.000000 0.000000 0.000000 0.008670 0.000000 0.056301
# 5 0.002091 -0.002155 -0.000321 0.000000 0.018436 0.000000
# 6 0.000000 0.000000 0.000000 0.056301 0.000000 -0.048966
#
#
# Mechanical properties :
#
#
# Convention : Reuss Voigt Hill
#
# Bulk Modulus (GPa) = 28.77409 86.49696 57.63553
# Shear Modulus (GPa) = 73.43879 32.16105 52.79992
#
# Velocity S-wave (km/s) = 5.69439 3.76834 4.82838
# Velocity P-wave (km/s) = 7.47929 7.55815 7.51882
#
# Compressibility (1/GPa) = 0.03475348
#
# Stress axis : x y z
#
# Youngs Moduli (GPa) = 106.52320 24.20284 170.89211
#
# Poissons Ratio (x) = 0.11978 0.62015
# Poissons Ratio (y) = 0.52720 0.39709
# Poissons Ratio (z) = 0.38656 0.05624
#
# Static dielectric constant tensor:
#      x y z
#    x 4.295770 0.000000 -0.122170 
#    y 0.000000 3.642560 0.000000 
#    z -0.122170 0.000000 4.164220 
# 
# 
# High freq. dielectric constant tensor:
#      x y z
#    x 1.908810 0.000000 -0.004840 
#    y 0.000000 1.849870 0.000000 
#    z -0.004840 0.000000 1.910590 
# 
# From -- ./inp_files/118937.got.cif
#   From: 2010.06.25/outbox.cif.g09.slc.cpg/sg12_60_cif.got.tgz:118937.got - 2010.06.28 00:19:55.
