data_PCOD8102157
_publ_section_title
;
Structure prediction by ZEFSAII (Michael W. Deem and Ramdas Pophale) SiO2 
 PCOD8102157
Probable space group: C 2/M
;
_chemical_formula_sum "Si O2"
_cell_formula_units_Z 64
_cell_length_a 23.653760
_cell_length_b 13.949331
_cell_length_c 7.757128
_cell_angle_alpha 90.000000
_cell_angle_beta 98.436333
_cell_angle_gamma 90.000000
_cell_volume 2531.801367
_symmetry_space_group_name_H-M "C 2/M"
_symmetry_group_IT_number 12
_symmetry_cell_setting 'monoclinic'
loop_
_space_group_symop_operation_xyz
x,y,z
-x,y,-z
-x,-y,-z
x,-y,z
1/2+x,1/2+y,z
1/2-x,1/2+y,-z
1/2-x,1/2-y,-z
1/2+x,1/2-y,z
loop_
_atom_site_type_symbol
_atom_site_label
_atom_site_fract_x
_atom_site_fract_y
_atom_site_fract_z
Si Si1 0.777473 0.112631 0.620863
Si Si2 0.655112 0.890889 0.644060
Si Si3 0.064626 0.104872 0.469451
Si Si4 0.154215 0.112940 0.021728
Si Si5 0.417879 0.260635 0.229537
Si Si6 0.758972 0.886619 0.237125
Si Si7 0.131334 0.390167 0.238415
Si Si8 0.962878 0.239413 0.825169
O O1 0.718439 0.155564 0.669315
O O2 0.788411 0.150194 0.430438
O O3 0.766603 0.000000 0.609695
O O4 0.828324 0.138892 0.774393
O O5 0.619408 0.834571 0.771712
O O6 0.627219 0.882217 0.443091
O O7 0.656036 0.000000 0.709328
O O8 0.099214 0.166844 0.623898
O O9 0.070509 0.153118 0.284040
O O10 0.000000 0.091439 0.500000
O O11 0.094412 0.000000 0.469196
O O12 0.098859 0.179922 0.955057
O O13 0.204450 0.145487 0.911846
O O14 0.139960 0.000000 0.993401
O O15 0.484244 0.228630 0.276653
O O16 0.692884 0.849257 0.199435
O O17 0.754299 0.000000 0.241628
O O18 0.122316 0.500000 0.175247
O O19 0.078813 0.326973 0.140529
O O20 0.000000 0.200069 0.000000
#
# Coordination Sequence:
#
# PCOD8102157 Si02
#       8
#     8   8   8   8   8   8   8   8
#     4   8  16  33  55  84 123 160 199 249 302 369
#     4   9  18  35  61  88 118 160 204 253 310 363
#     4   9  19  39  63  80 107 153 204 256 305 354
#     4  10  20  36  60  91 127 162 205 260 310 367
#     4  11  22  38  60  89 118 159 211 253 302 374
#     4   8  16  34  61  90 122 164 205 247 312 378
#     4   9  18  37  64  91 125 164 202 251 310 369
#     4  11  24  40  58  88 125 160 206 258 309 368
#
# _framework density 25.278445999999999
#
# number of rings (size 3 to 8) (size 9 to 14) (size 15 to 20)
#    0.000    2.625    1.250    1.875    0.000    3.000 
#    2.250    5.000    0.000    0.000    0.000    0.000 
#    0.000    0.000    0.000    0.000    0.000    0.000 
#
# Total GULP energy -396664.969442 kJ/mol
# GULP energy per Si atom -12395.780295 kJ/mol
# Density = 2.522091 g / cm^3
# Si number density = 25.278446 Si / 1000 Ang^3
#
#
#
# Elastic Constant Matrix: (Units=GPa)
#
#
# Indices 1 2 3 4 5 6 
#
# 1 131.7444 38.6102 21.8218 0.0000 7.3042 0.0000
# 2 38.6102 82.3817 24.9307 0.0000 2.9193 0.0000
# 3 21.8218 24.9307 95.3538 0.0000 20.9281 0.0000
# 4 0.0000 0.0000 0.0000 26.4399 0.0000 3.8286
# 5 7.3042 2.9193 20.9281 0.0000 22.8171 0.0000
# 6 0.0000 0.0000 0.0000 3.8286 0.0000 33.0503
#
#
#
# Elastic Compliance Matrix: (Units=1/GPa)
#
#
# Indices 1 2 3 4 5 6 
#
# 1 0.008948 -0.003941 -0.000625 0.000000 -0.001787 0.000000
# 2 -0.003941 0.014980 -0.003594 0.000000 0.002642 0.000000
# 3 -0.000625 -0.003594 0.014305 0.000000 -0.012461 0.000000
# 4 0.000000 0.000000 0.000000 0.038467 0.000000 -0.004456
# 5 -0.001787 0.002642 -0.012461 0.000000 0.055490 0.000000
# 6 0.000000 0.000000 0.000000 -0.004456 0.000000 0.030773
#
#
# Mechanical properties :
#
#
# Convention : Reuss Voigt Hill
#
# Bulk Modulus (GPa) = 45.63868 53.35616 49.49742
# Shear Modulus (GPa) = 26.79695 31.40259 29.09977
#
# Velocity S-wave (km/s) = 3.25941 3.52841 3.39657
# Velocity P-wave (km/s) = 5.67966 6.14432 5.91656
#
# Compressibility (1/GPa) = 0.02191124
#
# Stress axis : x y z
#
# Youngs Moduli (GPa) = 111.75518 66.75595 69.90573
#
# Poissons Ratio (x) = 0.26310 0.04370
# Poissons Ratio (y) = 0.44046 0.25128
# Poissons Ratio (z) = 0.06987 0.23995
#
# Static dielectric constant tensor:
#      x y z
#    x 4.896490 0.000000 -0.202150 
#    y 0.000000 4.340790 0.000000 
#    z -0.202150 0.000000 4.616770 
# 
# 
# High freq. dielectric constant tensor:
#      x y z
#    x 2.020180 0.000000 -0.007810 
#    y 0.000000 1.993560 0.000000 
#    z -0.007810 0.000000 2.007540 
# 
# From -- ./inp_files/104679.got.cif
#   From: 2010.06.25/outbox.cif.g09.slc.cpg/sg12_53_cif.got.tgz:104679.got - 2010.06.28 00:19:55.
