data_PCOD8102784
_publ_section_title
;
Structure prediction by ZEFSAII (Michael W. Deem and Ramdas Pophale) SiO2 
 PCOD8102784
Probable space group: C 2/M
;
_chemical_formula_sum "Si O2"
_cell_formula_units_Z 56
_cell_length_a 30.945416
_cell_length_b 9.034489
_cell_length_c 11.795410
_cell_angle_alpha 90.000000
_cell_angle_beta 59.744627
_cell_angle_gamma 90.000000
_cell_volume 2848.526452
_symmetry_space_group_name_H-M "C 2/M"
_symmetry_group_IT_number 12
_symmetry_cell_setting 'monoclinic'
loop_
_space_group_symop_operation_xyz
x,y,z
-x,y,-z
-x,-y,-z
x,-y,z
1/2+x,1/2+y,z
1/2-x,1/2+y,-z
1/2-x,1/2-y,-z
1/2+x,1/2-y,z
loop_
_atom_site_type_symbol
_atom_site_label
_atom_site_fract_x
_atom_site_fract_y
_atom_site_fract_z
Si Si1 0.601694 0.675044 0.123238
Si Si2 0.820425 0.332887 0.437608
Si Si3 0.216601 0.174552 0.949615
Si Si4 0.755223 0.329825 0.313385
Si Si5 0.442941 0.325686 0.580005
Si Si6 0.927293 0.669800 0.377173
Si Si7 0.016984 0.324188 0.102030
O O1 0.595223 0.500000 0.119378
O O2 0.582320 0.731536 0.271124
O O3 0.569827 0.751568 0.065587
O O4 0.659055 0.725321 0.036800
O O5 0.806082 0.500000 0.494567
O O6 0.802357 0.304926 0.333596
O O7 0.795383 0.216740 0.555919
O O8 0.879806 0.309405 0.358015
O O9 0.237725 0.223934 0.801677
O O10 0.221512 0.000000 0.956434
O O11 0.250000 0.250000 0.000000
O O12 0.750248 0.500000 0.280823
O O13 0.500000 0.271713 0.500000
O O14 0.438078 0.500000 0.576627
O O15 0.415429 0.256289 0.508387
O O16 0.936045 0.500000 0.397636
O O17 0.975425 0.732150 0.246839
O O18 0.022832 0.500000 0.096577
O O19 0.000000 0.270616 0.000000
#
# Coordination Sequence:
#
# PCOD8102784 Si02
#       7
#     8   8   8   8   8   8   8
#     4  10  23  42  61  85 118 156 198 244 295 353
#     4   9  20  38  60  87 120 154 193 244 296 352
#     4  11  25  43  62  87 120 157 203 251 300 360
#     4  10  21  39  63  87 116 154 198 246 300 355
#     4  10  20  37  59  82 113 149 187 235 288 339
#     4  10  21  36  57  88 118 150 193 238 287 345
#     4  10  22  38  60  89 123 159 198 240 288 350
#
# _framework density 19.659286000000002
#
# number of rings (size 3 to 8) (size 9 to 14) (size 15 to 20)
#    0.000    2.000    1.429    0.857    4.000    3.429 
#    0.000    0.000    0.000    0.000    0.000    0.000 
#    0.000    0.000    0.000    0.000    0.000    0.000 
#
# Total GULP energy -347299.553550 kJ/mol
# GULP energy per Si atom -12403.555484 kJ/mol
# Density = 1.961454 g / cm^3
# Si number density = 19.659286 Si / 1000 Ang^3
#
#
#
# Elastic Constant Matrix: (Units=GPa)
#
#
# Indices 1 2 3 4 5 6 
#
# 1 141.6764 46.4617 50.7047 0.0000 5.0701 0.0000
# 2 46.4617 48.2516 29.6555 0.0000 2.4800 0.0000
# 3 50.7047 29.6555 85.7982 0.0000 15.0011 0.0000
# 4 0.0000 0.0000 0.0000 24.7467 0.0000 3.9570
# 5 5.0701 2.4800 15.0011 0.0000 31.4655 0.0000
# 6 0.0000 0.0000 0.0000 3.9570 0.0000 34.1634
#
#
#
# Elastic Compliance Matrix: (Units=1/GPa)
#
#
# Indices 1 2 3 4 5 6 
#
# 1 0.011164 -0.008453 -0.003794 0.000000 0.000676 0.000000
# 2 -0.008453 0.032892 -0.006718 0.000000 0.001973 0.000000
# 3 -0.003794 -0.006718 0.017477 0.000000 -0.007191 0.000000
# 4 0.000000 0.000000 0.000000 0.041172 0.000000 -0.004769
# 5 0.000676 0.001973 -0.007191 0.000000 0.034945 0.000000
# 6 0.000000 0.000000 0.000000 -0.004769 0.000000 0.029823
#
#
# Mechanical properties :
#
#
# Convention : Reuss Voigt Hill
#
# Bulk Modulus (GPa) = 42.36912 58.81889 50.59401
# Shear Modulus (GPa) = 23.44437 28.00207 25.72322
#
# Velocity S-wave (km/s) = 3.45706 3.77818 3.62118
# Velocity P-wave (km/s) = 6.12646 7.00121 6.57839
#
# Compressibility (1/GPa) = 0.02360209
#
# Stress axis : x y z
#
# Youngs Moduli (GPa) = 89.57289 30.40298 57.21788
#
# Poissons Ratio (x) = 0.25699 0.21710
# Poissons Ratio (y) = 0.75713 0.38440
# Poissons Ratio (z) = 0.33987 0.20425
#
# Static dielectric constant tensor:
#      x y z
#    x 3.693480 0.000000 0.016240 
#    y 0.000000 3.466790 0.000000 
#    z 0.016240 0.000000 3.591600 
# 
# 
# High freq. dielectric constant tensor:
#      x y z
#    x 1.776470 0.000000 0.002680 
#    y 0.000000 1.758690 0.000000 
#    z 0.002680 0.000000 1.766400 
# 
# From -- ./inp_files/181095.got.cif
#   From: 2010.06.25/outbox.cif.g09.slc.cpg/sg12_91_cif.got.tgz:181095.got - 2010.06.28 00:19:55.
