data_PCOD8102986
_publ_section_title
;
Structure prediction by ZEFSAII (Michael W. Deem and Ramdas Pophale) SiO2 
 PCOD8102986
Probable space group: C 2/M
;
_chemical_formula_sum "Si O2"
_cell_formula_units_Z 56
_cell_length_a 18.531640
_cell_length_b 8.837592
_cell_length_c 26.884751
_cell_angle_alpha 90.000000
_cell_angle_beta 140.754610
_cell_angle_gamma 90.000000
_cell_volume 2785.560154
_symmetry_space_group_name_H-M "C 2/M"
_symmetry_group_IT_number 12
_symmetry_cell_setting 'monoclinic'
loop_
_space_group_symop_operation_xyz
x,y,z
-x,y,-z
-x,-y,-z
x,-y,z
1/2+x,1/2+y,z
1/2-x,1/2+y,-z
1/2-x,1/2-y,-z
1/2+x,1/2-y,z
loop_
_atom_site_type_symbol
_atom_site_label
_atom_site_fract_x
_atom_site_fract_y
_atom_site_fract_z
Si Si1 0.414378 0.321733 0.848070
Si Si2 0.778250 0.177991 0.875245
Si Si3 0.843121 0.679570 0.012861
Si Si4 0.337662 0.179149 0.709911
Si Si5 0.481839 0.177040 0.274229
Si Si6 0.869023 0.168888 0.565091
Si Si7 0.389233 0.329266 0.462409
O O1 0.437201 0.500000 0.857485
O O2 0.352239 0.278968 0.866447
O O3 0.532090 0.232738 0.904156
O O4 0.334067 0.268504 0.759951
O O5 0.648356 0.230815 0.798396
O O6 0.785954 0.000000 0.890985
O O7 0.826822 0.268881 0.947619
O O8 0.834972 0.500000 0.012754
O O9 0.750000 0.750000 0.000000
O O10 0.452088 0.223402 0.740786
O O11 0.231194 0.240861 0.619880
O O12 0.333482 0.000000 0.717501
O O13 0.537323 0.251264 0.351692
O O14 0.491060 0.000000 0.287899
O O15 0.750000 0.250000 0.500000
O O16 0.913330 0.172338 0.533193
O O17 0.850952 0.000000 0.575561
O O18 0.500000 0.241821 0.500000
O O19 0.386439 0.500000 0.440132
#
# Coordination Sequence:
#
# PCOD8102986 Si02
#       7
#     8   8   8   8   8   8   8
#     4  11  24  41  62  92 129 164 202 249 304 360
#     4  10  23  42  64  91 129 167 199 248 307 360
#     4  12  25  43  69  97 124 159 204 249 299 362
#     4  10  20  37  60  84 117 162 209 254 303 364
#     4  10  21  39  60  85 118 157 202 248 303 363
#     4  11  21  36  59  85 114 154 200 251 307 362
#     4   9  19  35  55  82 116 155 201 252 305 358
#
# _framework density 20.103676
#
# number of rings (size 3 to 8) (size 9 to 14) (size 15 to 20)
#    0.000    1.571    1.429    3.429    2.000    5.143 
#    0.000    0.000    0.000    2.143    0.000    0.000 
#    0.000    0.000    0.000    0.000    0.000    0.000 
#
# Total GULP energy -347201.800762 kJ/mol
# GULP energy per Si atom -12400.064313 kJ/mol
# Density = 2.005792 g / cm^3
# Si number density = 20.103676 Si / 1000 Ang^3
#
#
#
# Elastic Constant Matrix: (Units=GPa)
#
#
# Indices 1 2 3 4 5 6 
#
# 1 123.1063 33.2223 36.5370 0.0000 3.1716 0.0000
# 2 33.2223 51.2002 30.2209 0.0000 -5.3225 0.0000
# 3 36.5370 30.2209 103.9470 0.0000 -9.6264 0.0000
# 4 0.0000 0.0000 0.0000 36.1864 0.0000 -7.5941
# 5 3.1716 -5.3225 -9.6264 0.0000 40.7478 0.0000
# 6 0.0000 0.0000 0.0000 -7.5941 0.0000 23.8411
#
#
#
# Elastic Compliance Matrix: (Units=1/GPa)
#
#
# Indices 1 2 3 4 5 6 
#
# 1 0.010347 -0.005636 -0.002189 0.000000 -0.002059 0.000000
# 2 -0.005636 0.026736 -0.005550 0.000000 0.002620 0.000000
# 3 -0.002189 -0.005550 0.012219 0.000000 0.002332 0.000000
# 4 0.000000 0.000000 0.000000 0.029614 0.000000 0.009433
# 5 -0.002059 0.002620 0.002332 0.000000 0.025595 0.000000
# 6 0.000000 0.000000 0.000000 0.009433 0.000000 0.044949
#
#
# Mechanical properties :
#
#
# Convention : Reuss Voigt Hill
#
# Bulk Modulus (GPa) = 44.33909 53.13490 48.73699
# Shear Modulus (GPa) = 27.21450 32.03994 29.62722
#
# Velocity S-wave (km/s) = 3.68327 3.99649 3.84307
# Velocity P-wave (km/s) = 6.33969 6.91258 6.63232
#
# Compressibility (1/GPa) = 0.02255346
#
# Stress axis : x y z
#
# Youngs Moduli (GPa) = 96.64982 37.40292 81.83892
#
# Poissons Ratio (x) = 0.21079 0.17915
# Poissons Ratio (y) = 0.54468 0.45417
# Poissons Ratio (z) = 0.21157 0.20757
#
# Static dielectric constant tensor:
#      x y z
#    x 3.694300 0.000000 0.283760 
#    y 0.000000 3.607170 0.000000 
#    z 0.283760 0.000000 3.595200 
# 
# 
# High freq. dielectric constant tensor:
#      x y z
#    x 1.797930 0.000000 0.000730 
#    y 0.000000 1.767090 0.000000 
#    z 0.000730 0.000000 1.800670 
# 
# From -- ./inp_files/362955.got.cif
#   From: 2010.06.25/outbox.cif.g09.slc.cpg/sg12_182_cif.got.tgz:362955.got - 2010.06.28 00:19:55.
