data_PCOD8102852
_publ_section_title
;
Structure prediction by ZEFSAII (Michael W. Deem and Ramdas Pophale) SiO2 
 PCOD8102852
Probable space group: C 2/M
;
_chemical_formula_sum "Si O2"
_cell_formula_units_Z 40
_cell_length_a 30.500972
_cell_length_b 10.297327
_cell_length_c 7.173743
_cell_angle_alpha 90.000000
_cell_angle_beta 119.547090
_cell_angle_gamma 90.000000
_cell_volume 1960.101836
_symmetry_space_group_name_H-M "C 2/M"
_symmetry_group_IT_number 12
_symmetry_cell_setting 'monoclinic'
loop_
_space_group_symop_operation_xyz
x,y,z
-x,y,-z
-x,-y,-z
x,-y,z
1/2+x,1/2+y,z
1/2-x,1/2+y,-z
1/2-x,1/2-y,-z
1/2+x,1/2-y,z
loop_
_atom_site_type_symbol
_atom_site_label
_atom_site_fract_x
_atom_site_fract_y
_atom_site_fract_z
Si Si1 0.443700 0.346211 0.844585
Si Si2 0.805756 0.500000 0.857330
Si Si3 0.695998 0.500000 0.703100
Si Si4 0.857516 0.235796 0.935895
Si Si5 0.322387 0.000000 0.329262
Si Si6 0.788146 0.000000 0.826304
Si Si7 0.872845 0.235086 0.403749
O O1 0.440595 0.500000 0.855180
O O2 0.407152 0.282094 0.919128
O O3 0.427674 0.297779 0.604396
O O4 0.500000 0.295872 0.000000
O O5 0.746302 0.500000 0.681191
O O6 0.833095 0.373738 0.832905
O O7 0.808032 0.500000 0.084006
O O8 0.665078 0.628997 0.588676
O O9 0.708928 0.500000 0.946186
O O10 0.815764 0.126770 0.803285
O O11 0.875505 0.228419 0.187478
O O12 0.355049 0.873594 0.444171
O O13 0.271504 0.000000 0.349208
#
# Coordination Sequence:
#
# PCOD8102852 Si02
#       7
#     8   4   4   8   4   4   8
#     4  11  24  41  60  82 107 140 193 249 284 322
#     4   9  18  33  57  88 121 151 180 220 272 334
#     4   9  16  31  57  86 117 153 186 218 264 328
#     4  10  20  37  59  85 116 149 185 226 276 332
#     4   9  18  33  57  88 121 151 180 220 272 334
#     4   9  16  31  57  86 117 153 186 218 264 328
#     4  10  20  37  59  85 116 149 185 226 276 332
#
# _framework density 20.407105000000001
#
# number of rings (size 3 to 8) (size 9 to 14) (size 15 to 20)
#    0.000    2.200    2.000    1.200    0.000    6.400 
#    0.000   10.000    0.000    3.600    0.000    0.000 
#    0.000    0.000    0.000    0.000    0.000    0.000 
#
# Total GULP energy -248020.406998 kJ/mol
# GULP energy per Si atom -12401.020350 kJ/mol
# Density = 2.036066 g / cm^3
# Si number density = 20.407105 Si / 1000 Ang^3
#
#
#
# Elastic Constant Matrix: (Units=GPa)
#
#
# Indices 1 2 3 4 5 6 
#
# 1 77.9502 30.1526 -1.3999 0.0000 19.0185 0.0000
# 2 30.1526 160.2599 16.2242 0.0000 24.0674 0.0000
# 3 -1.3999 16.2242 48.7632 0.0000 24.7183 0.0000
# 4 0.0000 0.0000 0.0000 15.1586 0.0000 5.9689
# 5 19.0185 24.0674 24.7183 0.0000 35.6846 0.0000
# 6 0.0000 0.0000 0.0000 5.9689 0.0000 15.6364
#
#
#
# Elastic Compliance Matrix: (Units=1/GPa)
#
#
# Indices 1 2 3 4 5 6 
#
# 1 0.016930 -0.002012 0.007770 0.000000 -0.013048 0.000000
# 2 -0.002012 0.007183 -0.000825 0.000000 -0.003200 0.000000
# 3 0.007770 -0.000825 0.035171 0.000000 -0.027947 0.000000
# 4 0.000000 0.000000 0.000000 0.077639 0.000000 -0.029637
# 5 -0.013048 -0.003200 -0.027947 0.000000 0.056494 0.000000
# 6 0.000000 0.000000 0.000000 -0.029637 0.000000 0.075267
#
#
# Mechanical properties :
#
#
# Convention : Reuss Voigt Hill
#
# Bulk Modulus (GPa) = 14.46188 41.88079 28.17133
# Shear Modulus (GPa) = 17.73867 29.42902 23.58385
#
# Velocity S-wave (km/s) = 2.95149 3.80161 3.40320
# Velocity P-wave (km/s) = 4.32633 6.31165 5.41082
#
# Compressibility (1/GPa) = 0.06914730
#
# Stress axis : x y z
#
# Youngs Moduli (GPa) = 59.06641 139.22475 28.43220
#
# Poissons Ratio (x) = 0.28018 -0.22090
# Poissons Ratio (y) = 0.11887 0.02347
# Poissons Ratio (z) = -0.45892 0.11493
#
# Static dielectric constant tensor:
#      x y z
#    x 3.525630 0.000000 0.098860 
#    y 0.000000 3.845320 0.000000 
#    z 0.098860 0.000000 3.808340 
# 
# 
# High freq. dielectric constant tensor:
#      x y z
#    x 1.784910 0.000000 -0.009160 
#    y 0.000000 1.804210 0.000000 
#    z -0.009160 0.000000 1.797920 
# 
# From -- ./inp_files/102904.got.cif
#   From: 2010.06.25/outbox.cif.g09.slc.cpg/sg12_52_cif.got.tgz:102904.got - 2010.06.28 00:19:55.
