data_PCOD8102616
_publ_section_title
;
Structure prediction by ZEFSAII (Michael W. Deem and Ramdas Pophale) SiO2 
 PCOD8102616
Probable space group: C 2/M
;
_chemical_formula_sum "Si O2"
_cell_formula_units_Z 64
_cell_length_a 18.967836
_cell_length_b 9.217241
_cell_length_c 19.898628
_cell_angle_alpha 90.000000
_cell_angle_beta 97.144229
_cell_angle_gamma 90.000000
_cell_volume 3451.889956
_symmetry_space_group_name_H-M "C 2/M"
_symmetry_group_IT_number 12
_symmetry_cell_setting 'monoclinic'
loop_
_space_group_symop_operation_xyz
x,y,z
-x,y,-z
-x,-y,-z
x,-y,z
1/2+x,1/2+y,z
1/2-x,1/2+y,-z
1/2-x,1/2-y,-z
1/2+x,1/2-y,z
loop_
_atom_site_type_symbol
_atom_site_label
_atom_site_fract_x
_atom_site_fract_y
_atom_site_fract_z
Si Si1 0.093951 0.169650 0.187376
Si Si2 0.071212 0.664559 0.534525
Si Si3 0.304173 0.164539 0.552019
Si Si4 0.947207 0.327834 0.198000
Si Si5 0.174048 0.830134 0.063147
Si Si6 0.367643 0.827704 0.320471
Si Si7 0.664093 0.169847 0.927894
Si Si8 0.292227 0.329990 0.685866
O O1 0.126258 0.219363 0.120068
O O2 0.152791 0.208363 0.249432
O O3 0.022830 0.256967 0.193497
O O4 0.076012 0.000000 0.185572
O O5 0.052479 0.500000 0.553124
O O6 0.122104 0.667852 0.477366
O O7 0.103923 0.739032 0.605425
O O8 0.000000 0.745213 0.500000
O O9 0.250000 0.250000 0.500000
O O10 0.316324 0.241774 0.623934
O O11 0.277409 0.000000 0.559683
O O12 0.956579 0.500000 0.199531
O O13 0.916531 0.270506 0.265475
O O14 0.891317 0.278153 0.134812
O O15 0.256356 0.788455 0.086648
O O16 0.166937 0.000000 0.049389
O O17 0.144035 0.749289 0.994446
O O18 0.286139 0.778285 0.300335
O O19 0.369038 0.000000 0.322240
O O20 0.657709 0.000000 0.940284
O O21 0.292206 0.500000 0.667945
#
# Coordination Sequence:
#
# PCOD8102616 Si02
#       8
#     8   8   8   8   8   8   8   8
#     4  10  22  37  54  78 111 144 177 218 268 324
#     4   9  18  31  51  79 105 134 175 219 258 305
#     4  11  21  35  57  83 109 138 178 225 269 319
#     4  10  21  35  55  80 108 141 181 222 265 318
#     4   9  18  35  58  81 105 142 185 218 261 322
#     4   9  17  33  55  75 100 140 182 218 258 312
#     4   9  18  34  56  83 108 136 178 228 268 306
#     4  10  20  37  58  78 104 141 181 223 267 314
#
# _framework density 18.540569000000001
#
# number of rings (size 3 to 8) (size 9 to 14) (size 15 to 20)
#    0.000    2.375    1.250    1.125    1.750    5.000 
#    0.000    3.125    0.000    4.500    0.000    0.000 
#    0.000    0.000    0.000    0.000    0.000    0.000 
#
# Total GULP energy -396766.079930 kJ/mol
# GULP energy per Si atom -12398.939998 kJ/mol
# Density = 1.849837 g / cm^3
# Si number density = 18.540569 Si / 1000 Ang^3
#
#
#
# Elastic Constant Matrix: (Units=GPa)
#
#
# Indices 1 2 3 4 5 6 
#
# 1 140.6826 36.3524 83.5811 0.0000 2.8099 0.0000
# 2 36.3524 39.8777 43.6230 0.0000 -1.8612 0.0000
# 3 83.5811 43.6230 157.6643 0.0000 -10.6087 0.0000
# 4 0.0000 0.0000 0.0000 29.5406 0.0000 -1.7663
# 5 2.8099 -1.8612 -10.6087 0.0000 29.7895 0.0000
# 6 0.0000 0.0000 0.0000 -1.7663 0.0000 28.0803
#
#
#
# Elastic Compliance Matrix: (Units=1/GPa)
#
#
# Indices 1 2 3 4 5 6 
#
# 1 0.011374 -0.005290 -0.004775 0.000000 -0.003104 0.000000
# 2 -0.005290 0.038473 -0.007833 0.000000 0.000113 0.000000
# 3 -0.004775 -0.007833 0.011309 0.000000 0.003988 0.000000
# 4 0.000000 0.000000 0.000000 0.033980 0.000000 0.002137
# 5 -0.003104 0.000113 0.003988 0.000000 0.035289 0.000000
# 6 0.000000 0.000000 0.000000 0.002137 0.000000 0.035747
#
#
# Mechanical properties :
#
#
# Convention : Reuss Voigt Hill
#
# Bulk Modulus (GPa) = 39.43077 73.92641 56.67859
# Shear Modulus (GPa) = 23.76200 29.12660 26.44430
#
# Velocity S-wave (km/s) = 3.58386 3.96784 3.78073
# Velocity P-wave (km/s) = 6.19991 7.80711 7.04946
#
# Compressibility (1/GPa) = 0.02536091
#
# Stress axis : x y z
#
# Youngs Moduli (GPa) = 87.92102 25.99236 88.42279
#
# Poissons Ratio (x) = 0.13750 0.42219
# Poissons Ratio (y) = 0.46511 0.69259
# Poissons Ratio (z) = 0.41979 0.20359
#
# Static dielectric constant tensor:
#      x y z
#    x 3.443350 0.000000 0.123230 
#    y 0.000000 3.000540 0.000000 
#    z 0.123230 0.000000 3.525460 
# 
# 
# High freq. dielectric constant tensor:
#      x y z
#    x 1.727370 0.000000 0.001120 
#    y 0.000000 1.685600 0.000000 
#    z 0.001120 0.000000 1.733830 
# 
# From -- ./inp_files/314144.got.cif
#   From: 2010.06.25/outbox.cif.g09.slc.cpg/sg12_158_cif.got.tgz:314144.got - 2010.06.28 00:19:55.
