data_PCOD8102149
_publ_section_title
;
Structure prediction by ZEFSAII (Michael W. Deem and Ramdas Pophale) SiO2 
 PCOD8102149
Probable space group: C 2/M
;
_chemical_formula_sum "Si O2"
_cell_formula_units_Z 48
_cell_length_a 21.265443
_cell_length_b 11.707203
_cell_length_c 15.418506
_cell_angle_alpha 90.000000
_cell_angle_beta 141.553300
_cell_angle_gamma 90.000000
_cell_volume 2386.772651
_symmetry_space_group_name_H-M "C 2/M"
_symmetry_group_IT_number 12
_symmetry_cell_setting 'monoclinic'
loop_
_space_group_symop_operation_xyz
x,y,z
-x,y,-z
-x,-y,-z
x,-y,z
1/2+x,1/2+y,z
1/2-x,1/2+y,-z
1/2-x,1/2-y,-z
1/2+x,1/2-y,z
loop_
_atom_site_type_symbol
_atom_site_label
_atom_site_fract_x
_atom_site_fract_y
_atom_site_fract_z
Si Si1 0.717846 0.132309 0.163930
Si Si2 0.578842 0.875887 0.162644
Si Si3 0.478515 0.126368 0.341260
Si Si4 0.053662 0.246289 0.864789
Si Si5 0.157159 0.674086 0.651884
Si Si6 0.170097 0.000000 0.203736
Si Si7 0.483274 0.500000 0.118336
O O1 0.684934 0.141662 0.229636
O O2 0.822601 0.200918 0.283769
O O3 0.730755 0.000000 0.148737
O O4 0.644254 0.197977 0.018025
O O5 0.554150 0.784001 0.209922
O O6 0.571716 0.000000 0.199725
O O7 0.500000 0.866783 0.000000
O O8 0.435070 0.209114 0.220446
O O9 0.581243 0.182866 0.488863
O O10 0.396228 0.106430 0.327854
O O11 0.502449 0.000000 0.329411
O O12 0.050184 0.109352 0.860791
O O13 0.260031 0.612233 0.730842
O O14 0.103406 0.000000 0.221306
O O15 0.085061 0.000000 0.039754
#
# Coordination Sequence:
#
# PCOD8102149 Si02
#       7
#     8   8   8   8   8   4   4
#     4  10  20  36  60  91 119 158 202 247 309 368
#     4   8  15  30  54  81 114 150 188 237 297 357
#     4  11  23  41  65  87 118 164 214 252 300 357
#     4  11  21  37  58  91 126 155 201 256 307 359
#     4  11  21  42  65  89 115 166 214 254 293 367
#     4  11  20  41  68  88 126 156 213 251 305 372
#     4  11  24  36  62  99 124 163 190 260 326 360
#
# _framework density 20.110838999999999
#
# number of rings (size 3 to 8) (size 9 to 14) (size 15 to 20)
#    0.000    1.667    3.333    4.000    4.667    0.667 
#    3.000    4.167    0.000    0.000    0.000    0.000 
#    0.000    0.000    0.000    0.000    0.000    0.000 
#
# Total GULP energy -297360.051441 kJ/mol
# GULP energy per Si atom -12390.002143 kJ/mol
# Density = 2.006507 g / cm^3
# Si number density = 20.110839 Si / 1000 Ang^3
#
#
#
# Elastic Constant Matrix: (Units=GPa)
#
#
# Indices 1 2 3 4 5 6 
#
# 1 31.0347 24.1404 17.3923 0.0000 5.6123 0.0000
# 2 24.1404 166.1810 51.5363 0.0000 -3.6000 0.0000
# 3 17.3923 51.5363 60.4428 0.0000 7.8272 0.0000
# 4 0.0000 0.0000 0.0000 22.8524 0.0000 5.2224
# 5 5.6123 -3.6000 7.8272 0.0000 26.3388 0.0000
# 6 0.0000 0.0000 0.0000 5.2224 0.0000 28.9411
#
#
#
# Elastic Compliance Matrix: (Units=1/GPa)
#
#
# Indices 1 2 3 4 5 6 
#
# 1 0.040619 -0.003672 -0.007666 0.000000 -0.006879 0.000000
# 2 -0.003672 0.008801 -0.006973 0.000000 0.004058 0.000000
# 3 -0.007666 -0.006973 0.025593 0.000000 -0.006925 0.000000
# 4 0.000000 0.000000 0.000000 0.045641 0.000000 -0.008236
# 5 -0.006879 0.004058 -0.006925 0.000000 0.042045 0.000000
# 6 0.000000 0.000000 0.000000 -0.008236 0.000000 0.036039
#
#
# Mechanical properties :
#
#
# Convention : Reuss Voigt Hill
#
# Bulk Modulus (GPa) = 26.04846 49.31071 37.67959
# Shear Modulus (GPa) = 20.14844 26.59910 23.37377
#
# Velocity S-wave (km/s) = 3.16867 3.64074 3.41287
# Velocity P-wave (km/s) = 5.13496 6.49969 5.85721
#
# Compressibility (1/GPa) = 0.03838998
#
# Stress axis : x y z
#
# Youngs Moduli (GPa) = 24.61929 113.61764 39.07315
#
# Poissons Ratio (x) = 0.41721 0.29954
# Poissons Ratio (y) = 0.09040 0.27247
# Poissons Ratio (z) = 0.18873 0.79229
#
# Static dielectric constant tensor:
#      x y z
#    x 3.866610 0.000000 0.171550 
#    y 0.000000 3.833830 0.000000 
#    z 0.171550 0.000000 3.364280 
# 
# 
# High freq. dielectric constant tensor:
#      x y z
#    x 1.773630 0.000000 0.007050 
#    y 0.000000 1.795570 0.000000 
#    z 0.007050 0.000000 1.751360 
# 
# From -- ./inp_files/232832.got.cif
#   From: 2010.06.25/outbox.cif.g09.slc.cpg/sg12_117_cif.got.tgz:232832.got - 2010.06.28 00:19:55.
