data_PCOD8102313
_publ_section_title
;
Structure prediction by ZEFSAII (Michael W. Deem and Ramdas Pophale) SiO2 
 PCOD8102313
Probable space group: C 2/M
;
_chemical_formula_sum "Si O2"
_cell_formula_units_Z 64
_cell_length_a 15.469566
_cell_length_b 16.152670
_cell_length_c 12.445007
_cell_angle_alpha 90.000000
_cell_angle_beta 88.702510
_cell_angle_gamma 90.000000
_cell_volume 3108.896250
_symmetry_space_group_name_H-M "C 2/M"
_symmetry_group_IT_number 12
_symmetry_cell_setting 'monoclinic'
loop_
_space_group_symop_operation_xyz
x,y,z
-x,y,-z
-x,-y,-z
x,-y,z
1/2+x,1/2+y,z
1/2-x,1/2+y,-z
1/2-x,1/2-y,-z
1/2+x,1/2-y,z
loop_
_atom_site_type_symbol
_atom_site_label
_atom_site_fract_x
_atom_site_fract_y
_atom_site_fract_z
Si Si1 0.702234 0.098530 0.336860
Si Si2 0.894604 0.354981 0.233296
Si Si3 0.096374 0.331745 0.534186
Si Si4 0.184445 0.594557 0.972131
Si Si5 0.375572 0.406737 0.005555
Si Si6 0.079359 0.335604 0.157418
Si Si7 0.490607 0.654440 0.837299
Si Si8 0.883158 0.815799 0.325966
O O1 0.664020 0.142628 0.442668
O O2 0.654885 0.133202 0.233867
O O3 0.802689 0.122758 0.328401
O O4 0.693048 0.000000 0.344886
O O5 0.883953 0.384860 0.357778
O O6 0.826475 0.397676 0.156251
O O7 0.878086 0.255481 0.232705
O O8 0.990210 0.381287 0.190136
O O9 0.104935 0.232454 0.560400
O O10 0.000000 0.352244 0.500000
O O11 0.177042 0.500000 0.008039
O O12 0.278792 0.628838 0.999921
O O13 0.109385 0.644970 0.035271
O O14 0.375155 0.500000 0.052191
O O15 0.428308 0.345409 0.081503
O O16 0.420577 0.410561 0.885401
O O17 0.063644 0.238802 0.167695
O O18 0.530560 0.633722 0.716937
#
# Coordination Sequence:
#
# PCOD8102313 Si02
#       8
#     8   8   8   8   8   8   8   8
#     4  12  24  40  65  96 127 163 206 256 318 371
#     4   9  22  39  62  88 123 163 208 249 308 368
#     4  10  20  44  66  88 121 159 207 261 307 367
#     4  11  24  40  58  89 133 167 200 257 314 371
#     4  10  23  39  60  91 126 171 214 257 312 364
#     4  11  23  38  60  92 124 163 213 247 304 372
#     4  10  20  36  62  84 121 159 208 258 300 361
#     4   9  22  39  61  94 120 156 209 262 302 362
#
# _framework density 20.586084
#
# number of rings (size 3 to 8) (size 9 to 14) (size 15 to 20)
#    0.750    1.000    1.250    2.625    8.750    4.750 
#    0.000    0.000    0.000    0.375    0.000    0.875 
#    0.000    0.000    0.000    0.000    0.000    0.000 
#
# Total GULP energy -396440.310647 kJ/mol
# GULP energy per Si atom -12388.759708 kJ/mol
# Density = 2.053923 g / cm^3
# Si number density = 20.586084 Si / 1000 Ang^3
#
#
#
# Elastic Constant Matrix: (Units=GPa)
#
#
# Indices 1 2 3 4 5 6 
#
# 1 71.3189 17.8433 22.7170 0.0000 -10.3844 0.0000
# 2 17.8433 53.8964 23.9833 0.0000 0.8929 0.0000
# 3 22.7170 23.9833 98.9494 0.0000 -4.2527 0.0000
# 4 0.0000 0.0000 0.0000 17.8176 0.0000 0.4868
# 5 -10.3844 0.8929 -4.2527 0.0000 30.4174 0.0000
# 6 0.0000 0.0000 0.0000 0.4868 0.0000 19.0742
#
#
#
# Elastic Compliance Matrix: (Units=1/GPa)
#
#
# Indices 1 2 3 4 5 6 
#
# 1 0.016754 -0.004519 -0.002515 0.000000 0.005501 0.000000
# 2 -0.004519 0.022069 -0.004432 0.000000 -0.002810 0.000000
# 3 -0.002515 -0.004432 0.011797 0.000000 0.000921 0.000000
# 4 0.000000 0.000000 0.000000 0.056163 0.000000 -0.001433
# 5 0.005501 -0.002810 0.000921 0.000000 0.034965 0.000000
# 6 0.000000 0.000000 0.000000 -0.001433 0.000000 0.052464
#
#
# Mechanical properties :
#
#
# Convention : Reuss Voigt Hill
#
# Bulk Modulus (GPa) = 36.11594 39.25020 37.68307
# Shear Modulus (GPa) = 22.08733 24.10325 23.09529
#
# Velocity S-wave (km/s) = 3.27911 3.42548 3.35309
# Velocity P-wave (km/s) = 5.64966 5.89517 5.77372
#
# Compressibility (1/GPa) = 0.02768861
#
# Stress axis : x y z
#
# Youngs Moduli (GPa) = 59.68704 45.31230 84.76424
#
# Poissons Ratio (x) = 0.20476 0.21316
# Poissons Ratio (y) = 0.26971 0.37571
# Poissons Ratio (z) = 0.15010 0.20084
#
# Static dielectric constant tensor:
#      x y z
#    x 3.806090 0.000000 -0.259120 
#    y 0.000000 3.414820 0.000000 
#    z -0.259120 0.000000 3.821350 
# 
# 
# High freq. dielectric constant tensor:
#      x y z
#    x 1.810330 0.000000 -0.019060 
#    y 0.000000 1.780550 0.000000 
#    z -0.019060 0.000000 1.800030 
# 
# From -- ./inp_files/146123.got.cif
#   From: 2010.06.25/outbox.cif.g09.slc.cpg/sg12_74_cif.got.tgz:146123.got - 2010.06.28 00:19:55.
