data_PCOD8102817
_publ_section_title
;
Structure prediction by ZEFSAII (Michael W. Deem and Ramdas Pophale) SiO2 
 PCOD8102817
Probable space group: C 2/M
;
_chemical_formula_sum "Si O2"
_cell_formula_units_Z 64
_cell_length_a 14.648151
_cell_length_b 8.556027
_cell_length_c 30.392622
_cell_angle_alpha 90.000000
_cell_angle_beta 121.226616
_cell_angle_gamma 90.000000
_cell_volume 3257.256638
_symmetry_space_group_name_H-M "C 2/M"
_symmetry_group_IT_number 12
_symmetry_cell_setting 'monoclinic'
loop_
_space_group_symop_operation_xyz
x,y,z
-x,y,-z
-x,-y,-z
x,-y,z
1/2+x,1/2+y,z
1/2-x,1/2+y,-z
1/2-x,1/2-y,-z
1/2+x,1/2-y,z
loop_
_atom_site_type_symbol
_atom_site_label
_atom_site_fract_x
_atom_site_fract_y
_atom_site_fract_z
Si Si1 0.664786 0.815859 0.423748
Si Si2 0.288731 0.314372 0.055683
Si Si3 0.099000 0.815074 0.496056
Si Si4 0.932004 0.682357 0.693125
Si Si5 0.714690 0.685203 0.124260
Si Si6 0.158520 0.182282 0.767119
Si Si7 0.021665 0.815753 0.134626
Si Si8 0.834837 0.816314 0.750794
O O1 0.787558 0.755423 0.456088
O O2 0.591815 0.741320 0.443794
O O3 0.615570 0.763735 0.365240
O O4 0.662221 0.000000 0.429400
O O5 0.287533 0.500000 0.054441
O O6 0.211206 0.250202 0.074055
O O7 0.405926 0.243767 0.095790
O O8 0.250000 0.250000 0.000000
O O9 0.000000 0.745810 0.500000
O O10 0.092517 0.000000 0.495354
O O11 0.961145 0.500000 0.700602
O O12 0.843138 0.719761 0.707794
O O13 0.034494 0.786456 0.728946
O O14 0.729027 0.500000 0.128742
O O15 0.810814 0.761723 0.176157
O O16 0.602764 0.739659 0.117101
O O17 0.223666 0.277281 0.746653
O O18 0.182932 0.000000 0.768431
O O19 0.066946 0.762690 0.193286
O O20 0.012629 0.000000 0.131675
O O21 0.838395 0.000000 0.741870
#
# Coordination Sequence:
#
# PCOD8102817 Si02
#       8
#     8   8   8   8   8   8   8   8
#     4   9  20  36  53  79 112 143 181 227 273 323
#     4  11  22  37  55  80 110 142 180 224 275 332
#     4   9  18  35  58  80 105 141 183 227 276 329
#     4  11  22  36  54  81 118 154 188 230 274 324
#     4  10  20  38  60  81 105 140 183 228 277 331
#     4  11  22  37  57  83 113 148 187 228 278 336
#     4   8  18  36  57  76 103 141 178 216 265 325
#     4  10  20  37  59  84 111 145 188 231 279 334
#
# _framework density 19.648437000000001
#
# number of rings (size 3 to 8) (size 9 to 14) (size 15 to 20)
#    0.000    2.125    0.000    4.125    0.000    3.750 
#    0.000   10.625    0.000    0.000    0.000    0.000 
#    0.000    0.000    0.000    0.000    0.000    0.000 
#
# Total GULP energy -396857.423424 kJ/mol
# GULP energy per Si atom -12401.794482 kJ/mol
# Density = 1.960372 g / cm^3
# Si number density = 19.648437 Si / 1000 Ang^3
#
#
#
# Elastic Constant Matrix: (Units=GPa)
#
#
# Indices 1 2 3 4 5 6 
#
# 1 100.2705 19.5168 49.2372 0.0000 -21.7188 0.0000
# 2 19.5168 55.9861 28.0338 0.0000 -4.6084 0.0000
# 3 49.2372 28.0338 109.4182 0.0000 -30.6444 0.0000
# 4 0.0000 0.0000 0.0000 28.2295 0.0000 -6.0699
# 5 -21.7188 -4.6084 -30.6444 0.0000 29.4775 0.0000
# 6 0.0000 0.0000 0.0000 -6.0699 0.0000 31.3649
#
#
#
# Elastic Compliance Matrix: (Units=1/GPa)
#
#
# Indices 1 2 3 4 5 6 
#
# 1 0.013562 -0.002283 -0.003977 0.000000 0.005501 0.000000
# 2 -0.002283 0.021088 -0.005535 0.000000 -0.004139 0.000000
# 3 -0.003977 -0.005535 0.015919 0.000000 0.012753 0.000000
# 4 0.000000 0.000000 0.000000 0.036962 0.000000 0.007153
# 5 0.005501 -0.004139 0.012753 0.000000 0.050588 0.000000
# 6 0.000000 0.000000 0.000000 0.007153 0.000000 0.033267
#
#
# Mechanical properties :
#
#
# Convention : Reuss Voigt Hill
#
# Bulk Modulus (GPa) = 37.06690 51.02783 44.04736
# Shear Modulus (GPa) = 24.51349 29.07351 26.79350
#
# Velocity S-wave (km/s) = 3.53598 3.85084 3.69676
# Velocity P-wave (km/s) = 5.96463 6.76748 6.37870
#
# Compressibility (1/GPa) = 0.02697825
#
# Stress axis : x y z
#
# Youngs Moduli (GPa) = 73.73603 47.41975 62.81907
#
# Poissons Ratio (x) = 0.10828 0.24984
# Poissons Ratio (y) = 0.16837 0.34769
# Poissons Ratio (z) = 0.29326 0.26246
#
# Static dielectric constant tensor:
#      x y z
#    x 3.792020 0.000000 0.037910 
#    y 0.000000 3.394920 0.000000 
#    z 0.037910 0.000000 3.643150 
# 
# 
# High freq. dielectric constant tensor:
#      x y z
#    x 1.773690 0.000000 -0.008190 
#    y 0.000000 1.757780 0.000000 
#    z -0.008190 0.000000 1.761770 
# 
# From -- ./inp_files/375080.got.cif
#   From: 2010.06.25/outbox.cif.g09.slc.cpg/sg12_188_cif.got.tgz:375080.got - 2010.06.28 00:19:55.
