data_PCOD8102371
_publ_section_title
;
Structure prediction by ZEFSAII (Michael W. Deem and Ramdas Pophale) SiO2 
 PCOD8102371
Probable space group: C 2/M
;
_chemical_formula_sum "Si O2"
_cell_formula_units_Z 56
_cell_length_a 33.472518
_cell_length_b 13.811388
_cell_length_c 7.835903
_cell_angle_alpha 90.000000
_cell_angle_beta 52.590309
_cell_angle_gamma 90.000000
_cell_volume 2877.436961
_symmetry_space_group_name_H-M "C 2/M"
_symmetry_group_IT_number 12
_symmetry_cell_setting 'monoclinic'
loop_
_space_group_symop_operation_xyz
x,y,z
-x,y,-z
-x,-y,-z
x,-y,z
1/2+x,1/2+y,z
1/2-x,1/2+y,-z
1/2-x,1/2-y,-z
1/2+x,1/2-y,z
loop_
_atom_site_type_symbol
_atom_site_label
_atom_site_fract_x
_atom_site_fract_y
_atom_site_fract_z
Si Si1 0.871141 0.613984 0.085337
Si Si2 0.155554 0.107755 0.651990
Si Si3 0.651626 0.227845 0.168679
Si Si4 0.457824 0.611544 0.978239
Si Si5 0.450099 0.766077 0.719853
Si Si6 0.316884 0.195356 0.549176
Si Si7 0.290626 0.390069 0.135854
O O1 0.868701 0.500000 0.082100
O O2 0.835519 0.658538 0.027608
O O3 0.928311 0.651436 0.904863
O O4 0.854164 0.649934 0.314191
O O5 0.185062 0.187843 0.465534
O O6 0.170082 0.116880 0.811962
O O7 0.169132 0.000000 0.548127
O O8 0.096189 0.128078 0.793552
O O9 0.592652 0.257912 0.312101
O O10 0.662805 0.170687 0.314463
O O11 0.687316 0.322795 0.071405
O O12 0.466105 0.500000 0.908381
O O13 0.463454 0.669503 0.788146
O O14 0.500000 0.648345 0.000000
O O15 0.500000 0.806565 0.500000
O O16 0.262689 0.148985 0.660937
O O17 0.285296 0.500000 0.082989
#
# Coordination Sequence:
#
# PCOD8102371 Si02
#       7
#     8   8   8   8   8   8   8
#     4  10  23  43  64  92 129 167 214 272 323 373
#     4  10  20  37  62  92 129 167 208 260 315 380
#     4  10  24  42  63  96 128 170 207 272 314 389
#     4  10  20  36  62  92 125 166 210 256 313 381
#     4  10  22  40  63  91 129 166 208 264 321 372
#     4  12  22  41  67  95 125 169 222 257 324 381
#     4  11  22  41  66  93 133 172 212 264 321 387
#
# _framework density 19.461765
#
# number of rings (size 3 to 8) (size 9 to 14) (size 15 to 20)
#    0.857    0.714    4.286    1.286    2.000    2.286 
#    0.000    0.000    0.000    1.286    0.000    0.000 
#    0.000    0.000    0.000    0.000    0.000    0.000 
#
# Total GULP energy -347142.102389 kJ/mol
# GULP energy per Si atom -12397.932228 kJ/mol
# Density = 1.941747 g / cm^3
# Si number density = 19.461765 Si / 1000 Ang^3
#
#
#
# Elastic Constant Matrix: (Units=GPa)
#
#
# Indices 1 2 3 4 5 6 
#
# 1 99.3863 36.8566 41.2159 0.0000 0.1198 0.0000
# 2 36.8566 132.1106 51.9342 0.0000 -0.3574 0.0000
# 3 41.2159 51.9342 114.7204 0.0000 -6.7083 0.0000
# 4 0.0000 0.0000 0.0000 21.3207 0.0000 -5.7310
# 5 0.1198 -0.3574 -6.7083 0.0000 34.7191 0.0000
# 6 0.0000 0.0000 0.0000 -5.7310 0.0000 18.6043
#
#
#
# Elastic Compliance Matrix: (Units=1/GPa)
#
#
# Indices 1 2 3 4 5 6 
#
# 1 0.012285 -0.002040 -0.003534 0.000000 -0.000746 0.000000
# 2 -0.002040 0.009565 -0.003632 0.000000 -0.000596 0.000000
# 3 -0.003534 -0.003632 0.011762 0.000000 0.002247 0.000000
# 4 0.000000 0.000000 0.000000 0.051137 0.000000 0.015753
# 5 -0.000746 -0.000596 0.002247 0.000000 0.029233 0.000000
# 6 0.000000 0.000000 0.000000 0.015753 0.000000 0.058604
#
#
# Mechanical properties :
#
#
# Convention : Reuss Voigt Hill
#
# Bulk Modulus (GPa) = 65.78908 67.35898 66.57403
# Shear Modulus (GPa) = 25.50200 29.34286 27.42243
#
# Velocity S-wave (km/s) = 3.62382 3.88715 3.75779
# Velocity P-wave (km/s) = 7.16848 7.40490 7.28765
#
# Compressibility (1/GPa) = 0.01520009
#
# Stress axis : x y z
#
# Youngs Moduli (GPa) = 81.40267 104.55119 85.01998
#
# Poissons Ratio (x) = 0.21330 0.30043
# Poissons Ratio (y) = 0.16607 0.30878
# Poissons Ratio (z) = 0.28764 0.37972
#
# Static dielectric constant tensor:
#      x y z
#    x 3.501960 0.000000 -0.090390 
#    y 0.000000 3.593910 0.000000 
#    z -0.090390 0.000000 3.318700 
# 
# 
# High freq. dielectric constant tensor:
#      x y z
#    x 1.753000 0.000000 -0.005180 
#    y 0.000000 1.755380 0.000000 
#    z -0.005180 0.000000 1.746040 
# 
# From -- ./inp_files/111574.got.cif
#   From: 2010.06.25/outbox.cif.g09.slc.cpg/sg12_56_cif.got.tgz:111574.got - 2010.06.28 00:19:55.
