data_PCOD8102033
_publ_section_title
;
Structure prediction by ZEFSAII (Michael W. Deem and Ramdas Pophale) SiO2 
 PCOD8102033
Probable space group: C 2/M
;
_chemical_formula_sum "Si O2"
_cell_formula_units_Z 64
_cell_length_a 30.956383
_cell_length_b 8.990640
_cell_length_c 19.838157
_cell_angle_alpha 90.000000
_cell_angle_beta 37.356806
_cell_angle_gamma 90.000000
_cell_volume 3350.202762
_symmetry_space_group_name_H-M "C 2/M"
_symmetry_group_IT_number 12
_symmetry_cell_setting 'monoclinic'
loop_
_space_group_symop_operation_xyz
x,y,z
-x,y,-z
-x,-y,-z
x,-y,z
1/2+x,1/2+y,z
1/2-x,1/2+y,-z
1/2-x,1/2-y,-z
1/2+x,1/2-y,z
loop_
_atom_site_type_symbol
_atom_site_label
_atom_site_fract_x
_atom_site_fract_y
_atom_site_fract_z
Si Si1 0.561553 0.823276 0.873643
Si Si2 0.301077 0.174414 0.989114
Si Si3 0.218998 0.677300 0.716513
Si Si4 0.049738 0.332597 0.734632
Si Si5 0.937533 0.177018 0.625630
Si Si6 0.716394 0.674434 0.225275
Si Si7 0.789269 0.333136 0.509849
Si Si8 0.443235 0.324633 0.772763
O O1 0.638761 0.763432 0.802197
O O2 0.546376 0.771292 0.815711
O O3 0.562622 0.000000 0.874712
O O4 0.500000 0.761008 0.000000
O O5 0.271776 0.214048 0.098638
O O6 0.302655 0.000000 0.973256
O O7 0.250000 0.250000 0.000000
O O8 0.378743 0.241223 0.887986
O O9 0.220474 0.500000 0.710172
O O10 0.247552 0.738812 0.752291
O O11 0.275662 0.742798 0.594462
O O12 0.016934 0.500000 0.772280
O O13 0.128815 0.337342 0.609574
O O14 0.011040 0.219297 0.732666
O O15 0.861781 0.242950 0.693804
O O16 0.951891 0.229181 0.684601
O O17 0.000000 0.240285 0.500000
O O18 0.936398 0.000000 0.624219
O O19 0.705777 0.500000 0.245954
O O20 0.759119 0.500000 0.554441
O O21 0.750000 0.250000 0.500000
O O22 0.430280 0.500000 0.791470
#
# Coordination Sequence:
#
# PCOD8102033 Si02
#       8
#     8   8   8   8   8   8   8   8
#     4   9  18  34  57  83 112 147 191 237 279 338
#     4  11  21  38  62  87 117 155 196 243 291 342
#     4  10  20  36  60  88 112 146 195 239 286 343
#     4  10  22  39  58  84 116 151 191 236 286 343
#     4   9  18  34  54  81 115 147 187 238 282 331
#     4   9  19  34  57  85 113 149 195 236 280 345
#     4  11  22  39  61  85 118 154 193 242 292 347
#     4  11  23  38  59  88 117 150 195 242 291 347
#
# _framework density 19.103321000000001
#
# number of rings (size 3 to 8) (size 9 to 14) (size 15 to 20)
#    0.000    2.000    2.500    1.125    3.500    1.000 
#    0.000    1.250    0.000    2.250    0.000    0.000 
#    0.000    0.000    0.000    0.000    0.000    0.000 
#
# Total GULP energy -396759.653618 kJ/mol
# GULP energy per Si atom -12398.739176 kJ/mol
# Density = 1.905984 g / cm^3
# Si number density = 19.103321 Si / 1000 Ang^3
#
#
#
# Elastic Constant Matrix: (Units=GPa)
#
#
# Indices 1 2 3 4 5 6 
#
# 1 155.4242 32.4732 72.0762 -0.0046 22.5283 0.0090
# 2 32.4732 46.6485 37.7904 0.0093 6.3205 0.0106
# 3 72.0762 37.7904 137.8921 0.0105 12.1148 -0.0071
# 4 -0.0046 0.0093 0.0105 27.0038 -0.0028 -1.3339
# 5 22.5283 6.3205 12.1148 -0.0028 33.9274 -0.0044
# 6 0.0090 0.0106 -0.0071 -1.3339 -0.0044 27.6590
#
#
#
# Elastic Compliance Matrix: (Units=1/GPa)
#
#
# Indices 1 2 3 4 5 6 
#
# 1 0.009411 -0.002937 -0.003730 0.000003 -0.004370 -0.000003
# 2 -0.002937 0.028681 -0.006222 -0.000009 -0.001171 -0.000012
# 3 -0.003730 -0.006222 0.010930 -0.000002 -0.000267 0.000006
# 4 0.000003 -0.000009 -0.000002 0.037120 0.000004 0.001790
# 5 -0.004370 -0.001171 -0.000267 0.000004 0.032690 0.000007
# 6 -0.000003 -0.000012 0.000006 0.001790 0.000007 0.036241
#
#
# Mechanical properties :
#
#
# Convention : Reuss Voigt Hill
#
# Bulk Modulus (GPa) = 43.02320 69.40493 56.21407
# Shear Modulus (GPa) = 26.51117 30.89306 28.70211
#
# Velocity S-wave (km/s) = 3.72933 4.02575 3.88037
# Velocity P-wave (km/s) = 6.41203 7.61703 7.04036
#
# Compressibility (1/GPa) = 0.02324327
#
# Stress axis : x y z
#
# Youngs Moduli (GPa) = 106.25961 34.86656 91.48726
#
# Poissons Ratio (x) = 0.10241 0.34127
# Poissons Ratio (y) = 0.31211 0.56924
# Poissons Ratio (z) = 0.39637 0.21694
#
# Static dielectric constant tensor:
#      x y z
#    x 3.613930 -0.000020 0.099540 
#    y -0.000020 3.252610 0.000040 
#    z 0.099540 0.000040 3.639190 
# 
# 
# High freq. dielectric constant tensor:
#      x y z
#    x 1.755650 0.000000 0.002580 
#    y 0.000000 1.704500 0.000000 
#    z 0.002580 0.000000 1.757590 
# 
# From -- ./inp_files/295616.got.cif
#   From: 2010.06.25/outbox.cif.g09.slc.cpg/sg12_148_cif.got.tgz:295616.got - 2010.06.28 00:19:55.
