data_PCOD8102900
_publ_section_title
;
Structure prediction by ZEFSAII (Michael W. Deem and Ramdas Pophale) SiO2 
 PCOD8102900
Probable space group: C 2/M
;
_chemical_formula_sum "Si O2"
_cell_formula_units_Z 64
_cell_length_a 19.638943
_cell_length_b 9.050662
_cell_length_c 19.920935
_cell_angle_alpha 90.000000
_cell_angle_beta 94.543696
_cell_angle_gamma 90.000000
_cell_volume 3529.727088
_symmetry_space_group_name_H-M "C 2/M"
_symmetry_group_IT_number 12
_symmetry_cell_setting 'monoclinic'
loop_
_space_group_symop_operation_xyz
x,y,z
-x,y,-z
-x,-y,-z
x,-y,z
1/2+x,1/2+y,z
1/2-x,1/2+y,-z
1/2-x,1/2-y,-z
1/2+x,1/2-y,z
loop_
_atom_site_type_symbol
_atom_site_label
_atom_site_fract_x
_atom_site_fract_y
_atom_site_fract_z
Si Si1 0.625494 0.325302 0.805901
Si Si2 0.178906 0.325463 0.479860
Si Si3 0.658250 0.168873 0.934623
Si Si4 0.564848 0.670761 0.549826
Si Si5 0.774419 0.329913 0.778505
Si Si6 0.703787 0.169157 0.074671
Si Si7 0.129869 0.675485 0.329636
Si Si8 0.512887 0.327155 0.692196
O O1 0.628424 0.500000 0.810114
O O2 0.611839 0.264985 0.880447
O O3 0.698181 0.262446 0.783348
O O4 0.564317 0.271638 0.753841
O O5 0.187912 0.500000 0.483318
O O6 0.250000 0.250000 0.500000
O O7 0.126869 0.273923 0.532893
O O8 0.151734 0.272429 0.405289
O O9 0.737156 0.212158 0.932552
O O10 0.646814 0.000000 0.913396
O O11 0.643633 0.194386 0.014002
O O12 0.500000 0.710887 0.500000
O O13 0.586009 0.500000 0.542511
O O14 0.548490 0.710306 0.624798
O O15 0.764143 0.500000 0.759601
O O16 0.820409 0.309365 0.849966
O O17 0.814776 0.258257 0.719018
O O18 0.731962 0.000000 0.068967
O O19 0.124751 0.500000 0.324359
O O20 0.056868 0.740068 0.304801
O O21 0.496864 0.500000 0.696440
#
# Coordination Sequence:
#
# PCOD8102900 Si02
#       8
#     8   8   8   8   8   8   8   8
#     4   9  18  32  51  73  99 134 171 206 248 305
#     4  11  24  38  56  81 109 139 172 215 263 310
#     4   9  15  24  43  72 102 127 160 210 256 293
#     4  10  20  37  60  80 102 135 176 218 259 309
#     4   8  15  30  51  73  97 129 170 207 246 297
#     4   8  14  26  45  68  97 133 168 202 247 304
#     4  10  21  36  55  76 102 135 170 212 255 304
#     4  10  21  36  56  77 101 137 174 210 255 310
#
# _framework density 18.131713999999999
#
# number of rings (size 3 to 8) (size 9 to 14) (size 15 to 20)
#    0.000    2.625    1.250    1.500    1.750    2.250 
#    0.000    2.500    0.000    0.750    0.000    5.250 
#    0.000    0.000    0.000    0.000    0.000    0.000 
#
# Total GULP energy -396560.227408 kJ/mol
# GULP energy per Si atom -12392.507106 kJ/mol
# Density = 1.809045 g / cm^3
# Si number density = 18.131714 Si / 1000 Ang^3
#
#
#
# Elastic Constant Matrix: (Units=GPa)
#
#
# Indices 1 2 3 4 5 6 
#
# 1 92.9004 27.4887 49.7268 0.0000 15.3219 0.0000
# 2 27.4887 32.6190 21.5654 0.0000 6.6601 0.0000
# 3 49.7268 21.5654 96.7072 0.0000 29.2943 0.0000
# 4 0.0000 0.0000 0.0000 25.6984 0.0000 3.6764
# 5 15.3219 6.6601 29.2943 0.0000 29.9965 0.0000
# 6 0.0000 0.0000 0.0000 3.6764 0.0000 26.7222
#
#
#
# Elastic Compliance Matrix: (Units=1/GPa)
#
#
# Indices 1 2 3 4 5 6 
#
# 1 0.017344 -0.010227 -0.006592 0.000000 -0.000151 0.000000
# 2 -0.010227 0.041990 -0.004066 0.000000 -0.000128 0.000000
# 3 -0.006592 -0.004066 0.018949 0.000000 -0.014235 0.000000
# 4 0.000000 0.000000 0.000000 0.039694 0.000000 -0.005461
# 5 -0.000151 -0.000128 -0.014235 0.000000 0.047345 0.000000
# 6 0.000000 0.000000 0.000000 -0.005461 0.000000 0.038173
#
#
# Mechanical properties :
#
#
# Convention : Reuss Voigt Hill
#
# Bulk Modulus (GPa) = 27.38778 46.64316 37.01547
# Shear Modulus (GPa) = 19.42235 24.71314 22.06774
#
# Velocity S-wave (km/s) = 3.27644 3.69586 3.49245
# Velocity P-wave (km/s) = 5.42689 6.63272 6.05987
#
# Compressibility (1/GPa) = 0.03651263
#
# Stress axis : x y z
#
# Youngs Moduli (GPa) = 57.65824 23.81526 52.77357
#
# Poissons Ratio (x) = 0.24356 0.34787
# Poissons Ratio (y) = 0.58967 0.21458
# Poissons Ratio (z) = 0.38007 0.09683
#
# Static dielectric constant tensor:
#      x y z
#    x 3.103130 0.000000 0.122250 
#    y 0.000000 3.179550 0.000000 
#    z 0.122250 0.000000 3.820820 
# 
# 
# High freq. dielectric constant tensor:
#      x y z
#    x 1.667150 0.000000 0.012910 
#    y 0.000000 1.686030 0.000000 
#    z 0.012910 0.000000 1.723710 
# 
# From -- ./inp_files/313994.got.cif
#   From: 2010.06.25/outbox.cif.g09.slc.cpg/sg12_157_cif.got.tgz:313994.got - 2010.06.28 00:19:55.
