data_PCOD8102910
_publ_section_title
;
Structure prediction by ZEFSAII (Michael W. Deem and Ramdas Pophale) SiO2 
 PCOD8102910
Probable space group: C 2/M
;
_chemical_formula_sum "Si O2"
_cell_formula_units_Z 48
_cell_length_a 14.493274
_cell_length_b 16.127173
_cell_length_c 9.961384
_cell_angle_alpha 90.000000
_cell_angle_beta 85.712335
_cell_angle_gamma 90.000000
_cell_volume 2321.813033
_symmetry_space_group_name_H-M "C 2/M"
_symmetry_group_IT_number 12
_symmetry_cell_setting 'monoclinic'
loop_
_space_group_symop_operation_xyz
x,y,z
-x,y,-z
-x,-y,-z
x,-y,z
1/2+x,1/2+y,z
1/2-x,1/2+y,-z
1/2-x,1/2-y,-z
1/2+x,1/2-y,z
loop_
_atom_site_type_symbol
_atom_site_label
_atom_site_fract_x
_atom_site_fract_y
_atom_site_fract_z
Si Si1 0.894970 0.405334 0.489781
Si Si2 0.982845 0.779444 0.854431
Si Si3 0.188738 0.324817 0.053661
Si Si4 0.655801 0.829606 0.769849
Si Si5 0.461307 0.403140 0.358260
Si Si6 0.738089 0.334328 0.687641
O O1 0.886799 0.500000 0.538368
O O2 0.866058 0.400074 0.336424
O O3 0.824817 0.349593 0.581616
O O4 0.000000 0.372868 0.500000
O O5 0.902384 0.711685 0.865953
O O6 0.071054 0.731897 0.792355
O O7 0.970602 0.856750 0.754560
O O8 0.000000 0.817389 0.000000
O O9 0.241092 0.375599 0.166137
O O10 0.250000 0.250000 0.000000
O O11 0.172212 0.374387 0.914446
O O12 0.735713 0.766216 0.708478
O O13 0.500000 0.381656 0.500000
O O14 0.467342 0.500000 0.326172
O O15 0.354453 0.374424 0.361902
#
# Coordination Sequence:
#
# PCOD8102910 Si02
#       6
#     8   8   8   8   8   8
#     4  11  23  37  54  82 118 151 183 222 272 330
#     4   9  18  34  56  81 108 140 181 227 272 323
#     4   9  18  33  56  83 107 134 180 232 275 319
#     4   9  19  35  57  82 107 142 185 228 271 321
#     4  10  22  38  55  80 114 149 184 226 278 331
#     4  10  20  37  60  82 109 144 185 231 276 326
#
# _framework density 20.673500000000001
#
# number of rings (size 3 to 8) (size 9 to 14) (size 15 to 20)
#    0.000    2.333    0.000    3.000    0.000    8.333 
#    0.000    1.667    0.000    6.500    0.000    0.000 
#    0.000    0.000    0.000    0.000    0.000    0.000 
#
# Total GULP energy -297341.401590 kJ/mol
# GULP energy per Si atom -12389.225066 kJ/mol
# Density = 2.062645 g / cm^3
# Si number density = 20.673500 Si / 1000 Ang^3
#
#
#
# Elastic Constant Matrix: (Units=GPa)
#
#
# Indices 1 2 3 4 5 6 
#
# 1 102.3891 17.7400 56.8208 0.0000 3.6147 0.0000
# 2 17.7400 38.0567 29.0312 0.0000 1.6292 0.0000
# 3 56.8208 29.0312 152.6329 0.0000 22.7512 0.0000
# 4 0.0000 0.0000 0.0000 22.2478 0.0000 4.4823
# 5 3.6147 1.6292 22.7512 0.0000 44.2373 0.0000
# 6 0.0000 0.0000 0.0000 4.4823 0.0000 10.8416
#
#
#
# Elastic Compliance Matrix: (Units=1/GPa)
#
#
# Indices 1 2 3 4 5 6 
#
# 1 0.012609 -0.002577 -0.004402 0.000000 0.001329 0.000000
# 2 -0.002577 0.031432 -0.005283 0.000000 0.001770 0.000000
# 3 -0.004402 -0.005283 0.009869 0.000000 -0.004521 0.000000
# 4 0.000000 0.000000 0.000000 0.049032 0.000000 -0.020272
# 5 0.001329 0.001770 -0.004521 0.000000 0.024757 0.000000
# 6 0.000000 0.000000 0.000000 -0.020272 0.000000 0.100618
#
#
# Mechanical properties :
#
#
# Convention : Reuss Voigt Hill
#
# Bulk Modulus (GPa) = 34.02860 55.58475 44.80668
# Shear Modulus (GPa) = 19.03768 28.09779 23.56773
#
# Velocity S-wave (km/s) = 3.03788 3.69063 3.38005
# Velocity P-wave (km/s) = 5.36663 6.71612 6.07894
#
# Compressibility (1/GPa) = 0.02938704
#
# Stress axis : x y z
#
# Youngs Moduli (GPa) = 79.30825 31.81471 101.32525
#
# Poissons Ratio (x) = 0.08197 0.44603
# Poissons Ratio (y) = 0.20434 0.53531
# Poissons Ratio (z) = 0.34911 0.16808
#
# Static dielectric constant tensor:
#      x y z
#    x 3.791900 0.000000 0.126890 
#    y 0.000000 3.293200 0.000000 
#    z 0.126890 0.000000 4.851810 
# 
# 
# High freq. dielectric constant tensor:
#      x y z
#    x 1.818940 0.000000 0.006090 
#    y 0.000000 1.755980 0.000000 
#    z 0.006090 0.000000 1.834960 
# 
# From -- ./inp_files/61753.got.cif
#   From: 2010.06.25/outbox.cif.g09.slc.cpg/sg12_31_cif.got.tgz:61753.got - 2010.06.28 00:19:55.
