data_PCOD8102325
_publ_section_title
;
Structure prediction by ZEFSAII (Michael W. Deem and Ramdas Pophale) SiO2 
 PCOD8102325
Probable space group: C 2/M
;
_chemical_formula_sum "Si O2"
_cell_formula_units_Z 64
_cell_length_a 24.667645
_cell_length_b 9.024499
_cell_length_c 15.162061
_cell_angle_alpha 90.000000
_cell_angle_beta 105.083659
_cell_angle_gamma 90.000000
_cell_volume 3258.985282
_symmetry_space_group_name_H-M "C 2/M"
_symmetry_group_IT_number 12
_symmetry_cell_setting 'monoclinic'
loop_
_space_group_symop_operation_xyz
x,y,z
-x,y,-z
-x,-y,-z
x,-y,z
1/2+x,1/2+y,z
1/2-x,1/2+y,-z
1/2-x,1/2-y,-z
1/2+x,1/2-y,z
loop_
_atom_site_type_symbol
_atom_site_label
_atom_site_fract_x
_atom_site_fract_y
_atom_site_fract_z
Si Si1 0.523095 0.835538 0.634199
Si Si2 0.126057 0.172536 0.608045
Si Si3 0.120954 0.673954 0.934295
Si Si4 0.817040 0.325664 0.863734
Si Si5 0.688003 0.672686 0.808473
Si Si6 0.998661 0.667758 0.170654
Si Si7 0.395570 0.170575 0.570297
Si Si8 0.390262 0.324639 0.754096
O O1 0.563430 0.709992 0.613920
O O2 0.521416 0.820238 0.738011
O O3 0.460697 0.812854 0.569102
O O4 0.545408 0.000000 0.617674
O O5 0.170302 0.219697 0.702038
O O6 0.141069 0.262099 0.525139
O O7 0.129335 0.000000 0.587458
O O8 0.128558 0.500000 0.925505
O O9 0.149782 0.745950 0.862566
O O10 0.054713 0.715468 0.911388
O O11 0.149672 0.729586 0.035983
O O12 0.825246 0.500000 0.849827
O O13 0.752363 0.283749 0.850715
O O14 0.838665 0.234724 0.789387
O O15 0.677478 0.500000 0.817672
O O16 0.017979 0.500000 0.156750
O O17 0.051434 0.773901 0.175404
O O18 0.383269 0.259512 0.653770
O O19 0.379423 0.000000 0.579963
O O20 0.388783 0.500000 0.748262
#
# Coordination Sequence:
#
# PCOD8102325 Si02
#       8
#     8   8   8   8   8   8   8   8
#     4   9  17  31  51  77 112 149 185 223 274 335
#     4  11  21  32  51  83 117 148 184 228 282 337
#     4  10  20  36  62  89 113 148 194 236 278 337
#     4  10  22  41  61  81 111 155 198 235 281 336
#     4  10  22  38  57  85 121 153 185 235 290 334
#     4   9  18  34  56  84 117 152 187 229 281 338
#     4  10  21  37  57  80 110 149 190 230 277 337
#     4  11  23  39  59  84 114 148 190 238 286 337
#
# _framework density 19.638013999999998
#
# number of rings (size 3 to 8) (size 9 to 14) (size 15 to 20)
#    0.000    2.000    1.250    3.375    0.000    6.500 
#    0.000    3.125    0.000    0.000    0.000    0.000 
#    0.000    0.000    0.000    0.000    0.000    0.000 
#
# Total GULP energy -396866.150444 kJ/mol
# GULP energy per Si atom -12402.067201 kJ/mol
# Density = 1.959332 g / cm^3
# Si number density = 19.638014 Si / 1000 Ang^3
#
#
#
# Elastic Constant Matrix: (Units=GPa)
#
#
# Indices 1 2 3 4 5 6 
#
# 1 39.1935 25.4815 12.2669 0.0000 -8.0641 0.0000
# 2 25.4815 84.8078 29.3702 0.0000 -4.8227 0.0000
# 3 12.2669 29.3702 78.3360 0.0000 14.3775 0.0000
# 4 0.0000 0.0000 0.0000 24.8404 0.0000 0.7626
# 5 -8.0641 -4.8227 14.3775 0.0000 15.7615 0.0000
# 6 0.0000 0.0000 0.0000 0.7626 0.0000 22.8432
#
#
#
# Elastic Compliance Matrix: (Units=1/GPa)
#
#
# Indices 1 2 3 4 5 6 
#
# 1 0.037517 -0.007324 -0.007496 0.000000 0.023791 0.000000
# 2 -0.007324 0.016616 -0.006400 0.000000 0.007175 0.000000
# 3 -0.007496 -0.006400 0.020901 0.000000 -0.024859 0.000000
# 4 0.000000 0.000000 0.000000 0.040298 0.000000 -0.001345
# 5 0.023791 0.007175 -0.024859 0.000000 0.100490 0.000000
# 6 0.000000 0.000000 0.000000 -0.001345 0.000000 0.043822
#
#
# Mechanical properties :
#
#
# Convention : Reuss Voigt Hill
#
# Bulk Modulus (GPa) = 30.67853 37.39718 34.03785
# Shear Modulus (GPa) = 15.97708 21.70359 18.84033
#
# Velocity S-wave (km/s) = 2.85543 3.32804 3.10075
# Velocity P-wave (km/s) = 5.15046 5.81828 5.49452
#
# Compressibility (1/GPa) = 0.03259609
#
# Stress axis : x y z
#
# Youngs Moduli (GPa) = 26.65460 60.18205 47.84374
#
# Poissons Ratio (x) = 0.44075 0.35862
# Poissons Ratio (y) = 0.19521 0.30620
# Poissons Ratio (z) = 0.19979 0.38516
#
# Static dielectric constant tensor:
#      x y z
#    x 3.410770 0.000000 0.203100 
#    y 0.000000 3.490720 0.000000 
#    z 0.203100 0.000000 3.800240 
# 
# 
# High freq. dielectric constant tensor:
#      x y z
#    x 1.745240 0.000000 0.003980 
#    y 0.000000 1.757520 0.000000 
#    z 0.003980 0.000000 1.779330 
# 
# From -- ./inp_files/244269.got.cif
#   From: 2010.06.25/outbox.cif.g09.slc.cpg/sg12_123_cif.got.tgz:244269.got - 2010.06.28 00:19:55.
