data_PCOD8102084
_publ_section_title
;
Structure prediction by ZEFSAII (Michael W. Deem and Ramdas Pophale) SiO2 
 PCOD8102084
Probable space group: C 2/M
;
_chemical_formula_sum "Si O2"
_cell_formula_units_Z 48
_cell_length_a 29.284590
_cell_length_b 8.808084
_cell_length_c 16.437577
_cell_angle_alpha 90.000000
_cell_angle_beta 142.737851
_cell_angle_gamma 90.000000
_cell_volume 2567.117997
_symmetry_space_group_name_H-M "C 2/M"
_symmetry_group_IT_number 12
_symmetry_cell_setting 'monoclinic'
loop_
_space_group_symop_operation_xyz
x,y,z
-x,y,-z
-x,-y,-z
x,-y,z
1/2+x,1/2+y,z
1/2-x,1/2+y,-z
1/2-x,1/2-y,-z
1/2+x,1/2-y,z
loop_
_atom_site_type_symbol
_atom_site_label
_atom_site_fract_x
_atom_site_fract_y
_atom_site_fract_z
Si Si1 0.853516 0.824968 0.473087
Si Si2 0.304572 0.826653 0.832510
Si Si3 0.668514 0.178687 0.393352
Si Si4 0.585401 0.823461 0.597218
Si Si5 0.278582 0.679706 0.123605
Si Si6 0.411609 0.674033 0.868171
O O1 0.765104 0.807990 0.328104
O O2 0.872111 0.744972 0.584524
O O3 0.903762 0.744826 0.476538
O O4 0.877300 0.000000 0.511347
O O5 0.279428 0.774107 0.886869
O O6 0.372651 0.721083 0.898241
O O7 0.332523 0.000000 0.873787
O O8 0.750000 0.250000 0.500000
O O9 0.617780 0.217385 0.244198
O O10 0.677111 0.000000 0.413663
O O11 0.500000 0.792224 0.500000
O O12 0.638693 0.742643 0.738782
O O13 0.605804 0.000000 0.624952
O O14 0.284453 0.500000 0.124387
O O15 0.250000 0.750000 0.000000
O O16 0.391323 0.500000 0.819732
O O17 0.500000 0.699049 0.000000
#
# Coordination Sequence:
#
# PCOD8102084 Si02
#       6
#     8   8   8   8   8   8
#     4  10  20  36  60  89 117 149 194 240 285 342
#     4   9  19  36  59  84 112 150 191 236 287 344
#     4  12  23  37  61  88 116 152 194 239 285 340
#     4  10  21  38  60  87 120 155 192 236 290 346
#     4  10  21  38  61  87 115 150 195 241 289 347
#     4  11  24  40  58  84 118 154 193 237 289 345
#
# _framework density 18.698011000000001
#
# number of rings (size 3 to 8) (size 9 to 14) (size 15 to 20)
#    0.000    1.667    1.667    4.500    0.000    6.000 
#    3.000    0.000    0.000    0.000    0.000    0.000 
#    0.000    0.000    0.000    0.000    0.000    0.000 
#
# Total GULP energy -297708.702181 kJ/mol
# GULP energy per Si atom -12404.529258 kJ/mol
# Density = 1.865545 g / cm^3
# Si number density = 18.698011 Si / 1000 Ang^3
#
#
#
# Elastic Constant Matrix: (Units=GPa)
#
#
# Indices 1 2 3 4 5 6 
#
# 1 125.6739 77.6142 66.0439 0.0000 -6.3897 0.0000
# 2 77.6142 104.4602 54.9589 0.0000 6.2828 0.0000
# 3 66.0439 54.9589 90.3937 0.0000 -13.3268 0.0000
# 4 0.0000 0.0000 0.0000 32.9187 0.0000 -3.4955
# 5 -6.3897 6.2828 -13.3268 0.0000 32.1580 0.0000
# 6 0.0000 0.0000 0.0000 -3.4955 0.0000 36.7764
#
#
#
# Elastic Compliance Matrix: (Units=1/GPa)
#
#
# Indices 1 2 3 4 5 6 
#
# 1 0.017540 -0.009800 -0.006455 0.000000 0.002725 0.000000
# 2 -0.009800 0.021054 -0.006959 0.000000 -0.008945 0.000000
# 3 -0.006455 -0.006959 0.021324 0.000000 0.008914 0.000000
# 4 0.000000 0.000000 0.000000 0.030688 0.000000 0.002917
# 5 0.002725 -0.008945 0.008914 0.000000 0.037080 0.000000
# 6 0.000000 0.000000 0.000000 0.002917 0.000000 0.027469
#
#
# Mechanical properties :
#
#
# Convention : Reuss Voigt Hill
#
# Bulk Modulus (GPa) = 74.13126 79.75129 76.94128
# Shear Modulus (GPa) = 24.26238 28.49801 26.38020
#
# Velocity S-wave (km/s) = 3.60612 3.90823 3.76021
# Velocity P-wave (km/s) = 7.55456 7.94422 7.75184
#
# Compressibility (1/GPa) = 0.01348959
#
# Stress axis : x y z
#
# Youngs Moduli (GPa) = 57.01105 47.49705 46.89449
#
# Poissons Ratio (x) = 0.46548 0.30272
# Poissons Ratio (y) = 0.55872 0.32634
# Poissons Ratio (z) = 0.36802 0.33054
#
# Static dielectric constant tensor:
#      x y z
#    x 3.612720 0.000000 -0.173200 
#    y 0.000000 3.587770 0.000000 
#    z -0.173200 0.000000 3.421730 
# 
# 
# High freq. dielectric constant tensor:
#      x y z
#    x 1.735270 0.000000 -0.010140 
#    y 0.000000 1.742220 0.000000 
#    z -0.010140 0.000000 1.708670 
# 
# From -- ./inp_files/244871.got.cif
#   From: 2010.06.25/outbox.cif.g09.slc.cpg/sg12_123_cif.got.tgz:244871.got - 2010.06.28 00:19:55.
