data_PCOD8102196
_publ_section_title
;
Structure prediction by ZEFSAII (Michael W. Deem and Ramdas Pophale) SiO2 
 PCOD8102196
Probable space group: C 2/M
;
_chemical_formula_sum "Si O2"
_cell_formula_units_Z 56
_cell_length_a 9.443201
_cell_length_b 17.986343
_cell_length_c 26.983620
_cell_angle_alpha 90.000000
_cell_angle_beta 39.107080
_cell_angle_gamma 90.000000
_cell_volume 2890.909632
_symmetry_space_group_name_H-M "C 2/M"
_symmetry_group_IT_number 12
_symmetry_cell_setting 'monoclinic'
loop_
_space_group_symop_operation_xyz
x,y,z
-x,y,-z
-x,-y,-z
x,-y,z
1/2+x,1/2+y,z
1/2-x,1/2+y,-z
1/2-x,1/2-y,-z
1/2+x,1/2-y,z
loop_
_atom_site_type_symbol
_atom_site_label
_atom_site_fract_x
_atom_site_fract_y
_atom_site_fract_z
Si Si1 0.166385 0.585579 0.795123
Si Si2 0.997422 0.085627 0.210806
Si Si3 0.146882 0.821695 0.505313
Si Si4 0.552191 0.165549 0.336149
Si Si5 0.253507 0.680276 0.675713
Si Si6 0.270700 0.652308 0.043913
Si Si7 0.748992 0.680808 0.063023
O O1 0.171275 0.500000 0.778294
O O2 0.380796 0.606513 0.770613
O O3 0.165869 0.632588 0.745213
O O4 0.941953 0.600565 0.887912
O O5 0.087373 0.137035 0.142995
O O6 0.731648 0.099442 0.285568
O O7 0.043176 0.000000 0.185108
O O8 0.250000 0.750000 0.500000
O O9 0.357780 0.867929 0.425859
O O10 0.000000 0.792013 0.500000
O O11 0.977419 0.860141 0.591091
O O12 0.677653 0.237820 0.324372
O O13 0.445727 0.184779 0.311112
O O14 0.231228 0.731897 0.081456
O O15 0.500000 0.613488 0.000000
O O16 0.326043 0.665595 0.971899
O O17 0.000000 0.650527 0.000000
#
# Coordination Sequence:
#
# PCOD8102196 Si02
#       7
#     8   8   8   8   8   8   8
#     4  11  24  40  55  80 120 157 191 234 284 334
#     4  11  24  39  57  81 115 157 197 234 278 336
#     4   8  16  32  55  86 114 142 182 231 285 334
#     4  10  20  36  61  88 115 147 189 236 282 340
#     4  10  20  36  61  87 116 149 186 235 286 338
#     4  10  22  37  60  87 111 142 185 240 289 339
#     4  10  20  39  61  82 110 145 187 234 288 338
#
# _framework density 19.371065000000002
#
# number of rings (size 3 to 8) (size 9 to 14) (size 15 to 20)
#    0.000    2.000    1.429    1.714    2.000    2.857 
#    0.000    0.714    0.000    4.286    0.000    0.000 
#    0.000    0.000    0.000    0.000    0.000    0.000 
#
# Total GULP energy -346992.392960 kJ/mol
# GULP energy per Si atom -12392.585463 kJ/mol
# Density = 1.932698 g / cm^3
# Si number density = 19.371065 Si / 1000 Ang^3
#
#
#
# Elastic Constant Matrix: (Units=GPa)
#
#
# Indices 1 2 3 4 5 6 
#
# 1 108.0091 21.7120 33.9947 0.0052 -13.2768 -0.0028
# 2 21.7120 46.5955 20.2294 0.0289 1.1804 -0.0060
# 3 33.9947 20.2294 90.6386 0.0561 -7.0856 -0.0046
# 4 0.0052 0.0289 0.0561 -0.1916 0.0039 -7.8305
# 5 -13.2768 1.1804 -7.0856 0.0039 34.0051 0.0002
# 6 -0.0028 -0.0060 -0.0046 -7.8305 0.0002 20.8757
#
#
#
# Elastic Compliance Matrix: (Units=1/GPa)
#
#
# Indices 1 2 3 4 5 6 
#
# 1 0.011559 -0.004143 -0.003097 -0.000069 0.004012 -0.000026
# 2 -0.004143 0.025379 -0.004377 0.000131 -0.003411 0.000055
# 3 -0.003097 -0.004377 0.013305 0.000192 0.001715 0.000073
# 4 -0.000069 0.000131 0.000192 -0.319598 0.000046 -0.119882
# 5 0.004012 -0.003411 0.001715 0.000046 0.031449 0.000017
# 6 -0.000026 0.000055 0.000073 -0.119882 0.000017 0.002935
#
#
# Mechanical properties :
#
#
# Convention : Reuss Voigt Hill
#
# Bulk Modulus (GPa) = 37.02522 44.12391 40.57457
# Shear Modulus (GPa) = -24.66294 22.22496 -1.21899
#
# Velocity S-wave (km/s) = -3.57204 3.39090 -0.79413
# Velocity P-wave (km/s) = 1.46374 6.17727 4.48894
#
# Compressibility (1/GPa) = 0.02700862
#
# Stress axis : x y z
#
# Youngs Moduli (GPa) = 86.51099 39.40343 75.15851
#
# Poissons Ratio (x) = 0.16326 0.23277
# Poissons Ratio (y) = 0.35844 0.32896
# Poissons Ratio (z) = 0.26792 0.17247
#
# Static dielectric constant tensor:
#      x y z
#    x 3.739490 -0.000060 -0.079050 
#    y -0.000060 3.063580 -0.000160 
#    z -0.079050 -0.000160 4.200720 
# 
# 
# High freq. dielectric constant tensor:
#      x y z
#    x 1.772270 0.000000 -0.004760 
#    y 0.000000 1.713700 0.000000 
#    z -0.004760 0.000000 1.769830 
# 
# From -- ./inp_files/356644.got.cif
#   From: 2010.06.25/outbox.cif.g09.slc.cpg/sg12_179_cif.got.tgz:356644.got - 2010.06.28 00:19:55.
