data_PCOD8102895
_publ_section_title
;
Structure prediction by ZEFSAII (Michael W. Deem and Ramdas Pophale) SiO2 
 PCOD8102895
Probable space group: C 2/M
;
_chemical_formula_sum "Si O2"
_cell_formula_units_Z 56
_cell_length_a 17.947168
_cell_length_b 9.199020
_cell_length_c 20.498897
_cell_angle_alpha 90.000000
_cell_angle_beta 62.481004
_cell_angle_gamma 90.000000
_cell_volume 3001.386489
_symmetry_space_group_name_H-M "C 2/M"
_symmetry_group_IT_number 12
_symmetry_cell_setting 'monoclinic'
loop_
_space_group_symop_operation_xyz
x,y,z
-x,y,-z
-x,-y,-z
x,-y,z
1/2+x,1/2+y,z
1/2-x,1/2+y,-z
1/2-x,1/2-y,-z
1/2+x,1/2-y,z
loop_
_atom_site_type_symbol
_atom_site_label
_atom_site_fract_x
_atom_site_fract_y
_atom_site_fract_z
Si Si1 0.627810 0.666131 0.090275
Si Si2 0.712336 0.665401 0.932223
Si Si3 0.261808 0.672021 0.646728
Si Si4 0.556222 0.169343 0.230244
Si Si5 0.766611 0.664717 0.774385
Si Si6 0.103205 0.327641 0.627415
Si Si7 0.905423 0.668307 0.515815
O O1 0.613085 0.500000 0.115796
O O2 0.720310 0.714599 0.074693
O O3 0.558013 0.758536 0.157306
O O4 0.627789 0.686986 0.010698
O O5 0.747436 0.500000 0.929867
O O6 0.697303 0.683002 0.860434
O O7 0.270411 0.500000 0.643743
O O8 0.241335 0.725843 0.727650
O O9 0.187092 0.724539 0.629734
O O10 0.348266 0.741265 0.587986
O O11 0.641240 0.204093 0.235074
O O12 0.478174 0.235618 0.302219
O O13 0.543569 0.000000 0.223742
O O14 0.766919 0.500000 0.747106
O O15 0.095502 0.500000 0.628351
O O16 0.105479 0.268178 0.552693
O O17 0.878841 0.500000 0.530481
O O18 0.000000 0.690690 0.500000
#
# Coordination Sequence:
#
# PCOD8102895 Si02
#       7
#     8   8   8   8   8   8   8
#     4   9  15  24  42  71 101 124 156 206 255 290
#     4   8  15  27  43  65  96 132 165 199 242 292
#     4  11  22  34  50  75 105 130 155 198 250 289
#     4   9  17  32  52  71  95 130 169 204 239 286
#     4   9  17  31  51  72  95 130 172 204 235 286
#     4   9  19  35  53  73  99 131 164 196 236 290
#     4  10  20  37  60  78  94 125 166 199 232 286
#
# _framework density 18.658042999999999
#
# number of rings (size 3 to 8) (size 9 to 14) (size 15 to 20)
#    0.000    2.714    0.000    3.000    0.000    5.429 
#    0.000    2.857    0.000    0.857    0.000    6.000 
#    0.000    0.000    0.000    0.000    0.000    0.000 
#
# Total GULP energy -347024.621251 kJ/mol
# GULP energy per Si atom -12393.736473 kJ/mol
# Density = 1.861558 g / cm^3
# Si number density = 18.658043 Si / 1000 Ang^3
#
#
#
# Elastic Constant Matrix: (Units=GPa)
#
#
# Indices 1 2 3 4 5 6 
#
# 1 51.9183 27.5739 35.4015 0.0000 14.2785 0.0002
# 2 27.5739 57.0836 43.3288 0.0000 9.3147 0.0006
# 3 35.4015 43.3288 148.5713 0.0000 15.8747 0.0000
# 4 0.0000 0.0000 0.0000 33.5352 0.0000 1.7643
# 5 14.2785 9.3147 15.8747 0.0000 14.8097 0.0000
# 6 0.0002 0.0006 0.0000 1.7643 0.0000 14.6649
#
#
#
# Elastic Compliance Matrix: (Units=1/GPa)
#
#
# Indices 1 2 3 4 5 6 
#
# 1 0.032445 -0.010240 -0.002361 0.000000 -0.022310 0.000000
# 2 -0.010240 0.026611 -0.005181 0.000000 -0.001311 -0.000001
# 3 -0.002361 -0.005181 0.009275 0.000000 -0.004408 0.000000
# 4 0.000000 0.000000 0.000000 0.030009 0.000000 -0.003610
# 5 -0.022310 -0.001311 -0.004408 0.000000 0.094582 0.000000
# 6 0.000000 -0.000001 0.000000 -0.003610 0.000000 0.068624
#
#
# Mechanical properties :
#
#
# Convention : Reuss Voigt Hill
#
# Bulk Modulus (GPa) = 30.51739 52.24240 41.37990
# Shear Modulus (GPa) = 16.23206 22.68655 19.45930
#
# Velocity S-wave (km/s) = 2.95274 3.49078 3.23297
# Velocity P-wave (km/s) = 5.29307 6.65643 6.01351
#
# Compressibility (1/GPa) = 0.03276820
#
# Stress axis : x y z
#
# Youngs Moduli (GPa) = 30.82146 37.57880 107.81536
#
# Poissons Ratio (x) = 0.38480 0.25453
# Poissons Ratio (y) = 0.31561 0.55855
# Poissons Ratio (z) = 0.07276 0.19468
#
# Static dielectric constant tensor:
#      x y z
#    x 3.055710 0.000000 -0.026610 
#    y 0.000000 3.272090 0.000000 
#    z -0.026610 0.000000 3.974810 
# 
# 
# High freq. dielectric constant tensor:
#      x y z
#    x 1.675490 0.000000 -0.003580 
#    y 0.000000 1.708590 0.000000 
#    z -0.003580 0.000000 1.753720 
# 
# From -- ./inp_files/275354.got.cif
#   From: 2010.06.25/outbox.cif.g09.slc.cpg/sg12_138_cif.got.tgz:275354.got - 2010.06.28 00:19:55.
