data_PCOD8102659
_publ_section_title
;
Structure prediction by ZEFSAII (Michael W. Deem and Ramdas Pophale) SiO2 
 PCOD8102659
Probable space group: C 2/M
;
_chemical_formula_sum "Si O2"
_cell_formula_units_Z 56
_cell_length_a 12.298217
_cell_length_b 27.723584
_cell_length_c 10.146342
_cell_angle_alpha 90.000000
_cell_angle_beta 123.696705
_cell_angle_gamma 90.000000
_cell_volume 2878.174067
_symmetry_space_group_name_H-M "C 2/M"
_symmetry_group_IT_number 12
_symmetry_cell_setting 'monoclinic'
loop_
_space_group_symop_operation_xyz
x,y,z
-x,y,-z
-x,-y,-z
x,-y,z
1/2+x,1/2+y,z
1/2-x,1/2+y,-z
1/2-x,1/2-y,-z
1/2+x,1/2-y,z
loop_
_atom_site_type_symbol
_atom_site_label
_atom_site_fract_x
_atom_site_fract_y
_atom_site_fract_z
Si Si1 0.396619 0.710394 0.692887
Si Si2 0.170869 0.687914 0.355758
Si Si3 0.098035 0.159169 0.668486
Si Si4 0.204889 0.500000 0.072187
Si Si5 0.631341 0.411943 0.919467
Si Si6 0.101099 0.596157 0.448435
Si Si7 0.147021 0.887354 0.215418
Si Si8 0.930326 0.500000 0.743490
O O1 0.250631 0.704128 0.537931
O O2 0.413257 0.765867 0.753011
O O3 0.509085 0.703897 0.658229
O O4 0.404433 0.668428 0.809428
O O5 0.267383 0.674743 0.304001
O O6 0.080589 0.641958 0.336004
O O7 0.145340 0.129967 0.824473
O O8 0.000000 0.130812 0.500000
O O9 0.293448 0.455446 0.094532
O O10 0.174071 0.500000 0.207527
O O11 0.074786 0.500000 0.898813
O O12 0.477429 0.422216 0.840819
O O13 0.700185 0.396716 0.103794
O O14 0.246841 0.598680 0.604679
O O15 0.087691 0.547087 0.358109
O O16 0.000000 0.598252 0.500000
#
# Coordination Sequence:
#
# PCOD8102659 Si02
#       8
#     8   8   8   4   8   8   8   4
#     4   8  16  30  50  78 113 145 178 228 280 326
#     4   9  17  30  52  81 107 142 191 227 267 334
#     4   9  17  32  53  77 110 146 181 231 286 330
#     4  11  24  40  61  83 108 150 188 229 287 332
#     4  10  20  37  58  81 113 147 188 234 281 333
#     4  11  22  37  59  84 113 150 190 233 282 334
#     4   9  20  36  57  85 115 147 184 230 283 335
#     4  11  25  43  59  82 116 148 185 231 283 339
#
# _framework density 19.456779999999998
#
# number of rings (size 3 to 8) (size 9 to 14) (size 15 to 20)
#    0.000    2.429    0.000    2.786    0.000    6.286 
#    0.000    1.786    0.000   15.429    0.000    0.000 
#    0.000    0.000    0.000    0.000    0.000    0.000 
#
# Total GULP energy -346919.249327 kJ/mol
# GULP energy per Si atom -12389.973190 kJ/mol
# Density = 1.941250 g / cm^3
# Si number density = 19.456780 Si / 1000 Ang^3
#
#
#
# Elastic Constant Matrix: (Units=GPa)
#
#
# Indices 1 2 3 4 5 6 
#
# 1 127.7162 78.0695 39.6232 0.0000 -25.6433 0.0000
# 2 78.0695 138.8442 32.3112 0.0000 -10.8824 0.0000
# 3 39.6232 32.3112 55.4104 0.0000 -6.4993 0.0000
# 4 0.0000 0.0000 0.0000 -18.3205 0.0000 18.8888
# 5 -25.6433 -10.8824 -6.4993 0.0000 28.0671 0.0000
# 6 0.0000 0.0000 0.0000 18.8888 0.0000 13.3456
#
#
#
# Elastic Compliance Matrix: (Units=1/GPa)
#
#
# Indices 1 2 3 4 5 6 
#
# 1 0.016002 -0.006705 -0.006294 0.000000 0.010563 0.000000
# 2 -0.006705 0.011273 -0.002040 0.000000 -0.002228 0.000000
# 3 -0.006294 -0.002040 0.023611 0.000000 -0.001074 0.000000
# 4 0.000000 0.000000 0.000000 -0.022195 0.000000 0.031414
# 5 0.010563 -0.002228 -0.001074 0.000000 0.044167 0.000000
# 6 0.000000 0.000000 0.000000 0.031414 0.000000 0.030469
#
#
# Mechanical properties :
#
#
# Convention : Reuss Voigt Hill
#
# Bulk Modulus (GPa) = 48.05807 69.10873 58.58340
# Shear Modulus (GPa) = 35.62753 16.08289 25.85521
#
# Velocity S-wave (km/s) = 4.28379 2.87818 3.64930
# Velocity P-wave (km/s) = 7.01579 6.82945 6.92325
#
# Compressibility (1/GPa) = 0.02080816
#
# Stress axis : x y z
#
# Youngs Moduli (GPa) = 62.49227 88.71111 42.35235
#
# Poissons Ratio (x) = 0.59481 0.26656
# Poissons Ratio (y) = 0.41901 0.08640
# Poissons Ratio (z) = 0.39332 0.18096
#
# Static dielectric constant tensor:
#      x y z
#    x 3.711980 0.000000 -0.144620 
#    y 0.000000 3.433070 0.000000 
#    z -0.144620 0.000000 3.512630 
# 
# 
# High freq. dielectric constant tensor:
#      x y z
#    x 1.766850 0.000000 -0.014390 
#    y 0.000000 1.749840 0.000000 
#    z -0.014390 0.000000 1.742060 
# 
# From -- ./inp_files/54854.got.cif
#   From: 2010.06.25/outbox.cif.g09.slc.cpg/sg12_28_cif.got.tgz:54854.got - 2010.06.28 00:19:55.
