data_PCOD8102064
_publ_section_title
;
Structure prediction by ZEFSAII (Michael W. Deem and Ramdas Pophale) SiO2 
 PCOD8102064
Probable space group: C 2/M
;
_chemical_formula_sum "Si O2"
_cell_formula_units_Z 56
_cell_length_a 31.246763
_cell_length_b 14.016607
_cell_length_c 12.600934
_cell_angle_alpha 90.000000
_cell_angle_beta 28.975241
_cell_angle_gamma 90.000000
_cell_volume 2673.518280
_symmetry_space_group_name_H-M "C 2/M"
_symmetry_group_IT_number 12
_symmetry_cell_setting 'monoclinic'
loop_
_space_group_symop_operation_xyz
x,y,z
-x,y,-z
-x,-y,-z
x,-y,z
1/2+x,1/2+y,z
1/2-x,1/2+y,-z
1/2-x,1/2-y,-z
1/2+x,1/2-y,z
loop_
_atom_site_type_symbol
_atom_site_label
_atom_site_fract_x
_atom_site_fract_y
_atom_site_fract_z
Si Si1 0.441727 0.607022 0.530655
Si Si2 0.092658 0.889791 0.855108
Si Si3 0.255013 0.108897 0.960985
Si Si4 0.243944 0.389686 0.643727
Si Si5 0.700766 0.224524 0.943170
Si Si6 0.045807 0.391756 0.010417
Si Si7 0.961555 0.773684 0.832249
O O1 0.500000 0.648392 0.500000
O O2 0.473277 0.500000 0.435712
O O3 0.340950 0.611001 0.779423
O O4 0.455256 0.668134 0.393731
O O5 0.174595 0.855288 0.605475
O O6 0.103380 0.000000 0.860488
O O7 0.095136 0.831354 0.958019
O O8 0.000000 0.868006 0.000000
O O9 0.315652 0.151699 0.922942
O O10 0.282334 0.000000 0.870054
O O11 0.257052 0.180867 0.855720
O O12 0.256131 0.500000 0.650403
O O13 0.247461 0.327378 0.742882
O O14 0.152110 0.376211 0.777954
O O15 0.602858 0.256335 0.126166
O O16 0.021319 0.500000 0.091879
O O17 0.003953 0.325617 0.192769
O O18 0.000000 0.361204 0.000000
#
# Coordination Sequence:
#
# PCOD8102064 Si02
#       7
#     8   8   8   8   8   8   8
#     4  10  20  36  60  88 119 151 186 236 309 367
#     4  10  22  37  56  89 125 153 189 242 305 365
#     4  10  21  38  59  87 120 153 193 244 295 356
#     4   9  19  37  59  85 119 156 195 243 299 355
#     4  10  21  35  58  86 114 157 194 233 290 356
#     4   9  19  37  59  80 111 162 210 244 283 336
#     4  11  21  36  58  88 116 152 194 246 287 354
#
# _framework density 20.946183000000001
#
# number of rings (size 3 to 8) (size 9 to 14) (size 15 to 20)
#    0.000    2.143    1.429    1.286    2.000    3.429 
#    2.571    0.000    0.000    5.571    0.000    0.000 
#    0.000    0.000    0.000    0.000    0.000    0.000 
#
# Total GULP energy -347134.699115 kJ/mol
# GULP energy per Si atom -12397.667826 kJ/mol
# Density = 2.089851 g / cm^3
# Si number density = 20.946183 Si / 1000 Ang^3
#
#
#
# Elastic Constant Matrix: (Units=GPa)
#
#
# Indices 1 2 3 4 5 6 
#
# 1 131.6422 56.8492 27.7746 0.0000 4.9464 0.0000
# 2 56.8492 124.5389 34.8035 0.0000 16.3700 0.0000
# 3 27.7746 34.8035 80.7095 0.0000 11.7201 0.0000
# 4 0.0000 0.0000 0.0000 21.8307 0.0000 12.6233
# 5 4.9464 16.3700 11.7201 0.0000 23.4556 0.0000
# 6 0.0000 0.0000 0.0000 12.6233 0.0000 33.3874
#
#
#
# Elastic Compliance Matrix: (Units=1/GPa)
#
#
# Indices 1 2 3 4 5 6 
#
# 1 0.009706 -0.004158 -0.001802 0.000000 0.001755 0.000000
# 2 -0.004158 0.011429 -0.002660 0.000000 -0.005771 0.000000
# 3 -0.001802 -0.002660 0.014915 0.000000 -0.005216 0.000000
# 4 0.000000 0.000000 0.000000 0.058623 0.000000 -0.022165
# 5 0.001755 -0.005771 -0.005216 0.000000 0.048897 0.000000
# 6 0.000000 0.000000 0.000000 -0.022165 0.000000 0.038332
#
#
# Mechanical properties :
#
#
# Convention : Reuss Voigt Hill
#
# Bulk Modulus (GPa) = 53.16076 63.97167 58.56622
# Shear Modulus (GPa) = 24.34130 30.23230 27.28680
#
# Velocity S-wave (km/s) = 3.41264 3.80324 3.61322
# Velocity P-wave (km/s) = 6.40023 7.06353 6.74004
#
# Compressibility (1/GPa) = 0.01881087
#
# Stress axis : x y z
#
# Youngs Moduli (GPa) = 103.02775 87.49379 67.04806
#
# Poissons Ratio (x) = 0.36378 0.12083
# Poissons Ratio (y) = 0.42836 0.17833
# Poissons Ratio (z) = 0.18567 0.23271
#
# Static dielectric constant tensor:
#      x y z
#    x 3.898120 0.000000 -0.038100 
#    y 0.000000 4.195600 0.000000 
#    z -0.038100 0.000000 3.481440 
# 
# 
# High freq. dielectric constant tensor:
#      x y z
#    x 1.827640 0.000000 -0.001700 
#    y 0.000000 1.835960 0.000000 
#    z -0.001700 0.000000 1.788030 
# 
# From -- ./inp_files/189604.got.cif
#   From: 2010.06.25/outbox.cif.g09.slc.cpg/sg12_95_cif.got.tgz:189604.got - 2010.06.28 00:19:55.
