data_PCOD8102364
_publ_section_title
;
Structure prediction by ZEFSAII (Michael W. Deem and Ramdas Pophale) SiO2 
 PCOD8102364
Probable space group: C 2/M
;
_chemical_formula_sum "Si O2"
_cell_formula_units_Z 64
_cell_length_a 18.783833
_cell_length_b 8.924329
_cell_length_c 31.584978
_cell_angle_alpha 90.000000
_cell_angle_beta 37.403613
_cell_angle_gamma 90.000000
_cell_volume 3216.130771
_symmetry_space_group_name_H-M "C 2/M"
_symmetry_group_IT_number 12
_symmetry_cell_setting 'monoclinic'
loop_
_space_group_symop_operation_xyz
x,y,z
-x,y,-z
-x,-y,-z
x,-y,z
1/2+x,1/2+y,z
1/2-x,1/2+y,-z
1/2-x,1/2-y,-z
1/2+x,1/2-y,z
loop_
_atom_site_type_symbol
_atom_site_label
_atom_site_fract_x
_atom_site_fract_y
_atom_site_fract_z
Si Si1 0.367982 0.175884 0.292798
Si Si2 0.725212 0.176259 0.202756
Si Si3 0.709965 0.824605 0.976345
Si Si4 0.321832 0.672753 0.687660
Si Si5 0.609173 0.322318 0.180120
Si Si6 0.707022 0.673284 0.586087
Si Si7 0.589106 0.329055 0.554560
Si Si8 0.483976 0.667495 0.057136
O O1 0.265469 0.218870 0.308602
O O2 0.485814 0.258484 0.221907
O O3 0.332222 0.227481 0.356194
O O4 0.391665 0.000000 0.282270
O O5 0.701089 0.220197 0.262131
O O6 0.634669 0.260156 0.214849
O O7 0.856053 0.228048 0.129213
O O8 0.708442 0.000000 0.204366
O O9 0.789699 0.766726 0.899748
O O10 0.722644 0.000000 0.975191
O O11 0.750000 0.750000 0.000000
O O12 0.575240 0.782654 0.033664
O O13 0.304445 0.500000 0.709610
O O14 0.453248 0.700091 0.609001
O O15 0.601437 0.500000 0.186108
O O16 0.707015 0.500000 0.599478
O O17 0.615988 0.705236 0.591094
O O18 0.837451 0.719704 0.510258
O O19 0.624833 0.500000 0.527278
O O20 0.503846 0.500000 0.066324
O O21 0.500000 0.664855 0.000000
#
# Coordination Sequence:
#
# PCOD8102364 Si02
#       8
#     8   8   8   8   8   8   8   8
#     4  11  24  40  60  87 121 161 203 246 298 356
#     4  11  23  39  64  91 118 156 199 249 301 356
#     4  11  25  41  62  89 120 159 200 247 302 361
#     4  10  23  41  60  87 122 161 202 247 298 353
#     4  11  24  42  62  86 118 157 201 248 300 358
#     4  10  20  36  62  92 120 155 197 246 298 352
#     4   9  19  38  62  86 117 156 198 243 294 353
#     4  10  21  40  63  89 121 154 196 248 302 358
#
# _framework density 19.89969
#
# number of rings (size 3 to 8) (size 9 to 14) (size 15 to 20)
#    0.000    1.625    1.250    2.625    1.750    6.250 
#    0.000    2.500    0.000    0.000    0.000    0.000 
#    0.000    0.000    0.000    0.000    0.000    0.000 
#
# Total GULP energy -396975.029435 kJ/mol
# GULP energy per Si atom -12405.469670 kJ/mol
# Density = 1.985440 g / cm^3
# Si number density = 19.899690 Si / 1000 Ang^3
#
#
#
# Elastic Constant Matrix: (Units=GPa)
#
#
# Indices 1 2 3 4 5 6 
#
# 1 110.3524 42.7408 35.3619 0.0100 -18.9334 0.0671
# 2 42.7408 72.2755 30.0234 0.0599 -3.9418 0.0126
# 3 35.3619 30.0234 67.0921 -0.0047 -14.6546 0.0085
# 4 0.0100 0.0599 -0.0047 40.6744 0.0036 -6.4363
# 5 -18.9334 -3.9418 -14.6546 0.0036 36.0363 0.0002
# 6 0.0671 0.0126 0.0085 -6.4363 0.0002 46.5298
#
#
#
# Elastic Compliance Matrix: (Units=1/GPa)
#
#
# Indices 1 2 3 4 5 6 
#
# 1 0.013387 -0.006350 -0.003106 0.000003 0.005076 -0.000017
# 2 -0.006350 0.020067 -0.006456 -0.000028 -0.003767 0.000001
# 3 -0.003106 -0.006456 0.020765 0.000013 0.006106 0.000004
# 4 0.000003 -0.000028 0.000013 0.025136 0.000001 0.003477
# 5 0.005076 -0.003767 0.006106 0.000001 0.032488 -0.000007
# 6 -0.000017 0.000001 0.000004 0.003477 -0.000007 0.021973
#
#
# Mechanical properties :
#
#
# Convention : Reuss Voigt Hill
#
# Bulk Modulus (GPa) = 44.65029 51.77467 48.21248
# Shear Modulus (GPa) = 28.88432 34.08768 31.48600
#
# Velocity S-wave (km/s) = 3.81398 4.14330 3.98205
# Velocity P-wave (km/s) = 6.47161 6.99740 6.73963
#
# Compressibility (1/GPa) = 0.02239627
#
# Stress axis : x y z
#
# Youngs Moduli (GPa) = 74.69721 49.83203 48.15879
#
# Poissons Ratio (x) = 0.31642 0.14957
# Poissons Ratio (y) = 0.47431 0.31092
# Poissons Ratio (z) = 0.23199 0.32172
#
# Static dielectric constant tensor:
#      x y z
#    x 3.694180 0.000790 -0.113150 
#    y 0.000790 3.699630 -0.000230 
#    z -0.113150 -0.000230 3.672120 
# 
# 
# High freq. dielectric constant tensor:
#      x y z
#    x 1.779280 -0.000010 -0.007390 
#    y -0.000010 1.779990 0.000000 
#    z -0.007390 0.000000 1.784470 
# 
# From -- ./inp_files/377980.got.cif
#   From: 2010.06.25/outbox.cif.g09.slc.cpg/sg12_189_cif.got.tgz:377980.got - 2010.06.28 00:19:55.
