data_PCOD8102928
_publ_section_title
;
Structure prediction by ZEFSAII (Michael W. Deem and Ramdas Pophale) SiO2 
 PCOD8102928
Probable space group: C 2/M
;
_chemical_formula_sum "Si O2"
_cell_formula_units_Z 40
_cell_length_a 27.074439
_cell_length_b 8.428283
_cell_length_c 9.517964
_cell_angle_alpha 90.000000
_cell_angle_beta 69.659947
_cell_angle_gamma 90.000000
_cell_volume 2036.486904
_symmetry_space_group_name_H-M "C 2/M"
_symmetry_group_IT_number 12
_symmetry_cell_setting 'monoclinic'
loop_
_space_group_symop_operation_xyz
x,y,z
-x,y,-z
-x,-y,-z
x,-y,z
1/2+x,1/2+y,z
1/2-x,1/2+y,-z
1/2-x,1/2-y,-z
1/2+x,1/2-y,z
loop_
_atom_site_type_symbol
_atom_site_label
_atom_site_fract_x
_atom_site_fract_y
_atom_site_fract_z
Si Si1 0.292459 0.314718 0.064491
Si Si2 0.502729 0.814137 0.659536
Si Si3 0.596754 0.184675 0.059066
Si Si4 0.297134 0.184730 0.362499
Si Si5 0.408335 0.683526 0.236890
O O1 0.283967 0.500000 0.101026
O O2 0.283809 0.216379 0.214313
O O3 0.250000 0.250000 0.000000
O O4 0.351511 0.284229 0.949595
O O5 0.500000 0.763804 0.500000
O O6 0.448636 0.764352 0.788333
O O7 0.550028 0.719296 0.683448
O O8 0.513839 0.000000 0.666031
O O9 0.610193 0.000000 0.059576
O O10 0.578393 0.219125 0.917716
O O11 0.250000 0.250000 0.500000
O O12 0.350934 0.272120 0.353355
O O13 0.304655 0.000000 0.382752
O O14 0.409531 0.500000 0.195067
#
# Coordination Sequence:
#
# PCOD8102928 Si02
#       5
#     8   8   8   8   8
#     4  11  22  38  59  85 117 152 192 237 287 339
#     4  10  22  39  58  82 113 148 187 234 287 338
#     4  10  20  37  60  83 110 148 193 236 283 339
#     4  11  22  39  61  86 116 150 191 235 284 340
#     4  11  22  37  58  84 114 149 190 232 279 337
#
# _framework density 19.641667999999999
#
# number of rings (size 3 to 8) (size 9 to 14) (size 15 to 20)
#    0.000    1.400    0.000    9.000    0.000    6.000 
#    0.000    6.000    0.000    0.000    0.000    0.000 
#    0.000    0.000    0.000    0.000    0.000    0.000 
#
# Total GULP energy -248105.945443 kJ/mol
# GULP energy per Si atom -12405.297272 kJ/mol
# Density = 1.959696 g / cm^3
# Si number density = 19.641668 Si / 1000 Ang^3
#
#
#
# Elastic Constant Matrix: (Units=GPa)
#
#
# Indices 1 2 3 4 5 6 
#
# 1 138.6317 29.4276 79.2182 0.0000 2.7606 0.0000
# 2 29.4276 64.5975 16.1205 0.0000 -0.3947 0.0000
# 3 79.2182 16.1205 114.0530 0.0000 -21.5163 0.0000
# 4 0.0000 0.0000 0.0000 27.0626 0.0000 0.3261
# 5 2.7606 -0.3947 -21.5163 0.0000 36.9736 0.0000
# 6 0.0000 0.0000 0.0000 0.3261 0.0000 37.2145
#
#
#
# Elastic Compliance Matrix: (Units=1/GPa)
#
#
# Indices 1 2 3 4 5 6 
#
# 1 0.014381 -0.003892 -0.010839 0.000000 -0.007423 0.000000
# 2 -0.003892 0.017155 0.000413 0.000000 0.000714 0.000000
# 3 -0.010839 0.000413 0.018413 0.000000 0.011529 0.000000
# 4 0.000000 0.000000 0.000000 0.036955 0.000000 -0.000324
# 5 -0.007423 0.000714 0.011529 0.000000 0.034317 0.000000
# 6 0.000000 0.000000 0.000000 -0.000324 0.000000 0.026874
#
#
# Mechanical properties :
#
#
# Convention : Reuss Voigt Hill
#
# Bulk Modulus (GPa) = 46.91885 62.97943 54.94914
# Shear Modulus (GPa) = 27.19843 33.08455 30.14149
#
# Velocity S-wave (km/s) = 3.72523 4.10860 3.92161
# Velocity P-wave (km/s) = 6.51478 7.39198 6.96720
#
# Compressibility (1/GPa) = 0.02131340
#
# Stress axis : x y z
#
# Youngs Moduli (GPa) = 69.53663 58.29328 54.31018
#
# Poissons Ratio (x) = 0.22686 0.58866
# Poissons Ratio (y) = 0.27062 -0.02244
# Poissons Ratio (z) = 0.75370 -0.02408
#
# Static dielectric constant tensor:
#      x y z
#    x 3.739430 0.000000 -0.262200 
#    y 0.000000 3.718060 0.000000 
#    z -0.262200 0.000000 3.802060 
# 
# 
# High freq. dielectric constant tensor:
#      x y z
#    x 1.776360 0.000000 -0.005930 
#    y 0.000000 1.776990 0.000000 
#    z -0.005930 0.000000 1.760030 
# 
# From -- ./inp_files/101036.got.cif
#   From: 2010.06.25/outbox.cif.g09.slc.cpg/sg12_51_cif.got.tgz:101036.got - 2010.06.28 00:19:55.
