data_PCOD8102392
_publ_section_title
;
Structure prediction by ZEFSAII (Michael W. Deem and Ramdas Pophale) SiO2 
 PCOD8102392
Probable space group: C 2/M
;
_chemical_formula_sum "Si O2"
_cell_formula_units_Z 64
_cell_length_a 28.347639
_cell_length_b 14.395824
_cell_length_c 9.494951
_cell_angle_alpha 90.000000
_cell_angle_beta 50.283212
_cell_angle_gamma 90.000000
_cell_volume 2980.522491
_symmetry_space_group_name_H-M "C 2/M"
_symmetry_group_IT_number 12
_symmetry_cell_setting 'monoclinic'
loop_
_space_group_symop_operation_xyz
x,y,z
-x,y,-z
-x,-y,-z
x,-y,z
1/2+x,1/2+y,z
1/2-x,1/2+y,-z
1/2-x,1/2-y,-z
1/2+x,1/2-y,z
loop_
_atom_site_type_symbol
_atom_site_label
_atom_site_fract_x
_atom_site_fract_y
_atom_site_fract_z
Si Si1 0.858063 0.792942 0.131815
Si Si2 0.242859 0.832544 0.904051
Si Si3 0.156995 0.396687 0.730023
Si Si4 0.947965 0.773267 0.485273
Si Si5 0.627705 0.895695 0.463963
Si Si6 0.298249 0.392910 0.494974
Si Si7 0.017410 0.891322 0.128688
Si Si8 0.840137 0.101056 0.719690
O O1 0.799008 0.805809 0.147874
O O2 0.874212 0.682678 0.113357
O O3 0.842972 0.830224 0.316562
O O4 0.916294 0.848280 0.961421
O O5 0.307732 0.867464 0.726412
O O6 0.250000 0.750000 0.000000
O O7 0.208755 0.911108 0.061096
O O8 0.145872 0.500000 0.816760
O O9 0.129580 0.391826 0.627824
O O10 0.228861 0.374591 0.583003
O O11 0.927122 0.671137 0.478799
O O12 0.891760 0.825999 0.667780
O O13 0.000000 0.760358 0.500000
O O14 0.967582 0.836563 0.315772
O O15 0.611885 0.000000 0.444024
O O16 0.316495 0.500000 0.435101
O O17 0.307383 0.362230 0.639490
O O18 0.017453 0.000000 0.169430
O O19 0.000000 0.876304 0.000000
O O20 0.869602 0.000000 0.635637
#
# Coordination Sequence:
#
# PCOD8102392 Si02
#       8
#     8   8   8   8   8   8   8   8
#     4  12  23  38  68  96 132 173 209 268 320 385
#     4  12  24  39  64  99 135 165 206 261 330 391
#     4  10  21  38  63  98 131 167 210 258 322 391
#     4  12  26  45  65  89 126 173 226 266 314 375
#     4  11  24  44  69  94 128 170 218 270 322 385
#     4  10  20  36  62  98 133 166 206 251 321 397
#     4  11  25  44  67  97 131 169 217 266 318 381
#     4  11  23  40  65  96 134 169 203 259 325 389
#
# _framework density 21.472745
#
# number of rings (size 3 to 8) (size 9 to 14) (size 15 to 20)
#    0.000    0.875    2.500    5.250    0.000    5.750 
#    0.000    1.250    0.000    2.250    0.000    0.000 
#    0.000    0.000    0.000    0.000    0.000    0.000 
#
# Total GULP energy -396870.222066 kJ/mol
# GULP energy per Si atom -12402.194440 kJ/mol
# Density = 2.142387 g / cm^3
# Si number density = 21.472745 Si / 1000 Ang^3
#
#
#
# Elastic Constant Matrix: (Units=GPa)
#
#
# Indices 1 2 3 4 5 6 
#
# 1 112.4845 57.9052 22.5737 0.0000 2.8719 0.0000
# 2 57.9052 162.2275 46.2216 0.0000 -4.7000 0.0000
# 3 22.5737 46.2216 79.0238 0.0000 5.6106 0.0000
# 4 0.0000 0.0000 0.0000 30.4852 0.0000 -4.1282
# 5 2.8719 -4.7000 5.6106 0.0000 29.0286 0.0000
# 6 0.0000 0.0000 0.0000 -4.1282 0.0000 30.3064
#
#
#
# Elastic Compliance Matrix: (Units=1/GPa)
#
#
# Indices 1 2 3 4 5 6 
#
# 1 0.011024 -0.003735 -0.000856 0.000000 -0.001530 0.000000
# 2 -0.003735 0.008786 -0.004258 0.000000 0.002615 0.000000
# 3 -0.000856 -0.004258 0.015647 0.000000 -0.003629 0.000000
# 4 0.000000 0.000000 0.000000 0.033419 0.000000 0.004552
# 5 -0.001530 0.002615 -0.003629 0.000000 0.035725 0.000000
# 6 0.000000 0.000000 0.000000 0.004552 0.000000 0.033616
#
#
# Mechanical properties :
#
#
# Convention : Reuss Voigt Hill
#
# Bulk Modulus (GPa) = 56.30778 67.45963 61.88370
# Shear Modulus (GPa) = 30.89567 33.09974 31.99770
#
# Velocity S-wave (km/s) = 3.79731 3.93042 3.86444
# Velocity P-wave (km/s) = 6.74581 7.21680 6.98528
#
# Compressibility (1/GPa) = 0.01775954
#
# Stress axis : x y z
#
# Youngs Moduli (GPa) = 90.71300 113.81243 63.91038
#
# Poissons Ratio (x) = 0.42513 0.05468
# Poissons Ratio (y) = 0.33885 0.27212
# Poissons Ratio (z) = 0.07761 0.48460
#
# Static dielectric constant tensor:
#      x y z
#    x 3.831820 0.000000 0.063090 
#    y 0.000000 4.224570 0.000000 
#    z 0.063090 0.000000 4.322120 
# 
# 
# High freq. dielectric constant tensor:
#      x y z
#    x 1.843170 0.000000 0.009370 
#    y 0.000000 1.858180 0.000000 
#    z 0.009370 0.000000 1.831300 
# 
# From -- ./inp_files/111998.got.cif
#   From: 2010.06.25/outbox.cif.g09.slc.cpg/sg12_56_cif.got.tgz:111998.got - 2010.06.28 00:19:55.
