data_PCOD8102667
_publ_section_title
;
Structure prediction by ZEFSAII (Michael W. Deem and Ramdas Pophale) SiO2 
 PCOD8102667
Probable space group: C 2/M
;
_chemical_formula_sum "Si O2"
_cell_formula_units_Z 40
_cell_length_a 24.626209
_cell_length_b 9.105213
_cell_length_c 17.084757
_cell_angle_alpha 90.000000
_cell_angle_beta 146.558959
_cell_angle_gamma 90.000000
_cell_volume 2111.105922
_symmetry_space_group_name_H-M "C 2/M"
_symmetry_group_IT_number 12
_symmetry_cell_setting 'monoclinic'
loop_
_space_group_symop_operation_xyz
x,y,z
-x,y,-z
-x,-y,-z
x,-y,z
1/2+x,1/2+y,z
1/2-x,1/2+y,-z
1/2-x,1/2-y,-z
1/2+x,1/2-y,z
loop_
_atom_site_type_symbol
_atom_site_label
_atom_site_fract_x
_atom_site_fract_y
_atom_site_fract_z
Si Si1 0.399378 0.668366 0.850561
Si Si2 0.684433 0.172939 0.855538
Si Si3 0.042363 0.327471 0.393088
Si Si4 0.709840 0.825473 0.710779
Si Si5 0.647942 0.331938 0.382565
O O1 0.399342 0.500000 0.878509
O O2 0.302438 0.741273 0.773497
O O3 0.402317 0.681164 0.761563
O O4 0.500000 0.746941 0.000000
O O5 0.570278 0.214401 0.727446
O O6 0.715357 0.231479 0.806676
O O7 0.701372 0.000000 0.883714
O O8 0.750000 0.250000 0.000000
O O9 0.056693 0.500000 0.395659
O O10 0.108871 0.274704 0.546701
O O11 0.074836 0.243061 0.354977
O O12 0.711076 0.000000 0.712159
O O13 0.666527 0.500000 0.429077
O O14 0.750000 0.250000 0.500000
#
# Coordination Sequence:
#
# PCOD8102667 Si02
#       5
#     8   8   8   8   8
#     4   9  18  31  52  82 109 138 183 230 266 317
#     4  10  22  37  58  83 111 145 186 234 282 329
#     4  10  20  37  58  82 110 145 190 233 272 324
#     4   9  17  34  57  78 105 146 192 229 265 323
#     4  11  21  35  58  86 114 145 182 227 277 331
#
# _framework density 18.947416
#
# number of rings (size 3 to 8) (size 9 to 14) (size 15 to 20)
#    0.000    2.200    2.000    1.200    2.800    3.200 
#    0.000    1.000    0.000    4.800    0.000    0.000 
#    0.000    0.000    0.000    0.000    0.000    0.000 
#
# Total GULP energy -247952.873585 kJ/mol
# GULP energy per Si atom -12397.643679 kJ/mol
# Density = 1.890429 g / cm^3
# Si number density = 18.947416 Si / 1000 Ang^3
#
#
#
# Elastic Constant Matrix: (Units=GPa)
#
#
# Indices 1 2 3 4 5 6 
#
# 1 149.0478 34.7343 71.8094 0.0000 -7.9147 0.0000
# 2 34.7343 36.6747 32.6656 0.0000 1.5944 0.0000
# 3 71.8094 32.6656 166.2261 0.0000 4.1775 0.0000
# 4 0.0000 0.0000 0.0000 24.9529 0.0000 -2.4801
# 5 -7.9147 1.5944 4.1775 0.0000 27.5350 0.0000
# 6 0.0000 0.0000 0.0000 -2.4801 0.0000 29.3625
#
#
#
# Elastic Compliance Matrix: (Units=1/GPa)
#
#
# Indices 1 2 3 4 5 6 
#
# 1 0.009986 -0.006902 -0.003051 0.000000 0.003733 0.000000
# 2 -0.006902 0.037846 -0.004367 0.000000 -0.003513 0.000000
# 3 -0.003051 -0.004367 0.008239 0.000000 -0.001874 0.000000
# 4 0.000000 0.000000 0.000000 0.040415 0.000000 0.003414
# 5 0.003733 -0.003513 -0.001874 0.000000 0.037878 0.000000
# 6 0.000000 0.000000 0.000000 0.003414 0.000000 0.034345
#
#
# Mechanical properties :
#
#
# Convention : Reuss Voigt Hill
#
# Bulk Modulus (GPa) = 36.45627 70.04080 53.24853
# Shear Modulus (GPa) = 24.21359 30.55270 27.38314
#
# Velocity S-wave (km/s) = 3.57870 4.01995 3.80573
# Velocity P-wave (km/s) = 6.02982 7.65459 6.89026
#
# Compressibility (1/GPa) = 0.02743013
#
# Stress axis : x y z
#
# Youngs Moduli (GPa) = 100.13891 26.42259 121.36728
#
# Poissons Ratio (x) = 0.18237 0.37034
# Poissons Ratio (y) = 0.69118 0.53005
# Poissons Ratio (z) = 0.30557 0.11540
#
# Static dielectric constant tensor:
#      x y z
#    x 3.476680 0.000000 0.088340 
#    y 0.000000 3.041490 0.000000 
#    z 0.088340 0.000000 3.724970 
# 
# 
# High freq. dielectric constant tensor:
#      x y z
#    x 1.752190 0.000000 0.000620 
#    y 0.000000 1.688110 0.000000 
#    z 0.000620 0.000000 1.751470 
# 
# From -- ./inp_files/220553.got.cif
#   From: 2010.06.25/outbox.cif.g09.slc.cpg/sg12_111_cif.got.tgz:220553.got - 2010.06.28 00:19:55.
