data_PCOD8102783
_publ_section_title
;
Structure prediction by ZEFSAII (Michael W. Deem and Ramdas Pophale) SiO2 
 PCOD8102783
Probable space group: C 2/M
;
_chemical_formula_sum "Si O2"
_cell_formula_units_Z 64
_cell_length_a 28.710774
_cell_length_b 8.540704
_cell_length_c 14.283976
_cell_angle_alpha 90.000000
_cell_angle_beta 65.767979
_cell_angle_gamma 90.000000
_cell_volume 3193.967957
_symmetry_space_group_name_H-M "C 2/M"
_symmetry_group_IT_number 12
_symmetry_cell_setting 'monoclinic'
loop_
_space_group_symop_operation_xyz
x,y,z
-x,y,-z
-x,-y,-z
x,-y,z
1/2+x,1/2+y,z
1/2-x,1/2+y,-z
1/2-x,1/2-y,-z
1/2+x,1/2-y,z
loop_
_atom_site_type_symbol
_atom_site_label
_atom_site_fract_x
_atom_site_fract_y
_atom_site_fract_z
Si Si1 0.079558 0.681148 0.340620
Si Si2 0.240546 0.184083 0.787185
Si Si3 0.173134 0.182002 0.159444
Si Si4 0.282303 0.813988 0.558414
Si Si5 0.354069 0.313593 0.023314
Si Si6 0.601270 0.182606 0.535438
Si Si7 0.031902 0.186280 0.060807
Si Si8 0.991950 0.183386 0.294936
O O1 0.093454 0.500000 0.311619
O O2 0.120610 0.790958 0.257227
O O3 0.079765 0.718409 0.450216
O O4 0.024202 0.720669 0.344880
O O5 0.281229 0.221359 0.833376
O O6 0.257589 0.257115 0.673861
O O7 0.184743 0.248012 0.864361
O O8 0.237769 0.000000 0.778498
O O9 0.186948 0.000000 0.151367
O O10 0.166452 0.245124 0.059729
O O11 0.250000 0.750000 0.500000
O O12 0.340677 0.755995 0.503314
O O13 0.280580 0.000000 0.561447
O O14 0.356541 0.500000 0.019947
O O15 0.410621 0.245728 0.994765
O O16 0.567473 0.278311 0.638055
O O17 0.597925 0.000000 0.562205
O O18 0.006586 0.241579 0.178889
O O19 0.032537 0.000000 0.055851
O O20 0.000000 0.255540 0.000000
O O21 0.002876 0.000000 0.297301
#
# Coordination Sequence:
#
# PCOD8102783 Si02
#       8
#     8   8   8   8   8   8   8   8
#     4  11  21  37  60  83 114 156 189 221 281 349
#     4  10  20  37  59  82 112 152 190 222 277 351
#     4  11  20  33  56  87 119 144 179 235 285 327
#     4  10  22  40  59  82 112 149 195 240 279 330
#     4   9  18  33  55  83 115 146 180 230 280 332
#     4  10  22  40  58  81 115 153 189 228 283 343
#     4   9  18  34  55  81 113 147 184 230 280 326
#     4  11  22  36  58  90 118 144 189 238 280 330
#
# _framework density 20.037770999999999
#
# number of rings (size 3 to 8) (size 9 to 14) (size 15 to 20)
#    0.000    1.875    2.500    1.875    0.000    4.500 
#    0.000    3.125    0.000    1.500    0.000    0.000 
#    0.000    0.000    0.000    0.000    0.000    0.000 
#
# Total GULP energy -396851.481324 kJ/mol
# GULP energy per Si atom -12401.608791 kJ/mol
# Density = 1.999216 g / cm^3
# Si number density = 20.037771 Si / 1000 Ang^3
#
#
#
# Elastic Constant Matrix: (Units=GPa)
#
#
# Indices 1 2 3 4 5 6 
#
# 1 155.6003 9.2471 105.8615 0.0000 3.2728 0.0000
# 2 9.2471 12.1539 18.3272 0.0000 -0.2550 0.0000
# 3 105.8615 18.3272 151.4758 0.0000 -20.9810 0.0000
# 4 0.0000 0.0000 0.0000 22.5615 0.0000 -1.2933
# 5 3.2728 -0.2550 -20.9810 0.0000 38.2000 0.0000
# 6 0.0000 0.0000 0.0000 -1.2933 0.0000 26.8196
#
#
#
# Elastic Compliance Matrix: (Units=1/GPa)
#
#
# Indices 1 2 3 4 5 6 
#
# 1 0.014240 0.006869 -0.011847 0.000000 -0.007681 0.000000
# 2 0.006869 0.105472 -0.018990 0.000000 -0.010315 0.000000
# 3 -0.011847 -0.018990 0.018726 0.000000 0.011174 0.000000
# 4 0.000000 0.000000 0.000000 0.044446 0.000000 0.002143
# 5 -0.007681 -0.010315 0.011174 0.000000 0.032904 0.000000
# 6 0.000000 0.000000 0.000000 0.002143 0.000000 0.037390
#
#
# Mechanical properties :
#
#
# Convention : Reuss Voigt Hill
#
# Bulk Modulus (GPa) = 11.04949 65.12241 38.08595
# Shear Modulus (GPa) = 15.09288 29.90249 22.49769
#
# Velocity S-wave (km/s) = 2.74747 3.86723 3.35440
# Velocity P-wave (km/s) = 3.94855 7.24645 5.83533
#
# Compressibility (1/GPa) = 0.09050191
#
# Stress axis : x y z
#
# Youngs Moduli (GPa) = 70.22501 9.48117 53.40068
#
# Poissons Ratio (x) = -0.06512 0.63263
# Poissons Ratio (y) = -0.48236 1.01409
# Poissons Ratio (z) = 0.83194 0.18005
#
# Static dielectric constant tensor:
#      x y z
#    x 3.891790 0.000000 -0.011610 
#    y 0.000000 3.267080 0.000000 
#    z -0.011610 0.000000 4.075580 
# 
# 
# High freq. dielectric constant tensor:
#      x y z
#    x 1.785590 0.000000 -0.009500 
#    y 0.000000 1.748610 0.000000 
#    z -0.009500 0.000000 1.794190 
# 
# From -- ./inp_files/248981.got.cif
#   From: 2010.06.25/outbox.cif.g09.slc.cpg/sg12_125_cif.got.tgz:248981.got - 2010.06.28 00:19:55.
