data_PCOD8102155
_publ_section_title
;
Structure prediction by ZEFSAII (Michael W. Deem and Ramdas Pophale) SiO2 
 PCOD8102155
Probable space group: C 2/M
;
_chemical_formula_sum "Si O2"
_cell_formula_units_Z 56
_cell_length_a 25.737778
_cell_length_b 15.519632
_cell_length_c 17.051909
_cell_angle_alpha 90.000000
_cell_angle_beta 23.278565
_cell_angle_gamma 90.000000
_cell_volume 2691.810426
_symmetry_space_group_name_H-M "C 2/M"
_symmetry_group_IT_number 12
_symmetry_cell_setting 'monoclinic'
loop_
_space_group_symop_operation_xyz
x,y,z
-x,y,-z
-x,-y,-z
x,-y,z
1/2+x,1/2+y,z
1/2-x,1/2+y,-z
1/2-x,1/2-y,-z
1/2+x,1/2-y,z
loop_
_atom_site_type_symbol
_atom_site_label
_atom_site_fract_x
_atom_site_fract_y
_atom_site_fract_z
Si Si1 0.276160 0.601041 0.951191
Si Si2 0.514973 0.849195 0.390563
Si Si3 0.267107 0.768449 0.386149
Si Si4 0.739994 0.901769 0.828145
Si Si5 0.539544 0.099201 0.828800
Si Si6 0.319876 0.094290 0.532752
Si Si7 0.553953 0.667321 0.570855
O O1 0.251927 0.500000 0.988243
O O2 0.268452 0.639970 0.873584
O O3 0.420396 0.622435 0.784709
O O4 0.167413 0.646462 0.155168
O O5 0.500000 0.883222 0.500000
O O6 0.423519 0.905718 0.460312
O O7 0.470120 0.751075 0.447910
O O8 0.250000 0.750000 0.500000
O O9 0.386092 0.837423 0.212443
O O10 0.284385 0.674724 0.318005
O O11 0.134492 0.812020 0.537784
O O12 0.864208 0.895538 0.599018
O O13 0.706384 0.000000 0.891699
O O14 0.608987 0.862931 0.969613
O O15 0.599092 0.105267 0.659527
O O16 0.547500 0.000000 0.848908
O O17 0.248771 0.000000 0.632764
#
# Coordination Sequence:
#
# PCOD8102155 Si02
#       7
#     8   8   8   8   8   8   8
#     4  11  22  38  60  86 121 158 190 239 305 366
#     4  11  22  37  57  88 116 156 204 246 291 355
#     4   9  20  37  56  85 116 159 203 244 291 347
#     4  10  20  36  60  91 124 157 193 237 304 378
#     4   9  17  33  59  87 118 157 196 238 295 362
#     4   9  17  34  58  84 113 153 201 247 296 349
#     4  11  23  37  57  88 122 155 194 244 302 360
#
# _framework density 20.803840999999998
#
# number of rings (size 3 to 8) (size 9 to 14) (size 15 to 20)
#    0.000    2.000    1.429    2.571    0.000    4.000 
#    0.000    1.429    0.000    0.000    0.000    3.000 
#    0.000    0.000    0.000    0.000    0.000    0.000 
#
# Total GULP energy -347053.864279 kJ/mol
# GULP energy per Si atom -12394.780867 kJ/mol
# Density = 2.075649 g / cm^3
# Si number density = 20.803841 Si / 1000 Ang^3
#
#
#
# Elastic Constant Matrix: (Units=GPa)
#
#
# Indices 1 2 3 4 5 6 
#
# 1 126.5045 32.8313 54.1864 0.0000 -11.2260 0.0000
# 2 32.8313 88.9938 31.0820 -0.0001 -22.8746 0.0000
# 3 54.1864 31.0820 98.9565 -0.0001 -17.5966 0.0000
# 4 0.0000 -0.0001 -0.0001 22.3756 0.0000 -8.1980
# 5 -11.2260 -22.8746 -17.5966 0.0000 36.3514 0.0000
# 6 0.0000 0.0000 0.0000 -8.1980 0.0000 23.5118
#
#
#
# Elastic Compliance Matrix: (Units=1/GPa)
#
#
# Indices 1 2 3 4 5 6 
#
# 1 0.010688 -0.002282 -0.005257 0.000000 -0.000680 0.000000
# 2 -0.002282 0.014738 -0.002031 0.000000 0.007586 0.000000
# 3 -0.005257 -0.002031 0.014340 0.000000 0.004041 0.000000
# 4 0.000000 0.000000 0.000000 0.051237 0.000000 0.017865
# 5 -0.000680 0.007586 0.004041 0.000000 0.034029 0.000000
# 6 0.000000 0.000000 0.000000 0.017865 0.000000 0.048761
#
#
# Mechanical properties :
#
#
# Convention : Reuss Voigt Hill
#
# Bulk Modulus (GPa) = 48.47834 61.18380 54.83107
# Shear Modulus (GPa) = 25.02399 29.53809 27.28104
#
# Velocity S-wave (km/s) = 3.47198 3.77216 3.62518
# Velocity P-wave (km/s) = 6.27902 6.96031 6.62842
#
# Compressibility (1/GPa) = 0.02062777
#
# Stress axis : x y z
#
# Youngs Moduli (GPa) = 93.55878 67.85321 69.73341
#
# Poissons Ratio (x) = 0.15483 0.36658
# Poissons Ratio (y) = 0.21349 0.14160
# Poissons Ratio (z) = 0.49183 0.13778
#
# Static dielectric constant tensor:
#      x y z
#    x 3.895990 0.000000 -0.332270 
#    y 0.000000 4.101260 0.000000 
#    z -0.332270 0.000000 3.604400 
# 
# 
# High freq. dielectric constant tensor:
#      x y z
#    x 1.820660 0.000000 -0.011060 
#    y 0.000000 1.817900 0.000000 
#    z -0.011060 0.000000 1.786750 
# 
# From -- ./inp_files/293867.got.cif
#   From: 2010.06.25/outbox.cif.g09.slc.cpg/sg12_147_cif.got.tgz:293867.got - 2010.06.28 00:19:55.
