data_PCOD8102113
_publ_section_title
;
Structure prediction by ZEFSAII (Michael W. Deem and Ramdas Pophale) SiO2 
 PCOD8102113
Probable space group: C 2/M
;
_chemical_formula_sum "Si O2"
_cell_formula_units_Z 64
_cell_length_a 14.707665
_cell_length_b 17.626389
_cell_length_c 22.402376
_cell_angle_alpha 90.000000
_cell_angle_beta 147.472942
_cell_angle_gamma 90.000000
_cell_volume 3122.766088
_symmetry_space_group_name_H-M "C 2/M"
_symmetry_group_IT_number 12
_symmetry_cell_setting 'monoclinic'
loop_
_space_group_symop_operation_xyz
x,y,z
-x,y,-z
-x,-y,-z
x,-y,z
1/2+x,1/2+y,z
1/2-x,1/2+y,-z
1/2-x,1/2-y,-z
1/2+x,1/2-y,z
loop_
_atom_site_type_symbol
_atom_site_label
_atom_site_fract_x
_atom_site_fract_y
_atom_site_fract_z
Si Si1 0.236346 0.416294 0.487058
Si Si2 0.862255 0.339064 0.874133
Si Si3 0.075696 0.416636 0.601566
Si Si4 0.794682 0.172538 0.803887
Si Si5 0.996369 0.330046 0.726248
Si Si6 0.993796 0.849384 0.272150
Si Si7 0.557724 0.411475 0.884410
Si Si8 0.440146 0.087244 0.117728
O O1 0.296685 0.500000 0.497725
O O2 0.176096 0.362877 0.398933
O O3 0.381103 0.379168 0.607503
O O4 0.070167 0.428310 0.432477
O O5 0.820714 0.261948 0.816117
O O6 0.694677 0.372368 0.811638
O O7 0.932199 0.400597 0.866504
O O8 0.000000 0.319052 0.000000
O O9 0.161941 0.500000 0.638793
O O10 0.207305 0.353385 0.694174
O O11 0.000000 0.382163 0.500000
O O12 0.673744 0.146477 0.791725
O O13 0.975257 0.129608 0.897528
O O14 0.981415 0.240108 0.719271
O O15 0.003350 0.360611 0.796703
O O16 0.025400 0.886828 0.224984
O O17 0.530732 0.500000 0.878535
O O18 0.754158 0.388668 0.992980
O O19 0.446728 0.000000 0.141523
#
# Coordination Sequence:
#
# PCOD8102113 Si02
#       8
#     8   8   8   8   8   8   8   8
#     4  10  20  36  60  89 125 161 200 248 302 362
#     4  11  24  43  63  86 118 161 206 257 311 354
#     4   9  17  32  55  86 126 163 194 238 297 357
#     4  10  22  36  61  92 124 160 198 241 303 373
#     4  10  23  41  62  90 126 166 197 245 306 374
#     4  11  22  39  65  93 121 160 211 258 299 352
#     4  11  23  37  60  93 125 158 205 257 303 358
#     4  11  25  42  61  86 120 165 208 252 309 363
#
# _framework density 20.49465
#
# number of rings (size 3 to 8) (size 9 to 14) (size 15 to 20)
#    0.000    1.625    1.250    3.000    3.500    4.750 
#    0.000    1.875    0.000    1.500    0.000    0.000 
#    0.000    0.000    0.000    0.000    0.000    0.000 
#
# Total GULP energy -396669.494973 kJ/mol
# GULP energy per Si atom -12395.921718 kJ/mol
# Density = 2.044800 g / cm^3
# Si number density = 20.494650 Si / 1000 Ang^3
#
#
#
# Elastic Constant Matrix: (Units=GPa)
#
#
# Indices 1 2 3 4 5 6 
#
# 1 62.5481 22.4582 11.2448 0.0002 1.9022 -0.0018
# 2 22.4582 85.1883 27.8857 0.0011 0.2609 -0.0005
# 3 11.2448 27.8857 96.0835 0.0021 -5.1585 -0.0052
# 4 0.0002 0.0011 0.0021 34.2464 0.0004 9.0289
# 5 1.9022 0.2609 -5.1585 0.0004 33.7096 -0.0020
# 6 -0.0018 -0.0005 -0.0052 9.0289 -0.0020 -39.6598
#
#
#
# Elastic Compliance Matrix: (Units=1/GPa)
#
#
# Indices 1 2 3 4 5 6 
#
# 1 0.017754 -0.004395 -0.000861 0.000000 -0.001100 -0.000001
# 2 -0.004395 0.014075 -0.003592 0.000000 -0.000411 0.000000
# 3 -0.000861 -0.003592 0.011651 0.000000 0.001859 -0.000002
# 4 0.000000 0.000000 0.000000 0.027547 0.000000 0.006271
# 5 -0.001100 -0.000411 0.001859 0.000000 0.030015 -0.000002
# 6 -0.000001 0.000000 -0.000002 0.006271 -0.000002 -0.023787
#
#
# Mechanical properties :
#
#
# Convention : Reuss Voigt Hill
#
# Bulk Modulus (GPa) = 38.78716 40.77750 39.78233
# Shear Modulus (GPa) = 48.28758 17.80797 33.04778
#
# Velocity S-wave (km/s) = 4.85924 2.95092 4.01996
# Velocity P-wave (km/s) = 7.10278 5.61698 6.40312
#
# Compressibility (1/GPa) = 0.02578173
#
# Stress axis : x y z
#
# Youngs Moduli (GPa) = 56.32504 71.04973 85.83066
#
# Poissons Ratio (x) = 0.31228 0.07392
# Poissons Ratio (y) = 0.24756 0.30834
# Poissons Ratio (z) = 0.04851 0.25524
#
# Static dielectric constant tensor:
#      x y z
#    x 3.677070 0.000000 0.192080 
#    y 0.000000 3.767110 0.000000 
#    z 0.192080 0.000000 3.661390 
# 
# 
# High freq. dielectric constant tensor:
#      x y z
#    x 1.797230 0.000000 0.002670 
#    y 0.000000 1.802710 0.000000 
#    z 0.002670 0.000000 1.806810 
# 
# From -- ./inp_files/340864.got.cif
#   From: 2010.06.25/outbox.cif.g09.slc.cpg/sg12_171_cif.got.tgz:340864.got - 2010.06.28 00:19:55.
