data_PCOD8102082
_publ_section_title
;
Structure prediction by ZEFSAII (Michael W. Deem and Ramdas Pophale) SiO2 
 PCOD8102082
Probable space group: C 2/M
;
_chemical_formula_sum "Si O2"
_cell_formula_units_Z 52
_cell_length_a 11.361699
_cell_length_b 19.594736
_cell_length_c 12.839367
_cell_angle_alpha 90.000000
_cell_angle_beta 111.743474
_cell_angle_gamma 90.000000
_cell_volume 2655.050062
_symmetry_space_group_name_H-M "C 2/M"
_symmetry_group_IT_number 12
_symmetry_cell_setting 'monoclinic'
loop_
_space_group_symop_operation_xyz
x,y,z
-x,y,-z
-x,-y,-z
x,-y,z
1/2+x,1/2+y,z
1/2-x,1/2+y,-z
1/2-x,1/2-y,-z
1/2+x,1/2-y,z
loop_
_atom_site_type_symbol
_atom_site_label
_atom_site_fract_x
_atom_site_fract_y
_atom_site_fract_z
Si Si1 0.308404 0.000000 0.907895
Si Si2 0.945292 0.773412 0.181899
Si Si3 0.773103 0.363461 0.814179
Si Si4 0.205135 0.337891 0.407504
Si Si5 0.799634 0.818321 0.648897
Si Si6 0.063724 0.364513 0.704463
Si Si7 0.947989 0.500000 0.162031
Si Si8 0.500000 0.790020 0.000000
O O1 0.227962 0.068143 0.858425
O O2 0.423305 0.000000 0.862155
O O3 0.338437 0.000000 0.039754
O O4 0.821934 0.802925 0.193984
O O5 0.961685 0.696636 0.224790
O O6 0.064538 0.822377 0.249977
O O7 0.928941 0.763638 0.052823
O O8 0.774397 0.381299 0.691319
O O9 0.908026 0.339338 0.904217
O O10 0.232167 0.260533 0.380397
O O11 0.301147 0.354608 0.534613
O O12 0.065037 0.357795 0.407265
O O13 0.692755 0.855314 0.682770
O O14 0.067654 0.434598 0.769551
#
# Coordination Sequence:
#
# PCOD8102082 Si02
#       8
#     4   8   8   8   8   8   4   4
#     4  11  22  38  56  87 121 159 200 243 298 355
#     4  11  22  37  60  87 119 156 194 248 296 361
#     4  12  22  38  61  88 119 154 202 244 298 352
#     4  10  20  36  60  89 116 156 193 254 291 348
#     4  10  21  37  59  87 122 151 200 242 303 353
#     4  11  19  38  59  92 116 153 199 246 302 345
#     4  11  22  36  63  87 121 158 198 251 299 348
#     4  12  20  37  56  91 118 148 200 256 300 341
#
# _framework density 19.585317
#
# number of rings (size 3 to 8) (size 9 to 14) (size 15 to 20)
#    0.000    1.077    6.154    2.769    0.000    1.846 
#    0.000    3.077    0.000    2.308    0.000    0.000 
#    0.000    0.000    0.000    0.000    0.000    0.000 
#
# Total GULP energy -322110.467633 kJ/mol
# GULP energy per Si atom -12388.864140 kJ/mol
# Density = 1.954074 g / cm^3
# Si number density = 19.585317 Si / 1000 Ang^3
#
#
#
# Elastic Constant Matrix: (Units=GPa)
#
#
# Indices 1 2 3 4 5 6 
#
# 1 61.0369 28.6438 22.2697 0.0000 -9.1342 0.0000
# 2 28.6438 86.5383 37.9981 0.0000 4.9785 0.0000
# 3 22.2697 37.9981 115.3587 0.0000 -9.3698 0.0000
# 4 0.0000 0.0000 0.0000 9.4766 0.0000 1.9286
# 5 -9.1342 4.9785 -9.3698 0.0000 19.9400 0.0000
# 6 0.0000 0.0000 0.0000 1.9286 0.0000 8.9385
#
#
#
# Elastic Compliance Matrix: (Units=1/GPa)
#
#
# Indices 1 2 3 4 5 6 
#
# 1 0.021969 -0.007586 -0.000802 0.000000 0.011581 0.000000
# 2 -0.007586 0.016778 -0.004870 0.000000 -0.009952 0.000000
# 3 -0.000802 -0.004870 0.010913 0.000000 0.005977 0.000000
# 4 0.000000 0.000000 0.000000 0.110370 0.000000 -0.023814
# 5 0.011581 -0.009952 0.005977 0.000000 0.060749 0.000000
# 6 0.000000 0.000000 0.000000 -0.023814 0.000000 0.117014
#
#
# Mechanical properties :
#
#
# Convention : Reuss Voigt Hill
#
# Bulk Modulus (GPa) = 43.20794 48.97302 46.09048
# Shear Modulus (GPa) = 13.44005 19.27250 16.35627
#
# Velocity S-wave (km/s) = 2.62244 3.14033 2.89300
# Velocity P-wave (km/s) = 5.59275 6.18127 5.89436
#
# Compressibility (1/GPa) = 0.02314389
#
# Stress axis : x y z
#
# Youngs Moduli (GPa) = 45.51840 59.60351 91.63336
#
# Poissons Ratio (x) = 0.45215 0.07346
# Poissons Ratio (y) = 0.34530 0.44628
# Poissons Ratio (z) = 0.03649 0.29029
#
# Static dielectric constant tensor:
#      x y z
#    x 3.373680 0.000000 0.041650 
#    y 0.000000 3.458230 0.000000 
#    z 0.041650 0.000000 4.007580 
# 
# 
# High freq. dielectric constant tensor:
#      x y z
#    x 1.743520 0.000000 -0.009080 
#    y 0.000000 1.735240 0.000000 
#    z -0.009080 0.000000 1.779030 
# 
# From -- ./inp_files/133368.got.cif
#   From: 2010.06.25/outbox.cif.g09.slc.cpg/sg12_67_cif.got.tgz:133368.got - 2010.06.28 00:19:55.
