data_PCOD8102786
_publ_section_title
;
Structure prediction by ZEFSAII (Michael W. Deem and Ramdas Pophale) SiO2 
 PCOD8102786
Probable space group: C 2/M
;
_chemical_formula_sum "Si O2"
_cell_formula_units_Z 64
_cell_length_a 29.074919
_cell_length_b 9.176031
_cell_length_c 24.989816
_cell_angle_alpha 90.000000
_cell_angle_beta 149.223738
_cell_angle_gamma 90.000000
_cell_volume 3411.463929
_symmetry_space_group_name_H-M "C 2/M"
_symmetry_group_IT_number 12
_symmetry_cell_setting 'monoclinic'
loop_
_space_group_symop_operation_xyz
x,y,z
-x,y,-z
-x,-y,-z
x,-y,z
1/2+x,1/2+y,z
1/2-x,1/2+y,-z
1/2-x,1/2-y,-z
1/2+x,1/2-y,z
loop_
_atom_site_type_symbol
_atom_site_label
_atom_site_fract_x
_atom_site_fract_y
_atom_site_fract_z
Si Si1 0.734199 0.833096 0.651458
Si Si2 0.368954 0.665712 0.266489
Si Si3 0.474493 0.327369 0.719325
Si Si4 0.669677 0.334452 0.893812
Si Si5 0.414488 0.670982 0.774957
Si Si6 0.275653 0.329658 0.813845
Si Si7 0.569544 0.671453 0.439734
Si Si8 0.542753 0.172666 0.985860
O O1 0.812129 0.792864 0.687450
O O2 0.773202 0.797264 0.748546
O O3 0.646338 0.740029 0.552561
O O4 0.705347 0.000000 0.617882
O O5 0.360770 0.500000 0.279548
O O6 0.324306 0.678356 0.163841
O O7 0.317579 0.774264 0.254550
O O8 0.473134 0.713681 0.368351
O O9 0.481779 0.500000 0.720854
O O10 0.576147 0.265845 0.821700
O O11 0.423745 0.279933 0.722402
O O12 0.423800 0.269906 0.615163
O O13 0.677942 0.500000 0.921101
O O14 0.750000 0.250000 0.000000
O O15 0.436350 0.500000 0.805141
O O16 0.481693 0.764527 0.877762
O O17 0.287838 0.500000 0.838454
O O18 0.358983 0.242374 0.922080
O O19 0.583009 0.500000 0.454585
O O20 0.550727 0.000000 0.987309
O O21 0.500000 0.216690 0.000000
#
# Coordination Sequence:
#
# PCOD8102786 Si02
#       8
#     8   8   8   8   8   8   8   8
#     4  10  22  37  55  82 113 144 184 235 281 326
#     4   9  20  38  56  79 112 146 184 235 281 327
#     4   8  17  35  57  80 107 144 184 224 272 329
#     4   9  18  33  52  77 109 140 180 229 274 327
#     4  10  20  37  59  82 113 150 187 225 273 335
#     4  11  23  38  57  82 113 150 189 228 276 337
#     4   9  19  38  61  81 109 147 186 230 281 332
#     4  11  23  38  57  82 115 149 184 232 279 326
#
# _framework density 18.760275
#
# number of rings (size 3 to 8) (size 9 to 14) (size 15 to 20)
#    0.000    2.375    1.250    2.250    1.750    4.000 
#    0.000    5.000    0.000    0.000    0.000    0.000 
#    0.000    0.000    0.000    0.000    0.000    0.000 
#
# Total GULP energy -396813.292723 kJ/mol
# GULP energy per Si atom -12400.415398 kJ/mol
# Density = 1.871758 g / cm^3
# Si number density = 18.760275 Si / 1000 Ang^3
#
#
#
# Elastic Constant Matrix: (Units=GPa)
#
#
# Indices 1 2 3 4 5 6 
#
# 1 95.3360 35.0510 13.7811 0.0000 11.9251 0.0000
# 2 35.0510 60.7541 37.6697 0.0000 6.3343 0.0000
# 3 13.7811 37.6697 82.7513 0.0000 19.4384 0.0000
# 4 0.0000 0.0000 0.0000 36.3446 0.0000 2.3852
# 5 11.9251 6.3343 19.4384 0.0000 18.3568 0.0000
# 6 0.0000 0.0000 0.0000 2.3852 0.0000 25.9707
#
#
#
# Elastic Compliance Matrix: (Units=1/GPa)
#
#
# Indices 1 2 3 4 5 6 
#
# 1 0.015105 -0.010629 0.005013 0.000000 -0.011454 0.000000
# 2 -0.010629 0.030655 -0.015070 0.000000 0.012285 0.000000
# 3 0.005013 -0.015070 0.023498 0.000000 -0.022939 0.000000
# 4 0.000000 0.000000 0.000000 0.027681 0.000000 -0.002542
# 5 -0.011454 0.012285 -0.022939 0.000000 0.081968 0.000000
# 6 0.000000 0.000000 0.000000 -0.002542 0.000000 0.038738
#
#
# Mechanical properties :
#
#
# Convention : Reuss Voigt Hill
#
# Bulk Modulus (GPa) = 35.85939 45.76056 40.80997
# Shear Modulus (GPa) = 18.63490 26.29040 22.46265
#
# Velocity S-wave (km/s) = 3.15511 3.74757 3.46403
# Velocity P-wave (km/s) = 5.69465 6.57046 6.14817
#
# Compressibility (1/GPa) = 0.02788670
#
# Stress axis : x y z
#
# Youngs Moduli (GPa) = 66.20333 32.62079 42.55626
#
# Poissons Ratio (x) = 0.34672 -0.21335
# Poissons Ratio (y) = 0.70367 0.64134
# Poissons Ratio (z) = -0.33190 0.49161
#
# Static dielectric constant tensor:
#      x y z
#    x 3.623190 0.000000 -0.027150 
#    y 0.000000 3.265000 0.000000 
#    z -0.027150 0.000000 3.355410 
# 
# 
# High freq. dielectric constant tensor:
#      x y z
#    x 1.736430 0.000000 0.002450 
#    y 0.000000 1.711570 0.000000 
#    z 0.002450 0.000000 1.730030 
# 
# From -- ./inp_files/353456.got.cif
#   From: 2010.06.25/outbox.cif.g09.slc.cpg/sg12_177_cif.got.tgz:353456.got - 2010.06.28 00:19:55.
