data_PCOD8102884
_publ_section_title
;
Structure prediction by ZEFSAII (Michael W. Deem and Ramdas Pophale) SiO2 
 PCOD8102884
Probable space group: C 2/M
;
_chemical_formula_sum "Si O2"
_cell_formula_units_Z 56
_cell_length_a 11.038554
_cell_length_b 18.388151
_cell_length_c 15.166440
_cell_angle_alpha 90.000000
_cell_angle_beta 116.009656
_cell_angle_gamma 90.000000
_cell_volume 2766.676498
_symmetry_space_group_name_H-M "C 2/M"
_symmetry_group_IT_number 12
_symmetry_cell_setting 'monoclinic'
loop_
_space_group_symop_operation_xyz
x,y,z
-x,y,-z
-x,-y,-z
x,-y,z
1/2+x,1/2+y,z
1/2-x,1/2+y,-z
1/2-x,1/2-y,-z
1/2+x,1/2-y,z
loop_
_atom_site_type_symbol
_atom_site_label
_atom_site_fract_x
_atom_site_fract_y
_atom_site_fract_z
Si Si1 0.159383 0.086313 0.050631
Si Si2 0.510817 0.417657 0.403756
Si Si3 0.244400 0.654290 0.579071
Si Si4 0.384106 0.192265 0.632799
Si Si5 0.652448 0.914417 0.051681
Si Si6 0.726910 0.659428 0.745032
Si Si7 0.685397 0.823301 0.754129
O O1 0.232280 0.124234 0.155796
O O2 0.171918 0.000000 0.066211
O O3 0.241938 0.113691 0.989980
O O4 0.000000 0.108637 0.000000
O O5 0.500000 0.388531 0.500000
O O6 0.456973 0.500000 0.379554
O O7 0.664445 0.414200 0.419797
O O8 0.427749 0.364575 0.312645
O O9 0.340878 0.724427 0.610276
O O10 0.123779 0.660210 0.468980
O O11 0.186640 0.641924 0.657366
O O12 0.287104 0.147161 0.666758
O O13 0.528299 0.183849 0.725976
O O14 0.705440 0.893115 0.163587
O O15 0.645251 0.000000 0.040329
O O16 0.500000 0.881827 0.000000
O O17 0.748694 0.742897 0.780621
#
# Coordination Sequence:
#
# PCOD8102884 Si02
#       7
#     8   8   8   8   8   8   8
#     4  10  24  44  62  85 120 164 210 257 316 380
#     4  11  22  38  59  88 125 163 206 251 291 353
#     4  10  21  36  59  87 124 166 201 237 302 364
#     4  10  20  37  59  88 128 160 196 251 296 364
#     4  10  22  41  63  85 115 158 201 256 320 367
#     4  11  22  36  61  92 121 153 206 251 305 357
#     4  11  23  37  63  91 120 163 204 250 310 362
#
# _framework density 20.240893
#
# number of rings (size 3 to 8) (size 9 to 14) (size 15 to 20)
#    0.000    1.571    2.857    1.714    2.000    1.714 
#    0.000    1.429    0.000    1.714    0.000    0.000 
#    0.000    0.000    0.000    0.000    0.000    0.000 
#
# Total GULP energy -347066.544582 kJ/mol
# GULP energy per Si atom -12395.233735 kJ/mol
# Density = 2.019482 g / cm^3
# Si number density = 20.240893 Si / 1000 Ang^3
#
#
#
# Elastic Constant Matrix: (Units=GPa)
#
#
# Indices 1 2 3 4 5 6 
#
# 1 101.2265 15.1194 37.4886 0.0000 7.1898 0.0000
# 2 15.1194 26.3776 28.0403 0.0000 -1.1313 0.0000
# 3 37.4886 28.0403 125.0834 0.0000 9.5639 0.0000
# 4 0.0000 0.0000 0.0000 36.1278 0.0000 1.0905
# 5 7.1898 -1.1313 9.5639 0.0000 37.7023 0.0000
# 6 0.0000 0.0000 0.0000 1.0905 0.0000 21.6646
#
#
#
# Elastic Compliance Matrix: (Units=1/GPa)
#
#
# Indices 1 2 3 4 5 6 
#
# 1 0.011502 -0.004123 -0.002392 0.000000 -0.001710 0.000000
# 2 -0.004123 0.051979 -0.010805 0.000000 0.005087 0.000000
# 3 -0.002392 -0.010805 0.011344 0.000000 -0.002746 0.000000
# 4 0.000000 0.000000 0.000000 0.027722 0.000000 -0.001395
# 5 -0.001710 0.005087 -0.002746 0.000000 0.027699 0.000000
# 6 0.000000 0.000000 0.000000 -0.001395 0.000000 0.046228
#
#
# Mechanical properties :
#
#
# Convention : Reuss Voigt Hill
#
# Bulk Modulus (GPa) = 24.88603 45.99822 35.44213
# Shear Modulus (GPa) = 22.27071 30.56823 26.41947
#
# Velocity S-wave (km/s) = 3.32065 3.89037 3.61675
# Velocity P-wave (km/s) = 5.19845 6.55399 5.91518
#
# Compressibility (1/GPa) = 0.04018318
#
# Stress axis : x y z
#
# Youngs Moduli (GPa) = 86.94056 19.23852 88.15357
#
# Poissons Ratio (x) = 0.07933 0.21088
# Poissons Ratio (y) = 0.35848 0.95254
# Poissons Ratio (z) = 0.20798 0.20788
#
# Static dielectric constant tensor:
#      x y z
#    x 3.933170 0.000000 -0.034070 
#    y 0.000000 3.371860 0.000000 
#    z -0.034070 0.000000 3.600250 
# 
# 
# High freq. dielectric constant tensor:
#      x y z
#    x 1.799180 0.000000 0.001260 
#    y 0.000000 1.767780 0.000000 
#    z 0.001260 0.000000 1.795210 
# 
# From -- ./inp_files/177957.got.cif
#   From: 2010.06.25/outbox.cif.g09.slc.cpg/sg12_89_cif.got.tgz:177957.got - 2010.06.28 00:19:55.
