data_PCOD8102162
_publ_section_title
;
Structure prediction by ZEFSAII (Michael W. Deem and Ramdas Pophale) SiO2 
 PCOD8102162
Probable space group: C 2/M
;
_chemical_formula_sum "Si O2"
_cell_formula_units_Z 52
_cell_length_a 9.068725
_cell_length_b 18.449996
_cell_length_c 20.810821
_cell_angle_alpha 90.000000
_cell_angle_beta 128.358985
_cell_angle_gamma 90.000000
_cell_volume 2730.386762
_symmetry_space_group_name_H-M "C 2/M"
_symmetry_group_IT_number 12
_symmetry_cell_setting 'monoclinic'
loop_
_space_group_symop_operation_xyz
x,y,z
-x,y,-z
-x,-y,-z
x,-y,z
1/2+x,1/2+y,z
1/2-x,1/2+y,-z
1/2-x,1/2-y,-z
1/2+x,1/2-y,z
loop_
_atom_site_type_symbol
_atom_site_label
_atom_site_fract_x
_atom_site_fract_y
_atom_site_fract_z
Si Si1 0.005284 0.916867 0.161892
Si Si2 0.000000 0.236775 0.500000
Si Si3 0.089295 0.704535 0.388204
Si Si4 0.990649 0.333626 0.826987
Si Si5 0.585340 0.299913 0.766208
Si Si6 0.563982 0.919573 0.730710
Si Si7 0.175603 0.171705 0.999887
O O1 0.999676 0.874646 0.228756
O O2 0.216630 0.915186 0.192465
O O3 0.938662 0.000000 0.154208
O O4 0.872351 0.877381 0.074538
O O5 0.957640 0.286047 0.550093
O O6 0.811954 0.189786 0.436938
O O7 0.022780 0.774214 0.327807
O O8 0.978272 0.632400 0.340169
O O9 0.803855 0.312194 0.813190
O O10 0.073562 0.261764 0.816547
O O11 0.946212 0.393768 0.760977
O O12 0.147375 0.366318 0.917133
O O13 0.500824 0.000000 0.694486
O O14 0.250000 0.250000 0.000000
O O15 0.000000 0.178471 0.000000
#
# Coordination Sequence:
#
# PCOD8102162 Si02
#       7
#     8   4   8   8   8   8   8
#     4  11  24  39  57  83 119 159 203 247 292 342
#     4  10  20  36  60  92 114 140 186 234 292 348
#     4  10  20  36  61  87 117 147 185 238 286 351
#     4  11  21  35  60  84 113 155 204 246 291 339
#     4  11  21  38  60  87 114 153 197 243 292 344
#     4  10  21  39  59  84 116 157 197 237 290 349
#     4  12  23  37  58  85 116 156 201 250 297 337
#
# _framework density 19.044922
#
# number of rings (size 3 to 8) (size 9 to 14) (size 15 to 20)
#    0.000    1.231    3.077    5.538    0.000    1.538 
#    0.000    1.538    0.000    3.692    0.000    0.000 
#    0.000    0.000    0.000    0.000    0.000    0.000 
#
# Total GULP energy -322372.254843 kJ/mol
# GULP energy per Si atom -12398.932879 kJ/mol
# Density = 1.900157 g / cm^3
# Si number density = 19.044922 Si / 1000 Ang^3
#
#
#
# Elastic Constant Matrix: (Units=GPa)
#
#
# Indices 1 2 3 4 5 6 
#
# 1 107.9522 35.1898 23.6602 0.0000 5.5165 0.0000
# 2 35.1898 130.2747 44.9020 0.0000 -8.2443 0.0000
# 3 23.6602 44.9020 94.0498 0.0000 2.8986 0.0000
# 4 0.0000 0.0000 0.0000 15.2155 0.0000 7.5089
# 5 5.5165 -8.2443 2.8986 0.0000 34.2274 0.0000
# 6 0.0000 0.0000 0.0000 7.5089 0.0000 17.8248
#
#
#
# Elastic Compliance Matrix: (Units=1/GPa)
#
#
# Indices 1 2 3 4 5 6 
#
# 1 0.010491 -0.002495 -0.001381 0.000000 -0.002175 0.000000
# 2 -0.002495 0.010017 -0.004252 0.000000 0.003175 0.000000
# 3 -0.001381 -0.004252 0.013069 0.000000 -0.001909 0.000000
# 4 0.000000 0.000000 0.000000 0.082972 0.000000 -0.034953
# 5 -0.002175 0.003175 -0.001909 0.000000 0.030493 0.000000
# 6 0.000000 0.000000 0.000000 -0.034953 0.000000 0.070826
#
#
# Mechanical properties :
#
#
# Convention : Reuss Voigt Hill
#
# Bulk Modulus (GPa) = 57.73895 59.97566 58.85730
# Shear Modulus (GPa) = 20.84223 28.68851 24.76537
#
# Velocity S-wave (km/s) = 3.31172 3.88540 3.60997
# Velocity P-wave (km/s) = 6.70868 7.18947 6.95323
#
# Compressibility (1/GPa) = 0.01731933
#
# Stress axis : x y z
#
# Youngs Moduli (GPa) = 95.32367 99.83270 76.51688
#
# Poissons Ratio (x) = 0.24913 0.10565
# Poissons Ratio (y) = 0.23788 0.32538
# Poissons Ratio (z) = 0.13161 0.42452
#
# Static dielectric constant tensor:
#      x y z
#    x 3.629240 0.000000 0.038980 
#    y 0.000000 3.438010 0.000000 
#    z 0.038980 0.000000 3.747390 
# 
# 
# High freq. dielectric constant tensor:
#      x y z
#    x 1.750490 0.000000 0.000130 
#    y 0.000000 1.716160 0.000000 
#    z 0.000130 0.000000 1.746270 
# 
# From -- ./inp_files/301197.got.cif
#   From: 2010.06.25/outbox.cif.g09.slc.cpg/sg12_151_cif.got.tgz:301197.got - 2010.06.28 00:19:55.
