data_PCOD8102818
_publ_section_title
;
Structure prediction by ZEFSAII (Michael W. Deem and Ramdas Pophale) SiO2 
 PCOD8102818
Probable space group: C 2/M
;
_chemical_formula_sum "Si O2"
_cell_formula_units_Z 48
_cell_length_a 28.143994
_cell_length_b 9.024934
_cell_length_c 9.968152
_cell_angle_alpha 90.000000
_cell_angle_beta 89.451980
_cell_angle_gamma 90.000000
_cell_volume 2531.771752
_symmetry_space_group_name_H-M "C 2/M"
_symmetry_group_IT_number 12
_symmetry_cell_setting 'monoclinic'
loop_
_space_group_symop_operation_xyz
x,y,z
-x,y,-z
-x,-y,-z
x,-y,z
1/2+x,1/2+y,z
1/2-x,1/2+y,-z
1/2-x,1/2-y,-z
1/2+x,1/2-y,z
loop_
_atom_site_type_symbol
_atom_site_label
_atom_site_fract_x
_atom_site_fract_y
_atom_site_fract_z
Si Si1 0.299836 0.829442 0.487137
Si Si2 0.800424 0.826863 0.984586
Si Si3 0.446896 0.174749 0.656490
Si Si4 0.354843 0.170630 0.214208
Si Si5 0.552118 0.825517 0.647496
Si Si6 0.644074 0.673332 0.284917
O O1 0.250000 0.750000 0.500000
O O2 0.317304 0.814040 0.334909
O O3 0.337810 0.754925 0.583210
O O4 0.294038 0.000000 0.528708
O O5 0.820728 0.791018 0.837606
O O6 0.793155 0.000000 0.007244
O O7 0.750000 0.750000 0.000000
O O8 0.837799 0.767960 0.091161
O O9 0.442611 0.234307 0.503956
O O10 0.500034 0.213464 0.708265
O O11 0.408444 0.262842 0.746707
O O12 0.437131 0.000000 0.667597
O O13 0.406178 0.236263 0.258144
O O14 0.358845 0.000000 0.168114
O O15 0.558705 0.000000 0.636133
O O16 0.641002 0.500000 0.313166
#
# Coordination Sequence:
#
# PCOD8102818 Si02
#       6
#     8   8   8   8   8   8
#     4  11  22  36  57  84 112 142 183 234 286 335
#     4  11  25  42  58  79 110 152 193 233 280 334
#     4   9  16  32  59  86 113 147 185 229 279 329
#     4  10  20  37  59  84 112 145 185 232 281 332
#     4   8  15  31  57  87 115 143 182 231 279 329
#     4  11  23  38  55  81 116 149 187 231 279 335
#
# _framework density 18.959054999999999
#
# number of rings (size 3 to 8) (size 9 to 14) (size 15 to 20)
#    0.000    2.000    1.667    3.500    0.000    8.000 
#    0.000    3.333    0.000    5.000    0.000    0.000 
#    0.000    0.000    0.000    0.000    0.000    0.000 
#
# Total GULP energy -297599.698034 kJ/mol
# GULP energy per Si atom -12399.987418 kJ/mol
# Density = 1.891590 g / cm^3
# Si number density = 18.959055 Si / 1000 Ang^3
#
#
#
# Elastic Constant Matrix: (Units=GPa)
#
#
# Indices 1 2 3 4 5 6 
#
# 1 130.8531 44.9971 12.1571 0.0000 3.3926 0.0000
# 2 44.9971 82.6728 34.5505 0.0000 -9.1321 0.0000
# 3 12.1571 34.5505 42.0661 0.0000 8.0887 0.0000
# 4 0.0000 0.0000 0.0000 29.9285 0.0000 -0.1316
# 5 3.3926 -9.1321 8.0887 0.0000 31.0997 0.0000
# 6 0.0000 0.0000 0.0000 -0.1316 0.0000 31.8046
#
#
#
# Elastic Compliance Matrix: (Units=1/GPa)
#
#
# Indices 1 2 3 4 5 6 
#
# 1 0.010029 -0.007778 0.004357 0.000000 -0.004511 0.000000
# 2 -0.007778 0.027832 -0.023523 0.000000 0.015139 0.000000
# 3 0.004357 -0.023523 0.045530 0.000000 -0.019224 0.000000
# 4 0.000000 0.000000 0.000000 0.033414 0.000000 0.000138
# 5 -0.004511 0.015139 -0.019224 0.000000 0.042092 0.000000
# 6 0.000000 0.000000 0.000000 0.000138 0.000000 0.031443
#
#
# Mechanical properties :
#
#
# Convention : Reuss Voigt Hill
#
# Bulk Modulus (GPa) = 33.89378 48.77794 41.33586
# Shear Modulus (GPa) = 19.68039 29.49238 24.58639
#
# Velocity S-wave (km/s) = 3.22537 3.94837 3.60504
# Velocity P-wave (km/s) = 5.63798 6.82422 6.25927
#
# Compressibility (1/GPa) = 0.02950394
#
# Stress axis : x y z
#
# Youngs Moduli (GPa) = 99.71190 35.92982 21.96376
#
# Poissons Ratio (x) = 0.27946 -0.09570
# Poissons Ratio (y) = 0.77554 0.51665
# Poissons Ratio (z) = -0.43448 0.84517
#
# Static dielectric constant tensor:
#      x y z
#    x 3.767980 0.000000 0.091460 
#    y 0.000000 3.345240 0.000000 
#    z 0.091460 0.000000 3.343230 
# 
# 
# High freq. dielectric constant tensor:
#      x y z
#    x 1.760040 0.000000 0.001180 
#    y 0.000000 1.722090 0.000000 
#    z 0.001180 0.000000 1.715550 
# 
# From -- ./inp_files/108589.got.cif
#   From: 2010.06.25/outbox.cif.g09.slc.cpg/sg12_55_cif.got.tgz:108589.got - 2010.06.28 00:19:55.
