data_PCOD8102016
_publ_section_title
;
Structure prediction by ZEFSAII (Michael W. Deem and Ramdas Pophale) SiO2 
 PCOD8102016
Probable space group: C 2/M
;
_chemical_formula_sum "Si O2"
_cell_formula_units_Z 64
_cell_length_a 30.648732
_cell_length_b 18.057877
_cell_length_c 12.164966
_cell_angle_alpha 90.000000
_cell_angle_beta 151.678300
_cell_angle_gamma 90.000000
_cell_volume 3194.144767
_symmetry_space_group_name_H-M "C 2/M"
_symmetry_group_IT_number 12
_symmetry_cell_setting 'monoclinic'
loop_
_space_group_symop_operation_xyz
x,y,z
-x,y,-z
-x,-y,-z
x,-y,z
1/2+x,1/2+y,z
1/2-x,1/2+y,-z
1/2-x,1/2-y,-z
1/2+x,1/2-y,z
loop_
_atom_site_type_symbol
_atom_site_label
_atom_site_fract_x
_atom_site_fract_y
_atom_site_fract_z
Si Si1 0.701242 0.817415 0.330552
Si Si2 0.860192 0.583986 0.615573
Si Si3 0.746259 0.192189 0.192013
Si Si4 0.234892 0.635257 0.804228
Si Si5 0.002291 0.288106 0.123288
Si Si6 0.565022 0.417979 0.748455
Si Si7 0.566691 0.301936 0.466044
Si Si8 0.403019 0.167868 0.314981
O O1 0.750000 0.750000 0.500000
O O2 0.695162 0.886121 0.400509
O O3 0.751844 0.838401 0.329204
O O4 0.600914 0.794975 0.062984
O O5 0.890067 0.500000 0.704529
O O6 0.792984 0.586349 0.361949
O O7 0.951351 0.631756 0.794849
O O8 0.756533 0.280452 0.213603
O O9 0.833886 0.157425 0.321249
O O10 0.652961 0.171206 0.922651
O O11 0.158193 0.625148 0.730029
O O12 0.333613 0.606399 0.064532
O O13 0.062358 0.246257 0.345505
O O14 0.000000 0.245782 0.000000
O O15 0.500000 0.418229 0.500000
O O16 0.567725 0.500000 0.808159
O O17 0.518409 0.358950 0.727418
O O18 0.568155 0.249505 0.576617
O O19 0.500000 0.126951 0.500000
#
# Coordination Sequence:
#
# PCOD8102016 Si02
#       8
#     8   8   8   8   8   8   8   8
#     4  11  21  37  60  90 122 158 205 258 306 359
#     4  11  23  40  63  90 123 164 208 253 309 372
#     4  11  20  34  61  92 125 157 203 258 307 359
#     4  11  20  38  60  91 126 161 207 255 306 368
#     4  10  20  36  60  87 118 154 201 256 301 354
#     4  11  23  38  59  87 123 163 205 254 304 363
#     4  11  20  38  58  92 123 160 206 252 303 364
#     4  11  21  33  61  96 127 157 199 259 310 364
#
# _framework density 20.036660999999999
#
# number of rings (size 3 to 8) (size 9 to 14) (size 15 to 20)
#    0.000    1.125    3.750    6.750    0.000    2.250 
#    0.000    0.625    0.000    3.375    0.000    0.000 
#    0.000    0.000    0.000    0.000    0.000    0.000 
#
# Total GULP energy -396662.778702 kJ/mol
# GULP energy per Si atom -12395.711834 kJ/mol
# Density = 1.999106 g / cm^3
# Si number density = 20.036661 Si / 1000 Ang^3
#
#
#
# Elastic Constant Matrix: (Units=GPa)
#
#
# Indices 1 2 3 4 5 6 
#
# 1 126.9910 38.1353 56.3492 0.0000 2.3281 0.0000
# 2 38.1353 84.9428 28.1977 0.0000 6.5247 0.0000
# 3 56.3492 28.1977 125.7352 0.0000 13.0469 0.0000
# 4 0.0000 0.0000 0.0000 11.8023 0.0000 4.0337
# 5 2.3281 6.5247 13.0469 0.0000 46.2086 0.0000
# 6 0.0000 0.0000 0.0000 4.0337 0.0000 20.3028
#
#
#
# Elastic Compliance Matrix: (Units=1/GPa)
#
#
# Indices 1 2 3 4 5 6 
#
# 1 0.010755 -0.003540 -0.004143 0.000000 0.001128 0.000000
# 2 -0.003540 0.013932 -0.001393 0.000000 -0.001395 0.000000
# 3 -0.004143 -0.001393 0.010385 0.000000 -0.002527 0.000000
# 4 0.000000 0.000000 0.000000 0.090902 0.000000 -0.018060
# 5 0.001128 -0.001395 -0.002527 0.000000 0.022495 0.000000
# 6 0.000000 0.000000 0.000000 -0.018060 0.000000 0.052842
#
#
# Mechanical properties :
#
#
# Convention : Reuss Voigt Hill
#
# Bulk Modulus (GPa) = 59.10494 64.78150 61.94322
# Shear Modulus (GPa) = 22.21210 29.99519 26.10364
#
# Velocity S-wave (km/s) = 3.33314 3.87333 3.61334
# Velocity P-wave (km/s) = 6.66149 7.23914 6.95632
#
# Compressibility (1/GPa) = 0.01691906
#
# Stress axis : x y z
#
# Youngs Moduli (GPa) = 92.97649 71.77967 96.29591
#
# Poissons Ratio (x) = 0.25409 0.39898
# Poissons Ratio (y) = 0.32913 0.13415
# Poissons Ratio (z) = 0.38523 0.10000
#
# Static dielectric constant tensor:
#      x y z
#    x 3.866000 0.000000 0.181930 
#    y 0.000000 3.362770 0.000000 
#    z 0.181930 0.000000 3.994430 
# 
# 
# High freq. dielectric constant tensor:
#      x y z
#    x 1.788720 0.000000 0.003710 
#    y 0.000000 1.727780 0.000000 
#    z 0.003710 0.000000 1.809170 
# 
# From -- ./inp_files/190058.got.cif
#   From: 2010.06.25/outbox.cif.g09.slc.cpg/sg12_96_cif.got.tgz:190058.got - 2010.06.28 00:19:55.
