data_PCOD8102005
_publ_section_title
;
Structure prediction by ZEFSAII (Michael W. Deem and Ramdas Pophale) SiO2 
 PCOD8102005
Probable space group: C 2/M
;
_chemical_formula_sum "Si O2"
_cell_formula_units_Z 64
_cell_length_a 10.994745
_cell_length_b 25.762143
_cell_length_c 12.250112
_cell_angle_alpha 90.000000
_cell_angle_beta 71.740964
_cell_angle_gamma 90.000000
_cell_volume 3295.115594
_symmetry_space_group_name_H-M "C 2/M"
_symmetry_group_IT_number 12
_symmetry_cell_setting 'monoclinic'
loop_
_space_group_symop_operation_xyz
x,y,z
-x,y,-z
-x,-y,-z
x,-y,z
1/2+x,1/2+y,z
1/2-x,1/2+y,-z
1/2-x,1/2-y,-z
1/2+x,1/2-y,z
loop_
_atom_site_type_symbol
_atom_site_label
_atom_site_fract_x
_atom_site_fract_y
_atom_site_fract_z
Si Si1 0.951706 0.944837 0.892316
Si Si2 0.224092 0.852823 0.116824
Si Si3 0.868229 0.638808 0.862562
Si Si4 0.670977 0.236528 0.629204
Si Si5 0.381024 0.252166 0.757775
Si Si6 0.360856 0.124237 0.293958
Si Si7 0.225246 0.059369 0.752370
Si Si8 0.364426 0.939082 0.499732
O O1 0.869652 0.894249 0.906798
O O2 0.073786 0.939377 0.780186
O O3 0.880213 0.000000 0.884053
O O4 0.000000 0.949384 0.000000
O O5 0.156513 0.796541 0.143473
O O6 0.256739 0.872624 0.228348
O O7 0.342923 0.852825 0.998960
O O8 0.869646 0.696322 0.814547
O O9 0.767157 0.599779 0.834685
O O10 0.005082 0.612315 0.803264
O O11 0.750000 0.250000 0.500000
O O12 0.529184 0.264140 0.677240
O O13 0.770022 0.248754 0.697996
O O14 0.635457 0.176354 0.636556
O O15 0.323565 0.080428 0.391615
O O16 0.269368 0.079070 0.621377
O O17 0.273962 0.000000 0.764652
O O18 0.500000 0.915671 0.500000
O O19 0.370916 0.000000 0.486902
#
# Coordination Sequence:
#
# PCOD8102005 Si02
#       8
#     8   8   8   8   8   8   8   8
#     4  10  21  38  60  88 118 155 207 255 291 352
#     4  11  23  40  58  86 124 162 198 252 308 373
#     4  11  21  38  62  85 119 161 198 257 303 359
#     4  10  22  39  59  85 120 159 205 255 299 366
#     4  10  24  38  58  90 121 162 212 247 309 374
#     4  10  23  38  57  88 122 152 193 249 313 362
#     4  10  21  37  61  92 117 148 206 258 297 349
#     4  10  20  36  60  87 117 150 193 244 295 368
#
# _framework density 19.422685999999999
#
# number of rings (size 3 to 8) (size 9 to 14) (size 15 to 20)
#    0.000    1.750    2.500    1.125    3.500    0.500 
#    0.000    3.125    0.000    4.500    0.000    0.000 
#    0.000    0.000    0.000    0.000    0.000    0.000 
#
# Total GULP energy -396486.690474 kJ/mol
# GULP energy per Si atom -12390.209077 kJ/mol
# Density = 1.937848 g / cm^3
# Si number density = 19.422686 Si / 1000 Ang^3
#
#
#
# Elastic Constant Matrix: (Units=GPa)
#
#
# Indices 1 2 3 4 5 6 
#
# 1 72.3971 16.5717 25.4102 0.0000 -9.2312 0.0000
# 2 16.5717 77.3983 30.7004 0.0000 1.7540 0.0000
# 3 25.4102 30.7004 132.9980 0.0000 -16.7188 0.0000
# 4 0.0000 0.0000 0.0000 32.3048 0.0000 3.1095
# 5 -9.2312 1.7540 -16.7188 0.0000 27.9757 0.0000
# 6 0.0000 0.0000 0.0000 3.1095 0.0000 23.4429
#
#
#
# Elastic Compliance Matrix: (Units=1/GPa)
#
#
# Indices 1 2 3 4 5 6 
#
# 1 0.015614 -0.002715 -0.001824 0.000000 0.004232 0.000000
# 2 -0.002715 0.014945 -0.003418 0.000000 -0.003876 0.000000
# 3 -0.001824 -0.003418 0.009307 0.000000 0.005174 0.000000
# 4 0.000000 0.000000 0.000000 0.031356 0.000000 -0.004159
# 5 0.004232 -0.003876 0.005174 0.000000 0.040477 0.000000
# 6 0.000000 0.000000 0.000000 -0.004159 0.000000 0.043208
#
#
# Mechanical properties :
#
#
# Convention : Reuss Voigt Hill
#
# Bulk Modulus (GPa) = 41.75310 47.57310 44.66310
# Shear Modulus (GPa) = 27.96306 30.75208 29.35757
#
# Velocity S-wave (km/s) = 3.79847 3.98340 3.89203
# Velocity P-wave (km/s) = 6.38605 6.76042 6.57590
#
# Compressibility (1/GPa) = 0.02395032
#
# Stress axis : x y z
#
# Youngs Moduli (GPa) = 64.04412 66.91060 107.44613
#
# Poissons Ratio (x) = 0.18169 0.19602
# Poissons Ratio (y) = 0.17391 0.36728
# Poissons Ratio (z) = 0.11684 0.22872
#
# Static dielectric constant tensor:
#      x y z
#    x 3.704210 0.000000 -0.260280 
#    y 0.000000 3.669840 0.000000 
#    z -0.260280 0.000000 3.786620 
# 
# 
# High freq. dielectric constant tensor:
#      x y z
#    x 1.742340 0.000000 -0.015640 
#    y 0.000000 1.761230 0.000000 
#    z -0.015640 0.000000 1.768280 
# 
# From -- ./inp_files/135934.got.cif
#   From: 2010.06.25/outbox.cif.g09.slc.cpg/sg12_68_cif.got.tgz:135934.got - 2010.06.28 00:19:55.
