data_PCOD8102214
_publ_section_title
;
Structure prediction by ZEFSAII (Michael W. Deem and Ramdas Pophale) SiO2 
 PCOD8102214
Probable space group: C 2/M
;
_chemical_formula_sum "Si O2"
_cell_formula_units_Z 48
_cell_length_a 31.039856
_cell_length_b 8.686838
_cell_length_c 8.969290
_cell_angle_alpha 90.000000
_cell_angle_beta 89.979294
_cell_angle_gamma 90.000000
_cell_volume 2418.463058
_symmetry_space_group_name_H-M "C 2/M"
_symmetry_group_IT_number 12
_symmetry_cell_setting 'monoclinic'
loop_
_space_group_symop_operation_xyz
x,y,z
-x,y,-z
-x,-y,-z
x,-y,z
1/2+x,1/2+y,z
1/2-x,1/2+y,-z
1/2-x,1/2-y,-z
1/2+x,1/2-y,z
loop_
_atom_site_type_symbol
_atom_site_label
_atom_site_fract_x
_atom_site_fract_y
_atom_site_fract_z
Si Si1 0.374461 0.317972 0.585669
Si Si2 0.042033 0.183186 0.582204
Si Si3 0.789954 0.681620 0.088098
Si Si4 0.790362 0.817271 0.415013
Si Si5 0.124590 0.320572 0.090632
Si Si6 0.545113 0.680010 0.922151
O O1 0.376009 0.500000 0.578778
O O2 0.416283 0.249416 0.502299
O O3 0.332505 0.255940 0.500618
O O4 0.373639 0.269243 0.755692
O O5 0.042281 0.238476 0.752650
O O6 0.000000 0.250798 0.500000
O O7 0.041364 0.000000 0.575529
O O8 0.784117 0.500000 0.103936
O O9 0.791834 0.757367 0.248510
O O10 0.750000 0.750000 0.000000
O O11 0.833709 0.726801 0.004059
O O12 0.750000 0.750000 0.500000
O O13 0.787576 0.000000 0.414143
O O14 0.124177 0.500000 0.125819
O O15 0.082027 0.275966 0.001762
O O16 0.556630 0.500000 0.932433
O O17 0.500000 0.716244 0.000000
#
# Coordination Sequence:
#
# PCOD8102214 Si02
#       6
#     8   8   8   8   8   8
#     4  10  21  37  58  83 112 149 191 234 283 343
#     4   9  17  32  56  85 112 139 181 234 280 327
#     4  11  24  41  61  86 117 155 198 244 296 353
#     4  11  23  39  61  88 118 153 193 240 293 349
#     4  11  24  39  57  84 118 153 190 238 293 346
#     4  10  20  36  61  88 114 150 194 238 286 345
#
# _framework density 19.847314000000001
#
# number of rings (size 3 to 8) (size 9 to 14) (size 15 to 20)
#    0.000    1.667    0.000    4.500    0.000   11.000 
#    0.000    0.833    0.000    2.000    0.000    0.000 
#    0.000    0.000    0.000    0.000    0.000    0.000 
#
# Total GULP energy -297704.225552 kJ/mol
# GULP energy per Si atom -12404.342731 kJ/mol
# Density = 1.980214 g / cm^3
# Si number density = 19.847314 Si / 1000 Ang^3
#
#
#
# Elastic Constant Matrix: (Units=GPa)
#
#
# Indices 1 2 3 4 5 6 
#
# 1 176.2339 24.7478 75.4020 0.0000 2.1536 0.0000
# 2 24.7478 17.8404 4.6337 0.0000 -2.7336 0.0000
# 3 75.4020 4.6337 153.1296 0.0000 4.6853 0.0000
# 4 0.0000 0.0000 0.0000 29.5686 0.0000 0.5170
# 5 2.1536 -2.7336 4.6853 0.0000 45.4365 0.0000
# 6 0.0000 0.0000 0.0000 0.5170 0.0000 30.3042
#
#
#
# Elastic Compliance Matrix: (Units=1/GPa)
#
#
# Indices 1 2 3 4 5 6 
#
# 1 0.009065 -0.011620 -0.004090 0.000000 -0.000707 0.000000
# 2 -0.011620 0.071982 0.003405 0.000000 0.004530 0.000000
# 3 -0.004090 0.003405 0.008456 0.000000 -0.000473 0.000000
# 4 0.000000 0.000000 0.000000 0.033830 0.000000 -0.000577
# 5 -0.000707 0.004530 -0.000473 0.000000 0.022364 0.000000
# 6 0.000000 0.000000 0.000000 -0.000577 0.000000 0.033009
#
#
# Mechanical properties :
#
#
# Convention : Reuss Voigt Hill
#
# Bulk Modulus (GPa) = 15.41033 61.86343 38.63688
# Shear Modulus (GPa) = 22.22757 37.22323 29.72540
#
# Velocity S-wave (km/s) = 3.35016 4.33538 3.87422
# Velocity P-wave (km/s) = 4.76929 7.50320 6.28666
#
# Compressibility (1/GPa) = 0.06489154
#
# Stress axis : x y z
#
# Youngs Moduli (GPa) = 110.31749 13.89239 118.26017
#
# Poissons Ratio (x) = 0.16143 0.48372
# Poissons Ratio (y) = 1.28193 -0.40269
# Poissons Ratio (z) = 0.45123 -0.04731
#
# Static dielectric constant tensor:
#      x y z
#    x 3.851060 0.000000 0.055020 
#    y 0.000000 3.432910 0.000000 
#    z 0.055020 0.000000 3.653420 
# 
# 
# High freq. dielectric constant tensor:
#      x y z
#    x 1.797040 0.000000 -0.000550 
#    y 0.000000 1.754330 0.000000 
#    z -0.000550 0.000000 1.795660 
# 
# From -- ./inp_files/108728.got.cif
#   From: 2010.06.25/outbox.cif.g09.slc.cpg/sg12_55_cif.got.tgz:108728.got - 2010.06.28 00:19:55.
