data_PCOD8102080
_publ_section_title
;
Structure prediction by ZEFSAII (Michael W. Deem and Ramdas Pophale) SiO2 
 PCOD8102080
Probable space group: C 2/M
;
_chemical_formula_sum "Si O2"
_cell_formula_units_Z 56
_cell_length_a 23.536066
_cell_length_b 8.859225
_cell_length_c 14.689285
_cell_angle_alpha 90.000000
_cell_angle_beta 108.612235
_cell_angle_gamma 90.000000
_cell_volume 2902.694097
_symmetry_space_group_name_H-M "C 2/M"
_symmetry_group_IT_number 12
_symmetry_cell_setting 'monoclinic'
loop_
_space_group_symop_operation_xyz
x,y,z
-x,y,-z
-x,-y,-z
x,-y,z
1/2+x,1/2+y,z
1/2-x,1/2+y,-z
1/2-x,1/2-y,-z
1/2+x,1/2-y,z
loop_
_atom_site_type_symbol
_atom_site_label
_atom_site_fract_x
_atom_site_fract_y
_atom_site_fract_z
Si Si1 0.702584 0.328093 0.585318
Si Si2 0.565625 0.826378 0.213646
Si Si3 0.339703 0.327955 0.244365
Si Si4 0.556402 0.675969 0.837307
Si Si5 0.764129 0.823122 0.911493
Si Si6 0.612602 0.174114 0.042259
Si Si7 0.325640 0.324809 0.630092
O O1 0.726543 0.500000 0.593393
O O2 0.655509 0.306537 0.644077
O O3 0.668222 0.288780 0.474399
O O4 0.759554 0.220677 0.630137
O O5 0.510093 0.729306 0.222187
O O6 0.569599 0.804871 0.106872
O O7 0.625868 0.773030 0.292635
O O8 0.554609 0.000000 0.232828
O O9 0.321654 0.500000 0.210431
O O10 0.402520 0.286617 0.229243
O O11 0.288264 0.216170 0.184774
O O12 0.556516 0.500000 0.860664
O O13 0.580065 0.764079 0.936803
O O14 0.826599 0.762611 0.904751
O O15 0.769247 0.000000 0.927168
O O16 0.750000 0.750000 0.000000
O O17 0.628481 0.000000 0.033539
O O18 0.336138 0.500000 0.657602
#
# Coordination Sequence:
#
# PCOD8102080 Si02
#       7
#     8   8   8   8   8   8   8
#     4   9  19  37  61  87 117 148 179 226 288 344
#     4  11  24  40  58  80 112 153 191 233 286 337
#     4  10  21  38  58  83 115 151 187 227 284 342
#     4  11  23  38  58  82 111 149 193 237 278 334
#     4  12  23  35  55  83 115 149 185 230 278 329
#     4  11  23  39  58  81 112 151 191 233 285 339
#     4  10  20  36  60  89 115 143 186 235 280 333
#
# _framework density 19.292421000000001
#
# number of rings (size 3 to 8) (size 9 to 14) (size 15 to 20)
#    0.000    1.429    1.429    4.286    0.000    9.143 
#    0.000    0.714    0.000    4.286    0.000    0.000 
#    0.000    0.000    0.000    0.000    0.000    0.000 
#
# Total GULP energy -347318.512733 kJ/mol
# GULP energy per Si atom -12404.232598 kJ/mol
# Density = 1.924851 g / cm^3
# Si number density = 19.292421 Si / 1000 Ang^3
#
#
#
# Elastic Constant Matrix: (Units=GPa)
#
#
# Indices 1 2 3 4 5 6 
#
# 1 95.7245 39.7685 42.3954 0.0000 -10.7517 0.0000
# 2 39.7685 102.9590 32.4469 0.0000 -7.2185 0.0000
# 3 42.3954 32.4469 87.4638 0.0000 -18.3341 0.0000
# 4 0.0000 0.0000 0.0000 27.2553 0.0000 5.0552
# 5 -10.7517 -7.2185 -18.3341 0.0000 25.9740 0.0000
# 6 0.0000 0.0000 0.0000 5.0552 0.0000 33.2843
#
#
#
# Elastic Compliance Matrix: (Units=1/GPa)
#
#
# Indices 1 2 3 4 5 6 
#
# 1 0.014561 -0.003845 -0.005389 0.000000 0.001154 0.000000
# 2 -0.003845 0.012015 -0.002614 0.000000 -0.000098 0.000000
# 3 -0.005389 -0.002614 0.016895 0.000000 0.008968 0.000000
# 4 0.000000 0.000000 0.000000 0.037754 0.000000 -0.005734
# 5 0.001154 -0.000098 0.008968 0.000000 0.045281 0.000000
# 6 0.000000 0.000000 0.000000 -0.005734 0.000000 0.030915
#
#
# Mechanical properties :
#
#
# Convention : Reuss Voigt Hill
#
# Bulk Modulus (GPa) = 50.57101 57.26323 53.91712
# Shear Modulus (GPa) = 26.63710 28.73848 27.68779
#
# Velocity S-wave (km/s) = 3.71981 3.86375 3.79247
# Velocity P-wave (km/s) = 6.68724 7.04634 6.86914
#
# Compressibility (1/GPa) = 0.01977418
#
# Stress axis : x y z
#
# Youngs Moduli (GPa) = 68.67878 83.23227 59.18788
#
# Poissons Ratio (x) = 0.32000 0.31899
# Poissons Ratio (y) = 0.26405 0.15471
# Poissons Ratio (z) = 0.37014 0.21757
#
# Static dielectric constant tensor:
#      x y z
#    x 3.584520 0.000000 -0.120870 
#    y 0.000000 3.678530 0.000000 
#    z -0.120870 0.000000 3.506430 
# 
# 
# High freq. dielectric constant tensor:
#      x y z
#    x 1.749140 0.000000 -0.010990 
#    y 0.000000 1.762090 0.000000 
#    z -0.010990 0.000000 1.745020 
# 
# From -- ./inp_files/238926.got.cif
#   From: 2010.06.25/outbox.cif.g09.slc.cpg/sg12_120_cif.got.tgz:238926.got - 2010.06.28 00:19:55.
