data_PCOD8102847
_publ_section_title
;
Structure prediction by ZEFSAII (Michael W. Deem and Ramdas Pophale) SiO2 
 PCOD8102847
Probable space group: C 2/M
;
_chemical_formula_sum "Si O2"
_cell_formula_units_Z 64
_cell_length_a 20.502244
_cell_length_b 9.024633
_cell_length_c 33.984963
_cell_angle_alpha 90.000000
_cell_angle_beta 147.283261
_cell_angle_gamma 90.000000
_cell_volume 3398.617700
_symmetry_space_group_name_H-M "C 2/M"
_symmetry_group_IT_number 12
_symmetry_cell_setting 'monoclinic'
loop_
_space_group_symop_operation_xyz
x,y,z
-x,y,-z
-x,-y,-z
x,-y,z
1/2+x,1/2+y,z
1/2-x,1/2+y,-z
1/2-x,1/2-y,-z
1/2+x,1/2-y,z
loop_
_atom_site_type_symbol
_atom_site_label
_atom_site_fract_x
_atom_site_fract_y
_atom_site_fract_z
Si Si1 0.135317 0.672031 0.555264
Si Si2 0.459746 0.171159 0.154727
Si Si3 0.737826 0.171722 0.312093
Si Si4 0.778226 0.324312 0.830813
Si Si5 0.536147 0.176118 0.931776
Si Si6 0.143934 0.673732 0.469576
Si Si7 0.376571 0.175465 0.312076
Si Si8 0.747070 0.324863 0.904814
O O1 0.168317 0.500000 0.577902
O O2 0.225509 0.771962 0.626314
O O3 0.149683 0.723773 0.517759
O O4 0.000000 0.703764 0.500000
O O5 0.596379 0.197705 0.236402
O O6 0.439668 0.231393 0.100244
O O7 0.378117 0.262146 0.143131
O O8 0.423285 0.000000 0.138942
O O9 0.805571 0.265262 0.313603
O O10 0.771574 0.000000 0.323817
O O11 0.766860 0.500000 0.819468
O O12 0.672535 0.246685 0.752798
O O13 0.764547 0.275154 0.868890
O O14 0.907108 0.264318 0.881076
O O15 0.532506 0.000000 0.931638
O O16 0.641420 0.239531 0.013138
O O17 0.161616 0.500000 0.475113
O O18 0.250000 0.750000 0.500000
O O19 0.016151 0.721831 0.386364
O O20 0.360552 0.000000 0.302823
O O21 0.743397 0.500000 0.906651
#
# Coordination Sequence:
#
# PCOD8102847 Si02
#       8
#     8   8   8   8   8   8   8   8
#     4  10  20  39  62  85 117 152 188 234 285 333
#     4  10  21  37  56  80 117 153 186 237 291 338
#     4  11  22  37  60  89 115 149 195 240 283 336
#     4  10  20  37  59  85 115 149 194 239 282 339
#     4   9  17  35  59  82 110 151 195 236 284 337
#     4  10  23  41  61  86 118 153 188 232 284 338
#     4  11  22  39  61  85 115 152 189 234 289 340
#     4  10  21  35  57  85 114 150 193 239 286 339
#
# _framework density 18.831185000000001
#
# number of rings (size 3 to 8) (size 9 to 14) (size 15 to 20)
#    0.000    1.875    2.500    1.500    0.000    5.750 
#    0.000    5.625    0.000    1.500    0.000    0.000 
#    0.000    0.000    0.000    0.000    0.000    0.000 
#
# Total GULP energy -396917.325343 kJ/mol
# GULP energy per Si atom -12403.666417 kJ/mol
# Density = 1.878832 g / cm^3
# Si number density = 18.831185 Si / 1000 Ang^3
#
#
#
# Elastic Constant Matrix: (Units=GPa)
#
#
# Indices 1 2 3 4 5 6 
#
# 1 133.7292 33.7547 55.3984 0.0000 -1.6337 0.0000
# 2 33.7547 34.5304 43.5790 0.0001 -3.4210 0.0000
# 3 55.3984 43.5790 139.6338 0.0000 -11.9789 0.0000
# 4 0.0000 0.0001 0.0000 25.4794 0.0000 -2.4373
# 5 -1.6337 -3.4210 -11.9789 0.0000 26.0178 0.0001
# 6 0.0000 0.0000 0.0000 -2.4373 0.0001 33.5421
#
#
#
# Elastic Compliance Matrix: (Units=1/GPa)
#
#
# Indices 1 2 3 4 5 6 
#
# 1 0.010156 -0.007972 -0.001641 0.000000 -0.001166 0.000000
# 2 -0.007972 0.054046 -0.013678 0.000000 0.000308 0.000000
# 3 -0.001641 -0.013678 0.012409 0.000000 0.003812 0.000000
# 4 0.000000 0.000000 0.000000 0.039522 0.000000 0.002872
# 5 -0.001166 0.000308 0.003812 0.000000 0.040157 0.000000
# 6 0.000000 0.000000 0.000000 0.002872 0.000000 0.030022
#
#
# Mechanical properties :
#
#
# Convention : Reuss Voigt Hill
#
# Bulk Modulus (GPa) = 33.30272 63.70640 48.50456
# Shear Modulus (GPa) = 20.58435 28.68528 24.63482
#
# Velocity S-wave (km/s) = 3.30979 3.90716 3.62082
# Velocity P-wave (km/s) = 5.68591 7.36602 6.57981
#
# Compressibility (1/GPa) = 0.03002758
#
# Stress axis : x y z
#
# Youngs Moduli (GPa) = 98.46808 18.50287 80.58881
#
# Poissons Ratio (x) = 0.14750 0.13227
# Poissons Ratio (y) = 0.78495 1.10232
# Poissons Ratio (z) = 0.16161 0.25309
#
# Static dielectric constant tensor:
#      x y z
#    x 3.550900 0.000000 -0.115890 
#    y 0.000000 3.290090 0.000000 
#    z -0.115890 0.000000 3.548410 
# 
# 
# High freq. dielectric constant tensor:
#      x y z
#    x 1.737730 0.000000 -0.004370 
#    y 0.000000 1.713460 0.000000 
#    z -0.004370 0.000000 1.748300 
# 
# From -- ./inp_files/319976.got.cif
#   From: 2010.06.25/outbox.cif.g09.slc.cpg/sg12_160_cif.got.tgz:319976.got - 2010.06.28 00:19:55.
