data_PCOD8102342
_publ_section_title
;
Structure prediction by ZEFSAII (Michael W. Deem and Ramdas Pophale) SiO2 
 PCOD8102342
Probable space group: C 2/M
;
_chemical_formula_sum "Si O2"
_cell_formula_units_Z 48
_cell_length_a 19.309710
_cell_length_b 8.848285
_cell_length_c 19.762643
_cell_angle_alpha 90.000000
_cell_angle_beta 135.986960
_cell_angle_gamma 90.000000
_cell_volume 2346.137617
_symmetry_space_group_name_H-M "C 2/M"
_symmetry_group_IT_number 12
_symmetry_cell_setting 'monoclinic'
loop_
_space_group_symop_operation_xyz
x,y,z
-x,y,-z
-x,-y,-z
x,-y,z
1/2+x,1/2+y,z
1/2-x,1/2+y,-z
1/2-x,1/2-y,-z
1/2+x,1/2-y,z
loop_
_atom_site_type_symbol
_atom_site_label
_atom_site_fract_x
_atom_site_fract_y
_atom_site_fract_z
Si Si1 0.844012 0.325272 0.601054
Si Si2 0.302176 0.825662 0.722522
Si Si3 0.604371 0.170902 0.600245
Si Si4 0.761548 0.178274 0.081123
Si Si5 0.938246 0.671311 0.275732
Si Si6 0.384498 0.677150 0.912770
O O1 0.828202 0.500000 0.575901
O O2 0.750000 0.250000 0.500000
O O3 0.855339 0.291839 0.688834
O O4 0.947942 0.268538 0.641398
O O5 0.187324 0.782439 0.629861
O O6 0.350214 0.722721 0.813840
O O7 0.311007 0.000000 0.750401
O O8 0.500000 0.234203 0.500000
O O9 0.609836 0.173756 0.684531
O O10 0.621405 0.000000 0.584919
O O11 0.872359 0.219578 0.183386
O O12 0.677387 0.238329 0.072959
O O13 0.750396 0.000000 0.068136
O O14 0.750000 0.250000 0.000000
O O15 0.936261 0.500000 0.245001
O O16 0.366133 0.500000 0.909548
O O17 0.500000 0.721159 0.000000
#
# Coordination Sequence:
#
# PCOD8102342 Si02
#       6
#     8   8   8   8   8   8
#     4  10  23  41  62  92 128 170 215 260 313 372
#     4  11  23  39  61  93 129 165 208 261 318 374
#     4  10  20  36  62  90 120 164 211 256 310 373
#     4  12  26  44  68  97 129 166 211 262 320 381
#     4  10  21  40  63  90 127 168 213 260 311 373
#     4  11  25  45  68  96 128 165 212 262 318 384
#
# _framework density 20.459157000000001
#
# number of rings (size 3 to 8) (size 9 to 14) (size 15 to 20)
#    0.000    1.333    1.667    3.500    2.333    5.000 
#    0.000    0.000    0.000    0.000    0.000    0.000 
#    0.000    0.000    0.000    0.000    0.000    0.000 
#
# Total GULP energy -297684.157913 kJ/mol
# GULP energy per Si atom -12403.506580 kJ/mol
# Density = 2.041259 g / cm^3
# Si number density = 20.459157 Si / 1000 Ang^3
#
#
#
# Elastic Constant Matrix: (Units=GPa)
#
#
# Indices 1 2 3 4 5 6 
#
# 1 82.6565 44.0393 20.1468 0.0000 13.2603 0.0000
# 2 44.0393 98.0870 44.8548 0.0000 4.3588 0.0000
# 3 20.1468 44.8548 106.2167 0.0000 10.0511 0.0000
# 4 0.0000 0.0000 0.0000 35.8866 0.0000 0.0410
# 5 13.2603 4.3588 10.0511 0.0000 35.5751 0.0000
# 6 0.0000 0.0000 0.0000 0.0410 0.0000 29.5194
#
#
#
# Elastic Compliance Matrix: (Units=1/GPa)
#
#
# Indices 1 2 3 4 5 6 
#
# 1 0.016894 -0.007576 0.000517 0.000000 -0.005515 0.000000
# 2 -0.007576 0.016033 -0.005564 0.000000 0.002431 0.000000
# 3 0.000517 -0.005564 0.011939 0.000000 -0.002884 0.000000
# 4 0.000000 0.000000 0.000000 0.027866 0.000000 -0.000039
# 5 -0.005515 0.002431 -0.002884 0.000000 0.030682 0.000000
# 6 0.000000 0.000000 0.000000 -0.000039 0.000000 0.033876
#
#
# Mechanical properties :
#
#
# Convention : Reuss Voigt Hill
#
# Bulk Modulus (GPa) = 50.96940 56.11578 53.54259
# Shear Modulus (GPa) = 29.57268 32.05751 30.81509
#
# Velocity S-wave (km/s) = 3.80603 3.96271 3.88516
# Velocity P-wave (km/s) = 6.65442 6.95882 6.80832
#
# Compressibility (1/GPa) = 0.01961961
#
# Stress axis : x y z
#
# Youngs Moduli (GPa) = 59.19405 62.37206 83.75857
#
# Poissons Ratio (x) = 0.47255 -0.04330
# Poissons Ratio (y) = 0.44847 0.46600
# Poissons Ratio (z) = -0.03060 0.34702
#
# Static dielectric constant tensor:
#      x y z
#    x 3.914260 0.000000 0.086990 
#    y 0.000000 3.724060 0.000000 
#    z 0.086990 0.000000 3.835300 
# 
# 
# High freq. dielectric constant tensor:
#      x y z
#    x 1.811220 0.000000 0.002220 
#    y 0.000000 1.794330 0.000000 
#    z 0.002220 0.000000 1.811790 
# 
# From -- ./inp_files/320304.got.cif
#   From: 2010.06.25/outbox.cif.g09.slc.cpg/sg12_161_cif.got.tgz:320304.got - 2010.06.28 00:19:55.
