data_PCOD8102459
_publ_section_title
;
Structure prediction by ZEFSAII (Michael W. Deem and Ramdas Pophale) SiO2 
 PCOD8102459
Probable space group: C 2/M
;
_chemical_formula_sum "Si O2"
_cell_formula_units_Z 52
_cell_length_a 9.981278
_cell_length_b 13.541759
_cell_length_c 31.629137
_cell_angle_alpha 90.000000
_cell_angle_beta 142.999081
_cell_angle_gamma 90.000000
_cell_volume 2572.887775
_symmetry_space_group_name_H-M "C 2/M"
_symmetry_group_IT_number 12
_symmetry_cell_setting 'monoclinic'
loop_
_space_group_symop_operation_xyz
x,y,z
-x,y,-z
-x,-y,-z
x,-y,z
1/2+x,1/2+y,z
1/2-x,1/2+y,-z
1/2-x,1/2-y,-z
1/2+x,1/2-y,z
loop_
_atom_site_type_symbol
_atom_site_label
_atom_site_fract_x
_atom_site_fract_y
_atom_site_fract_z
Si Si1 0.278168 0.887817 0.373947
Si Si2 0.368179 0.110867 0.605584
Si Si3 0.036352 0.745533 0.818301
Si Si4 0.049590 0.723965 0.725082
Si Si5 0.500000 0.760303 0.500000
Si Si6 0.938702 0.384206 0.937448
Si Si7 0.750843 0.884182 0.940543
O O1 0.393805 0.886236 0.357400
O O2 0.444568 0.831744 0.447309
O O3 0.040748 0.833237 0.309959
O O4 0.236027 0.000000 0.378906
O O5 0.403393 0.142962 0.663175
O O6 0.205137 0.187538 0.540760
O O7 0.268052 0.000000 0.579258
O O8 0.019273 0.702594 0.766867
O O9 0.214673 0.833343 0.864907
O O10 0.103895 0.656191 0.865460
O O11 0.803634 0.787930 0.775615
O O12 0.891024 0.500000 0.924073
O O13 0.144285 0.354901 0.958823
O O14 0.000000 0.348802 0.000000
O O15 0.757668 0.000000 0.936239
O O16 0.000000 0.839675 0.000000
#
# Coordination Sequence:
#
# PCOD8102459 Si02
#       7
#     8   8   8   8   4   8   8
#     4  10  21  39  62  87 122 162 199 242 295 353
#     4  10  21  39  61  88 124 160 196 244 299 349
#     4  12  23  40  63  88 118 161 198 252 298 359
#     4  11  24  39  60  89 121 154 208 244 294 356
#     4  10  20  36  64  94 120 152 206 248 286 346
#     4  10  23  41  62  88 118 157 203 248 302 365
#     4  10  23  41  61  88 121 155 199 254 304 354
#
# _framework density 20.210751999999999
#
# number of rings (size 3 to 8) (size 9 to 14) (size 15 to 20)
#    0.000    1.538    3.077    1.385    2.154    3.692 
#    0.000    0.000    0.000    0.000    0.000    0.000 
#    0.000    0.000    0.000    0.000    0.000    0.000 
#
# Total GULP energy -322455.006346 kJ/mol
# GULP energy per Si atom -12402.115629 kJ/mol
# Density = 2.016475 g / cm^3
# Si number density = 20.210752 Si / 1000 Ang^3
#
#
#
# Elastic Constant Matrix: (Units=GPa)
#
#
# Indices 1 2 3 4 5 6 
#
# 1 109.4772 34.8051 35.8454 0.0000 -8.8336 0.0000
# 2 34.8051 107.0527 38.6990 0.0000 -3.6772 0.0000
# 3 35.8454 38.6990 95.2645 0.0000 -10.5793 0.0000
# 4 0.0000 0.0000 0.0000 27.2797 0.0000 1.2518
# 5 -8.8336 -3.6772 -10.5793 0.0000 44.2084 0.0000
# 6 0.0000 0.0000 0.0000 1.2518 0.0000 25.6711
#
#
#
# Elastic Compliance Matrix: (Units=1/GPa)
#
#
# Indices 1 2 3 4 5 6 
#
# 1 0.010998 -0.002446 -0.003003 0.000000 0.001276 0.000000
# 2 -0.002446 0.011494 -0.003798 0.000000 -0.000442 0.000000
# 3 -0.003003 -0.003798 0.013425 0.000000 0.002297 0.000000
# 4 0.000000 0.000000 0.000000 0.036739 0.000000 -0.001791
# 5 0.001276 -0.000442 0.002297 0.000000 0.023388 0.000000
# 6 0.000000 0.000000 0.000000 -0.001791 0.000000 0.039042
#
#
# Mechanical properties :
#
#
# Convention : Reuss Voigt Hill
#
# Bulk Modulus (GPa) = 57.39497 58.94370 58.16934
# Shear Modulus (GPa) = 31.36995 32.92818 32.14906
#
# Velocity S-wave (km/s) = 3.94400 4.04076 3.99267
# Velocity P-wave (km/s) = 7.01427 7.14130 7.07807
#
# Compressibility (1/GPa) = 0.01742313
#
# Stress axis : x y z
#
# Youngs Moduli (GPa) = 90.92374 86.99975 74.48894
#
# Poissons Ratio (x) = 0.21284 0.22368
# Poissons Ratio (y) = 0.22244 0.28289
# Poissons Ratio (z) = 0.27303 0.33041
#
# Static dielectric constant tensor:
#      x y z
#    x 3.743260 0.000000 -0.009210 
#    y 0.000000 3.657100 0.000000 
#    z -0.009210 0.000000 3.770070 
# 
# 
# High freq. dielectric constant tensor:
#      x y z
#    x 1.789860 0.000000 -0.001960 
#    y 0.000000 1.793530 0.000000 
#    z -0.001960 0.000000 1.794630 
# 
# From -- ./inp_files/372648.got.cif
#   From: 2010.06.25/outbox.cif.g09.slc.cpg/sg12_187_cif.got.tgz:372648.got - 2010.06.28 00:19:55.
