data_PCOD8102959
_publ_section_title
;
Structure prediction by ZEFSAII (Michael W. Deem and Ramdas Pophale) SiO2 
 PCOD8102959
Probable space group: C 2/M
;
_chemical_formula_sum "Si O2"
_cell_formula_units_Z 48
_cell_length_a 17.922362
_cell_length_b 14.786209
_cell_length_c 16.225036
_cell_angle_alpha 90.000000
_cell_angle_beta 144.357133
_cell_angle_gamma 90.000000
_cell_volume 2505.566795
_symmetry_space_group_name_H-M "C 2/M"
_symmetry_group_IT_number 12
_symmetry_cell_setting 'monoclinic'
loop_
_space_group_symop_operation_xyz
x,y,z
-x,y,-z
-x,-y,-z
x,-y,z
1/2+x,1/2+y,z
1/2-x,1/2+y,-z
1/2-x,1/2-y,-z
1/2+x,1/2-y,z
loop_
_atom_site_type_symbol
_atom_site_label
_atom_site_fract_x
_atom_site_fract_y
_atom_site_fract_z
Si Si1 0.952362 0.235145 0.172966
Si Si2 0.809449 0.894760 0.623748
Si Si3 0.871655 0.397942 0.685863
Si Si4 0.144909 0.602455 0.142459
Si Si5 0.647948 0.105020 0.640739
Si Si6 0.270641 0.753648 0.153394
O O1 0.061820 0.162174 0.255137
O O2 0.002839 0.336879 0.207392
O O3 0.897215 0.228247 0.215611
O O4 0.843059 0.215990 0.008473
O O5 0.735988 0.865405 0.474775
O O6 0.719175 0.871178 0.619737
O O7 0.846538 0.000000 0.655400
O O8 0.915883 0.500000 0.704556
O O9 0.813119 0.391657 0.724639
O O10 0.155746 0.500000 0.118821
O O11 0.240814 0.663864 0.177663
O O12 0.000000 0.637802 0.000000
O O13 0.500000 0.131777 0.500000
O O14 0.709420 0.161847 0.769102
O O15 0.663831 0.000000 0.677721
#
# Coordination Sequence:
#
# PCOD8102959 Si02
#       6
#     8   8   8   8   8   8
#     4  11  23  38  56  86 121 154 191 237 295 347
#     4  10  22  39  60  85 116 155 193 239 294 346
#     4  10  20  37  62  85 110 150 198 238 284 344
#     4  10  20  37  60  84 111 148 193 239 285 338
#     4  10  22  41  63  87 116 153 200 244 289 349
#     4  11  24  37  58  88 118 154 194 240 293 346
#
# _framework density 19.157343000000001
#
# number of rings (size 3 to 8) (size 9 to 14) (size 15 to 20)
#    0.000    1.667    1.667    2.500    0.000    4.667 
#    0.000    5.000    0.000    3.500    0.000    0.000 
#    0.000    0.000    0.000    0.000    0.000    0.000 
#
# Total GULP energy -297716.148499 kJ/mol
# GULP energy per Si atom -12404.839521 kJ/mol
# Density = 1.911374 g / cm^3
# Si number density = 19.157343 Si / 1000 Ang^3
#
#
#
# Elastic Constant Matrix: (Units=GPa)
#
#
# Indices 1 2 3 4 5 6 
#
# 1 122.1347 45.5989 34.8604 -0.0001 -1.8017 -0.0001
# 2 45.5989 80.6921 29.8978 -0.0001 1.6025 -0.0001
# 3 34.8604 29.8978 69.2540 -0.0002 -9.3743 -0.0001
# 4 -0.0001 -0.0001 -0.0002 34.3571 -0.0001 -3.2081
# 5 -1.8017 1.6025 -9.3743 -0.0001 34.6330 -0.0001
# 6 -0.0001 -0.0001 -0.0001 -3.2081 -0.0001 28.0780
#
#
#
# Elastic Compliance Matrix: (Units=1/GPa)
#
#
# Indices 1 2 3 4 5 6 
#
# 1 0.011011 -0.004952 -0.003422 0.000000 -0.000124 0.000000
# 2 -0.004952 0.017191 -0.005264 0.000000 -0.002478 0.000000
# 3 -0.003422 -0.005264 0.019145 0.000000 0.005248 0.000000
# 4 0.000000 0.000000 0.000000 0.029420 0.000000 0.003361
# 5 -0.000124 -0.002478 0.005248 0.000000 0.030403 0.000000
# 6 0.000000 0.000000 0.000000 0.003361 0.000000 0.035999
#
#
# Mechanical properties :
#
#
# Convention : Reuss Voigt Hill
#
# Bulk Modulus (GPa) = 49.82288 54.75500 52.28894
# Shear Modulus (GPa) = 28.22697 30.19522 29.21109
#
# Velocity S-wave (km/s) = 3.84269 3.97441 3.90910
# Velocity P-wave (km/s) = 6.76402 7.05018 6.90858
#
# Compressibility (1/GPa) = 0.02007110
#
# Stress axis : x y z
#
# Youngs Moduli (GPa) = 90.81503 58.17017 52.23328
#
# Poissons Ratio (x) = 0.28807 0.17872
# Poissons Ratio (y) = 0.44974 0.27496
# Poissons Ratio (z) = 0.31074 0.30622
#
# Static dielectric constant tensor:
#      x y z
#    x 3.650150 0.000000 -0.123320 
#    y 0.000000 3.519670 0.000000 
#    z -0.123320 0.000000 3.479920 
# 
# 
# High freq. dielectric constant tensor:
#      x y z
#    x 1.754730 0.000000 -0.012690 
#    y 0.000000 1.751640 0.000000 
#    z -0.012690 0.000000 1.743070 
# 
# From -- ./inp_files/167518.got.cif
#   From: 2010.06.25/outbox.cif.g09.slc.cpg/sg12_84_cif.got.tgz:167518.got - 2010.06.28 00:19:55.
