data_PCOD8102546
_publ_section_title
;
Structure prediction by ZEFSAII (Michael W. Deem and Ramdas Pophale) SiO2 
 PCOD8102546
Probable space group: C 2/M
;
_chemical_formula_sum "Si O2"
_cell_formula_units_Z 56
_cell_length_a 14.532463
_cell_length_b 9.138708
_cell_length_c 22.947952
_cell_angle_alpha 90.000000
_cell_angle_beta 67.542279
_cell_angle_gamma 90.000000
_cell_volume 2816.539912
_symmetry_space_group_name_H-M "C 2/M"
_symmetry_group_IT_number 12
_symmetry_cell_setting 'monoclinic'
loop_
_space_group_symop_operation_xyz
x,y,z
-x,y,-z
-x,-y,-z
x,-y,z
1/2+x,1/2+y,z
1/2-x,1/2+y,-z
1/2-x,1/2-y,-z
1/2+x,1/2-y,z
loop_
_atom_site_type_symbol
_atom_site_label
_atom_site_fract_x
_atom_site_fract_y
_atom_site_fract_z
Si Si1 0.101536 0.830861 0.008107
Si Si2 0.912565 0.669873 0.441803
Si Si3 0.727834 0.331833 0.710950
Si Si4 0.362849 0.829700 0.576430
Si Si5 0.686158 0.169921 0.096108
Si Si6 0.049511 0.166022 0.678409
Si Si7 0.658909 0.673958 0.223089
O O1 0.117416 0.730573 0.060712
O O2 0.094083 0.000000 0.029529
O O3 0.196195 0.806973 0.943190
O O4 0.000000 0.782310 0.000000
O O5 0.890239 0.500000 0.437795
O O6 0.850560 0.732602 0.512896
O O7 0.889636 0.751430 0.387145
O O8 0.027383 0.699632 0.427414
O O9 0.760066 0.500000 0.715114
O O10 0.787220 0.261342 0.641523
O O11 0.611441 0.321314 0.723561
O O12 0.747237 0.236546 0.763843
O O13 0.339887 0.000000 0.577314
O O14 0.656843 0.259442 0.159864
O O15 0.660793 0.000000 0.110770
O O16 0.939892 0.227730 0.718596
O O17 0.041773 0.000000 0.659217
O O18 0.665066 0.500000 0.216603
#
# Coordination Sequence:
#
# PCOD8102546 Si02
#       7
#     8   8   8   8   8   8   8
#     4   9  19  38  63  90 120 149 178 218 265 309
#     4   9  16  30  53  77 100 133 176 221 275 337
#     4  10  20  37  57  75 101 142 186 225 271 333
#     4   8  15  29  52  77  99 131 175 223 275 332
#     4  10  21  37  60  88 115 149 187 218 259 316
#     4  10  22  36  52  77 107 139 179 228 280 324
#     4  11  23  39  55  77 113 148 182 228 272 312
#
# _framework density 19.882550999999999
#
# number of rings (size 3 to 8) (size 9 to 14) (size 15 to 20)
#    0.000    2.429    1.429    1.714    0.000    3.714 
#    0.000    7.857    0.000    0.000    0.000    0.000 
#    0.000    0.000    0.000    0.000    0.000    0.000 
#
# Total GULP energy -347081.486469 kJ/mol
# GULP energy per Si atom -12395.767374 kJ/mol
# Density = 1.983730 g / cm^3
# Si number density = 19.882551 Si / 1000 Ang^3
#
#
#
# Elastic Constant Matrix: (Units=GPa)
#
#
# Indices 1 2 3 4 5 6 
#
# 1 71.1476 34.8817 32.1737 0.0000 17.4054 0.0000
# 2 34.8817 79.2323 49.8557 0.0000 13.7243 0.0000
# 3 32.1737 49.8557 96.9854 0.0000 22.2633 0.0000
# 4 0.0000 0.0000 0.0000 32.3608 0.0000 7.8361
# 5 17.4054 13.7243 22.2633 0.0000 22.2876 0.0000
# 6 0.0000 0.0000 0.0000 7.8361 0.0000 26.1113
#
#
#
# Elastic Compliance Matrix: (Units=1/GPa)
#
#
# Indices 1 2 3 4 5 6 
#
# 1 0.020325 -0.006488 -0.000884 0.000000 -0.010995 0.000000
# 2 -0.006488 0.020832 -0.008791 0.000000 0.001020 0.000000
# 3 -0.000884 -0.008791 0.017804 0.000000 -0.011682 0.000000
# 4 0.000000 0.000000 0.000000 0.033323 0.000000 -0.010000
# 5 -0.010995 0.001020 -0.011682 0.000000 0.064496 0.000000
# 6 0.000000 0.000000 0.000000 -0.010000 0.000000 0.041299
#
#
# Mechanical properties :
#
#
# Convention : Reuss Voigt Hill
#
# Bulk Modulus (GPa) = 37.54028 53.46530 45.50279
# Shear Modulus (GPa) = 20.89574 24.84888 22.87231
#
# Velocity S-wave (km/s) = 3.24537 3.53906 3.39539
# Velocity P-wave (km/s) = 5.74153 6.60673 6.18927
#
# Compressibility (1/GPa) = 0.02663806
#
# Stress axis : x y z
#
# Youngs Moduli (GPa) = 49.19933 48.00303 56.16564
#
# Poissons Ratio (x) = 0.31142 0.04964
# Poissons Ratio (y) = 0.31918 0.49373
# Poissons Ratio (z) = 0.04348 0.42198
#
# Static dielectric constant tensor:
#      x y z
#    x 3.560280 0.000000 -0.009060 
#    y 0.000000 3.390370 0.000000 
#    z -0.009060 0.000000 3.671740 
# 
# 
# High freq. dielectric constant tensor:
#      x y z
#    x 1.774700 0.000000 0.006220 
#    y 0.000000 1.754050 0.000000 
#    z 0.006220 0.000000 1.775580 
# 
# From -- ./inp_files/337905.got.cif
#   From: 2010.06.25/outbox.cif.g09.slc.cpg/sg12_169_cif.got.tgz:337905.got - 2010.06.28 00:19:55.
