data_PCOD8102009
_publ_section_title
;
Structure prediction by ZEFSAII (Michael W. Deem and Ramdas Pophale) SiO2 
 PCOD8102009
Probable space group: C 2/M
;
_chemical_formula_sum "Si O2"
_cell_formula_units_Z 64
_cell_length_a 19.544231
_cell_length_b 8.921618
_cell_length_c 31.210174
_cell_angle_alpha 90.000000
_cell_angle_beta 143.104088
_cell_angle_gamma 90.000000
_cell_volume 3267.175328
_symmetry_space_group_name_H-M "C 2/M"
_symmetry_group_IT_number 12
_symmetry_cell_setting 'monoclinic'
loop_
_space_group_symop_operation_xyz
x,y,z
-x,y,-z
-x,-y,-z
x,-y,z
1/2+x,1/2+y,z
1/2-x,1/2+y,-z
1/2-x,1/2-y,-z
1/2+x,1/2-y,z
loop_
_atom_site_type_symbol
_atom_site_label
_atom_site_fract_x
_atom_site_fract_y
_atom_site_fract_z
Si Si1 0.008521 0.670052 0.722846
Si Si2 0.484439 0.176333 0.124855
Si Si3 0.065461 0.329273 0.656596
Si Si4 0.340824 0.322918 0.513747
Si Si5 0.778501 0.824359 0.620276
Si Si6 0.821055 0.324653 0.117682
Si Si7 0.920407 0.677843 0.998917
Si Si8 0.293338 0.324340 0.725440
O O1 0.965508 0.500000 0.709673
O O2 0.902259 0.780254 0.664598
O O3 0.079083 0.679745 0.714428
O O4 0.087854 0.725290 0.801083
O O5 0.373194 0.219285 0.097432
O O6 0.468340 0.237317 0.068472
O O7 0.595754 0.245455 0.201186
O O8 0.501753 0.000000 0.133854
O O9 0.039555 0.500000 0.628833
O O10 0.184873 0.271265 0.698127
O O11 0.967690 0.221587 0.590237
O O12 0.325911 0.500000 0.508349
O O13 0.250000 0.250000 0.500000
O O14 0.317938 0.264473 0.454229
O O15 0.769575 0.775154 0.664977
O O16 0.759221 0.000000 0.603876
O O17 0.793946 0.500000 0.107226
O O18 0.706905 0.235805 0.070644
O O19 0.916677 0.500000 0.996646
O O20 0.000000 0.738066 0.000000
O O21 0.314718 0.500000 0.739710
#
# Coordination Sequence:
#
# PCOD8102009 Si02
#       8
#     8   8   8   8   8   8   8   8
#     4  10  20  36  60  87 117 153 198 249 296 349
#     4  10  21  39  61  84 117 157 199 245 294 352
#     4  10  22  40  60  86 121 158 196 243 300 355
#     4  12  24  39  61  89 119 156 201 247 297 353
#     4  11  22  38  61  89 120 155 198 243 294 354
#     4  10  21  37  60  89 115 153 201 243 291 347
#     4  10  23  40  57  85 122 158 194 240 298 353
#     4  10  23  40  61  90 121 156 197 244 297 353
#
# _framework density 19.588785999999999
#
# number of rings (size 3 to 8) (size 9 to 14) (size 15 to 20)
#    0.000    1.625    2.500    1.875    1.750    3.250 
#    0.000    2.500    0.000    0.000    0.000    0.000 
#    0.000    0.000    0.000    0.000    0.000    0.000 
#
# Total GULP energy -396919.977236 kJ/mol
# GULP energy per Si atom -12403.749289 kJ/mol
# Density = 1.954420 g / cm^3
# Si number density = 19.588786 Si / 1000 Ang^3
#
#
#
# Elastic Constant Matrix: (Units=GPa)
#
#
# Indices 1 2 3 4 5 6 
#
# 1 128.9688 27.1638 46.6513 0.0000 -2.4102 0.0000
# 2 27.1638 57.4079 35.7735 0.0001 -1.3109 0.0000
# 3 46.6513 35.7735 93.4046 0.0000 -15.0437 0.0000
# 4 0.0000 0.0001 0.0000 36.8209 0.0000 5.3685
# 5 -2.4102 -1.3109 -15.0437 0.0000 34.3164 0.0000
# 6 0.0000 0.0000 0.0000 5.3685 0.0000 23.0595
#
#
#
# Elastic Compliance Matrix: (Units=1/GPa)
#
#
# Indices 1 2 3 4 5 6 
#
# 1 0.009695 -0.001932 -0.004309 0.000000 -0.001282 0.000000
# 2 -0.001932 0.023594 -0.008552 0.000000 -0.002984 0.000000
# 3 -0.004309 -0.008552 0.017250 0.000000 0.006933 0.000000
# 4 0.000000 0.000000 0.000000 0.028113 0.000000 -0.006545
# 5 -0.001282 -0.002984 0.006933 0.000000 0.031976 0.000000
# 6 0.000000 0.000000 0.000000 -0.006545 0.000000 0.044890
#
#
# Mechanical properties :
#
#
# Convention : Reuss Voigt Hill
#
# Bulk Modulus (GPa) = 47.72320 55.43984 51.58152
# Shear Modulus (GPa) = 26.02955 30.18554 28.10754
#
# Velocity S-wave (km/s) = 3.64922 3.92977 3.79209
# Velocity P-wave (km/s) = 6.49393 6.99671 6.75001
#
# Compressibility (1/GPa) = 0.02095417
#
# Stress axis : x y z
#
# Youngs Moduli (GPa) = 103.14168 42.38287 57.96985
#
# Poissons Ratio (x) = 0.08187 0.24979
# Poissons Ratio (y) = 0.19924 0.49577
# Poissons Ratio (z) = 0.44444 0.36247
#
# Static dielectric constant tensor:
#      x y z
#    x 3.852290 0.000000 -0.196350 
#    y 0.000000 3.482890 0.000000 
#    z -0.196350 0.000000 3.679730 
# 
# 
# High freq. dielectric constant tensor:
#      x y z
#    x 1.771850 0.000000 -0.010270 
#    y 0.000000 1.753830 0.000000 
#    z -0.010270 0.000000 1.771170 
# 
# From -- ./inp_files/378373.got.cif
#   From: 2010.06.25/outbox.cif.g09.slc.cpg/sg12_190_cif.got.tgz:378373.got - 2010.06.28 00:19:55.
