data_PCOD8102677
_publ_section_title
;
Structure prediction by ZEFSAII (Michael W. Deem and Ramdas Pophale) SiO2 
 PCOD8102677
Probable space group: C 2/M
;
_chemical_formula_sum "Si O2"
_cell_formula_units_Z 48
_cell_length_a 20.861151
_cell_length_b 17.485392
_cell_length_c 8.348381
_cell_angle_alpha 90.000000
_cell_angle_beta 118.791075
_cell_angle_gamma 90.000000
_cell_volume 2668.758080
_symmetry_space_group_name_H-M "C 2/M"
_symmetry_group_IT_number 12
_symmetry_cell_setting 'monoclinic'
loop_
_space_group_symop_operation_xyz
x,y,z
-x,y,-z
-x,-y,-z
x,-y,z
1/2+x,1/2+y,z
1/2-x,1/2+y,-z
1/2-x,1/2-y,-z
1/2+x,1/2-y,z
loop_
_atom_site_type_symbol
_atom_site_label
_atom_site_fract_x
_atom_site_fract_y
_atom_site_fract_z
Si Si1 0.163898 0.412005 0.107681
Si Si2 0.713561 0.309390 0.329318
Si Si3 0.078765 0.714583 0.170858
Si Si4 0.321835 0.413578 0.449022
Si Si5 0.921954 0.778618 0.475092
Si Si6 0.807825 0.692971 0.146928
O O1 0.139573 0.500000 0.067037
O O2 0.105347 0.371025 0.155818
O O3 0.245750 0.402407 0.267792
O O4 0.165707 0.376035 0.932924
O O5 0.750000 0.250000 0.500000
O O6 0.640728 0.269909 0.167315
O O7 0.690486 0.388531 0.383228
O O8 0.769641 0.336761 0.262596
O O9 0.076383 0.728768 0.359117
O O10 0.000000 0.732790 0.000000
O O11 0.350392 0.500000 0.476379
O O12 0.383016 0.359919 0.447263
O O13 0.882184 0.733762 0.286111
O O14 0.000000 0.798024 0.500000
O O15 0.750000 0.750000 0.000000
#
# Coordination Sequence:
#
# PCOD8102677 Si02
#       6
#     8   8   8   8   8   8
#     4  11  22  36  57  86 115 148 186 231 291 338
#     4  11  18  37  60  85 107 148 192 234 272 331
#     4  11  21  37  58  84 112 151 189 234 280 334
#     4  10  20  37  58  82 116 151 185 230 286 338
#     4  11  22  36  59  87 111 150 195 232 279 333
#     4  12  19  35  61  85 112 145 189 241 269 333
#
# _framework density 17.985894999999999
#
# number of rings (size 3 to 8) (size 9 to 14) (size 15 to 20)
#    0.000    1.000    8.333    1.000    0.000    1.333 
#    0.000    0.833    0.000   10.000    0.000    0.000 
#    0.000    0.000    0.000    0.000    0.000    0.000 
#
# Total GULP energy -297504.006813 kJ/mol
# GULP energy per Si atom -12396.000284 kJ/mol
# Density = 1.794496 g / cm^3
# Si number density = 17.985895 Si / 1000 Ang^3
#
#
#
# Elastic Constant Matrix: (Units=GPa)
#
#
# Indices 1 2 3 4 5 6 
#
# 1 91.3251 50.8395 19.4074 0.0000 16.3326 0.0000
# 2 50.8395 127.0600 52.2981 0.0000 2.3944 0.0000
# 3 19.4074 52.2981 78.2019 0.0000 21.7058 0.0000
# 4 0.0000 0.0000 0.0000 21.9454 0.0000 -13.7666
# 5 16.3326 2.3944 21.7058 0.0000 30.2637 0.0000
# 6 0.0000 0.0000 0.0000 -13.7666 0.0000 -1.0096
#
#
#
# Elastic Compliance Matrix: (Units=1/GPa)
#
#
# Indices 1 2 3 4 5 6 
#
# 1 0.016740 -0.008433 0.004754 0.000000 -0.011777 0.000000
# 2 -0.008433 0.015873 -0.011782 0.000000 0.011746 0.000000
# 3 0.004754 -0.011782 0.024897 0.000000 -0.019490 0.000000
# 4 0.000000 0.000000 0.000000 0.004770 0.000000 -0.065036
# 5 -0.011777 0.011746 -0.019490 0.000000 0.052448 0.000000
# 6 0.000000 0.000000 0.000000 -0.065036 0.000000 -0.103675
#
#
# Mechanical properties :
#
#
# Convention : Reuss Voigt Hill
#
# Bulk Modulus (GPa) = 37.61226 60.18633 48.89930
# Shear Modulus (GPa) = 98.35087 21.84271 60.09679
#
# Velocity S-wave (km/s) = 7.40277 3.48866 5.78669
# Velocity P-wave (km/s) = 9.69667 7.05431 8.47905
#
# Compressibility (1/GPa) = 0.02658708
#
# Stress axis : x y z
#
# Youngs Moduli (GPa) = 59.73593 63.00059 40.16559
#
# Poissons Ratio (x) = 0.53128 -0.19094
# Poissons Ratio (y) = 0.50375 0.47325
# Poissons Ratio (z) = -0.28398 0.74230
#
# Static dielectric constant tensor:
#      x y z
#    x 3.589650 0.000000 -0.070090 
#    y 0.000000 3.286070 0.000000 
#    z -0.070090 0.000000 3.479870 
# 
# 
# High freq. dielectric constant tensor:
#      x y z
#    x 1.706750 0.000000 -0.000890 
#    y 0.000000 1.677030 0.000000 
#    z -0.000890 0.000000 1.700280 
# 
# From -- ./inp_files/87137.got.cif
#   From: 2010.06.25/outbox.cif.g09.slc.cpg/sg12_44_cif.got.tgz:87137.got - 2010.06.28 00:19:55.
