data_PCOD8102574
_publ_section_title
;
Structure prediction by ZEFSAII (Michael W. Deem and Ramdas Pophale) SiO2 
 PCOD8102574
Probable space group: C 2/M
;
_chemical_formula_sum "Si O2"
_cell_formula_units_Z 56
_cell_length_a 29.876443
_cell_length_b 16.428361
_cell_length_c 6.744128
_cell_angle_alpha 90.000000
_cell_angle_beta 56.681318
_cell_angle_gamma 90.000000
_cell_volume 2766.063034
_symmetry_space_group_name_H-M "C 2/M"
_symmetry_group_IT_number 12
_symmetry_cell_setting 'monoclinic'
loop_
_space_group_symop_operation_xyz
x,y,z
-x,y,-z
-x,-y,-z
x,-y,z
1/2+x,1/2+y,z
1/2-x,1/2+y,-z
1/2-x,1/2-y,-z
1/2+x,1/2-y,z
loop_
_atom_site_type_symbol
_atom_site_label
_atom_site_fract_x
_atom_site_fract_y
_atom_site_fract_z
Si Si1 0.707873 0.178771 0.616277
Si Si2 0.316835 0.905540 0.728161
Si Si3 0.950920 0.751742 0.005422
Si Si4 0.991086 0.090809 0.291955
Si Si5 0.880436 0.300503 0.853995
Si Si6 0.885306 0.178716 0.494653
Si Si7 0.725109 0.408862 0.255736
O O1 0.750000 0.250000 0.500000
O O2 0.682762 0.150198 0.468571
O O3 0.737444 0.101064 0.642395
O O4 0.664128 0.213640 0.872242
O O5 0.366398 0.878760 0.751564
O O6 0.325431 0.000000 0.654739
O O7 0.260168 0.889579 0.974301
O O8 0.935644 0.696770 0.849848
O O9 0.970446 0.843242 0.904098
O O10 0.900644 0.759992 0.277955
O O11 0.000000 0.706732 0.000000
O O12 0.928490 0.106521 0.397914
O O13 0.000000 0.097555 0.500000
O O14 0.005840 0.000000 0.179394
O O15 0.885546 0.221901 0.705800
O O16 0.825205 0.150025 0.603404
O O17 0.703254 0.500000 0.300700
#
# Coordination Sequence:
#
# PCOD8102574 Si02
#       7
#     8   8   8   8   8   8   8
#     4  11  21  36  57  81 113 149 188 235 285 340
#     4  10  22  39  59  82 113 152 190 232 289 349
#     4  10  22  36  57  84 113 152 194 237 284 334
#     4  10  20  37  57  81 118 159 194 233 278 329
#     4  11  21  37  57  84 110 145 189 238 284 339
#     4  11  21  35  57  84 117 154 195 234 279 334
#     4  10  21  35  53  81 116 151 190 235 278 329
#
# _framework density 20.245380000000001
#
# number of rings (size 3 to 8) (size 9 to 14) (size 15 to 20)
#    0.000    1.571    1.429    4.286    0.000    6.000 
#    0.000    0.000    0.000    0.429    0.000   12.000 
#    0.000    0.000    0.000    0.000    0.000    0.000 
#
# Total GULP energy -346994.524194 kJ/mol
# GULP energy per Si atom -12392.661578 kJ/mol
# Density = 2.019930 g / cm^3
# Si number density = 20.245380 Si / 1000 Ang^3
#
#
#
# Elastic Constant Matrix: (Units=GPa)
#
#
# Indices 1 2 3 4 5 6 
#
# 1 123.9898 38.8316 44.7192 0.0000 23.5075 0.0000
# 2 38.8316 69.2738 40.1814 0.0000 3.2356 0.0000
# 3 44.7192 40.1814 113.1772 0.0000 15.1918 0.0000
# 4 0.0000 0.0000 0.0000 3.6085 0.0000 -6.8230
# 5 23.5075 3.2356 15.1918 0.0000 36.3079 0.0000
# 6 0.0000 0.0000 0.0000 -6.8230 0.0000 28.3321
#
#
#
# Elastic Compliance Matrix: (Units=1/GPa)
#
#
# Indices 1 2 3 4 5 6 
#
# 1 0.011517 -0.005049 -0.001926 0.000000 -0.006201 0.000000
# 2 -0.005049 0.020438 -0.005780 0.000000 0.003866 0.000000
# 3 -0.001926 -0.005780 0.012091 0.000000 -0.003297 0.000000
# 4 0.000000 0.000000 0.000000 0.508807 0.000000 0.122531
# 5 -0.006201 0.003866 -0.003297 0.000000 0.032592 0.000000
# 6 0.000000 0.000000 0.000000 0.122531 0.000000 0.064804
#
#
# Mechanical properties :
#
#
# Convention : Reuss Voigt Hill
#
# Bulk Modulus (GPa) = 53.94828 61.54501 57.74664
# Shear Modulus (GPa) = 7.33206 25.83027 16.58117
#
# Velocity S-wave (km/s) = 1.90511 3.57579 2.86494
# Velocity P-wave (km/s) = 5.61643 6.89303 6.28722
#
# Compressibility (1/GPa) = 0.01853627
#
# Stress axis : x y z
#
# Youngs Moduli (GPa) = 86.83121 48.92895 82.70468
#
# Poissons Ratio (x) = 0.24705 0.15925
# Poissons Ratio (y) = 0.43842 0.47803
# Poissons Ratio (z) = 0.16720 0.28281
#
# Static dielectric constant tensor:
#      x y z
#    x 4.028690 0.000000 0.255750 
#    y 0.000000 3.573750 0.000000 
#    z 0.255750 0.000000 3.867810 
# 
# 
# High freq. dielectric constant tensor:
#      x y z
#    x 1.800180 0.000000 0.016200 
#    y 0.000000 1.762340 0.000000 
#    z 0.016200 0.000000 1.805400 
# 
# From -- ./inp_files/31975.got.cif
#   From: 2010.06.25/outbox.cif.g09.slc.cpg/sg12_16_cif.got.tgz:31975.got - 2010.06.28 00:19:55.
