data_PCOD8102190
_publ_section_title
;
Structure prediction by ZEFSAII (Michael W. Deem and Ramdas Pophale) SiO2 
 PCOD8102190
Probable space group: C 2/M
;
_chemical_formula_sum "Si O2"
_cell_formula_units_Z 64
_cell_length_a 19.988536
_cell_length_b 8.865011
_cell_length_c 23.955294
_cell_angle_alpha 90.000000
_cell_angle_beta 128.284189
_cell_angle_gamma 90.000000
_cell_volume 3331.979418
_symmetry_space_group_name_H-M "C 2/M"
_symmetry_group_IT_number 12
_symmetry_cell_setting 'monoclinic'
loop_
_space_group_symop_operation_xyz
x,y,z
-x,y,-z
-x,-y,-z
x,-y,z
1/2+x,1/2+y,z
1/2-x,1/2+y,-z
1/2-x,1/2-y,-z
1/2+x,1/2-y,z
loop_
_atom_site_type_symbol
_atom_site_label
_atom_site_fract_x
_atom_site_fract_y
_atom_site_fract_z
Si Si1 0.893805 0.821774 0.166520
Si Si2 0.317832 0.821094 0.697523
Si Si3 0.874187 0.180525 0.418480
Si Si4 0.565814 0.677811 0.936358
Si Si5 0.202489 0.674692 0.085180
Si Si6 0.891720 0.325201 0.851720
Si Si7 0.522406 0.821464 0.430848
Si Si8 0.962028 0.323374 0.688993
O O1 0.922914 0.763280 0.120990
O O2 0.798120 0.765250 0.127787
O O3 0.953253 0.753572 0.244588
O O4 0.899243 0.000000 0.173777
O O5 0.222297 0.761196 0.638936
O O6 0.354335 0.757430 0.774838
O O7 0.378472 0.763509 0.678685
O O8 0.315192 0.000000 0.698442
O O9 0.930316 0.250252 0.397423
O O10 0.906329 0.243901 0.494084
O O11 0.881937 0.000000 0.421569
O O12 0.563009 0.500000 0.937329
O O13 0.477664 0.741638 0.914640
O O14 0.643938 0.731638 0.013660
O O15 0.194130 0.500000 0.064264
O O16 0.177681 0.702308 0.136437
O O17 0.914312 0.500000 0.856342
O O18 0.547904 0.782307 0.380907
O O19 0.519753 0.000000 0.440588
O O20 0.972520 0.500000 0.703850
#
# Coordination Sequence:
#
# PCOD8102190 Si02
#       8
#     8   8   8   8   8   8   8   8
#     4  10  22  38  56  82 112 142 185 234 276 324
#     4   9  19  36  58  83 109 143 189 231 267 320
#     4  10  20  36  61  87 112 148 188 226 268 317
#     4  11  22  37  56  81 113 145 178 229 285 329
#     4  10  22  37  57  82 106 144 190 228 274 330
#     4  10  20  37  59  80 107 146 187 228 273 325
#     4  10  21  37  57  85 119 149 179 222 276 329
#     4  10  21  38  59  81 110 150 186 223 276 330
#
# _framework density 19.207802000000001
#
# number of rings (size 3 to 8) (size 9 to 14) (size 15 to 20)
#    0.000    2.000    1.250    2.625    1.750    4.500 
#    0.000    2.500    0.000    0.000    0.000    0.000 
#    0.000    0.000    0.000    0.000    0.000    0.000 
#
# Total GULP energy -396901.425330 kJ/mol
# GULP energy per Si atom -12403.169542 kJ/mol
# Density = 1.916408 g / cm^3
# Si number density = 19.207802 Si / 1000 Ang^3
#
#
#
# Elastic Constant Matrix: (Units=GPa)
#
#
# Indices 1 2 3 4 5 6 
#
# 1 99.2052 34.1102 48.5567 0.0000 12.6815 0.0000
# 2 34.1102 51.9869 30.9744 0.0000 -0.3426 0.0000
# 3 48.5567 30.9744 96.8443 0.0000 9.1394 0.0000
# 4 0.0000 0.0000 0.0000 30.1556 0.0000 -0.5891
# 5 12.6815 -0.3426 9.1394 0.0000 42.9048 0.0000
# 6 0.0000 0.0000 0.0000 -0.5891 0.0000 17.8532
#
#
#
# Elastic Compliance Matrix: (Units=1/GPa)
#
#
# Indices 1 2 3 4 5 6 
#
# 1 0.015509 -0.007123 -0.005164 0.000000 -0.003541 0.000000
# 2 -0.007123 0.027180 -0.005450 0.000000 0.003483 0.000000
# 3 -0.005164 -0.005450 0.014816 0.000000 -0.001673 0.000000
# 4 0.000000 0.000000 0.000000 0.033183 0.000000 0.001095
# 5 -0.003541 0.003483 -0.001673 0.000000 0.024738 0.000000
# 6 0.000000 0.000000 0.000000 0.001095 0.000000 0.056049
#
#
# Mechanical properties :
#
#
# Convention : Reuss Voigt Hill
#
# Bulk Modulus (GPa) = 45.39120 52.81321 49.10221
# Shear Modulus (GPa) = 23.33259 27.14237 25.23748
#
# Velocity S-wave (km/s) = 3.48910 3.76319 3.62873
# Velocity P-wave (km/s) = 6.31781 6.81451 6.57085
#
# Compressibility (1/GPa) = 0.02203070
#
# Stress axis : x y z
#
# Youngs Moduli (GPa) = 64.47734 36.79241 67.49382
#
# Poissons Ratio (x) = 0.26206 0.34853
# Poissons Ratio (y) = 0.45926 0.36787
# Poissons Ratio (z) = 0.33296 0.20054
#
# Static dielectric constant tensor:
#      x y z
#    x 3.763110 0.000000 -0.016770 
#    y 0.000000 3.333240 0.000000 
#    z -0.016770 0.000000 3.571140 
# 
# 
# High freq. dielectric constant tensor:
#      x y z
#    x 1.760710 0.000000 -0.001000 
#    y 0.000000 1.732530 0.000000 
#    z -0.001000 0.000000 1.753560 
# 
# From -- ./inp_files/346113.got.cif
#   From: 2010.06.25/outbox.cif.g09.slc.cpg/sg12_174_cif.got.tgz:346113.got - 2010.06.28 00:19:55.
