data_PCOD8102819
_publ_section_title
;
Structure prediction by ZEFSAII (Michael W. Deem and Ramdas Pophale) SiO2 
 PCOD8102819
Probable space group: C 2/M
;
_chemical_formula_sum "Si O2"
_cell_formula_units_Z 48
_cell_length_a 24.860897
_cell_length_b 8.466920
_cell_length_c 19.874130
_cell_angle_alpha 90.000000
_cell_angle_beta 146.602119
_cell_angle_gamma 90.000000
_cell_volume 2302.757183
_symmetry_space_group_name_H-M "C 2/M"
_symmetry_group_IT_number 12
_symmetry_cell_setting 'monoclinic'
loop_
_space_group_symop_operation_xyz
x,y,z
-x,y,-z
-x,-y,-z
x,-y,z
1/2+x,1/2+y,z
1/2-x,1/2+y,-z
1/2-x,1/2-y,-z
1/2+x,1/2-y,z
loop_
_atom_site_type_symbol
_atom_site_label
_atom_site_fract_x
_atom_site_fract_y
_atom_site_fract_z
Si Si1 0.699690 0.813663 0.109368
Si Si2 0.448642 0.186202 0.155620
Si Si3 0.668704 0.812485 0.364306
Si Si4 0.761928 0.683486 0.704595
Si Si5 0.053421 0.682107 0.487426
Si Si6 0.889546 0.815020 0.228730
O O1 0.698777 0.739975 0.184099
O O2 0.792549 0.749370 0.164128
O O3 0.711837 0.000000 0.127859
O O4 0.599491 0.769044 0.966667
O O5 0.561011 0.243403 0.274197
O O6 0.385228 0.278427 0.144961
O O7 0.439669 0.000000 0.159337
O O8 0.750000 0.750000 0.500000
O O9 0.687011 0.742566 0.308315
O O10 0.675716 0.000000 0.370837
O O11 0.786252 0.500000 0.731133
O O12 0.646770 0.707799 0.578108
O O13 0.085858 0.500000 0.519851
O O14 0.000000 0.729054 0.500000
O O15 0.982378 0.717635 0.351624
O O16 0.903826 0.000000 0.256776
#
# Coordination Sequence:
#
# PCOD8102819 Si02
#       6
#     8   8   8   8   8   8
#     4   9  19  35  57  83 113 145 185 231 279 329
#     4  10  21  38  57  82 114 149 186 230 277 328
#     4  10  22  38  59  82 109 145 187 231 277 328
#     4  10  20  37  59  84 112 147 187 230 277 330
#     4  11  22  35  54  83 114 145 181 227 280 330
#     4  11  21  35  57  84 113 150 188 229 276 330
#
# _framework density 20.844577999999998
#
# number of rings (size 3 to 8) (size 9 to 14) (size 15 to 20)
#    0.000    1.833    1.667    2.500    0.000    5.333 
#    0.000    5.000    0.000    0.000    0.000    3.500 
#    0.000    0.000    0.000    0.000    0.000    0.000 
#
# Total GULP energy -297593.568852 kJ/mol
# GULP energy per Si atom -12399.732035 kJ/mol
# Density = 2.079713 g / cm^3
# Si number density = 20.844578 Si / 1000 Ang^3
#
#
#
# Elastic Constant Matrix: (Units=GPa)
#
#
# Indices 1 2 3 4 5 6 
#
# 1 152.7077 19.8545 59.2925 0.0000 -19.8929 0.0000
# 2 19.8545 19.6299 8.7558 0.0000 -1.3652 0.0000
# 3 59.2925 8.7558 144.6456 0.0000 -12.5700 0.0000
# 4 0.0000 0.0000 0.0000 17.2974 0.0000 -4.9527
# 5 -19.8929 -1.3652 -12.5700 0.0000 32.1217 0.0000
# 6 0.0000 0.0000 0.0000 -4.9527 0.0000 24.7269
#
#
#
# Elastic Compliance Matrix: (Units=1/GPa)
#
#
# Indices 1 2 3 4 5 6 
#
# 1 0.009257 -0.007749 -0.002957 0.000000 0.004247 0.000000
# 2 -0.007749 0.058875 -0.000608 0.000000 -0.002534 0.000000
# 3 -0.002957 -0.000608 0.008282 0.000000 0.001384 0.000000
# 4 0.000000 0.000000 0.000000 0.061329 0.000000 0.012284
# 5 0.004247 -0.002534 0.001384 0.000000 0.034195 0.000000
# 6 0.000000 0.000000 0.000000 0.012284 0.000000 0.042902
#
#
# Mechanical properties :
#
#
# Convention : Reuss Voigt Hill
#
# Bulk Modulus (GPa) = 18.59141 54.75432 36.67287
# Shear Modulus (GPa) = 19.57736 30.10125 24.83930
#
# Velocity S-wave (km/s) = 3.06797 3.80423 3.45576
# Velocity P-wave (km/s) = 4.63555 6.75434 5.79265
#
# Compressibility (1/GPa) = 0.05378828
#
# Stress axis : x y z
#
# Youngs Moduli (GPa) = 108.02553 16.98513 120.73707
#
# Poissons Ratio (x) = 0.13162 0.35696
# Poissons Ratio (y) = 0.83708 0.07338
# Poissons Ratio (z) = 0.31938 0.01032
#
# Static dielectric constant tensor:
#      x y z
#    x 4.104710 0.000000 -0.207390 
#    y 0.000000 3.380740 0.000000 
#    z -0.207390 0.000000 3.852350 
# 
# 
# High freq. dielectric constant tensor:
#      x y z
#    x 1.826330 0.000000 -0.011840 
#    y 0.000000 1.780600 0.000000 
#    z -0.011840 0.000000 1.823200 
# 
# From -- ./inp_files/327325.got.cif
#   From: 2010.06.25/outbox.cif.g09.slc.cpg/sg12_164_cif.got.tgz:327325.got - 2010.06.28 00:19:55.
