data_PCOD8102601
_publ_section_title
;
Structure prediction by ZEFSAII (Michael W. Deem and Ramdas Pophale) SiO2 
 PCOD8102601
Probable space group: C 2/M
;
_chemical_formula_sum "Si O2"
_cell_formula_units_Z 56
_cell_length_a 11.919409
_cell_length_b 22.513841
_cell_length_c 12.447981
_cell_angle_alpha 90.000000
_cell_angle_beta 58.759152
_cell_angle_gamma 90.000000
_cell_volume 2856.055673
_symmetry_space_group_name_H-M "C 2/M"
_symmetry_group_IT_number 12
_symmetry_cell_setting 'monoclinic'
loop_
_space_group_symop_operation_xyz
x,y,z
-x,y,-z
-x,-y,-z
x,-y,z
1/2+x,1/2+y,z
1/2-x,1/2+y,-z
1/2-x,1/2-y,-z
1/2+x,1/2-y,z
loop_
_atom_site_type_symbol
_atom_site_label
_atom_site_fract_x
_atom_site_fract_y
_atom_site_fract_z
Si Si1 0.469126 0.394754 0.853446
Si Si2 0.073605 0.666881 0.241853
Si Si3 0.004658 0.235437 0.121147
Si Si4 0.715298 0.233907 0.353481
Si Si5 0.708222 0.567580 0.878442
Si Si6 0.565737 0.568352 0.581447
Si Si7 0.216169 0.657965 0.562461
O O1 0.422054 0.326961 0.895277
O O2 0.610962 0.407895 0.835218
O O3 0.472900 0.408779 0.724605
O O4 0.360639 0.433590 0.970036
O O5 0.083067 0.710051 0.134552
O O6 0.108098 0.711001 0.322841
O O7 0.166319 0.610191 0.183996
O O8 0.927302 0.640270 0.322943
O O9 0.861318 0.224019 0.239235
O O10 0.000000 0.251750 0.000000
O O11 0.701350 0.304198 0.389129
O O12 0.691140 0.197747 0.472272
O O13 0.750900 0.500000 0.830230
O O14 0.500000 0.580662 0.500000
O O15 0.594732 0.500000 0.586798
O O16 0.706492 0.599645 0.510880
#
# Coordination Sequence:
#
# PCOD8102601 Si02
#       7
#     8   8   8   8   8   8   8
#     4  11  20  40  63  92 119 158 210 260 309 351
#     4  11  23  38  61  92 123 160 199 247 311 370
#     4  11  21  37  60  91 123 151 199 262 306 359
#     4  10  20  37  57  87 121 155 198 241 307 364
#     4  11  22  39  65  92 124 163 205 254 306 367
#     4  11  24  40  60  88 121 162 209 251 299 363
#     4  10  22  37  60  87 120 162 195 248 300 363
#
# _framework density 19.607461000000001
#
# number of rings (size 3 to 8) (size 9 to 14) (size 15 to 20)
#    0.000    1.286    4.286    2.143    2.000    2.857 
#    2.571    0.000    0.000    3.857    0.000    0.000 
#    0.000    0.000    0.000    0.000    0.000    0.000 
#
# Total GULP energy -347154.387920 kJ/mol
# GULP energy per Si atom -12398.370997 kJ/mol
# Density = 1.956283 g / cm^3
# Si number density = 19.607461 Si / 1000 Ang^3
#
#
#
# Elastic Constant Matrix: (Units=GPa)
#
#
# Indices 1 2 3 4 5 6 
#
# 1 64.0020 45.4246 37.8847 0.0000 0.3017 0.0000
# 2 45.4246 113.7762 46.5143 0.0000 -1.8983 0.0000
# 3 37.8847 46.5143 98.2115 0.0000 17.2279 0.0000
# 4 0.0000 0.0000 0.0000 25.1167 0.0000 -0.0105
# 5 0.3017 -1.8983 17.2279 0.0000 32.4785 0.0000
# 6 0.0000 0.0000 0.0000 -0.0105 0.0000 31.8446
#
#
#
# Elastic Compliance Matrix: (Units=1/GPa)
#
#
# Indices 1 2 3 4 5 6 
#
# 1 0.024531 -0.007032 -0.006638 0.000000 0.002882 0.000000
# 2 -0.007032 0.013339 -0.004138 0.000000 0.003040 0.000000
# 3 -0.006638 -0.004138 0.016246 0.000000 -0.008798 0.000000
# 4 0.000000 0.000000 0.000000 0.039814 0.000000 0.000013
# 5 0.002882 0.003040 -0.008798 0.000000 0.035607 0.000000
# 6 0.000000 0.000000 0.000000 0.000013 0.000000 0.031403
#
#
# Mechanical properties :
#
#
# Convention : Reuss Voigt Hill
#
# Bulk Modulus (GPa) = 54.05516 59.51522 56.78519
# Shear Modulus (GPa) = 24.66418 27.63235 26.14827
#
# Velocity S-wave (km/s) = 3.55053 3.75811 3.65579
# Velocity P-wave (km/s) = 6.66610 7.01786 6.84424
#
# Compressibility (1/GPa) = 0.01849962
#
# Stress axis : x y z
#
# Youngs Moduli (GPa) = 40.76474 74.96637 61.55414
#
# Poissons Ratio (x) = 0.52717 0.40858
# Poissons Ratio (y) = 0.28666 0.25473
# Poissons Ratio (z) = 0.27059 0.31024
#
# Static dielectric constant tensor:
#      x y z
#    x 3.320430 0.000000 0.205590 
#    y 0.000000 3.630320 0.000000 
#    z 0.205590 0.000000 3.655450 
# 
# 
# High freq. dielectric constant tensor:
#      x y z
#    x 1.741380 0.000000 0.005020 
#    y 0.000000 1.765220 0.000000 
#    z 0.005020 0.000000 1.778400 
# 
# From -- ./inp_files/135262.got.cif
#   From: 2010.06.25/outbox.cif.g09.slc.cpg/sg12_68_cif.got.tgz:135262.got - 2010.06.28 00:19:55.
