data_PCOD8102099
_publ_section_title
;
Structure prediction by ZEFSAII (Michael W. Deem and Ramdas Pophale) SiO2 
 PCOD8102099
Probable space group: C 2/M
;
_chemical_formula_sum "Si O2"
_cell_formula_units_Z 64
_cell_length_a 21.522668
_cell_length_b 16.372778
_cell_length_c 25.291649
_cell_angle_alpha 90.000000
_cell_angle_beta 20.966617
_cell_angle_gamma 90.000000
_cell_volume 3189.077140
_symmetry_space_group_name_H-M "C 2/M"
_symmetry_group_IT_number 12
_symmetry_cell_setting 'monoclinic'
loop_
_space_group_symop_operation_xyz
x,y,z
-x,y,-z
-x,-y,-z
x,-y,z
1/2+x,1/2+y,z
1/2-x,1/2+y,-z
1/2-x,1/2-y,-z
1/2+x,1/2-y,z
loop_
_atom_site_type_symbol
_atom_site_label
_atom_site_fract_x
_atom_site_fract_y
_atom_site_fract_z
Si Si1 0.534206 0.262234 0.916998
Si Si2 0.429131 0.176551 0.220511
Si Si3 0.564010 0.588998 0.507406
Si Si4 0.573425 0.695084 0.687125
Si Si5 0.422647 0.755077 0.619650
Si Si6 0.221741 0.908184 0.030474
Si Si7 0.295795 0.408934 0.076519
Si Si8 0.951298 0.670137 0.378164
O O1 0.506336 0.204905 0.888659
O O2 0.731986 0.289980 0.762746
O O3 0.500000 0.214981 0.000000
O O4 0.407757 0.341004 0.017812
O O5 0.264281 0.117725 0.347708
O O6 0.382809 0.251984 0.295407
O O7 0.588810 0.130382 0.119535
O O8 0.500000 0.572427 0.500000
O O9 0.549467 0.500000 0.548849
O O10 0.442069 0.661810 0.627611
O O11 0.412960 0.635966 0.824141
O O12 0.748718 0.643625 0.533252
O O13 0.517948 0.748912 0.681109
O O14 0.500000 0.757259 0.500000
O O15 0.517726 0.814711 0.584430
O O16 0.235779 0.000000 0.039715
O O17 0.153184 0.902009 0.025363
O O18 0.342171 0.500000 0.060248
O O19 0.088033 0.397222 0.249571
#
# Coordination Sequence:
#
# PCOD8102099 Si02
#       8
#     8   8   8   8   8   8   8   8
#     4  12  23  37  65  90 120 163 208 255 300 368
#     4  12  20  39  64  90 120 161 208 250 298 380
#     4  10  20  36  60  89 120 157 200 246 298 361
#     4  11  22  38  67  89 120 161 209 255 310 367
#     4  11  21  40  62  90 120 160 207 249 302 370
#     4  11  24  40  62  92 126 163 202 254 319 371
#     4  11  24  42  63  92 127 162 207 264 316 363
#     4  11  22  40  64  93 120 158 211 259 304 369
#
# _framework density 20.068501000000001
#
# number of rings (size 3 to 8) (size 9 to 14) (size 15 to 20)
#    0.000    0.875    7.500    1.500    0.000    0.750 
#    0.000    0.625    0.000    2.625    0.000    0.000 
#    0.000    0.000    0.000    0.000    0.000    0.000 
#
# Total GULP energy -396565.340452 kJ/mol
# GULP energy per Si atom -12392.666889 kJ/mol
# Density = 2.002282 g / cm^3
# Si number density = 20.068501 Si / 1000 Ang^3
#
#
#
# Elastic Constant Matrix: (Units=GPa)
#
#
# Indices 1 2 3 4 5 6 
#
# 1 68.6044 8.3052 10.7415 0.0305 10.8701 -0.0079
# 2 8.3052 60.6430 26.9343 0.0847 -9.0029 -0.0365
# 3 10.7415 26.9343 109.1740 0.0215 -15.3140 0.0050
# 4 0.0305 0.0847 0.0215 96.0022 -0.0167 -36.2391
# 5 10.8701 -9.0029 -15.3140 -0.0167 35.4107 -0.0048
# 6 -0.0079 -0.0365 0.0050 -36.2391 -0.0048 35.6525
#
#
#
# Elastic Compliance Matrix: (Units=1/GPa)
#
#
# Indices 1 2 3 4 5 6 
#
# 1 0.016167 -0.002310 -0.001915 -0.000006 -0.006378 -0.000005
# 2 -0.002310 0.019135 -0.003951 -0.000011 0.003865 0.000009
# 3 -0.001915 -0.003951 0.010927 0.000001 0.004309 -0.000005
# 4 -0.000006 -0.000011 0.000001 0.016901 0.000009 0.017179
# 5 -0.006378 0.003865 0.004309 0.000009 0.033044 0.000016
# 6 -0.000005 0.000009 -0.000005 0.017179 0.000016 0.045511
#
#
# Mechanical properties :
#
#
# Convention : Reuss Voigt Hill
#
# Bulk Modulus (GPa) = 33.47253 36.70925 35.09089
# Shear Modulus (GPa) = 29.76231 46.24243 38.00237
#
# Velocity S-wave (km/s) = 3.85520 4.80545 4.35631
# Velocity P-wave (km/s) = 6.04418 7.00867 6.54422
#
# Compressibility (1/GPa) = 0.02987524
#
# Stress axis : x y z
#
# Youngs Moduli (GPa) = 61.85620 52.25977 91.51292
#
# Poissons Ratio (x) = 0.12073 0.17528
# Poissons Ratio (y) = 0.14290 0.36160
# Poissons Ratio (z) = 0.11848 0.20650
#
# Static dielectric constant tensor:
#      x y z
#    x 3.708860 -0.000070 -0.090960 
#    y -0.000070 3.673280 0.000110 
#    z -0.090960 0.000110 3.634790 
# 
# 
# High freq. dielectric constant tensor:
#      x y z
#    x 1.793660 0.000000 -0.009060 
#    y 0.000000 1.754870 0.000010 
#    z -0.009060 0.000010 1.790990 
# 
# From -- ./inp_files/347880.got.cif
#   From: 2010.06.25/outbox.cif.g09.slc.cpg/sg12_174_cif.got.tgz:347880.got - 2010.06.28 00:19:55.
