data_PCOD8102691
_publ_section_title
;
Structure prediction by ZEFSAII (Michael W. Deem and Ramdas Pophale) SiO2 
 PCOD8102691
Probable space group: C 2/M
;
_chemical_formula_sum "Si O2"
_cell_formula_units_Z 56
_cell_length_a 11.144508
_cell_length_b 28.552137
_cell_length_c 9.555568
_cell_angle_alpha 90.000000
_cell_angle_beta 114.325637
_cell_angle_gamma 90.000000
_cell_volume 2770.631826
_symmetry_space_group_name_H-M "C 2/M"
_symmetry_group_IT_number 12
_symmetry_cell_setting 'monoclinic'
loop_
_space_group_symop_operation_xyz
x,y,z
-x,y,-z
-x,-y,-z
x,-y,z
1/2+x,1/2+y,z
1/2-x,1/2+y,-z
1/2-x,1/2-y,-z
1/2+x,1/2-y,z
loop_
_atom_site_type_symbol
_atom_site_label
_atom_site_fract_x
_atom_site_fract_y
_atom_site_fract_z
Si Si1 0.010830 0.122002 0.667822
Si Si2 0.291936 0.285444 0.822299
Si Si3 0.566444 0.281290 0.823348
Si Si4 0.878662 0.553984 0.594406
Si Si5 0.273831 0.447850 0.207141
Si Si6 0.146684 0.552898 0.868645
Si Si7 0.252144 0.886324 0.305308
O O1 0.044760 0.175773 0.709977
O O2 0.121413 0.090014 0.789607
O O3 0.000000 0.112806 0.500000
O O4 0.881655 0.103990 0.680468
O O5 0.417243 0.262555 0.794700
O O6 0.161185 0.253804 0.781445
O O7 0.233666 0.330705 0.714300
O O8 0.353790 0.298571 0.002037
O O9 0.884955 0.500000 0.542688
O O10 0.761966 0.560576 0.648838
O O11 0.865432 0.589853 0.457786
O O12 0.004858 0.568247 0.745374
O O13 0.332788 0.500000 0.219428
O O14 0.152314 0.441775 0.039816
O O15 0.179221 0.500000 0.839099
O O16 0.251573 0.587221 0.844864
#
# Coordination Sequence:
#
# PCOD8102691 Si02
#       7
#     8   8   8   8   8   8   8
#     4  11  22  39  58  84 119 156 190 237 300 355
#     4   9  19  38  63  89 116 154 198 243 296 360
#     4   9  19  39  63  85 118 156 195 244 300 354
#     4  10  20  37  58  83 121 161 195 241 296 347
#     4  10  21  37  59  84 114 158 205 243 285 349
#     4  10  21  37  57  85 118 155 202 249 292 339
#     4  11  21  36  59  89 120 152 192 241 296 353
#
# _framework density 20.211997
#
# number of rings (size 3 to 8) (size 9 to 14) (size 15 to 20)
#    0.000    2.000    1.429    2.143    0.000    6.000 
#    2.571    5.714    0.000    0.000    0.000    0.000 
#    0.000    0.000    0.000    0.000    0.000    0.000 
#
# Total GULP energy -346896.342510 kJ/mol
# GULP energy per Si atom -12389.155090 kJ/mol
# Density = 2.016599 g / cm^3
# Si number density = 20.211997 Si / 1000 Ang^3
#
#
#
# Elastic Constant Matrix: (Units=GPa)
#
#
# Indices 1 2 3 4 5 6 
#
# 1 100.5827 53.1326 21.6233 0.0000 -3.9950 0.0000
# 2 53.1326 79.4341 36.3718 0.0000 4.0772 0.0000
# 3 21.6233 36.3718 78.0980 0.0000 2.4481 0.0000
# 4 0.0000 0.0000 0.0000 30.4897 0.0000 -5.2778
# 5 -3.9950 4.0772 2.4481 0.0000 25.3281 0.0000
# 6 0.0000 0.0000 0.0000 -5.2778 0.0000 31.4702
#
#
#
# Elastic Compliance Matrix: (Units=1/GPa)
#
#
# Indices 1 2 3 4 5 6 
#
# 1 0.015838 -0.011112 0.000657 0.000000 0.004223 0.000000
# 2 -0.011112 0.023885 -0.007896 0.000000 -0.004834 0.000000
# 3 0.000657 -0.007896 0.016306 0.000000 -0.000201 0.000000
# 4 0.000000 0.000000 0.000000 0.033779 0.000000 0.005665
# 5 0.004223 -0.004834 -0.000201 0.000000 0.040946 0.000000
# 6 0.000000 0.000000 0.000000 0.005665 0.000000 0.032726
#
#
# Mechanical properties :
#
#
# Convention : Reuss Voigt Hill
#
# Bulk Modulus (GPa) = 51.73546 53.37445 52.55495
# Shear Modulus (GPa) = 24.19871 27.25676 25.72773
#
# Velocity S-wave (km/s) = 3.46388 3.67624 3.57163
# Velocity P-wave (km/s) = 6.45367 6.66965 6.56255
#
# Compressibility (1/GPa) = 0.01932910
#
# Stress axis : x y z
#
# Youngs Moduli (GPa) = 63.13816 41.86721 61.32764
#
# Poissons Ratio (x) = 0.46522 -0.04032
# Poissons Ratio (y) = 0.70158 0.48422
# Poissons Ratio (z) = -0.04151 0.33057
#
# Static dielectric constant tensor:
#      x y z
#    x 3.905860 0.000000 -0.159120 
#    y 0.000000 3.485270 0.000000 
#    z -0.159120 0.000000 3.794440 
# 
# 
# High freq. dielectric constant tensor:
#      x y z
#    x 1.795400 0.000000 -0.009590 
#    y 0.000000 1.770170 0.000000 
#    z -0.009590 0.000000 1.795590 
# 
# From -- ./inp_files/54309.got.cif
#   From: 2010.06.25/outbox.cif.g09.slc.cpg/sg12_28_cif.got.tgz:54309.got - 2010.06.28 00:19:55.
