data_PCOD8102329
_publ_section_title
;
Structure prediction by ZEFSAII (Michael W. Deem and Ramdas Pophale) SiO2 
 PCOD8102329
Probable space group: C 2/M
;
_chemical_formula_sum "Si O2"
_cell_formula_units_Z 64
_cell_length_a 17.535937
_cell_length_b 11.810016
_cell_length_c 14.925203
_cell_angle_alpha 90.000000
_cell_angle_beta 93.895800
_cell_angle_gamma 90.000000
_cell_volume 3083.862509
_symmetry_space_group_name_H-M "C 2/M"
_symmetry_group_IT_number 12
_symmetry_cell_setting 'monoclinic'
loop_
_space_group_symop_operation_xyz
x,y,z
-x,y,-z
-x,-y,-z
x,-y,z
1/2+x,1/2+y,z
1/2-x,1/2+y,-z
1/2-x,1/2-y,-z
1/2+x,1/2-y,z
loop_
_atom_site_type_symbol
_atom_site_label
_atom_site_fract_x
_atom_site_fract_y
_atom_site_fract_z
Si Si1 0.027336 0.126983 0.159416
Si Si2 0.137367 0.780764 0.312133
Si Si3 0.242556 0.630477 0.555177
Si Si4 0.294781 0.122591 0.826891
Si Si5 0.419285 0.186708 0.970418
Si Si6 0.968899 0.370721 0.589993
Si Si7 0.123059 0.374535 0.693418
Si Si8 0.361999 0.714255 0.143618
O O1 0.067220 0.160508 0.255839
O O2 0.057905 0.197669 0.078040
O O3 0.936197 0.136617 0.164692
O O4 0.049442 0.000000 0.137233
O O5 0.188509 0.872965 0.367241
O O6 0.191862 0.716098 0.247013
O O7 0.106305 0.693939 0.384124
O O8 0.244467 0.500000 0.510321
O O9 0.250000 0.750000 0.500000
O O10 0.162663 0.645383 0.600478
O O11 0.365064 0.114322 0.902342
O O12 0.215526 0.142714 0.873626
O O13 0.290485 0.000000 0.779575
O O14 0.500000 0.123209 0.000000
O O15 0.372352 0.209578 0.056760
O O16 0.944382 0.500000 0.570722
O O17 0.000000 0.316961 0.500000
O O18 0.032352 0.360518 0.672576
O O19 0.141768 0.500000 0.730195
O O20 0.152192 0.290331 0.770690
#
# Coordination Sequence:
#
# PCOD8102329 Si02
#       8
#     8   8   8   8   8   8   8   8
#     4  10  21  38  62  86 115 159 204 250 305 365
#     4  11  21  39  61  88 124 156 203 255 305 375
#     4  11  24  43  67  93 127 166 211 263 316 379
#     4  11  23  37  58  89 122 160 199 251 312 369
#     4   9  22  39  59  86 118 156 204 255 299 365
#     4  10  20  36  62  89 117 159 206 252 303 368
#     4  10  21  39  62  89 121 162 206 248 303 368
#     4  11  20  40  59  86 122 157 199 250 302 373
#
# _framework density 20.753195999999999
#
# number of rings (size 3 to 8) (size 9 to 14) (size 15 to 20)
#    0.000    1.625    2.500    2.250    0.000    5.500 
#    0.000    0.000    0.000    1.500    0.000    0.000 
#    0.000    0.000    0.000    0.000    0.000    0.000 
#
# Total GULP energy -396603.906752 kJ/mol
# GULP energy per Si atom -12393.872086 kJ/mol
# Density = 2.070596 g / cm^3
# Si number density = 20.753196 Si / 1000 Ang^3
#
#
#
# Elastic Constant Matrix: (Units=GPa)
#
#
# Indices 1 2 3 4 5 6 
#
# 1 107.7400 22.3754 13.5418 0.0000 -2.9903 0.0000
# 2 22.3754 99.1926 20.0503 0.0000 -4.7213 0.0000
# 3 13.5418 20.0503 65.6259 0.0000 -3.9696 0.0000
# 4 0.0000 0.0000 0.0000 14.5727 0.0000 -1.7409
# 5 -2.9903 -4.7213 -3.9696 0.0000 33.1334 0.0000
# 6 0.0000 0.0000 0.0000 -1.7409 0.0000 15.1474
#
#
#
# Elastic Compliance Matrix: (Units=1/GPa)
#
#
# Indices 1 2 3 4 5 6 
#
# 1 0.009871 -0.001918 -0.001424 0.000000 0.000447 0.000000
# 2 -0.001918 0.011161 -0.002950 0.000000 0.001064 0.000000
# 3 -0.001424 -0.002950 0.016519 0.000000 0.001430 0.000000
# 4 0.000000 0.000000 0.000000 0.069577 0.000000 0.007997
# 5 0.000447 0.001064 0.001430 0.000000 0.030544 0.000000
# 6 0.000000 0.000000 0.000000 0.007997 0.000000 0.066937
#
#
# Mechanical properties :
#
#
# Convention : Reuss Voigt Hill
#
# Bulk Modulus (GPa) = 40.05020 42.72152 41.38586
# Shear Modulus (GPa) = 22.17142 27.01010 24.59076
#
# Velocity S-wave (km/s) = 3.27209 3.61153 3.44599
# Velocity P-wave (km/s) = 5.79790 6.16612 5.98485
#
# Compressibility (1/GPa) = 0.02496866
#
# Stress axis : x y z
#
# Youngs Moduli (GPa) = 101.30438 89.59875 60.53453
#
# Poissons Ratio (x) = 0.17181 0.08620
# Poissons Ratio (y) = 0.19426 0.17857
# Poissons Ratio (z) = 0.14426 0.26430
#
# Static dielectric constant tensor:
#      x y z
#    x 3.941280 0.000000 0.110130 
#    y 0.000000 3.634610 0.000000 
#    z 0.110130 0.000000 3.662390 
# 
# 
# High freq. dielectric constant tensor:
#      x y z
#    x 1.829060 0.000000 0.008250 
#    y 0.000000 1.798310 0.000000 
#    z 0.008250 0.000000 1.806090 
# 
# From -- ./inp_files/223850.got.cif
#   From: 2010.06.25/outbox.cif.g09.slc.cpg/sg12_112_cif.got.tgz:223850.got - 2010.06.28 00:19:55.
