data_PCOD8102812
_publ_section_title
;
Structure prediction by ZEFSAII (Michael W. Deem and Ramdas Pophale) SiO2 
 PCOD8102812
Probable space group: C 2/M
;
_chemical_formula_sum "Si O2"
_cell_formula_units_Z 64
_cell_length_a 14.624884
_cell_length_b 8.747210
_cell_length_c 25.572299
_cell_angle_alpha 90.000000
_cell_angle_beta 90.874979
_cell_angle_gamma 90.000000
_cell_volume 3271.004289
_symmetry_space_group_name_H-M "C 2/M"
_symmetry_group_IT_number 12
_symmetry_cell_setting 'monoclinic'
loop_
_space_group_symop_operation_xyz
x,y,z
-x,y,-z
-x,-y,-z
x,-y,z
1/2+x,1/2+y,z
1/2-x,1/2+y,-z
1/2-x,1/2-y,-z
1/2+x,1/2-y,z
loop_
_atom_site_type_symbol
_atom_site_label
_atom_site_fract_x
_atom_site_fract_y
_atom_site_fract_z
Si Si1 0.002052 0.819626 0.082236
Si Si2 0.975340 0.319850 0.805702
Si Si3 0.779603 0.818633 0.445494
Si Si4 0.677225 0.677448 0.258877
Si Si5 0.872603 0.821394 0.624765
Si Si6 0.559269 0.180903 0.608647
Si Si7 0.649579 0.679667 0.000422
Si Si8 0.880332 0.318048 0.276851
O O1 0.999475 0.734612 0.136774
O O2 0.092849 0.768211 0.051245
O O3 0.003847 0.000000 0.091249
O O4 0.910070 0.770971 0.050512
O O5 0.976241 0.500000 0.804485
O O6 0.875362 0.262947 0.787955
O O7 0.050139 0.253013 0.765901
O O8 0.750000 0.750000 0.500000
O O9 0.721028 0.744014 0.398700
O O10 0.883642 0.769199 0.435145
O O11 0.769081 0.000000 0.446122
O O12 0.679445 0.500000 0.244727
O O13 0.626569 0.707088 0.313227
O O14 0.779706 0.744416 0.262237
O O15 0.954460 0.727845 0.598968
O O16 0.880346 0.000000 0.611309
O O17 0.590483 0.241133 0.665855
O O18 0.571379 0.000000 0.602064
O O19 0.661779 0.500000 0.001152
O O20 0.750000 0.750000 0.000000
O O21 0.880264 0.500000 0.277751
#
# Coordination Sequence:
#
# PCOD8102812 Si02
#       8
#     8   8   8   8   8   8   8   8
#     4   9  20  39  57  80 117 159 192 234 295 356
#     4  11  22  36  56  87 121 154 197 248 292 342
#     4  12  26  44  65  92 122 157 200 251 305 362
#     4  10  20  37  59  83 115 158 197 236 291 355
#     4  11  22  39  64  93 121 157 200 244 299 362
#     4  11  21  40  65  90 122 158 196 247 300 356
#     4   9  19  37  62  85 112 151 197 241 293 351
#     4   9  19  36  57  82 115 155 194 235 291 348
#
# _framework density 19.565857000000001
#
# number of rings (size 3 to 8) (size 9 to 14) (size 15 to 20)
#    0.000    1.750    2.500    3.000    0.000    3.000 
#    0.000    8.750    0.000    0.000    0.000    0.000 
#    0.000    0.000    0.000    0.000    0.000    0.000 
#
# Total GULP energy -396880.243658 kJ/mol
# GULP energy per Si atom -12402.507614 kJ/mol
# Density = 1.952132 g / cm^3
# Si number density = 19.565857 Si / 1000 Ang^3
#
#
#
# Elastic Constant Matrix: (Units=GPa)
#
#
# Indices 1 2 3 4 5 6 
#
# 1 105.9988 22.1015 11.7549 0.0000 -6.4256 0.0000
# 2 22.1015 65.5000 36.1834 0.0000 1.6867 0.0000
# 3 11.7549 36.1834 70.0889 0.0000 -7.3302 0.0000
# 4 0.0000 0.0000 0.0000 32.3040 0.0000 1.2225
# 5 -6.4256 1.6867 -7.3302 0.0000 26.3788 0.0000
# 6 0.0000 0.0000 0.0000 1.2225 0.0000 35.8339
#
#
#
# Elastic Compliance Matrix: (Units=1/GPa)
#
#
# Indices 1 2 3 4 5 6 
#
# 1 0.010359 -0.003890 0.000578 0.000000 0.002933 0.000000
# 2 -0.003890 0.023366 -0.012015 0.000000 -0.005780 0.000000
# 3 0.000578 -0.012015 0.021081 0.000000 0.006767 0.000000
# 4 0.000000 0.000000 0.000000 0.030996 0.000000 -0.001057
# 5 0.002933 -0.005780 0.006767 0.000000 0.040874 0.000000
# 6 0.000000 0.000000 0.000000 -0.001057 0.000000 0.027943
#
#
# Mechanical properties :
#
#
# Convention : Reuss Voigt Hill
#
# Bulk Modulus (GPa) = 41.40531 42.40746 41.90638
# Shear Modulus (GPa) = 25.86354 30.33987 28.10170
#
# Velocity S-wave (km/s) = 3.63970 3.94211 3.79392
# Velocity P-wave (km/s) = 6.23467 6.51472 6.37623
#
# Compressibility (1/GPa) = 0.02415149
#
# Stress axis : x y z
#
# Youngs Moduli (GPa) = 96.53564 42.79775 47.43607
#
# Poissons Ratio (x) = 0.16648 -0.02740
# Poissons Ratio (y) = 0.37552 0.56993
# Poissons Ratio (z) = -0.05575 0.51420
#
# Static dielectric constant tensor:
#      x y z
#    x 3.982000 0.000000 -0.103180 
#    y 0.000000 3.369730 0.000000 
#    z -0.103180 0.000000 3.693470 
# 
# 
# High freq. dielectric constant tensor:
#      x y z
#    x 1.775570 0.000000 -0.001400 
#    y 0.000000 1.750760 0.000000 
#    z -0.001400 0.000000 1.759610 
# 
# From -- ./inp_files/338661.got.cif
#   From: 2010.06.25/outbox.cif.g09.slc.cpg/sg12_170_cif.got.tgz:338661.got - 2010.06.28 00:19:55.
