data_PCOD8102879
_publ_section_title
;
Structure prediction by ZEFSAII (Michael W. Deem and Ramdas Pophale) SiO2 
 PCOD8102879
Probable space group: C 2/M
;
_chemical_formula_sum "Si O2"
_cell_formula_units_Z 48
_cell_length_a 29.651904
_cell_length_b 8.770625
_cell_length_c 18.732875
_cell_angle_alpha 90.000000
_cell_angle_beta 29.452868
_cell_angle_gamma 90.000000
_cell_volume 2395.489851
_symmetry_space_group_name_H-M "C 2/M"
_symmetry_group_IT_number 12
_symmetry_cell_setting 'monoclinic'
loop_
_space_group_symop_operation_xyz
x,y,z
-x,y,-z
-x,-y,-z
x,-y,z
1/2+x,1/2+y,z
1/2-x,1/2+y,-z
1/2-x,1/2-y,-z
1/2+x,1/2-y,z
loop_
_atom_site_type_symbol
_atom_site_label
_atom_site_fract_x
_atom_site_fract_y
_atom_site_fract_z
Si Si1 0.740145 0.319171 0.935075
Si Si2 0.894426 0.321095 0.474723
Si Si3 0.897434 0.821907 0.622152
Si Si4 0.471484 0.327479 0.114509
Si Si5 0.740271 0.332017 0.586003
Si Si6 0.448477 0.178588 0.854668
O O1 0.738417 0.500000 0.944336
O O2 0.826552 0.271657 0.768094
O O3 0.750000 0.250000 0.000000
O O4 0.646885 0.264855 0.025792
O O5 0.890401 0.500000 0.500237
O O6 0.889285 0.218566 0.551098
O O7 0.804387 0.259282 0.557971
O O8 0.984299 0.283363 0.303834
O O9 0.000000 0.773401 0.500000
O O10 0.878863 0.000000 0.660356
O O11 0.509655 0.500000 0.071574
O O12 0.364098 0.330814 0.249480
O O13 0.504549 0.229110 0.135988
O O14 0.500000 0.252764 0.000000
O O15 0.780594 0.500000 0.518904
O O16 0.750000 0.250000 0.500000
O O17 0.428169 0.000000 0.887324
#
# Coordination Sequence:
#
# PCOD8102879 Si02
#       6
#     8   8   8   8   8   8
#     4  12  26  45  69  95 128 165 206 255 315 376
#     4  10  22  39  62  92 127 167 210 259 314 371
#     4  11  25  44  67  97 128 161 207 256 308 373
#     4  10  22  38  59  88 125 169 215 263 317 373
#     4  10  20  37  59  87 123 164 211 258 313 372
#     4  11  23  41  64  93 128 167 215 262 314 374
#
# _framework density 20.037656999999999
#
# number of rings (size 3 to 8) (size 9 to 14) (size 15 to 20)
#    0.000    1.333    1.667    3.500    2.333    6.333 
#    0.000    0.000    0.000    0.000    0.000    0.000 
#    0.000    0.000    0.000    0.000    0.000    0.000 
#
# Total GULP energy -297560.486511 kJ/mol
# GULP energy per Si atom -12398.353605 kJ/mol
# Density = 1.999205 g / cm^3
# Si number density = 20.037657 Si / 1000 Ang^3
#
#
#
# Elastic Constant Matrix: (Units=GPa)
#
#
# Indices 1 2 3 4 5 6 
#
# 1 148.3471 50.3633 65.4199 0.0003 -2.1062 -0.0007
# 2 50.3633 98.8023 56.1606 0.0045 -2.0837 -0.0022
# 3 65.4199 56.1606 123.1393 0.0055 6.4691 -0.0019
# 4 0.0003 0.0045 0.0055 29.2104 -0.0007 4.8869
# 5 -2.1062 -2.0837 6.4691 -0.0007 43.0438 -0.0005
# 6 -0.0007 -0.0022 -0.0019 4.8869 -0.0005 29.6928
#
#
#
# Elastic Compliance Matrix: (Units=1/GPa)
#
#
# Indices 1 2 3 4 5 6 
#
# 1 0.009308 -0.002548 -0.003831 0.000001 0.000908 0.000000
# 2 -0.002548 0.014473 -0.005319 -0.000001 0.001375 0.000001
# 3 -0.003831 -0.005319 0.012706 -0.000002 -0.002354 0.000001
# 4 0.000001 -0.000001 -0.000002 0.035204 0.000001 -0.005794
# 5 0.000908 0.001375 -0.002354 0.000001 0.023697 0.000000
# 6 0.000000 0.000001 0.000001 -0.005794 0.000000 0.034632
#
#
# Mechanical properties :
#
#
# Convention : Reuss Voigt Hill
#
# Bulk Modulus (GPa) = 76.39117 79.35294 77.87206
# Shear Modulus (GPa) = 31.69005 33.61238 32.65122
#
# Velocity S-wave (km/s) = 3.98115 4.10012 4.04108
# Velocity P-wave (km/s) = 7.70320 7.88052 7.79237
#
# Compressibility (1/GPa) = 0.01309052
#
# Stress axis : x y z
#
# Youngs Moduli (GPa) = 107.43155 69.09630 78.70568
#
# Poissons Ratio (x) = 0.17607 0.30150
# Poissons Ratio (y) = 0.27376 0.41864
# Poissons Ratio (z) = 0.41154 0.36752
#
# Static dielectric constant tensor:
#      x y z
#    x 3.732350 -0.000010 0.009550 
#    y -0.000010 3.686840 0.000010 
#    z 0.009550 0.000010 3.606850 
# 
# 
# High freq. dielectric constant tensor:
#      x y z
#    x 1.800900 0.000000 -0.003500 
#    y 0.000000 1.780580 0.000000 
#    z -0.003500 0.000000 1.796350 
# 
# From -- ./inp_files/274020.got.cif
#   From: 2010.06.25/outbox.cif.g09.slc.cpg/sg12_138_cif.got.tgz:274020.got - 2010.06.28 00:19:55.
