data_PCOD8102717
_publ_section_title
;
Structure prediction by ZEFSAII (Michael W. Deem and Ramdas Pophale) SiO2 
 PCOD8102717
Probable space group: C 2/M
;
_chemical_formula_sum "Si O2"
_cell_formula_units_Z 48
_cell_length_a 13.959782
_cell_length_b 29.916315
_cell_length_c 9.194375
_cell_angle_alpha 90.000000
_cell_angle_beta 40.811227
_cell_angle_gamma 90.000000
_cell_volume 2509.575929
_symmetry_space_group_name_H-M "C 2/M"
_symmetry_group_IT_number 12
_symmetry_cell_setting 'monoclinic'
loop_
_space_group_symop_operation_xyz
x,y,z
-x,y,-z
-x,-y,-z
x,-y,z
1/2+x,1/2+y,z
1/2-x,1/2+y,-z
1/2-x,1/2-y,-z
1/2+x,1/2-y,z
loop_
_atom_site_type_symbol
_atom_site_label
_atom_site_fract_x
_atom_site_fract_y
_atom_site_fract_z
Si Si1 0.821873 0.120460 0.373459
Si Si2 0.667628 0.708720 0.157030
Si Si3 0.338882 0.621425 0.013362
Si Si4 0.402124 0.049434 0.239810
Si Si5 0.111725 0.548757 0.259005
Si Si6 0.325134 0.711863 0.513253
O O1 0.800507 0.128262 0.226572
O O2 0.728974 0.080141 0.548963
O O3 0.770125 0.165759 0.508150
O O4 0.991704 0.110983 0.211432
O O5 0.499079 0.717312 0.311837
O O6 0.716632 0.709097 0.269097
O O7 0.750000 0.750000 0.000000
O O8 0.716354 0.663223 0.019836
O O9 0.252891 0.577974 0.059809
O O10 0.524199 0.040761 0.216224
O O11 0.338612 0.000000 0.268023
O O12 0.500000 0.072071 0.000000
O O13 0.162554 0.500000 0.263234
O O14 0.000000 0.572812 0.500000
O O15 0.250000 0.750000 0.500000
#
# Coordination Sequence:
#
# PCOD8102717 Si02
#       6
#     8   8   8   8   8   8
#     4  10  21  38  59  85 119 153 195 240 291 349
#     4  10  22  40  60  85 117 151 193 242 291 347
#     4  10  21  37  60  87 116 154 194 243 291 345
#     4  10  22  39  58  84 120 157 196 242 292 348
#     4  10  20  37  58  85 119 154 196 242 287 341
#     4  10  22  40  60  85 117 153 193 239 292 351
#
# _framework density 19.126738
#
# number of rings (size 3 to 8) (size 9 to 14) (size 15 to 20)
#    0.000    2.000    1.667    1.000    2.333    4.000 
#    3.000    1.667    0.000    3.000    0.000    0.000 
#    0.000    0.000    0.000    0.000    0.000    0.000 
#
# Total GULP energy -297355.919543 kJ/mol
# GULP energy per Si atom -12389.829981 kJ/mol
# Density = 1.908321 g / cm^3
# Si number density = 19.126738 Si / 1000 Ang^3
#
#
#
# Elastic Constant Matrix: (Units=GPa)
#
#
# Indices 1 2 3 4 5 6 
#
# 1 74.0100 61.2627 43.6179 0.0000 5.7017 0.0000
# 2 61.2627 153.9221 79.2153 0.0000 -5.1384 0.0000
# 3 43.6179 79.2153 124.8011 0.0000 17.9839 0.0000
# 4 0.0000 0.0000 0.0000 42.7875 0.0000 -7.2878
# 5 5.7017 -5.1384 17.9839 0.0000 23.8899 0.0000
# 6 0.0000 0.0000 0.0000 -7.2878 0.0000 39.6243
#
#
#
# Elastic Compliance Matrix: (Units=1/GPa)
#
#
# Indices 1 2 3 4 5 6 
#
# 1 0.021430 -0.007820 -0.001735 0.000000 -0.005490 0.000000
# 2 -0.007820 0.013869 -0.007593 0.000000 0.010565 0.000000
# 3 -0.001735 -0.007593 0.015271 0.000000 -0.012715 0.000000
# 4 0.000000 0.000000 0.000000 0.024127 0.000000 0.004438
# 5 -0.005490 0.010565 -0.012715 0.000000 0.055013 0.000000
# 6 0.000000 0.000000 0.000000 0.004438 0.000000 0.026053
#
#
# Mechanical properties :
#
#
# Convention : Reuss Voigt Hill
#
# Bulk Modulus (GPa) = 61.44459 80.10280 70.77370
# Shear Modulus (GPa) = 25.57750 32.50281 29.04015
#
# Velocity S-wave (km/s) = 3.66083 4.12678 3.90077
# Velocity P-wave (km/s) = 7.07556 8.04226 7.57435
#
# Compressibility (1/GPa) = 0.01627483
#
# Stress axis : x y z
#
# Youngs Moduli (GPa) = 46.66313 72.10091 65.48421
#
# Poissons Ratio (x) = 0.56381 0.11363
# Poissons Ratio (y) = 0.36489 0.49721
# Poissons Ratio (z) = 0.08097 0.54745
#
# Static dielectric constant tensor:
#      x y z
#    x 3.587500 0.000000 0.080220 
#    y 0.000000 3.599110 0.000000 
#    z 0.080220 0.000000 3.498160 
# 
# 
# High freq. dielectric constant tensor:
#      x y z
#    x 1.744260 0.000000 0.013990 
#    y 0.000000 1.747760 0.000000 
#    z 0.013990 0.000000 1.749670 
# 
# From -- ./inp_files/68028.got.cif
#   From: 2010.06.25/outbox.cif.g09.slc.cpg/sg12_35_cif.got.tgz:68028.got - 2010.06.28 00:19:55.
