data_PCOD8102453
_publ_section_title
;
Structure prediction by ZEFSAII (Michael W. Deem and Ramdas Pophale) SiO2 
 PCOD8102453
Probable space group: C 2/M
;
_chemical_formula_sum "Si O2"
_cell_formula_units_Z 48
_cell_length_a 29.172236
_cell_length_b 9.195057
_cell_length_c 14.844643
_cell_angle_alpha 90.000000
_cell_angle_beta 139.685435
_cell_angle_gamma 90.000000
_cell_volume 2576.245208
_symmetry_space_group_name_H-M "C 2/M"
_symmetry_group_IT_number 12
_symmetry_cell_setting 'monoclinic'
loop_
_space_group_symop_operation_xyz
x,y,z
-x,y,-z
-x,-y,-z
x,-y,z
1/2+x,1/2+y,z
1/2-x,1/2+y,-z
1/2-x,1/2-y,-z
1/2+x,1/2-y,z
loop_
_atom_site_type_symbol
_atom_site_label
_atom_site_fract_x
_atom_site_fract_y
_atom_site_fract_z
Si Si1 0.823697 0.669437 0.611609
Si Si2 0.929428 0.168560 0.116055
Si Si3 0.079909 0.666431 0.600923
Si Si4 0.931159 0.333086 0.621509
Si Si5 0.676467 0.668769 0.882222
Si Si6 0.924554 0.669388 0.926499
O O1 0.808346 0.500000 0.578930
O O2 0.750000 0.750000 0.500000
O O3 0.870987 0.724751 0.598878
O O4 0.863936 0.706085 0.764079
O O5 0.865103 0.194058 0.087613
O O6 0.998780 0.239472 0.262325
O O7 0.945030 0.000000 0.123277
O O8 0.906796 0.240654 0.988658
O O9 0.089437 0.500000 0.647903
O O10 0.098162 0.682406 0.523159
O O11 0.133093 0.769094 0.733336
O O12 0.000000 0.718530 0.500000
O O13 0.950578 0.500000 0.673850
O O14 0.690414 0.500000 0.884579
O O15 0.750000 0.750000 0.000000
O O16 0.926724 0.500000 0.954759
O O17 0.000000 0.719026 0.000000
#
# Coordination Sequence:
#
# PCOD8102453 Si02
#       6
#     8   8   8   8   8   8
#     4  10  22  39  59  85 119 155 190 237 291 345
#     4  11  23  37  59  91 120 151 196 250 298 343
#     4  10  20  36  64  93 117 153 198 243 297 358
#     4  10  20  38  62  87 117 156 197 238 290 357
#     4  11  25  42  60  86 124 161 198 249 302 354
#     4  10  20  38  63  87 116 156 200 238 286 354
#
# _framework density 18.631767
#
# number of rings (size 3 to 8) (size 9 to 14) (size 15 to 20)
#    0.000    1.667    3.333    1.000    0.000    6.000 
#    0.000    5.000    0.000    0.000    0.000    0.000 
#    0.000    0.000    0.000    0.000    0.000    0.000 
#
# Total GULP energy -297726.279630 kJ/mol
# GULP energy per Si atom -12405.261651 kJ/mol
# Density = 1.858936 g / cm^3
# Si number density = 18.631767 Si / 1000 Ang^3
#
#
#
# Elastic Constant Matrix: (Units=GPa)
#
#
# Indices 1 2 3 4 5 6 
#
# 1 108.2695 69.5562 64.1247 0.0000 -0.5301 0.0000
# 2 69.5562 103.0813 77.0079 0.0000 6.5850 0.0000
# 3 64.1247 77.0079 134.9068 0.0000 10.1071 0.0000
# 4 0.0000 0.0000 0.0000 37.7993 0.0000 2.6695
# 5 -0.5301 6.5850 10.1071 0.0000 36.5609 0.0000
# 6 0.0000 0.0000 0.0000 2.6695 0.0000 31.6030
#
#
#
# Elastic Compliance Matrix: (Units=1/GPa)
#
#
# Indices 1 2 3 4 5 6 
#
# 1 0.017098 -0.009568 -0.002873 0.000000 0.002765 0.000000
# 2 -0.009568 0.022273 -0.008021 0.000000 -0.001933 0.000000
# 3 -0.002873 -0.008021 0.013532 0.000000 -0.002338 0.000000
# 4 0.000000 0.000000 0.000000 0.026614 0.000000 -0.002248
# 5 0.002765 -0.001933 -0.002338 0.000000 0.028386 0.000000
# 6 0.000000 0.000000 0.000000 -0.002248 0.000000 0.031832
#
#
# Mechanical properties :
#
#
# Convention : Reuss Voigt Hill
#
# Bulk Modulus (GPa) = 83.47823 85.29281 84.38552
# Shear Modulus (GPa) = 27.07797 30.23058 28.65428
#
# Velocity S-wave (km/s) = 3.81638 4.03243 3.92589
# Velocity P-wave (km/s) = 8.02005 8.21938 8.12033
#
# Compressibility (1/GPa) = 0.01197917
#
# Stress axis : x y z
#
# Youngs Moduli (GPa) = 58.48716 44.89760 73.89910
#
# Poissons Ratio (x) = 0.42956 0.21230
# Poissons Ratio (y) = 0.55958 0.59277
# Poissons Ratio (z) = 0.16802 0.36014
#
# Static dielectric constant tensor:
#      x y z
#    x 3.542360 0.000000 0.042300 
#    y 0.000000 3.437750 0.000000 
#    z 0.042300 0.000000 3.208230 
# 
# 
# High freq. dielectric constant tensor:
#      x y z
#    x 1.734140 0.000000 -0.008310 
#    y 0.000000 1.721640 0.000000 
#    z -0.008310 0.000000 1.727050 
# 
# From -- ./inp_files/229824.got.cif
#   From: 2010.06.25/outbox.cif.g09.slc.cpg/sg12_115_cif.got.tgz:229824.got - 2010.06.28 00:19:55.
