data_PCOD8102261
_publ_section_title
;
Structure prediction by ZEFSAII (Michael W. Deem and Ramdas Pophale) SiO2 
 PCOD8102261
Probable space group: C 2/M
;
_chemical_formula_sum "Si O2"
_cell_formula_units_Z 56
_cell_length_a 28.770210
_cell_length_b 8.972343
_cell_length_c 12.519380
_cell_angle_alpha 90.000000
_cell_angle_beta 60.630691
_cell_angle_gamma 90.000000
_cell_volume 2816.355497
_symmetry_space_group_name_H-M "C 2/M"
_symmetry_group_IT_number 12
_symmetry_cell_setting 'monoclinic'
loop_
_space_group_symop_operation_xyz
x,y,z
-x,y,-z
-x,-y,-z
x,-y,z
1/2+x,1/2+y,z
1/2-x,1/2+y,-z
1/2-x,1/2-y,-z
1/2+x,1/2-y,z
loop_
_atom_site_type_symbol
_atom_site_label
_atom_site_fract_x
_atom_site_fract_y
_atom_site_fract_z
Si Si1 0.393450 0.323360 0.696070
Si Si2 0.805176 0.174083 0.963124
Si Si3 0.153220 0.173711 0.851553
Si Si4 0.012290 0.675067 0.297153
Si Si5 0.108321 0.324812 0.521271
Si Si6 0.049364 0.332263 0.022241
Si Si7 0.195666 0.675821 0.596881
O O1 0.397244 0.500000 0.688603
O O2 0.351511 0.266646 0.832304
O O3 0.451885 0.258285 0.655667
O O4 0.373599 0.262284 0.604851
O O5 0.797977 0.000000 0.954679
O O6 0.750000 0.250000 0.000000
O O7 0.820127 0.215493 0.066488
O O8 0.183053 0.268345 0.729100
O O9 0.158022 0.000000 0.819031
O O10 0.091574 0.218416 0.926069
O O11 0.018501 0.500000 0.308938
O O12 0.031262 0.723906 0.158616
O O13 0.951107 0.724539 0.378864
O O14 0.111699 0.500000 0.494603
O O15 0.147993 0.277289 0.571292
O O16 0.073208 0.500000 0.001634
O O17 0.000000 0.330870 0.000000
O O18 0.203225 0.500000 0.590352
O O19 0.250000 0.750000 0.500000
#
# Coordination Sequence:
#
# PCOD8102261 Si02
#       7
#     8   8   8   8   8   8   8
#     4  11  23  40  61  92 128 160 200 253 308 364
#     4  10  24  42  62  90 124 160 205 255 307 364
#     4  11  23  42  64  92 127 161 203 254 309 368
#     4  10  20  37  61  89 122 162 206 248 301 364
#     4  10  23  42  63  89 123 163 207 253 300 361
#     4  10  20  36  61  91 123 163 209 254 302 362
#     4  11  25  45  67  92 124 162 207 258 308 365
#
# _framework density 19.883855000000001
#
# number of rings (size 3 to 8) (size 9 to 14) (size 15 to 20)
#    0.000    1.571    1.429    2.571    2.000    8.286 
#    0.000    1.429    0.000    0.000    0.000    0.000 
#    0.000    0.000    0.000    0.000    0.000    0.000 
#
# Total GULP energy -347361.899500 kJ/mol
# GULP energy per Si atom -12405.782125 kJ/mol
# Density = 1.983860 g / cm^3
# Si number density = 19.883855 Si / 1000 Ang^3
#
#
#
# Elastic Constant Matrix: (Units=GPa)
#
#
# Indices 1 2 3 4 5 6 
#
# 1 113.0212 48.2851 67.2242 0.0000 -22.2312 0.0000
# 2 48.2851 58.5935 55.2959 0.0000 -3.0736 0.0000
# 3 67.2242 55.2959 150.6617 0.0000 -1.1431 0.0000
# 4 0.0000 0.0000 0.0000 36.6756 0.0000 1.7284
# 5 -22.2312 -3.0736 -1.1431 0.0000 27.9841 0.0000
# 6 0.0000 0.0000 0.0000 1.7284 0.0000 24.1153
#
#
#
# Elastic Compliance Matrix: (Units=1/GPa)
#
#
# Indices 1 2 3 4 5 6 
#
# 1 0.018535 -0.010499 -0.004315 0.000000 0.013395 0.000000
# 2 -0.010499 0.032230 -0.007183 0.000000 -0.005094 0.000000
# 3 -0.004315 -0.007183 0.011171 0.000000 -0.003761 0.000000
# 4 0.000000 0.000000 0.000000 0.027359 0.000000 -0.001961
# 5 0.013395 -0.005094 -0.003761 0.000000 0.045663 0.000000
# 6 0.000000 0.000000 0.000000 -0.001961 0.000000 0.041608
#
#
# Mechanical properties :
#
#
# Convention : Reuss Voigt Hill
#
# Bulk Modulus (GPa) = 55.73820 73.76520 64.75170
# Shear Modulus (GPa) = 22.07116 27.85307 24.96212
#
# Velocity S-wave (km/s) = 3.33529 3.74677 3.54700
# Velocity P-wave (km/s) = 6.55171 7.47638 7.02927
#
# Compressibility (1/GPa) = 0.01794102
#
# Stress axis : x y z
#
# Youngs Moduli (GPa) = 53.95304 31.02657 89.52046
#
# Poissons Ratio (x) = 0.32575 0.38629
# Poissons Ratio (y) = 0.56645 0.64305
# Poissons Ratio (z) = 0.23281 0.22287
#
# Static dielectric constant tensor:
#      x y z
#    x 3.659410 0.000000 0.046200 
#    y 0.000000 3.811330 0.000000 
#    z 0.046200 0.000000 3.934450 
# 
# 
# High freq. dielectric constant tensor:
#      x y z
#    x 1.784180 0.000000 0.003320 
#    y 0.000000 1.770960 0.000000 
#    z 0.003320 0.000000 1.791480 
# 
# From -- ./inp_files/180695.got.cif
#   From: 2010.06.25/outbox.cif.g09.slc.cpg/sg12_91_cif.got.tgz:180695.got - 2010.06.28 00:19:55.
