data_PCOD8102252
_publ_section_title
;
Structure prediction by ZEFSAII (Michael W. Deem and Ramdas Pophale) SiO2 
 PCOD8102252
Probable space group: C 2/M
;
_chemical_formula_sum "Si O2"
_cell_formula_units_Z 56
_cell_length_a 26.848616
_cell_length_b 9.051075
_cell_length_c 12.473428
_cell_angle_alpha 90.000000
_cell_angle_beta 67.695305
_cell_angle_gamma 90.000000
_cell_volume 2804.358169
_symmetry_space_group_name_H-M "C 2/M"
_symmetry_group_IT_number 12
_symmetry_cell_setting 'monoclinic'
loop_
_space_group_symop_operation_xyz
x,y,z
-x,y,-z
-x,-y,-z
x,-y,z
1/2+x,1/2+y,z
1/2-x,1/2+y,-z
1/2-x,1/2-y,-z
1/2+x,1/2-y,z
loop_
_atom_site_type_symbol
_atom_site_label
_atom_site_fract_x
_atom_site_fract_y
_atom_site_fract_z
Si Si1 0.001332 0.327870 0.807624
Si Si2 0.389542 0.325130 0.216378
Si Si3 0.843930 0.827267 0.670946
Si Si4 0.200240 0.673019 0.095671
Si Si5 0.888880 0.329518 0.002243
Si Si6 0.306950 0.673803 0.466150
Si Si7 0.536263 0.666623 0.366743
O O1 0.015374 0.500000 0.795520
O O2 0.987683 0.279007 0.698996
O O3 0.051885 0.239916 0.810181
O O4 0.950900 0.294015 0.925808
O O5 0.394032 0.500000 0.212563
O O6 0.368901 0.268860 0.118010
O O7 0.347568 0.270463 0.340684
O O8 0.804748 0.736626 0.780697
O O9 0.832309 0.780135 0.558872
O O10 0.904633 0.782000 0.647884
O O11 0.833339 0.000000 0.697305
O O12 0.211163 0.500000 0.093677
O O13 0.250000 0.750000 0.000000
O O14 0.146463 0.710828 0.072696
O O15 0.881107 0.500000 0.040156
O O16 0.298220 0.500000 0.464959
O O17 0.250000 0.750000 0.500000
O O18 0.500000 0.673801 0.500000
O O19 0.536619 0.500000 0.319059
#
# Coordination Sequence:
#
# PCOD8102252 Si02
#       7
#     8   8   8   8   8   8   8
#     4  11  22  39  61  90 126 163 204 249 305 368
#     4  11  24  41  63  92 125 162 208 255 303 365
#     4  10  21  40  64  90 123 161 202 250 307 363
#     4  11  24  42  64  92 126 161 205 255 307 365
#     4  10  23  42  62  89 127 164 201 254 310 361
#     4  10  24  44  64  90 123 160 205 255 305 361
#     4  10  20  36  61  90 124 162 202 251 303 360
#
# _framework density 19.968920000000001
#
# number of rings (size 3 to 8) (size 9 to 14) (size 15 to 20)
#    0.000    1.571    1.429    2.571    2.000    8.286 
#    0.000    1.429    0.000    0.000    0.000    0.000 
#    0.000    0.000    0.000    0.000    0.000    0.000 
#
# Total GULP energy -347354.558810 kJ/mol
# GULP energy per Si atom -12405.519957 kJ/mol
# Density = 1.992347 g / cm^3
# Si number density = 19.968920 Si / 1000 Ang^3
#
#
#
# Elastic Constant Matrix: (Units=GPa)
#
#
# Indices 1 2 3 4 5 6 
#
# 1 66.8152 32.7328 27.4613 0.0000 -6.1751 0.0000
# 2 32.7328 67.8368 49.7956 0.0000 -1.6638 0.0000
# 3 27.4613 49.7956 130.3431 0.0000 -1.0802 0.0000
# 4 0.0000 0.0000 0.0000 37.8552 0.0000 3.1422
# 5 -6.1751 -1.6638 -1.0802 0.0000 37.1961 0.0000
# 6 0.0000 0.0000 0.0000 3.1422 0.0000 36.3624
#
#
#
# Elastic Compliance Matrix: (Units=1/GPa)
#
#
# Indices 1 2 3 4 5 6 
#
# 1 0.019953 -0.009018 -0.000735 0.000000 0.002888 0.000000
# 2 -0.009018 0.024579 -0.007495 0.000000 -0.000615 0.000000
# 3 -0.000735 -0.007495 0.010689 0.000000 -0.000147 0.000000
# 4 0.000000 0.000000 0.000000 0.026607 0.000000 -0.002299
# 5 0.002888 -0.000615 -0.000147 0.000000 0.027332 0.000000
# 6 0.000000 0.000000 0.000000 -0.002299 0.000000 0.027700
#
#
# Mechanical properties :
#
#
# Convention : Reuss Voigt Hill
#
# Bulk Modulus (GPa) = 48.24852 53.88605 51.06729
# Shear Modulus (GPa) = 28.04802 32.61642 30.33222
#
# Velocity S-wave (km/s) = 3.75184 4.04587 3.90163
# Velocity P-wave (km/s) = 6.55612 6.99063 6.77686
#
# Compressibility (1/GPa) = 0.02072602
#
# Stress axis : x y z
#
# Youngs Moduli (GPa) = 50.11684 40.68442 93.55263
#
# Poissons Ratio (x) = 0.36688 0.06875
# Poissons Ratio (y) = 0.45194 0.70121
# Poissons Ratio (z) = 0.03683 0.30495
#
# Static dielectric constant tensor:
#      x y z
#    x 2.972520 0.000000 0.096520 
#    y 0.000000 3.583610 0.000000 
#    z 0.096520 0.000000 3.801490 
# 
# 
# High freq. dielectric constant tensor:
#      x y z
#    x 1.787320 0.000000 0.000020 
#    y 0.000000 1.776730 0.000000 
#    z 0.000020 0.000000 1.793630 
# 
# From -- ./inp_files/180822.got.cif
#   From: 2010.06.25/outbox.cif.g09.slc.cpg/sg12_91_cif.got.tgz:180822.got - 2010.06.28 00:19:55.
