data_PCOD8102947
_publ_section_title
;
Structure prediction by ZEFSAII (Michael W. Deem and Ramdas Pophale) SiO2 
 PCOD8102947
Probable space group: C 2/M
;
_chemical_formula_sum "Si O2"
_cell_formula_units_Z 56
_cell_length_a 18.428349
_cell_length_b 27.066791
_cell_length_c 9.173819
_cell_angle_alpha 90.000000
_cell_angle_beta 34.578509
_cell_angle_gamma 90.000000
_cell_volume 2596.964310
_symmetry_space_group_name_H-M "C 2/M"
_symmetry_group_IT_number 12
_symmetry_cell_setting 'monoclinic'
loop_
_space_group_symop_operation_xyz
x,y,z
-x,y,-z
-x,-y,-z
x,-y,z
1/2+x,1/2+y,z
1/2-x,1/2+y,-z
1/2-x,1/2-y,-z
1/2+x,1/2-y,z
loop_
_atom_site_type_symbol
_atom_site_label
_atom_site_fract_x
_atom_site_fract_y
_atom_site_fract_z
Si Si1 0.857071 0.379851 0.945426
Si Si2 0.857628 0.300763 0.182352
Si Si3 0.688732 0.057678 0.706496
Si Si4 0.034734 0.944742 0.775509
Si Si5 0.922838 0.442833 0.410878
Si Si6 0.703035 0.607279 0.918729
Si Si7 0.349551 0.686596 0.227085
O O1 0.746198 0.378646 0.009777
O O2 0.991743 0.399000 0.653814
O O3 0.847966 0.327366 0.041339
O O4 0.854267 0.425016 0.064915
O O5 0.743349 0.319975 0.477683
O O6 0.843354 0.242727 0.181977
O O7 0.000000 0.314272 0.000000
O O8 0.827887 0.082139 0.452755
O O9 0.591035 0.070841 0.738409
O O10 0.707993 0.000000 0.675353
O O11 0.035711 0.000000 0.708185
O O12 0.000000 0.945539 0.000000
O O13 0.941596 0.911754 0.830939
O O14 0.969154 0.500000 0.356359
O O15 0.785463 0.437735 0.715756
O O16 0.712159 0.654992 0.799973
O O17 0.500000 0.671384 0.000000
#
# Coordination Sequence:
#
# PCOD8102947 Si02
#       7
#     8   8   8   8   8   8   8
#     4  12  25  37  58  92 130 160 195 255 320 374
#     4  10  22  44  69  94 122 160 215 268 315 372
#     4  10  21  38  60  84 115 160 209 252 293 347
#     4  10  20  37  60  83 113 159 210 252 291 353
#     4  11  23  41  64  89 123 172 219 256 304 376
#     4  12  24  37  60  92 126 161 198 251 320 379
#     4  10  23  43  70  94 118 165 219 262 310 383
#
# _framework density 21.563638999999998
#
# number of rings (size 3 to 8) (size 9 to 14) (size 15 to 20)
#    0.000    1.286    1.429    4.714    2.000    5.143 
#    0.000    1.429    0.000    5.143    0.000    0.000 
#    0.000    0.000    0.000    0.000    0.000    0.000 
#
# Total GULP energy -346989.026975 kJ/mol
# GULP energy per Si atom -12392.465249 kJ/mol
# Density = 2.151456 g / cm^3
# Si number density = 21.563639 Si / 1000 Ang^3
#
#
#
# Elastic Constant Matrix: (Units=GPa)
#
#
# Indices 1 2 3 4 5 6 
#
# 1 135.7124 53.9586 20.2235 0.0000 1.2829 0.0000
# 2 53.9586 93.4695 20.1572 0.0000 -3.9461 0.0000
# 3 20.2235 20.1572 65.2733 -0.0001 -11.7447 0.0001
# 4 0.0000 0.0000 -0.0001 25.7478 0.0001 -4.0093
# 5 1.2829 -3.9461 -11.7447 0.0001 30.6024 0.0000
# 6 0.0000 0.0000 0.0001 -4.0093 0.0000 18.0566
#
#
#
# Elastic Compliance Matrix: (Units=1/GPa)
#
#
# Indices 1 2 3 4 5 6 
#
# 1 0.009762 -0.005345 -0.001688 0.000000 -0.001746 0.000000
# 2 -0.005345 0.014389 -0.002592 0.000000 0.001085 0.000000
# 3 -0.001688 -0.002592 0.017827 0.000000 0.006578 0.000000
# 4 0.000000 0.000000 0.000000 0.040229 0.000000 0.008933
# 5 -0.001746 0.001085 0.006578 0.000000 0.035415 0.000000
# 6 0.000000 0.000000 0.000000 0.008933 0.000000 0.057365
#
#
# Mechanical properties :
#
#
# Convention : Reuss Voigt Hill
#
# Bulk Modulus (GPa) = 43.99969 53.68152 48.84061
# Shear Modulus (GPa) = 24.77532 28.22242 26.49887
#
# Velocity S-wave (km/s) = 3.39328 3.62165 3.50932
# Velocity P-wave (km/s) = 5.98342 6.51437 6.25453
#
# Compressibility (1/GPa) = 0.02272743
#
# Stress axis : x y z
#
# Youngs Moduli (GPa) = 102.44084 69.49695 56.09338
#
# Poissons Ratio (x) = 0.37146 0.09469
# Poissons Ratio (y) = 0.54755 0.14541
# Poissons Ratio (z) = 0.17293 0.18016
#
# Static dielectric constant tensor:
#      x y z
#    x -43.773400 0.000020 62.820080 
#    y 0.000020 3.922530 -0.000030 
#    z 62.820080 -0.000030 -79.658490 
# 
# 
# High freq. dielectric constant tensor:
#      x y z
#    x 1.834640 0.000000 -0.020410 
#    y 0.000000 1.847830 0.000000 
#    z -0.020410 0.000000 1.859210 
# 
# From -- ./inp_files/80009.got.cif
#   From: 2010.06.25/outbox.cif.g09.slc.cpg/sg12_41_cif.got.tgz:80009.got - 2010.06.28 00:19:55.
