data_PCOD8102723
_publ_section_title
;
Structure prediction by ZEFSAII (Michael W. Deem and Ramdas Pophale) SiO2 
 PCOD8102723
Probable space group: C 2/M
;
_chemical_formula_sum "Si O2"
_cell_formula_units_Z 40
_cell_length_a 8.799682
_cell_length_b 17.240970
_cell_length_c 20.483473
_cell_angle_alpha 90.000000
_cell_angle_beta 139.000477
_cell_angle_gamma 90.000000
_cell_volume 2038.783103
_symmetry_space_group_name_H-M "C 2/M"
_symmetry_group_IT_number 12
_symmetry_cell_setting 'monoclinic'
loop_
_space_group_symop_operation_xyz
x,y,z
-x,y,-z
-x,-y,-z
x,-y,z
1/2+x,1/2+y,z
1/2-x,1/2+y,-z
1/2-x,1/2-y,-z
1/2+x,1/2-y,z
loop_
_atom_site_type_symbol
_atom_site_label
_atom_site_fract_x
_atom_site_fract_y
_atom_site_fract_z
Si Si1 0.476155 0.834728 0.193437
Si Si2 0.869364 0.000000 0.050364
Si Si3 0.693413 0.856679 0.611548
Si Si4 0.500000 0.369068 0.000000
Si Si5 0.925448 0.500000 0.824527
Si Si6 0.036481 0.000000 0.250028
Si Si7 0.579502 0.752991 0.691724
O O1 0.227526 0.815351 0.079745
O O2 0.526894 0.925893 0.205059
O O3 0.471276 0.813939 0.267801
O O4 0.666269 0.784708 0.216201
O O5 0.904402 0.000000 0.138708
O O6 0.991356 0.076578 0.061274
O O7 0.596553 0.000000 0.942819
O O8 0.500000 0.890791 0.500000
O O9 0.567205 0.796013 0.618550
O O10 0.889915 0.814995 0.631947
O O11 0.804244 0.924561 0.690686
O O12 0.659217 0.500000 0.758451
#
# Coordination Sequence:
#
# PCOD8102723 Si02
#       7
#     8   4   8   4   4   4   8
#     4  10  20  37  58  86 115 158 188 237 280 340
#     4   9  19  33  57  87 115 156 188 227 286 344
#     4  11  23  40  62  86 114 150 194 242 291 343
#     4   9  18  34  56  86 120 151 194 224 278 345
#     4  10  20  38  60  83 117 154 196 230 275 345
#     4  12  21  37  61  88 116 144 196 248 282 326
#     4  10  22  39  60  83 118 154 188 231 300 342
#
# _framework density 19.619548000000002
#
# number of rings (size 3 to 8) (size 9 to 14) (size 15 to 20)
#    0.000    1.800    2.000    3.000    0.000    1.600 
#    0.000    2.000    0.000    1.200    0.000    0.000 
#    0.000    0.000    0.000    0.000    0.000    0.000 
#
# Total GULP energy -248035.160388 kJ/mol
# GULP energy per Si atom -12401.758019 kJ/mol
# Density = 1.957489 g / cm^3
# Si number density = 19.619548 Si / 1000 Ang^3
#
#
#
# Elastic Constant Matrix: (Units=GPa)
#
#
# Indices 1 2 3 4 5 6 
#
# 1 93.8477 27.1847 33.7740 0.0002 8.9116 0.0001
# 2 27.1847 82.2031 34.0440 0.0002 -1.0480 0.0001
# 3 33.7740 34.0440 102.9992 0.0010 7.7358 0.0004
# 4 0.0002 0.0002 0.0010 15.6613 0.0007 2.7293
# 5 8.9116 -1.0480 7.7358 0.0007 23.0911 0.0004
# 6 0.0001 0.0001 0.0004 2.7293 0.0004 27.5093
#
#
#
# Elastic Compliance Matrix: (Units=1/GPa)
#
#
# Indices 1 2 3 4 5 6 
#
# 1 0.013014 -0.003152 -0.002911 0.000000 -0.004190 0.000000
# 2 -0.003152 0.014973 -0.004163 0.000000 0.003290 0.000000
# 3 -0.002911 -0.004163 0.012278 -0.000001 -0.003179 0.000000
# 4 0.000000 0.000000 -0.000001 0.064975 -0.000002 -0.006446
# 5 -0.004190 0.003290 -0.003179 -0.000002 0.046138 0.000000
# 6 0.000000 0.000000 0.000000 -0.006446 0.000000 0.036991
#
#
# Mechanical properties :
#
#
# Convention : Reuss Voigt Hill
#
# Bulk Modulus (GPa) = 50.46803 52.11729 51.29266
# Shear Modulus (GPa) = 23.20994 25.52214 24.36604
#
# Velocity S-wave (km/s) = 3.44321 3.61065 3.52792
# Velocity P-wave (km/s) = 6.44878 6.63355 6.54182
#
# Compressibility (1/GPa) = 0.01981452
#
# Stress axis : x y z
#
# Youngs Moduli (GPa) = 76.84034 66.78618 81.44664
#
# Poissons Ratio (x) = 0.21048 0.23709
# Poissons Ratio (y) = 0.24217 0.33904
# Poissons Ratio (z) = 0.22368 0.27801
#
# Static dielectric constant tensor:
#      x y z
#    x 3.654480 0.000000 0.301530 
#    y 0.000000 3.491190 0.000000 
#    z 0.301530 0.000000 3.438010 
# 
# 
# High freq. dielectric constant tensor:
#      x y z
#    x 1.773070 0.000000 0.017180 
#    y 0.000000 1.758330 0.000000 
#    z 0.017180 0.000000 1.755670 
# 
# From -- ./inp_files/120371.got.cif
#   From: 2010.06.25/outbox.cif.g09.slc.cpg/sg12_61_cif.got.tgz:120371.got - 2010.06.28 00:19:55.
