data_PCOD8102669
_publ_section_title
;
Structure prediction by ZEFSAII (Michael W. Deem and Ramdas Pophale) SiO2 
 PCOD8102669
Probable space group: C 2/M
;
_chemical_formula_sum "Si O2"
_cell_formula_units_Z 56
_cell_length_a 18.865310
_cell_length_b 8.504084
_cell_length_c 26.759403
_cell_angle_alpha 90.000000
_cell_angle_beta 41.617125
_cell_angle_gamma 90.000000
_cell_volume 2851.240703
_symmetry_space_group_name_H-M "C 2/M"
_symmetry_group_IT_number 12
_symmetry_cell_setting 'monoclinic'
loop_
_space_group_symop_operation_xyz
x,y,z
-x,y,-z
-x,-y,-z
x,-y,z
1/2+x,1/2+y,z
1/2-x,1/2+y,-z
1/2-x,1/2-y,-z
1/2+x,1/2-y,z
loop_
_atom_site_type_symbol
_atom_site_label
_atom_site_fract_x
_atom_site_fract_y
_atom_site_fract_z
Si Si1 0.298511 0.325676 0.692552
Si Si2 0.929183 0.685453 0.084252
Si Si3 0.216314 0.318352 0.571039
Si Si4 0.618350 0.178994 0.443141
Si Si5 0.184724 0.178921 0.205395
Si Si6 0.924338 0.817210 0.187778
Si Si7 0.013603 0.316349 0.741924
O O1 0.319301 0.500000 0.658993
O O2 0.336772 0.187727 0.636310
O O3 0.354718 0.310794 0.716457
O O4 0.173438 0.302667 0.764337
O O5 0.933339 0.500000 0.092319
O O6 0.806906 0.738645 0.136653
O O7 0.981289 0.777077 0.104712
O O8 0.000000 0.735366 0.000000
O O9 0.197799 0.500000 0.571924
O O10 0.250000 0.250000 0.500000
O O11 0.315464 0.288968 0.555124
O O12 0.107705 0.250552 0.654794
O O13 0.500000 0.246041 0.500000
O O14 0.621528 0.000000 0.460970
O O15 0.104017 0.289873 0.218049
O O16 0.175381 0.000000 0.190580
O O17 0.988400 0.774843 0.204196
O O18 0.892492 0.000000 0.206539
O O19 0.032948 0.500000 0.741133
#
# Coordination Sequence:
#
# PCOD8102669 Si02
#       7
#     8   8   8   8   8   8   8
#     4  10  20  37  58  82 111 148 194 239 288 346
#     4   9  19  39  65  91 122 156 191 235 287 346
#     4  11  25  42  60  82 114 156 201 248 301 353
#     4  11  24  39  57  83 114 147 192 245 297 350
#     4   9  20  36  58  88 117 149 191 236 287 346
#     4  11  21  35  60  88 116 152 193 238 286 342
#     4  11  23  39  59  84 117 156 198 244 292 349
#
# _framework density 19.640571999999999
#
# number of rings (size 3 to 8) (size 9 to 14) (size 15 to 20)
#    0.000    1.714    1.429    3.857    2.000    6.000 
#    0.000    0.714    0.000    0.000    0.000    0.000 
#    0.000    0.000    0.000    0.000    0.000    0.000 
#
# Total GULP energy -347039.192913 kJ/mol
# GULP energy per Si atom -12394.256890 kJ/mol
# Density = 1.959587 g / cm^3
# Si number density = 19.640572 Si / 1000 Ang^3
#
#
#
# Elastic Constant Matrix: (Units=GPa)
#
#
# Indices 1 2 3 4 5 6 
#
# 1 124.0440 33.9051 62.2155 -0.0004 8.3580 0.0068
# 2 33.9051 59.5532 26.5805 -0.0004 9.1651 0.0123
# 3 62.2155 26.5805 113.8044 0.0001 19.9543 -0.0006
# 4 -0.0004 -0.0004 0.0001 28.6165 -0.0005 -0.6281
# 5 8.3580 9.1651 19.9543 -0.0005 29.3854 -0.0008
# 6 0.0068 0.0123 -0.0006 -0.6281 -0.0008 39.4072
#
#
#
# Elastic Compliance Matrix: (Units=1/GPa)
#
#
# Indices 1 2 3 4 5 6 
#
# 1 0.012149 -0.004581 -0.005922 0.000000 0.001994 -0.000001
# 2 -0.004581 0.020753 -0.001630 0.000000 -0.004063 -0.000006
# 3 -0.005922 -0.001630 0.013645 0.000000 -0.007073 0.000002
# 4 0.000000 0.000000 0.000000 0.034957 0.000001 0.000557
# 5 0.001994 -0.004063 -0.007073 0.000001 0.039533 0.000002
# 6 -0.000001 -0.000006 0.000002 0.000557 0.000002 0.025385
#
#
# Mechanical properties :
#
#
# Convention : Reuss Voigt Hill
#
# Bulk Modulus (GPa) = 44.88045 60.31151 52.59598
# Shear Modulus (GPa) = 28.07159 31.12852 29.60006
#
# Velocity S-wave (km/s) = 3.78466 3.98541 3.88633
# Velocity P-wave (km/s) = 6.48064 7.20779 6.85387
#
# Compressibility (1/GPa) = 0.02228142
#
# Stress axis : x y z
#
# Youngs Moduli (GPa) = 82.30813 48.18673 73.28510
#
# Poissons Ratio (x) = 0.22074 0.43397
# Poissons Ratio (y) = 0.37704 0.11949
# Poissons Ratio (z) = 0.48741 0.07857
#
# Static dielectric constant tensor:
#      x y z
#    x 3.668340 -0.000010 0.270220 
#    y -0.000010 3.436310 0.000000 
#    z 0.270220 0.000000 3.414440 
# 
# 
# High freq. dielectric constant tensor:
#      x y z
#    x 1.766350 0.000000 0.013990 
#    y 0.000000 1.763060 0.000000 
#    z 0.013990 0.000000 1.753780 
# 
# From -- ./inp_files/362891.got.cif
#   From: 2010.06.25/outbox.cif.g09.slc.cpg/sg12_182_cif.got.tgz:362891.got - 2010.06.28 00:19:55.
