data_PCOD8102090
_publ_section_title
;
Structure prediction by ZEFSAII (Michael W. Deem and Ramdas Pophale) SiO2 
 PCOD8102090
Probable space group: C 2/M
;
_chemical_formula_sum "Si O2"
_cell_formula_units_Z 48
_cell_length_a 14.881253
_cell_length_b 9.019033
_cell_length_c 26.225236
_cell_angle_alpha 90.000000
_cell_angle_beta 133.984087
_cell_angle_gamma 90.000000
_cell_volume 2532.616424
_symmetry_space_group_name_H-M "C 2/M"
_symmetry_group_IT_number 12
_symmetry_cell_setting 'monoclinic'
loop_
_space_group_symop_operation_xyz
x,y,z
-x,y,-z
-x,-y,-z
x,-y,z
1/2+x,1/2+y,z
1/2-x,1/2+y,-z
1/2-x,1/2-y,-z
1/2+x,1/2-y,z
loop_
_atom_site_type_symbol
_atom_site_label
_atom_site_fract_x
_atom_site_fract_y
_atom_site_fract_z
Si Si1 0.620498 0.671732 0.580134
Si Si2 0.184137 0.328988 0.427702
Si Si3 0.946527 0.827328 0.081919
Si Si4 0.217427 0.328672 0.062305
Si Si5 0.401810 0.824959 0.323086
Si Si6 0.798401 0.674493 0.826168
O O1 0.500000 0.718947 0.500000
O O2 0.609863 0.500000 0.592492
O O3 0.744560 0.703226 0.596650
O O4 0.632659 0.774900 0.633789
O O5 0.187802 0.500000 0.443507
O O6 0.250000 0.250000 0.500000
O O7 0.042516 0.274392 0.365611
O O8 0.852520 0.794486 0.091431
O O9 0.073696 0.742574 0.144856
O O10 0.975092 0.000000 0.087073
O O11 0.888832 0.768450 0.006419
O O12 0.180732 0.500000 0.039986
O O13 0.220697 0.283862 0.122392
O O14 0.316295 0.743320 0.248899
O O15 0.382377 0.000000 0.310690
O O16 0.801341 0.500000 0.818207
#
# Coordination Sequence:
#
# PCOD8102090 Si02
#       6
#     8   8   8   8   8   8
#     4  10  20  37  61  85 112 146 185 228 281 345
#     4  10  21  37  59  85 112 144 184 232 282 337
#     4  10  20  36  60  89 118 149 192 240 284 331
#     4   9  20  38  59  85 117 154 194 232 281 342
#     4  11  24  39  56  84 117 148 190 239 288 338
#     4  11  23  39  58  80 115 157 194 233 285 344
#
# _framework density 18.952731
#
# number of rings (size 3 to 8) (size 9 to 14) (size 15 to 20)
#    0.000    1.833    1.667    2.000    0.000    7.000 
#    0.000    3.333    0.000    0.000    0.000    0.000 
#    0.000    0.000    0.000    0.000    0.000    0.000 
#
# Total GULP energy -297727.103898 kJ/mol
# GULP energy per Si atom -12405.295996 kJ/mol
# Density = 1.890959 g / cm^3
# Si number density = 18.952731 Si / 1000 Ang^3
#
#
#
# Elastic Constant Matrix: (Units=GPa)
#
#
# Indices 1 2 3 4 5 6 
#
# 1 96.7748 40.8249 56.5640 0.0000 17.5920 0.0000
# 2 40.8249 77.5951 55.4561 0.0000 11.0584 0.0000
# 3 56.5640 55.4561 123.5720 0.0000 22.1089 0.0000
# 4 0.0000 0.0000 0.0000 39.1867 0.0000 -0.0770
# 5 17.5920 11.0584 22.1089 0.0000 30.1490 0.0000
# 6 0.0000 0.0000 0.0000 -0.0770 0.0000 28.8140
#
#
#
# Elastic Compliance Matrix: (Units=1/GPa)
#
#
# Indices 1 2 3 4 5 6 
#
# 1 0.015525 -0.004457 -0.004349 0.000000 -0.004235 0.000000
# 2 -0.004457 0.020270 -0.007127 0.000000 0.000392 0.000000
# 3 -0.004349 -0.007127 0.014226 0.000000 -0.005281 0.000000
# 4 0.000000 0.000000 0.000000 0.025519 0.000000 0.000068
# 5 -0.004235 0.000392 -0.005281 0.000000 0.039369 0.000000
# 6 0.000000 0.000000 0.000000 0.000068 0.000000 0.034706
#
#
# Mechanical properties :
#
#
# Convention : Reuss Voigt Hill
#
# Bulk Modulus (GPa) = 55.07557 67.07020 61.07288
# Shear Modulus (GPa) = 26.66243 29.30307 27.98275
#
# Velocity S-wave (km/s) = 3.75478 3.93633 3.84663
# Velocity P-wave (km/s) = 6.92245 7.49163 7.21266
#
# Compressibility (1/GPa) = 0.01815687
#
# Stress axis : x y z
#
# Youngs Moduli (GPa) = 64.41249 49.33501 70.29348
#
# Poissons Ratio (x) = 0.21987 0.30568
# Poissons Ratio (y) = 0.28706 0.50095
# Poissons Ratio (z) = 0.28011 0.35159
#
# Static dielectric constant tensor:
#      x y z
#    x 3.705200 0.000000 0.134210 
#    y 0.000000 3.511610 0.000000 
#    z 0.134210 0.000000 3.417640 
# 
# 
# High freq. dielectric constant tensor:
#      x y z
#    x 1.749770 0.000000 0.007240 
#    y 0.000000 1.741450 0.000000 
#    z 0.007240 0.000000 1.734720 
# 
# From -- ./inp_files/308610.got.cif
#   From: 2010.06.25/outbox.cif.g09.slc.cpg/sg12_155_cif.got.tgz:308610.got - 2010.06.28 00:19:55.
