data_PCOD8102583
_publ_section_title
;
Structure prediction by ZEFSAII (Michael W. Deem and Ramdas Pophale) SiO2 
 PCOD8102583
Probable space group: C 2/M
;
_chemical_formula_sum "Si O2"
_cell_formula_units_Z 64
_cell_length_a 31.092058
_cell_length_b 9.382909
_cell_length_c 15.064623
_cell_angle_alpha 90.000000
_cell_angle_beta 130.662890
_cell_angle_gamma 90.000000
_cell_volume 3333.751283
_symmetry_space_group_name_H-M "C 2/M"
_symmetry_group_IT_number 12
_symmetry_cell_setting 'monoclinic'
loop_
_space_group_symop_operation_xyz
x,y,z
-x,y,-z
-x,-y,-z
x,-y,z
1/2+x,1/2+y,z
1/2-x,1/2+y,-z
1/2-x,1/2-y,-z
1/2+x,1/2-y,z
loop_
_atom_site_type_symbol
_atom_site_label
_atom_site_fract_x
_atom_site_fract_y
_atom_site_fract_z
Si Si1 0.788434 0.333767 0.982512
Si Si2 0.765897 0.162756 0.279494
Si Si3 0.000439 0.668822 0.899684
Si Si4 0.505663 0.831166 0.407666
Si Si5 0.778240 0.165612 0.617666
Si Si6 0.417214 0.169136 0.142683
Si Si7 0.112120 0.157445 0.504846
Si Si8 0.396261 0.342870 0.705228
O O1 0.787699 0.500000 0.007170
O O2 0.762380 0.305513 0.851893
O O3 0.750000 0.250000 0.000000
O O4 0.853119 0.273345 0.067921
O O5 0.740111 0.273478 0.313099
O O6 0.833317 0.189551 0.360883
O O7 0.754225 0.000000 0.294795
O O8 0.996701 0.500000 0.895495
O O9 0.944530 0.725244 0.776779
O O10 0.054941 0.719055 0.914307
O O11 0.000000 0.728932 0.000000
O O12 0.500000 0.773069 0.500000
O O13 0.455012 0.773599 0.276297
O O14 0.565414 0.776908 0.453810
O O15 0.506826 0.000000 0.406499
O O16 0.750000 0.250000 0.500000
O O17 0.846085 0.186182 0.706988
O O18 0.760980 0.000000 0.587096
O O19 0.416091 0.000000 0.142042
O O20 0.132544 0.163815 0.430448
O O21 0.087460 0.000000 0.494165
O O22 0.422971 0.500000 0.757381
#
# Coordination Sequence:
#
# PCOD8102583 Si02
#       8
#     8   8   8   8   8   8   8   8
#     4  10  23  42  64  85 116 158 198 250 301 345
#     4  10  22  40  60  85 118 157 198 244 298 350
#     4  10  21  36  59  87 112 150 198 235 279 347
#     4  10  21  36  58  86 112 145 187 235 291 345
#     4  11  22  37  57  85 120 157 194 237 288 349
#     4   9  19  38  57  83 119 146 186 244 289 334
#     4  10  20  37  57  82 117 149 186 237 289 347
#     4  10  21  37  55  80 118 154 185 233 292 341
#
# _framework density 19.197593000000001
#
# number of rings (size 3 to 8) (size 9 to 14) (size 15 to 20)
#    0.000    2.000    2.500    0.375    3.500    2.500 
#    0.000    1.250    0.000    0.000    0.000    0.000 
#    0.000    0.000    0.000    0.000    0.000    0.000 
#
# Total GULP energy -396737.547836 kJ/mol
# GULP energy per Si atom -12398.048370 kJ/mol
# Density = 1.915390 g / cm^3
# Si number density = 19.197593 Si / 1000 Ang^3
#
#
#
# Elastic Constant Matrix: (Units=GPa)
#
#
# Indices 1 2 3 4 5 6 
#
# 1 139.5036 47.1735 72.3631 0.0000 3.0412 0.0000
# 2 47.1735 52.0282 35.3961 0.0000 -1.9380 0.0000
# 3 72.3631 35.3961 130.2350 0.0000 6.8118 0.0000
# 4 0.0000 0.0000 0.0000 23.3018 0.0000 1.6372
# 5 3.0412 -1.9380 6.8118 0.0000 30.7822 0.0000
# 6 0.0000 0.0000 0.0000 1.6372 0.0000 31.3778
#
#
#
# Elastic Compliance Matrix: (Units=1/GPa)
#
#
# Indices 1 2 3 4 5 6 
#
# 1 0.012291 -0.008035 -0.004609 0.000000 -0.000700 0.000000
# 2 -0.008035 0.029098 -0.003623 0.000000 0.003428 0.000000
# 3 -0.004609 -0.003623 0.011344 0.000000 -0.002283 0.000000
# 4 0.000000 0.000000 0.000000 0.043073 0.000000 -0.002247
# 5 -0.000700 0.003428 -0.002283 0.000000 0.033277 0.000000
# 6 0.000000 0.000000 0.000000 -0.002247 0.000000 0.031987
#
#
# Mechanical properties :
#
#
# Convention : Reuss Voigt Hill
#
# Bulk Modulus (GPa) = 49.50849 70.18137 59.84493
# Shear Modulus (GPa) = 24.95791 28.21462 26.58626
#
# Velocity S-wave (km/s) = 3.60954 3.83782 3.72543
# Velocity P-wave (km/s) = 6.57393 7.50168 7.05308
#
# Compressibility (1/GPa) = 0.02019856
#
# Stress axis : x y z
#
# Youngs Moduli (GPa) = 81.35768 34.36634 88.15541
#
# Poissons Ratio (x) = 0.27613 0.40632
# Poissons Ratio (y) = 0.65370 0.31942
# Poissons Ratio (z) = 0.37499 0.12452
#
# Static dielectric constant tensor:
#      x y z
#    x 3.485150 0.000000 0.234570 
#    y 0.000000 3.350120 0.000000 
#    z 0.234570 0.000000 2.947920 
# 
# 
# High freq. dielectric constant tensor:
#      x y z
#    x 1.750750 0.000000 0.000110 
#    y 0.000000 1.728920 0.000000 
#    z 0.000110 0.000000 1.751790 
# 
# From -- ./inp_files/250061.got.cif
#   From: 2010.06.25/outbox.cif.g09.slc.cpg/sg12_126_cif.got.tgz:250061.got - 2010.06.28 00:19:55.
