data_PCOD8102849
_publ_section_title
;
Structure prediction by ZEFSAII (Michael W. Deem and Ramdas Pophale) SiO2 
 PCOD8102849
Probable space group: C 2/M
;
_chemical_formula_sum "Si O2"
_cell_formula_units_Z 56
_cell_length_a 24.362975
_cell_length_b 16.449172
_cell_length_c 9.949310
_cell_angle_alpha 90.000000
_cell_angle_beta 133.112865
_cell_angle_gamma 90.000000
_cell_volume 2910.686572
_symmetry_space_group_name_H-M "C 2/M"
_symmetry_group_IT_number 12
_symmetry_cell_setting 'monoclinic'
loop_
_space_group_symop_operation_xyz
x,y,z
-x,y,-z
-x,-y,-z
x,-y,z
1/2+x,1/2+y,z
1/2-x,1/2+y,-z
1/2-x,1/2-y,-z
1/2+x,1/2-y,z
loop_
_atom_site_type_symbol
_atom_site_label
_atom_site_fract_x
_atom_site_fract_y
_atom_site_fract_z
Si Si1 0.975811 0.186488 0.318478
Si Si2 0.446403 0.407646 0.785203
Si Si3 0.399367 0.188977 0.497052
Si Si4 0.430450 0.908227 0.808543
Si Si5 0.832766 0.285743 0.112282
Si Si6 0.194195 0.193208 0.494686
Si Si7 0.808821 0.407345 0.830888
O O1 0.886903 0.208805 0.166327
O O2 0.000000 0.145450 0.500000
O O3 0.001522 0.123536 0.248946
O O4 0.018532 0.272351 0.377306
O O5 0.419183 0.500000 0.710438
O O6 0.375540 0.348308 0.701700
O O7 0.500000 0.405245 0.000000
O O8 0.407090 0.119362 0.620837
O O9 0.366771 0.163474 0.296524
O O10 0.337583 0.252419 0.440789
O O11 0.362102 0.896609 0.793073
O O12 0.455522 0.000000 0.827455
O O13 0.500000 0.861978 0.000000
O O14 0.750000 0.250000 0.000000
O O15 0.833543 0.349768 0.992969
O O16 0.250000 0.250000 0.500000
O O17 0.230367 0.118975 0.636091
O O18 0.805352 0.500000 0.877085
#
# Coordination Sequence:
#
# PCOD8102849 Si02
#       7
#     8   8   8   8   8   8   8
#     4   9  21  38  59  85 114 157 202 245 300 366
#     4  10  23  40  61  90 122 159 206 260 311 362
#     4  10  20  37  59  85 115 153 202 246 296 361
#     4  10  21  37  58  86 119 155 196 243 301 367
#     4  11  22  37  60  87 119 154 206 255 300 370
#     4  11  21  37  62  90 118 159 203 253 309 364
#     4  11  23  38  58  87 124 160 196 248 312 368
#
# _framework density 19.239446000000001
#
# number of rings (size 3 to 8) (size 9 to 14) (size 15 to 20)
#    0.000    1.714    2.857    1.286    2.000    3.143 
#    0.000    0.714    0.000    5.143    0.000    0.000 
#    0.000    0.000    0.000    0.000    0.000    0.000 
#
# Total GULP energy -346918.266849 kJ/mol
# GULP energy per Si atom -12389.938102 kJ/mol
# Density = 1.919566 g / cm^3
# Si number density = 19.239446 Si / 1000 Ang^3
#
#
#
# Elastic Constant Matrix: (Units=GPa)
#
#
# Indices 1 2 3 4 5 6 
#
# 1 96.6777 42.0114 40.5628 0.0000 5.2655 0.0000
# 2 42.0114 78.1195 49.1916 0.0000 -8.0301 0.0000
# 3 40.5628 49.1916 119.6514 0.0000 -9.9817 0.0000
# 4 0.0000 0.0000 0.0000 17.2503 0.0000 13.1689
# 5 5.2655 -8.0301 -9.9817 0.0000 39.1268 0.0000
# 6 0.0000 0.0000 0.0000 13.1689 0.0000 9.3022
#
#
#
# Elastic Compliance Matrix: (Units=1/GPa)
#
#
# Indices 1 2 3 4 5 6 
#
# 1 0.014490 -0.006609 -0.002525 0.000000 -0.003950 0.000000
# 2 -0.006609 0.020408 -0.005851 0.000000 0.003585 0.000000
# 3 -0.002525 -0.005851 0.011798 0.000000 0.002149 0.000000
# 4 0.000000 0.000000 0.000000 -0.718019 0.000000 1.016489
# 5 -0.003950 0.003585 0.002149 0.000000 0.027374 0.000000
# 6 0.000000 0.000000 0.000000 1.016489 0.000000 -1.331525
#
#
# Mechanical properties :
#
#
# Convention : Reuss Voigt Hill
#
# Bulk Modulus (GPa) = 59.78160 61.99780 60.88970
# Shear Modulus (GPa) = -2.57741 23.98137 10.70198
#
# Velocity S-wave (km/s) = -1.15869 3.53437 2.36106
# Velocity P-wave (km/s) = 5.41754 6.99642 6.25699
#
# Compressibility (1/GPa) = 0.01672756
#
# Stress axis : x y z
#
# Youngs Moduli (GPa) = 69.01349 49.00153 84.75938
#
# Poissons Ratio (x) = 0.32383 0.21400
# Poissons Ratio (y) = 0.45609 0.49589
# Poissons Ratio (z) = 0.17424 0.28669
#
# Static dielectric constant tensor:
#      x y z
#    x 3.864470 0.000000 -0.051780 
#    y 0.000000 3.647330 0.000000 
#    z -0.051780 0.000000 3.669560 
# 
# 
# High freq. dielectric constant tensor:
#      x y z
#    x 1.762690 0.000000 0.003380 
#    y 0.000000 1.726940 0.000000 
#    z 0.003380 0.000000 1.763190 
# 
# From -- ./inp_files/98191.got.cif
#   From: 2010.06.25/outbox.cif.g09.slc.cpg/sg12_50_cif.got.tgz:98191.got - 2010.06.28 00:19:55.
