data_PCOD8102597
_publ_section_title
;
Structure prediction by ZEFSAII (Michael W. Deem and Ramdas Pophale) SiO2 
 PCOD8102597
Probable space group: C 2/M
;
_chemical_formula_sum "Si O2"
_cell_formula_units_Z 48
_cell_length_a 28.512420
_cell_length_b 19.718065
_cell_length_c 12.889115
_cell_angle_alpha 90.000000
_cell_angle_beta 161.016492
_cell_angle_gamma 90.000000
_cell_volume 2357.220302
_symmetry_space_group_name_H-M "C 2/M"
_symmetry_group_IT_number 12
_symmetry_cell_setting 'monoclinic'
loop_
_space_group_symop_operation_xyz
x,y,z
-x,y,-z
-x,-y,-z
x,-y,z
1/2+x,1/2+y,z
1/2-x,1/2+y,-z
1/2-x,1/2-y,-z
1/2+x,1/2-y,z
loop_
_atom_site_type_symbol
_atom_site_label
_atom_site_fract_x
_atom_site_fract_y
_atom_site_fract_z
Si Si1 0.820683 0.691279 0.824118
Si Si2 0.010091 0.819281 0.899498
Si Si3 0.493899 0.073767 0.107885
Si Si4 0.839644 0.149777 0.127346
Si Si5 0.699763 0.579831 0.167573
Si Si6 0.862468 0.698442 0.141116
O O1 0.648705 0.698513 0.475416
O O2 0.859652 0.623169 0.845017
O O3 0.895520 0.679719 0.092209
O O4 0.885784 0.755144 0.899206
O O5 0.000000 0.837439 0.000000
O O6 0.073949 0.882017 0.967883
O O7 0.644875 0.104040 0.465420
O O8 0.465156 0.000000 0.100226
O O9 0.500000 0.063111 0.000000
O O10 0.799794 0.225125 0.003198
O O11 0.000000 0.138838 0.500000
O O12 0.804984 0.096398 0.964793
O O13 0.744042 0.142065 0.031745
O O14 0.676372 0.500000 0.135393
O O15 0.000000 0.699216 0.500000
#
# Coordination Sequence:
#
# PCOD8102597 Si02
#       6
#     8   8   8   8   8   8
#     4  12  23  39  64  91 123 158 200 261 297 359
#     4  12  25  40  61  92 124 159 206 252 305 357
#     4  10  22  41  63  87 120 163 203 243 303 366
#     4  10  20  37  57  85 117 155 197 240 298 356
#     4  11  23  41  64  88 124 164 202 249 302 363
#     4  10  21  34  61  86 117 153 195 246 296 358
#
# _framework density 20.362967000000001
#
# number of rings (size 3 to 8) (size 9 to 14) (size 15 to 20)
#    0.000    1.167    1.667    5.000    4.667    1.333 
#    0.000    0.833    0.000    3.000    0.000    0.000 
#    0.000    0.000    0.000    0.000    0.000    0.000 
#
# Total GULP energy -297576.474216 kJ/mol
# GULP energy per Si atom -12399.019759 kJ/mol
# Density = 2.031662 g / cm^3
# Si number density = 20.362967 Si / 1000 Ang^3
#
#
#
# Elastic Constant Matrix: (Units=GPa)
#
#
# Indices 1 2 3 4 5 6 
#
# 1 86.4545 29.1151 8.4530 0.0000 -5.8371 0.0000
# 2 29.1151 97.0156 27.5508 0.0000 14.4226 0.0000
# 3 8.4530 27.5508 96.6535 0.0000 3.6521 0.0000
# 4 0.0000 0.0000 0.0000 -5.4901 0.0000 6.9656
# 5 -5.8371 14.4226 3.6521 0.0000 40.6562 0.0000
# 6 0.0000 0.0000 0.0000 6.9656 0.0000 36.5824
#
#
#
# Elastic Compliance Matrix: (Units=1/GPa)
#
#
# Indices 1 2 3 4 5 6 
#
# 1 0.013327 -0.004520 -0.000010 0.000000 0.003518 0.000000
# 2 -0.004520 0.013333 -0.003213 0.000000 -0.005090 0.000000
# 3 -0.000010 -0.003213 0.011258 0.000000 0.000127 0.000000
# 4 0.000000 0.000000 0.000000 -0.146705 0.000000 0.027934
# 5 0.003518 -0.005090 0.000127 0.000000 0.026896 0.000000
# 6 0.000000 0.000000 0.000000 0.027934 0.000000 0.022017
#
#
# Mechanical properties :
#
#
# Convention : Reuss Voigt Hill
#
# Bulk Modulus (GPa) = 44.57709 45.59570 45.08640
# Shear Modulus (GPa) = -135.46287 28.68334 -53.38976
#
# Velocity S-wave (km/s) = -8.16508 3.75721 -5.12601
# Velocity P-wave (km/s) = 8.18246 6.42357 3.58402
#
# Compressibility (1/GPa) = 0.02243305
#
# Stress axis : x y z
#
# Youngs Moduli (GPa) = 75.03350 75.00092 88.82443
#
# Poissons Ratio (x) = 0.33898 0.00090
# Poissons Ratio (y) = 0.33913 0.28539
# Poissons Ratio (z) = 0.00076 0.24097
#
# Static dielectric constant tensor:
#      x y z
#    x 3.711370 0.000000 -0.116930 
#    y 0.000000 3.672220 0.000000 
#    z -0.116930 0.000000 3.853460 
# 
# 
# High freq. dielectric constant tensor:
#      x y z
#    x 1.805840 0.000000 -0.004860 
#    y 0.000000 1.777790 0.000000 
#    z -0.004860 0.000000 1.806430 
# 
# From -- ./inp_files/184827.got.cif
#   From: 2010.06.25/outbox.cif.g09.slc.cpg/sg12_93_cif.got.tgz:184827.got - 2010.06.28 00:19:55.
