data_PCOD8102184
_publ_section_title
;
Structure prediction by ZEFSAII (Michael W. Deem and Ramdas Pophale) SiO2 
 PCOD8102184
Probable space group: C 2/M
;
_chemical_formula_sum "Si O2"
_cell_formula_units_Z 48
_cell_length_a 9.031339
_cell_length_b 18.558838
_cell_length_c 18.701599
_cell_angle_alpha 90.000000
_cell_angle_beta 52.765647
_cell_angle_gamma 90.000000
_cell_volume 2495.663272
_symmetry_space_group_name_H-M "C 2/M"
_symmetry_group_IT_number 12
_symmetry_cell_setting 'monoclinic'
loop_
_space_group_symop_operation_xyz
x,y,z
-x,y,-z
-x,-y,-z
x,-y,z
1/2+x,1/2+y,z
1/2-x,1/2+y,-z
1/2-x,1/2-y,-z
1/2+x,1/2-y,z
loop_
_atom_site_type_symbol
_atom_site_label
_atom_site_fract_x
_atom_site_fract_y
_atom_site_fract_z
Si Si1 0.522313 0.416078 0.128845
Si Si2 0.688038 0.826988 0.245266
Si Si3 0.596640 0.081430 0.047966
Si Si4 0.355861 0.082734 0.602437
Si Si5 0.938858 0.081644 0.720177
Si Si6 0.621854 0.822566 0.777797
O O1 0.480140 0.500000 0.144026
O O2 0.329879 0.378936 0.160501
O O3 0.573894 0.389798 0.194150
O O4 0.686584 0.397565 0.025738
O O5 0.621994 0.863358 0.338090
O O6 0.499570 0.813118 0.257498
O O7 0.804017 0.754553 0.221077
O O8 0.504758 0.140903 0.124635
O O9 0.579061 0.000000 0.084914
O O10 0.500000 0.083067 0.000000
O O11 0.500000 0.107151 0.500000
O O12 0.148779 0.089321 0.630080
O O13 0.392153 0.000000 0.616536
O O14 0.801875 0.127779 0.710207
O O15 0.867762 0.000000 0.737394
#
# Coordination Sequence:
#
# PCOD8102184 Si02
#       6
#     8   8   8   8   8   8
#     4   9  18  36  58  82 113 152 195 241 291 340
#     4  11  24  39  56  84 120 157 195 239 292 350
#     4  10  20  36  61  86 112 153 204 247 286 339
#     4   9  19  40  69  94 116 146 185 233 290 353
#     4   9  17  34  60  85 114 151 190 235 289 346
#     4  12  24  38  55  83 120 160 202 237 290 340
#
# _framework density 19.233364000000002
#
# number of rings (size 3 to 8) (size 9 to 14) (size 15 to 20)
#    0.000    2.000    1.667    4.000    0.000    4.000 
#    0.000    5.833    0.000    3.000    0.000    0.000 
#    0.000    0.000    0.000    0.000    0.000    0.000 
#
# Total GULP energy -297551.406011 kJ/mol
# GULP energy per Si atom -12397.975250 kJ/mol
# Density = 1.918959 g / cm^3
# Si number density = 19.233364 Si / 1000 Ang^3
#
#
#
# Elastic Constant Matrix: (Units=GPa)
#
#
# Indices 1 2 3 4 5 6 
#
# 1 123.7500 52.3057 37.7841 -0.0002 -10.6864 0.0001
# 2 52.3057 101.4206 59.8085 0.0000 -4.7919 0.0000
# 3 37.7841 59.8085 117.2439 -0.0001 -21.4032 0.0000
# 4 -0.0002 0.0000 -0.0001 11.4653 0.0001 3.4681
# 5 -10.6864 -4.7919 -21.4032 0.0001 22.6465 0.0000
# 6 0.0001 0.0000 0.0000 3.4681 0.0000 33.2562
#
#
#
# Elastic Compliance Matrix: (Units=1/GPa)
#
#
# Indices 1 2 3 4 5 6 
#
# 1 0.010665 -0.005304 -0.000021 0.000000 0.003890 0.000000
# 2 -0.005304 0.017150 -0.008258 0.000000 -0.006679 0.000000
# 3 -0.000021 -0.008258 0.015019 0.000000 0.012437 0.000000
# 4 0.000000 0.000000 0.000000 0.090060 0.000000 -0.009392
# 5 0.003890 -0.006679 0.012437 0.000000 0.056334 0.000000
# 6 0.000000 0.000000 0.000000 -0.009392 0.000000 0.031049
#
#
# Mechanical properties :
#
#
# Convention : Reuss Voigt Hill
#
# Bulk Modulus (GPa) = 63.82839 71.35679 67.59259
# Shear Modulus (GPa) = 19.78887 26.30801 23.04844
#
# Velocity S-wave (km/s) = 3.21110 3.70243 3.46549
# Velocity P-wave (km/s) = 6.85613 7.44704 7.15769
#
# Compressibility (1/GPa) = 0.01566701
#
# Stress axis : x y z
#
# Youngs Moduli (GPa) = 93.76393 58.30945 66.58090
#
# Poissons Ratio (x) = 0.30927 0.00141
# Poissons Ratio (y) = 0.49733 0.54986
# Poissons Ratio (z) = 0.00198 0.48155
#
# Static dielectric constant tensor:
#      x y z
#    x 3.654820 0.000000 -0.311210 
#    y 0.000000 3.572390 0.000000 
#    z -0.311210 0.000000 3.416420 
# 
# 
# High freq. dielectric constant tensor:
#      x y z
#    x 1.748500 0.000000 -0.027010 
#    y 0.000000 1.751810 0.000000 
#    z -0.027010 0.000000 1.723090 
# 
# From -- ./inp_files/256450.got.cif
#   From: 2010.06.25/outbox.cif.g09.slc.cpg/sg12_129_cif.got.tgz:256450.got - 2010.06.28 00:19:55.
