data_PCOD8102881
_publ_section_title
;
Structure prediction by ZEFSAII (Michael W. Deem and Ramdas Pophale) SiO2 
 PCOD8102881
Probable space group: C 2/M
;
_chemical_formula_sum "Si O2"
_cell_formula_units_Z 64
_cell_length_a 24.029542
_cell_length_b 8.706317
_cell_length_c 15.235332
_cell_angle_alpha 90.000000
_cell_angle_beta 89.544398
_cell_angle_gamma 90.000000
_cell_volume 3187.264909
_symmetry_space_group_name_H-M "C 2/M"
_symmetry_group_IT_number 12
_symmetry_cell_setting 'monoclinic'
loop_
_space_group_symop_operation_xyz
x,y,z
-x,y,-z
-x,-y,-z
x,-y,z
1/2+x,1/2+y,z
1/2-x,1/2+y,-z
1/2-x,1/2-y,-z
1/2+x,1/2-y,z
loop_
_atom_site_type_symbol
_atom_site_label
_atom_site_fract_x
_atom_site_fract_y
_atom_site_fract_z
Si Si1 0.958660 0.181872 0.922139
Si Si2 0.596379 0.181010 0.416819
Si Si3 0.016596 0.317711 0.267238
Si Si4 0.212972 0.827393 0.427550
Si Si5 0.163334 0.319433 0.050856
Si Si6 0.916136 0.682508 0.390486
Si Si7 0.768644 0.317949 0.121117
Si Si8 0.809974 0.672207 0.298655
O O1 0.980924 0.241683 0.828289
O O2 0.896514 0.241355 0.939952
O O3 0.957177 0.000000 0.918998
O O4 0.000000 0.238271 0.000000
O O5 0.564995 0.245968 0.331323
O O6 0.660296 0.223875 0.407930
O O7 0.572122 0.245294 0.510567
O O8 0.589060 0.000000 0.415545
O O9 0.019717 0.500000 0.253943
O O10 0.960693 0.265253 0.317874
O O11 0.250000 0.750000 0.500000
O O12 0.248960 0.829407 0.339705
O O13 0.195680 0.000000 0.455518
O O14 0.154425 0.500000 0.060997
O O15 0.207572 0.260281 0.122215
O O16 0.191813 0.270825 0.959361
O O17 0.914560 0.500000 0.398738
O O18 0.856638 0.752854 0.359112
O O19 0.759128 0.500000 0.126405
O O20 0.802566 0.250574 0.203760
O O21 0.832364 0.500000 0.283761
#
# Coordination Sequence:
#
# PCOD8102881 Si02
#       8
#     8   8   8   8   8   8   8   8
#     4  11  26  45  62  82 117 160 197 242 304 359
#     4  10  20  37  59  88 122 154 191 238 291 353
#     4  10  22  38  64  93 114 147 199 248 292 343
#     4  11  21  35  55  82 116 157 196 234 284 340
#     4  10  21  38  62  89 116 148 192 243 296 352
#     4   9  17  34  60  87 118 153 192 240 289 341
#     4   9  19  36  60  89 118 151 190 238 296 356
#     4   9  18  32  55  84 112 151 193 231 285 346
#
# _framework density 20.079912
#
# number of rings (size 3 to 8) (size 9 to 14) (size 15 to 20)
#    0.000    2.125    1.250    1.500    3.500    3.500 
#    0.000    1.250    0.000    1.500    0.000    0.000 
#    0.000    0.000    0.000    0.000    0.000    0.000 
#
# Total GULP energy -396578.554975 kJ/mol
# GULP energy per Si atom -12393.079843 kJ/mol
# Density = 2.003421 g / cm^3
# Si number density = 20.079912 Si / 1000 Ang^3
#
#
#
# Elastic Constant Matrix: (Units=GPa)
#
#
# Indices 1 2 3 4 5 6 
#
# 1 129.8487 17.3223 68.6403 0.0000 4.6586 0.0000
# 2 17.3223 31.3139 32.7066 0.0000 0.7357 0.0000
# 3 68.6403 32.7066 155.0301 0.0000 20.2345 0.0000
# 4 0.0000 0.0000 0.0000 21.3455 0.0000 -0.1485
# 5 4.6586 0.7357 20.2345 0.0000 31.3627 0.0000
# 6 0.0000 0.0000 0.0000 -0.1485 0.0000 25.7721
#
#
#
# Elastic Compliance Matrix: (Units=1/GPa)
#
#
# Indices 1 2 3 4 5 6 
#
# 1 0.010143 -0.000978 -0.004467 0.000000 0.001398 0.000000
# 2 -0.000978 0.041797 -0.009037 0.000000 0.004995 0.000000
# 3 -0.004467 -0.009037 0.011160 0.000000 -0.006325 0.000000
# 4 0.000000 0.000000 0.000000 0.046850 0.000000 0.000270
# 5 0.001398 0.004995 -0.006325 0.000000 0.035641 0.000000
# 6 0.000000 0.000000 0.000000 0.000270 0.000000 0.038803
#
#
# Mechanical properties :
#
#
# Convention : Reuss Voigt Hill
#
# Bulk Modulus (GPa) = 29.29427 61.50348 45.39887
# Shear Modulus (GPa) = 22.24823 28.86427 25.55625
#
# Velocity S-wave (km/s) = 3.33225 3.79551 3.57140
# Velocity P-wave (km/s) = 5.42455 7.06426 6.29799
#
# Compressibility (1/GPa) = 0.03413637
#
# Stress axis : x y z
#
# Youngs Moduli (GPa) = 98.59101 23.92509 89.60460
#
# Poissons Ratio (x) = 0.02340 0.40026
# Poissons Ratio (y) = 0.09643 0.80974
# Poissons Ratio (z) = 0.44040 0.21621
#
# Static dielectric constant tensor:
#      x y z
#    x 3.883270 0.000000 0.108090 
#    y 0.000000 3.372670 0.000000 
#    z 0.108090 0.000000 3.985050 
# 
# 
# High freq. dielectric constant tensor:
#      x y z
#    x 1.793190 0.000000 0.005500 
#    y 0.000000 1.748950 0.000000 
#    z 0.005500 0.000000 1.798850 
# 
# From -- ./inp_files/238768.got.cif
#   From: 2010.06.25/outbox.cif.g09.slc.cpg/sg12_120_cif.got.tgz:238768.got - 2010.06.28 00:19:55.
