data_PCOD8102136
_publ_section_title
;
Structure prediction by ZEFSAII (Michael W. Deem and Ramdas Pophale) SiO2 
 PCOD8102136
Probable space group: C 2/M
;
_chemical_formula_sum "Si O2"
_cell_formula_units_Z 56
_cell_length_a 13.453245
_cell_length_b 25.089429
_cell_length_c 9.265562
_cell_angle_alpha 90.000000
_cell_angle_beta 66.275956
_cell_angle_gamma 90.000000
_cell_volume 2863.156058
_symmetry_space_group_name_H-M "C 2/M"
_symmetry_group_IT_number 12
_symmetry_cell_setting 'monoclinic'
loop_
_space_group_symop_operation_xyz
x,y,z
-x,y,-z
-x,-y,-z
x,-y,z
1/2+x,1/2+y,z
1/2-x,1/2+y,-z
1/2-x,1/2-y,-z
1/2+x,1/2-y,z
loop_
_atom_site_type_symbol
_atom_site_label
_atom_site_fract_x
_atom_site_fract_y
_atom_site_fract_z
Si Si1 0.885795 0.283007 0.504345
Si Si2 0.278417 0.866897 0.098830
Si Si3 0.815421 0.439944 0.325966
Si Si4 0.679435 0.238228 0.767256
Si Si5 0.930560 0.439069 0.818554
Si Si6 0.624817 0.649751 0.931634
Si Si7 0.697416 0.898087 0.365234
O O1 0.800327 0.244723 0.633484
O O2 0.895453 0.273808 0.327209
O O3 0.858520 0.343781 0.552832
O O4 0.000000 0.265927 0.500000
O O5 0.249149 0.900935 0.258316
O O6 0.325302 0.809651 0.116125
O O7 0.371521 0.898086 0.958389
O O8 0.170944 0.858549 0.065904
O O9 0.793305 0.500000 0.288795
O O10 0.771276 0.432394 0.513425
O O11 0.942766 0.425910 0.248008
O O12 0.636038 0.289174 0.877734
O O13 0.907872 0.500000 0.880343
O O14 0.888156 0.430882 0.680842
O O15 0.691040 0.611926 0.784819
O O16 0.500000 0.631896 0.000000
#
# Coordination Sequence:
#
# PCOD8102136 Si02
#       7
#     8   8   8   8   8   8   8
#     4  10  20  36  60  90 123 151 190 245 288 332
#     4  11  22  38  57  86 123 152 192 240 288 342
#     4  11  21  36  61  91 119 152 190 235 295 352
#     4  10  22  38  57  88 118 154 202 234 283 348
#     4  10  21  36  58  90 125 157 186 228 292 355
#     4  10  24  42  60  82 113 156 200 240 290 346
#     4  10  20  38  61  88 120 152 195 236 284 347
#
# _framework density 19.558834999999998
#
# number of rings (size 3 to 8) (size 9 to 14) (size 15 to 20)
#    0.000    1.714    1.429    3.000    2.000    3.429 
#    2.571    0.714    0.000   16.286    0.000    0.000 
#    0.000    0.000    0.000    0.000    0.000    0.000 
#
# Total GULP energy -347303.652264 kJ/mol
# GULP energy per Si atom -12403.701867 kJ/mol
# Density = 1.951432 g / cm^3
# Si number density = 19.558835 Si / 1000 Ang^3
#
#
#
# Elastic Constant Matrix: (Units=GPa)
#
#
# Indices 1 2 3 4 5 6 
#
# 1 130.1130 39.7355 52.3116 0.0000 17.7760 0.0000
# 2 39.7355 80.6283 31.5686 0.0000 2.6873 0.0000
# 3 52.3116 31.5686 94.2704 0.0000 24.7789 0.0000
# 4 0.0000 0.0000 0.0000 21.7904 0.0000 9.5377
# 5 17.7760 2.6873 24.7789 0.0000 25.1133 0.0000
# 6 0.0000 0.0000 0.0000 9.5377 0.0000 14.2324
#
#
#
# Elastic Compliance Matrix: (Units=1/GPa)
#
#
# Indices 1 2 3 4 5 6 
#
# 1 0.010848 -0.003718 -0.003863 0.000000 -0.003470 0.000000
# 2 -0.003718 0.015902 -0.004734 0.000000 0.005601 0.000000
# 3 -0.003863 -0.004734 0.018207 0.000000 -0.014724 0.000000
# 4 0.000000 0.000000 0.000000 0.064940 0.000000 -0.043518
# 5 -0.003470 0.005601 -0.014724 0.000000 0.056204 0.000000
# 6 0.000000 0.000000 0.000000 -0.043518 0.000000 0.099425
#
#
# Mechanical properties :
#
#
# Convention : Reuss Voigt Hill
#
# Bulk Modulus (GPa) = 49.19662 61.36034 55.27848
# Shear Modulus (GPa) = 16.83894 24.32030 20.57962
#
# Velocity S-wave (km/s) = 2.93736 3.53007 3.24727
# Velocity P-wave (km/s) = 6.05903 6.93221 6.51028
#
# Compressibility (1/GPa) = 0.02032660
#
# Stress axis : x y z
#
# Youngs Moduli (GPa) = 92.18199 62.88553 54.92517
#
# Poissons Ratio (x) = 0.23382 0.21215
# Poissons Ratio (y) = 0.34275 0.26002
# Poissons Ratio (z) = 0.35606 0.29771
#
# Static dielectric constant tensor:
#      x y z
#    x 3.472380 0.000000 0.260430 
#    y 0.000000 3.620040 0.000000 
#    z 0.260430 0.000000 3.732200 
# 
# 
# High freq. dielectric constant tensor:
#      x y z
#    x 1.742540 0.000000 0.021090 
#    y 0.000000 1.766130 0.000000 
#    z 0.021090 0.000000 1.772840 
# 
# From -- ./inp_files/65279.got.cif
#   From: 2010.06.25/outbox.cif.g09.slc.cpg/sg12_33_cif.got.tgz:65279.got - 2010.06.28 00:19:55.
