data_PCOD8102798
_publ_section_title
;
Structure prediction by ZEFSAII (Michael W. Deem and Ramdas Pophale) SiO2 
 PCOD8102798
Probable space group: C 2/M
;
_chemical_formula_sum "Si O2"
_cell_formula_units_Z 48
_cell_length_a 8.951918
_cell_length_b 10.361254
_cell_length_c 26.018209
_cell_angle_alpha 90.000000
_cell_angle_beta 75.730077
_cell_angle_gamma 90.000000
_cell_volume 2338.808636
_symmetry_space_group_name_H-M "C 2/M"
_symmetry_group_IT_number 12
_symmetry_cell_setting 'monoclinic'
loop_
_space_group_symop_operation_xyz
x,y,z
-x,y,-z
-x,-y,-z
x,-y,z
1/2+x,1/2+y,z
1/2-x,1/2+y,-z
1/2-x,1/2-y,-z
1/2+x,1/2-y,z
loop_
_atom_site_type_symbol
_atom_site_label
_atom_site_fract_x
_atom_site_fract_y
_atom_site_fract_z
Si Si1 0.676242 0.142717 0.971137
Si Si2 0.447821 0.852497 0.795624
Si Si3 0.280922 0.356738 0.454693
Si Si4 0.711423 0.145745 0.850145
Si Si5 0.063830 0.274027 0.384968
Si Si6 0.353422 0.857406 0.316028
O O1 0.698713 0.184878 0.910475
O O2 0.750100 0.000000 0.974212
O O3 0.500000 0.135204 0.000000
O O4 0.750000 0.250000 0.000000
O O5 0.541179 0.849863 0.840832
O O6 0.309252 0.752103 0.811650
O O7 0.551707 0.799520 0.739728
O O8 0.389162 0.000000 0.789824
O O9 0.276482 0.500000 0.479647
O O10 0.250000 0.250000 0.500000
O O11 0.145020 0.351687 0.424013
O O12 0.451451 0.337234 0.416711
O O13 0.779772 0.000000 0.837872
O O14 0.196295 0.219510 0.337045
O O15 0.956236 0.364342 0.359098
O O16 0.302272 0.000000 0.305063
#
# Coordination Sequence:
#
# PCOD8102798 Si02
#       6
#     8   8   8   8   8   8
#     4  10  21  37  57  81 111 147 188 234 281 331
#     4  10  21  37  59  85 113 148 187 228 277 333
#     4  11  24  40  60  86 115 149 188 230 278 331
#     4  10  21  37  56  82 115 148 185 231 281 332
#     4  10  22  38  59  84 114 147 185 230 277 327
#     4  10  20  37  59  83 112 146 185 228 275 328
#
# _framework density 20.523268000000002
#
# number of rings (size 3 to 8) (size 9 to 14) (size 15 to 20)
#    0.000    1.833    0.000    3.500    0.000    8.333 
#    0.000    4.167    0.000    0.000    0.000    0.000 
#    0.000    0.000    0.000    0.000    0.000    0.000 
#
# Total GULP energy -297536.593783 kJ/mol
# GULP energy per Si atom -12397.358074 kJ/mol
# Density = 2.047656 g / cm^3
# Si number density = 20.523268 Si / 1000 Ang^3
#
#
#
# Elastic Constant Matrix: (Units=GPa)
#
#
# Indices 1 2 3 4 5 6 
#
# 1 66.7836 22.8420 9.4468 0.0000 -4.2006 0.0000
# 2 22.8420 107.0005 32.6443 0.0000 -9.1434 0.0000
# 3 9.4468 32.6443 90.1688 0.0000 -3.6661 0.0000
# 4 0.0000 0.0000 0.0000 32.7682 0.0000 -1.9190
# 5 -4.2006 -9.1434 -3.6661 0.0000 33.9338 0.0000
# 6 0.0000 0.0000 0.0000 -1.9190 0.0000 5.7781
#
#
#
# Elastic Compliance Matrix: (Units=1/GPa)
#
#
# Indices 1 2 3 4 5 6 
#
# 1 0.016212 -0.003219 -0.000489 0.000000 0.001087 0.000000
# 2 -0.003219 0.011349 -0.003679 0.000000 0.002262 0.000000
# 3 -0.000489 -0.003679 0.012486 0.000000 0.000297 0.000000
# 4 0.000000 0.000000 0.000000 0.031123 0.000000 0.010336
# 5 0.001087 0.002262 0.000297 0.000000 0.030245 0.000000
# 6 0.000000 0.000000 0.000000 0.010336 0.000000 0.176500
#
#
# Mechanical properties :
#
#
# Convention : Reuss Voigt Hill
#
# Bulk Modulus (GPa) = 39.56942 43.75768 41.66355
# Shear Modulus (GPa) = 16.60506 27.76401 22.18453
#
# Velocity S-wave (km/s) = 2.84753 3.68204 3.29134
# Velocity P-wave (km/s) = 5.48938 6.28044 5.89819
#
# Compressibility (1/GPa) = 0.02527204
#
# Stress axis : x y z
#
# Youngs Moduli (GPa) = 61.68193 88.11554 80.09159
#
# Poissons Ratio (x) = 0.28363 0.03916
# Poissons Ratio (y) = 0.19855 0.29469
# Poissons Ratio (z) = 0.03016 0.32422
#
# Static dielectric constant tensor:
#      x y z
#    x 3.638930 0.000000 0.003210 
#    y 0.000000 3.927120 0.000000 
#    z 0.003210 0.000000 3.845650 
# 
# 
# High freq. dielectric constant tensor:
#      x y z
#    x 1.796680 0.000000 0.002110 
#    y 0.000000 1.800410 0.000000 
#    z 0.002110 0.000000 1.814870 
# 
# From -- ./inp_files/331978.got.cif
#   From: 2010.06.25/outbox.cif.g09.slc.cpg/sg12_166_cif.got.tgz:331978.got - 2010.06.28 00:19:55.
