data_PCOD8102582
_publ_section_title
;
Structure prediction by ZEFSAII (Michael W. Deem and Ramdas Pophale) SiO2 
 PCOD8102582
Probable space group: C 2/M
;
_chemical_formula_sum "Si O2"
_cell_formula_units_Z 56
_cell_length_a 13.530818
_cell_length_b 17.050027
_cell_length_c 13.057051
_cell_angle_alpha 90.000000
_cell_angle_beta 62.321399
_cell_angle_gamma 90.000000
_cell_volume 2667.569444
_symmetry_space_group_name_H-M "C 2/M"
_symmetry_group_IT_number 12
_symmetry_cell_setting 'monoclinic'
loop_
_space_group_symop_operation_xyz
x,y,z
-x,y,-z
-x,-y,-z
x,-y,z
1/2+x,1/2+y,z
1/2-x,1/2+y,-z
1/2-x,1/2-y,-z
1/2+x,1/2-y,z
loop_
_atom_site_type_symbol
_atom_site_label
_atom_site_fract_x
_atom_site_fract_y
_atom_site_fract_z
Si Si1 0.602407 0.668908 0.885845
Si Si2 0.615915 0.839233 0.962919
Si Si3 0.345064 0.177645 0.819637
Si Si4 0.267354 0.591816 0.560850
Si Si5 0.326324 0.647624 0.750213
Si Si6 0.940595 0.088870 0.302051
Si Si7 0.025443 0.407383 0.600759
O O1 0.602486 0.762419 0.898015
O O2 0.723425 0.637192 0.863700
O O3 0.583910 0.648882 0.776775
O O4 0.500000 0.630909 0.000000
O O5 0.723517 0.885748 0.868983
O O6 0.500000 0.887721 0.000000
O O7 0.632426 0.813420 0.071265
O O8 0.351925 0.262644 0.765250
O O9 0.437148 0.122905 0.725294
O O10 0.267524 0.500000 0.588937
O O11 0.294152 0.642707 0.647323
O O12 0.360934 0.612666 0.433245
O O13 0.148637 0.619372 0.573844
O O14 0.432425 0.594037 0.721834
O O15 0.915911 0.000000 0.277913
O O16 0.015014 0.500000 0.604203
O O17 0.000000 0.373075 0.500000
#
# Coordination Sequence:
#
# PCOD8102582 Si02
#       7
#     8   8   8   8   8   8   8
#     4  10  20  37  57  82 115 152 191 232 284 343
#     4  10  20  38  61  85 117 152 189 238 292 345
#     4  11  22  38  62  90 118 151 192 241 295 345
#     4  10  22  40  60  83 116 159 199 238 288 344
#     4  11  21  37  60  88 119 153 195 240 290 346
#     4  11  23  39  59  84 119 159 197 239 287 344
#     4  10  22  42  64  86 116 153 195 242 291 345
#
# _framework density 20.992892999999999
#
# number of rings (size 3 to 8) (size 9 to 14) (size 15 to 20)
#    0.000    1.571    0.000    6.857    0.000    5.429 
#    0.000    7.143    0.000    3.857    0.000    0.000 
#    0.000    0.000    0.000    0.000    0.000    0.000 
#
# Total GULP energy -347233.004482 kJ/mol
# GULP energy per Si atom -12401.178731 kJ/mol
# Density = 2.094511 g / cm^3
# Si number density = 20.992893 Si / 1000 Ang^3
#
#
#
# Elastic Constant Matrix: (Units=GPa)
#
#
# Indices 1 2 3 4 5 6 
#
# 1 170.8961 26.7818 80.7273 0.0000 -14.3088 0.0000
# 2 26.7818 24.0267 36.5281 0.0000 5.7544 0.0000
# 3 80.7273 36.5281 159.9576 0.0000 -3.0598 0.0000
# 4 0.0000 0.0000 0.0000 16.0199 0.0000 1.6552
# 5 -14.3088 5.7544 -3.0598 0.0000 56.8190 0.0000
# 6 0.0000 0.0000 0.0000 1.6552 0.0000 14.0393
#
#
#
# Elastic Compliance Matrix: (Units=1/GPa)
#
#
# Indices 1 2 3 4 5 6 
#
# 1 0.008274 -0.005422 -0.002890 0.000000 0.002477 0.000000
# 2 -0.005422 0.070436 -0.013525 0.000000 -0.009227 0.000000
# 3 -0.002890 -0.013525 0.010822 0.000000 0.001225 0.000000
# 4 0.000000 0.000000 0.000000 0.063192 0.000000 -0.007450
# 5 0.002477 -0.009227 0.001225 0.000000 0.019224 0.000000
# 6 0.000000 0.000000 0.000000 -0.007450 0.000000 0.072107
#
#
# Mechanical properties :
#
#
# Convention : Reuss Voigt Hill
#
# Bulk Modulus (GPa) = 21.80638 71.43942 46.62290
# Shear Modulus (GPa) = 16.50078 31.43186 23.96632
#
# Velocity S-wave (km/s) = 2.80664 3.87364 3.38248
# Velocity P-wave (km/s) = 4.57308 7.35602 6.12471
#
# Compressibility (1/GPa) = 0.04585813
#
# Stress axis : x y z
#
# Youngs Moduli (GPa) = 120.86329 14.19722 92.40244
#
# Poissons Ratio (x) = 0.07698 0.26705
# Poissons Ratio (y) = 0.65532 1.24975
# Poissons Ratio (z) = 0.34930 0.19202
#
# Static dielectric constant tensor:
#      x y z
#    x 4.412270 0.000000 -0.340800 
#    y 0.000000 3.337750 0.000000 
#    z -0.340800 0.000000 4.021980 
# 
# 
# High freq. dielectric constant tensor:
#      x y z
#    x 1.851590 0.000000 -0.008920 
#    y 0.000000 1.782340 0.000000 
#    z -0.008920 0.000000 1.838670 
# 
# From -- ./inp_files/146028.got.cif
#   From: 2010.06.25/outbox.cif.g09.slc.cpg/sg12_74_cif.got.tgz:146028.got - 2010.06.28 00:19:55.
