data_PCOD8102974
_publ_section_title
;
Structure prediction by ZEFSAII (Michael W. Deem and Ramdas Pophale) SiO2 
 PCOD8102974
Probable space group: C 2/M
;
_chemical_formula_sum "Si O2"
_cell_formula_units_Z 56
_cell_length_a 27.684767
_cell_length_b 9.272539
_cell_length_c 18.041697
_cell_angle_alpha 90.000000
_cell_angle_beta 36.949385
_cell_angle_gamma 90.000000
_cell_volume 2784.007208
_symmetry_space_group_name_H-M "C 2/M"
_symmetry_group_IT_number 12
_symmetry_cell_setting 'monoclinic'
loop_
_space_group_symop_operation_xyz
x,y,z
-x,y,-z
-x,-y,-z
x,-y,z
1/2+x,1/2+y,z
1/2-x,1/2+y,-z
1/2-x,1/2-y,-z
1/2+x,1/2-y,z
loop_
_atom_site_type_symbol
_atom_site_label
_atom_site_fract_x
_atom_site_fract_y
_atom_site_fract_z
Si Si1 0.499345 0.159707 0.087310
Si Si2 0.820542 0.660421 0.117739
Si Si3 0.229673 0.161091 0.684451
Si Si4 0.401867 0.838637 0.433722
Si Si5 0.209012 0.174669 0.121497
Si Si6 0.627968 0.332718 0.675553
Si Si7 0.042173 0.671288 0.369951
O O1 0.450864 0.287626 0.183500
O O2 0.461717 0.000000 0.147723
O O3 0.500000 0.191063 0.000000
O O4 0.586530 0.164337 0.018790
O O5 0.790637 0.500000 0.171849
O O6 0.813771 0.745239 0.201795
O O7 0.767682 0.722439 0.115912
O O8 0.325010 0.165068 0.582348
O O9 0.205181 0.213252 0.631076
O O10 0.195780 0.000000 0.735313
O O11 0.374771 0.742034 0.399593
O O12 0.479180 0.783552 0.383312
O O13 0.418017 0.000000 0.384654
O O14 0.122021 0.238829 0.251351
O O15 0.204039 0.000000 0.116769
O O16 0.250000 0.250000 0.000000
O O17 0.626747 0.500000 0.660061
O O18 0.061119 0.500000 0.346097
O O19 0.000000 0.714312 0.500000
#
# Coordination Sequence:
#
# PCOD8102974 Si02
#       7
#     8   8   8   8   8   8   8
#     4  10  20  37  60  84 114 156 197 235 288 355
#     4  10  22  39  61  87 116 155 200 242 292 358
#     4  10  21  38  60  88 120 156 197 242 293 353
#     4  10  22  39  61  86 117 159 199 239 295 361
#     4  11  25  43  64  93 128 163 206 260 316 371
#     4  11  23  36  55  88 124 154 193 244 295 347
#     4  10  22  43  69  93 120 160 213 263 312 373
#
# _framework density 20.114889999999999
#
# number of rings (size 3 to 8) (size 9 to 14) (size 15 to 20)
#    0.000    1.714    1.429    2.143    2.000    5.143 
#    0.000    0.000    0.000    0.000    0.000    0.000 
#    0.000    0.000    0.000    0.000    0.000    0.000 
#
# Total GULP energy -347031.460782 kJ/mol
# GULP energy per Si atom -12393.980742 kJ/mol
# Density = 2.006911 g / cm^3
# Si number density = 20.114890 Si / 1000 Ang^3
#
#
#
# Elastic Constant Matrix: (Units=GPa)
#
#
# Indices 1 2 3 4 5 6 
#
# 1 134.1454 52.3317 42.4039 -0.0043 -8.4401 0.0019
# 2 52.3317 65.8699 35.5374 -0.0096 1.3724 0.0066
# 3 42.4039 35.5374 88.9377 -0.0030 -6.4224 0.0030
# 4 -0.0043 -0.0096 -0.0030 32.5710 0.0044 -2.7324
# 5 -8.4401 1.3724 -6.4224 0.0044 34.7832 -0.0027
# 6 0.0019 0.0066 0.0030 -2.7324 -0.0027 29.9626
#
#
#
# Elastic Compliance Matrix: (Units=1/GPa)
#
#
# Indices 1 2 3 4 5 6 
#
# 1 0.011393 -0.008009 -0.002036 -0.000001 0.002704 0.000001
# 2 -0.008009 0.025155 -0.006532 0.000006 -0.004142 -0.000004
# 3 -0.002036 -0.006532 0.015008 -0.000001 0.002535 0.000000
# 4 -0.000001 0.000006 -0.000001 0.030939 -0.000004 0.002821
# 5 0.002704 -0.004142 0.002535 -0.000004 0.030037 0.000003
# 6 0.000001 -0.000004 0.000000 0.002821 0.000003 0.033632
#
#
# Mechanical properties :
#
#
# Convention : Reuss Voigt Hill
#
# Bulk Modulus (GPa) = 54.34522 61.05544 57.70033
# Shear Modulus (GPa) = 26.96126 30.04203 28.50164
#
# Velocity S-wave (km/s) = 3.66507 3.86880 3.76831
# Velocity P-wave (km/s) = 6.70719 7.09761 6.90516
#
# Compressibility (1/GPa) = 0.01840088
#
# Stress axis : x y z
#
# Youngs Moduli (GPa) = 87.77411 39.75422 66.63245
#
# Poissons Ratio (x) = 0.31839 0.13569
# Poissons Ratio (y) = 0.70298 0.43522
# Poissons Ratio (z) = 0.17874 0.25966
#
# Static dielectric constant tensor:
#      x y z
#    x 3.914110 -0.000010 -0.134980 
#    y -0.000010 3.657480 0.000000 
#    z -0.134980 0.000000 3.799300 
# 
# 
# High freq. dielectric constant tensor:
#      x y z
#    x 1.802150 0.000000 -0.007280 
#    y 0.000000 1.780690 0.000000 
#    z -0.007280 0.000000 1.783170 
# 
# From -- ./inp_files/292425.got.cif
#   From: 2010.06.25/outbox.cif.g09.slc.cpg/sg12_147_cif.got.tgz:292425.got - 2010.06.28 00:19:55.
