data_PCOD8102891
_publ_section_title
;
Structure prediction by ZEFSAII (Michael W. Deem and Ramdas Pophale) SiO2 
 PCOD8102891
Probable space group: C 2/M
;
_chemical_formula_sum "Si O2"
_cell_formula_units_Z 36
_cell_length_a 14.598781
_cell_length_b 10.403882
_cell_length_c 11.890064
_cell_angle_alpha 90.000000
_cell_angle_beta 109.580206
_cell_angle_gamma 90.000000
_cell_volume 1701.480553
_symmetry_space_group_name_H-M "C 2/M"
_symmetry_group_IT_number 12
_symmetry_cell_setting 'monoclinic'
loop_
_space_group_symop_operation_xyz
x,y,z
-x,y,-z
-x,-y,-z
x,-y,z
1/2+x,1/2+y,z
1/2-x,1/2+y,-z
1/2-x,1/2-y,-z
1/2+x,1/2-y,z
loop_
_atom_site_type_symbol
_atom_site_label
_atom_site_fract_x
_atom_site_fract_y
_atom_site_fract_z
Si Si1 0.500000 0.711981 0.000000
Si Si2 0.596559 0.640868 0.820459
Si Si3 0.508544 0.856280 0.631252
Si Si4 0.289509 0.144445 0.601834
Si Si5 0.195525 0.645728 0.143441
O O1 0.525236 0.631603 0.899029
O O2 0.401111 0.789716 0.942064
O O3 0.587085 0.500000 0.757456
O O4 0.571387 0.755072 0.725806
O O5 0.710774 0.662308 0.900610
O O6 0.500000 0.807840 0.500000
O O7 0.404579 0.862111 0.644395
O O8 0.556380 0.000000 0.655159
O O9 0.250000 0.250000 0.500000
O O10 0.266538 0.193696 0.718355
O O11 0.246941 0.000000 0.559365
O O12 0.162916 0.500000 0.143121
#
# Coordination Sequence:
#
# PCOD8102891 Si02
#       5
#     4   8   8   8   8
#     4  12  22  42  64  90 129 172 213 260 315 370
#     4  11  24  41  62  94 131 164 209 265 317 373
#     4  10  21  39  63  92 126 164 212 261 311 378
#     4  10  20  37  59  90 123 159 206 255 308 373
#     4  10  22  40  64  92 124 166 215 260 312 380
#
# _framework density 21.158042999999999
#
# number of rings (size 3 to 8) (size 9 to 14) (size 15 to 20)
#    0.000    1.556    2.222    2.667    0.000    2.222 
#    0.000    2.222    0.000    0.000    0.000    0.000 
#    0.000    0.000    0.000    0.000    0.000    0.000 
#
# Total GULP energy -223007.930672 kJ/mol
# GULP energy per Si atom -12389.329482 kJ/mol
# Density = 2.110989 g / cm^3
# Si number density = 21.158043 Si / 1000 Ang^3
#
#
#
# Elastic Constant Matrix: (Units=GPa)
#
#
# Indices 1 2 3 4 5 6 
#
# 1 117.5046 31.4693 25.8232 0.0000 -4.6122 0.0000
# 2 31.4693 123.3288 59.1151 0.0000 19.0407 0.0000
# 3 25.8232 59.1151 73.1883 0.0000 6.4647 0.0000
# 4 0.0000 0.0000 0.0000 -29.1781 0.0000 25.4092
# 5 -4.6122 19.0407 6.4647 0.0000 34.6915 0.0000
# 6 0.0000 0.0000 0.0000 25.4092 0.0000 33.4959
#
#
#
# Elastic Compliance Matrix: (Units=1/GPa)
#
#
# Indices 1 2 3 4 5 6 
#
# 1 0.009575 -0.001834 -0.002134 0.000000 0.002677 0.000000
# 2 -0.001834 0.014640 -0.010622 0.000000 -0.006300 0.000000
# 3 -0.002134 -0.010622 0.022882 0.000000 0.001282 0.000000
# 4 0.000000 0.000000 0.000000 -0.020639 0.000000 0.015656
# 5 0.002677 -0.006300 0.001282 0.000000 0.032400 0.000000
# 6 0.000000 0.000000 0.000000 0.015656 0.000000 0.017978
#
#
# Mechanical properties :
#
#
# Convention : Reuss Voigt Hill
#
# Bulk Modulus (GPa) = 55.80533 60.75967 58.28250
# Shear Modulus (GPa) = 44.64710 20.97613 32.81162
#
# Velocity S-wave (km/s) = 4.59864 3.15207 3.94228
# Velocity P-wave (km/s) = 7.39117 6.48281 6.95184
#
# Compressibility (1/GPa) = 0.01791944
#
# Stress axis : x y z
#
# Youngs Moduli (GPa) = 104.43372 68.30487 43.70208
#
# Poissons Ratio (x) = 0.12526 0.09325
# Poissons Ratio (y) = 0.19152 0.46419
# Poissons Ratio (z) = 0.22283 0.72551
#
# Static dielectric constant tensor:
#      x y z
#    x 4.202540 0.000000 -0.435760 
#    y 0.000000 3.944190 0.000000 
#    z -0.435760 0.000000 3.819350 
# 
# 
# High freq. dielectric constant tensor:
#      x y z
#    x 1.846940 0.000000 -0.018410 
#    y 0.000000 1.829230 0.000000 
#    z -0.018410 0.000000 1.812230 
# 
# From -- ./inp_files/140561.got.cif
#   From: 2010.06.25/outbox.cif.g09.slc.cpg/sg12_71_cif.got.tgz:140561.got - 2010.06.28 00:19:55.
