data_PCOD8102875
_publ_section_title
;
Structure prediction by ZEFSAII (Michael W. Deem and Ramdas Pophale) SiO2 
 PCOD8102875
Probable space group: C 2/M
;
_chemical_formula_sum "Si O2"
_cell_formula_units_Z 64
_cell_length_a 32.969952
_cell_length_b 8.880543
_cell_length_c 16.176668
_cell_angle_alpha 90.000000
_cell_angle_beta 137.403977
_cell_angle_gamma 90.000000
_cell_volume 3205.702530
_symmetry_space_group_name_H-M "C 2/M"
_symmetry_group_IT_number 12
_symmetry_cell_setting 'monoclinic'
loop_
_space_group_symop_operation_xyz
x,y,z
-x,y,-z
-x,-y,-z
x,-y,z
1/2+x,1/2+y,z
1/2-x,1/2+y,-z
1/2-x,1/2-y,-z
1/2+x,1/2-y,z
loop_
_atom_site_type_symbol
_atom_site_label
_atom_site_fract_x
_atom_site_fract_y
_atom_site_fract_z
Si Si1 0.918435 0.826297 0.682410
Si Si2 0.868121 0.322072 0.312911
Si Si3 0.979383 0.676053 0.061405
Si Si4 0.703945 0.821596 0.493524
Si Si5 0.235651 0.321478 0.723639
Si Si6 0.904156 0.177352 0.206343
Si Si7 0.368014 0.321550 0.969012
Si Si8 0.460302 0.672858 0.563983
O O1 0.862212 0.732196 0.631451
O O2 0.922256 0.805880 0.589963
O O3 0.978861 0.764867 0.812741
O O4 0.910707 0.000000 0.695687
O O5 0.866743 0.500000 0.306603
O O6 0.812467 0.257828 0.282831
O O7 0.862668 0.256711 0.212492
O O8 0.930628 0.270126 0.447211
O O9 0.982381 0.500000 0.085903
O O10 0.912168 0.737066 0.972193
O O11 0.000000 0.711960 0.000000
O O12 0.750000 0.750000 0.500000
O O13 0.719732 0.761255 0.608640
O O14 0.707331 0.000000 0.492440
O O15 0.232752 0.500000 0.719724
O O16 0.301453 0.265499 0.847448
O O17 0.972502 0.230947 0.320189
O O18 0.897728 0.000000 0.206821
O O19 0.881761 0.229083 0.083047
O O20 0.375866 0.500000 0.969257
O O21 0.460648 0.500000 0.535595
#
# Coordination Sequence:
#
# PCOD8102875 Si02
#       8
#     8   8   8   8   8   8   8   8
#     4  11  22  40  66  93 119 162 207 246 300 362
#     4  11  22  37  58  88 120 157 198 242 303 363
#     4  11  25  42  61  92 128 158 193 251 310 357
#     4  11  23  41  62  92 127 162 203 253 304 358
#     4   9  21  40  61  85 119 159 200 246 297 354
#     4  10  21  38  59  86 117 153 199 252 300 351
#     4  10  21  42  65  85 115 161 208 247 293 362
#     4  10  20  37  59  87 120 154 198 247 298 353
#
# _framework density 19.964423
#
# number of rings (size 3 to 8) (size 9 to 14) (size 15 to 20)
#    0.000    1.625    2.500    1.875    1.750    4.500 
#    0.000    1.875    0.000    0.000    0.000    0.000 
#    0.000    0.000    0.000    0.000    0.000    0.000 
#
# Total GULP energy -396968.142449 kJ/mol
# GULP energy per Si atom -12405.254452 kJ/mol
# Density = 1.991898 g / cm^3
# Si number density = 19.964423 Si / 1000 Ang^3
#
#
#
# Elastic Constant Matrix: (Units=GPa)
#
#
# Indices 1 2 3 4 5 6 
#
# 1 137.5597 40.2766 41.0534 0.0000 3.2915 0.0000
# 2 40.2766 62.3748 26.3881 0.0000 -5.5271 0.0000
# 3 41.0534 26.3881 90.7657 0.0000 9.6852 0.0000
# 4 0.0000 0.0000 0.0000 26.4425 0.0000 -0.3840
# 5 3.2915 -5.5271 9.6852 0.0000 33.9801 0.0000
# 6 0.0000 0.0000 0.0000 -0.3840 0.0000 36.3699
#
#
#
# Elastic Compliance Matrix: (Units=1/GPa)
#
#
# Indices 1 2 3 4 5 6 
#
# 1 0.009617 -0.005132 -0.002753 0.000000 -0.000982 0.000000
# 2 -0.005132 0.021754 -0.004573 0.000000 0.005339 0.000000
# 3 -0.002753 -0.004573 0.014071 0.000000 -0.004488 0.000000
# 4 0.000000 0.000000 0.000000 0.037824 0.000000 0.000399
# 5 -0.000982 0.005339 -0.004488 0.000000 0.031672 0.000000
# 6 0.000000 0.000000 0.000000 0.000399 0.000000 0.027499
#
#
# Mechanical properties :
#
#
# Convention : Reuss Voigt Hill
#
# Bulk Modulus (GPa) = 48.71953 56.23740 52.47846
# Shear Modulus (GPa) = 28.70340 31.55730 30.13035
#
# Velocity S-wave (km/s) = 3.79585 3.98009 3.88906
# Velocity P-wave (km/s) = 6.60814 7.02506 6.81978
#
# Compressibility (1/GPa) = 0.02052565
#
# Stress axis : x y z
#
# Youngs Moduli (GPa) = 103.97772 45.96890 71.06886
#
# Poissons Ratio (x) = 0.23593 0.19566
# Poissons Ratio (y) = 0.53366 0.32498
# Poissons Ratio (z) = 0.28626 0.21020
#
# Static dielectric constant tensor:
#      x y z
#    x 3.824150 0.000000 0.004400 
#    y 0.000000 3.440150 0.000000 
#    z 0.004400 0.000000 3.667440 
# 
# 
# High freq. dielectric constant tensor:
#      x y z
#    x 1.793690 0.000000 -0.001010 
#    y 0.000000 1.764760 0.000000 
#    z -0.001010 0.000000 1.780580 
# 
# From -- ./inp_files/250054.got.cif
#   From: 2010.06.25/outbox.cif.g09.slc.cpg/sg12_126_cif.got.tgz:250054.got - 2010.06.28 00:19:55.
