data_PCOD8102347
_publ_section_title
;
Structure prediction by ZEFSAII (Michael W. Deem and Ramdas Pophale) SiO2 
 PCOD8102347
Probable space group: C 2/M
;
_chemical_formula_sum "Si O2"
_cell_formula_units_Z 56
_cell_length_a 29.268327
_cell_length_b 8.877853
_cell_length_c 11.704429
_cell_angle_alpha 90.000000
_cell_angle_beta 109.091528
_cell_angle_gamma 90.000000
_cell_volume 2873.999186
_symmetry_space_group_name_H-M "C 2/M"
_symmetry_group_IT_number 12
_symmetry_cell_setting 'monoclinic'
loop_
_space_group_symop_operation_xyz
x,y,z
-x,y,-z
-x,-y,-z
x,-y,z
1/2+x,1/2+y,z
1/2-x,1/2+y,-z
1/2-x,1/2-y,-z
1/2+x,1/2-y,z
loop_
_atom_site_type_symbol
_atom_site_label
_atom_site_fract_x
_atom_site_fract_y
_atom_site_fract_z
Si Si1 0.547466 0.177428 0.472476
Si Si2 0.288528 0.825513 0.374743
Si Si3 0.588019 0.325217 0.893826
Si Si4 0.808546 0.674142 0.649722
Si Si5 0.370308 0.675042 0.315443
Si Si6 0.977758 0.177604 0.779101
Si Si7 0.097661 0.676352 0.132076
O O1 0.500000 0.233522 0.500000
O O2 0.593885 0.224428 0.581265
O O3 0.549625 0.253864 0.351459
O O4 0.547829 0.000000 0.454422
O O5 0.232892 0.775893 0.328205
O O6 0.312466 0.794070 0.517908
O O7 0.316295 0.726749 0.302775
O O8 0.291749 0.000000 0.343882
O O9 0.588410 0.500000 0.928206
O O10 0.620938 0.293109 0.810708
O O11 0.533402 0.270227 0.824489
O O12 0.610744 0.229011 0.015126
O O13 0.795843 0.500000 0.662339
O O14 0.858768 0.721423 0.748282
O O15 0.378502 0.500000 0.350693
O O16 0.951163 0.238471 0.870203
O O17 0.973377 0.000000 0.770951
O O18 0.087765 0.500000 0.126365
#
# Coordination Sequence:
#
# PCOD8102347 Si02
#       7
#     8   8   8   8   8   8   8
#     4  11  22  35  55  84 117 148 186 238 285 331
#     4  10  20  36  62  91 116 143 183 234 288 344
#     4  10  23  40  56  79 114 156 199 238 277 338
#     4   9  20  39  59  84 117 146 181 231 287 346
#     4  11  22  38  59  83 117 157 193 231 286 346
#     4  11  22  38  59  82 114 155 197 237 285 343
#     4  11  23  38  59  85 114 150 194 242 290 338
#
# _framework density 19.485045
#
# number of rings (size 3 to 8) (size 9 to 14) (size 15 to 20)
#    0.000    1.571    1.429    3.429    0.000    7.429 
#    0.000    0.714    0.000    0.000    0.000    0.000 
#    0.000    0.000    0.000    0.000    0.000    0.000 
#
# Total GULP energy -347393.509744 kJ/mol
# GULP energy per Si atom -12406.911062 kJ/mol
# Density = 1.944070 g / cm^3
# Si number density = 19.485045 Si / 1000 Ang^3
#
#
#
# Elastic Constant Matrix: (Units=GPa)
#
#
# Indices 1 2 3 4 5 6 
#
# 1 112.9254 45.3119 34.2598 0.0000 -14.6137 0.0000
# 2 45.3119 68.2259 37.0902 0.0000 -3.7285 0.0000
# 3 34.2598 37.0902 74.3517 0.0000 -11.0182 0.0000
# 4 0.0000 0.0000 0.0000 32.9307 0.0000 -1.4749
# 5 -14.6137 -3.7285 -11.0182 0.0000 25.2036 0.0000
# 6 0.0000 0.0000 0.0000 -1.4749 0.0000 35.2510
#
#
#
# Elastic Compliance Matrix: (Units=1/GPa)
#
#
# Indices 1 2 3 4 5 6 
#
# 1 0.013090 -0.007638 -0.001352 0.000000 0.005869 0.000000
# 2 -0.007638 0.024622 -0.009495 0.000000 -0.004937 0.000000
# 3 -0.001352 -0.009495 0.019765 0.000000 0.006452 0.000000
# 4 0.000000 0.000000 0.000000 0.030424 0.000000 0.001273
# 5 0.005869 -0.004937 0.006452 0.000000 0.045170 0.000000
# 6 0.000000 0.000000 0.000000 0.001273 0.000000 0.028421
#
#
# Mechanical properties :
#
#
# Convention : Reuss Voigt Hill
#
# Bulk Modulus (GPa) = 48.76163 54.31411 51.53787
# Shear Modulus (GPa) = 24.35504 27.93314 26.14409
#
# Velocity S-wave (km/s) = 3.53928 3.79036 3.66697
# Velocity P-wave (km/s) = 6.46386 6.86229 6.66605
#
# Compressibility (1/GPa) = 0.02050793
#
# Stress axis : x y z
#
# Youngs Moduli (GPa) = 76.39574 40.61440 50.59451
#
# Poissons Ratio (x) = 0.31021 0.06838
# Poissons Ratio (y) = 0.58351 0.48038
# Poissons Ratio (z) = 0.10325 0.38562
#
# Static dielectric constant tensor:
#      x y z
#    x 3.654120 0.000000 -0.121420 
#    y 0.000000 3.522510 0.000000 
#    z -0.121420 0.000000 3.466910 
# 
# 
# High freq. dielectric constant tensor:
#      x y z
#    x 1.762610 0.000000 -0.008210 
#    y 0.000000 1.765570 0.000000 
#    z -0.008210 0.000000 1.749460 
# 
# From -- ./inp_files/180627.got.cif
#   From: 2010.06.25/outbox.cif.g09.slc.cpg/sg12_91_cif.got.tgz:180627.got - 2010.06.28 00:19:55.
