data_PCOD8102394
_publ_section_title
;
Structure prediction by ZEFSAII (Michael W. Deem and Ramdas Pophale) SiO2 
 PCOD8102394
Probable space group: C 2/M
;
_chemical_formula_sum "Si O2"
_cell_formula_units_Z 40
_cell_length_a 12.806003
_cell_length_b 26.072560
_cell_length_c 6.254726
_cell_angle_alpha 90.000000
_cell_angle_beta 70.641163
_cell_angle_gamma 90.000000
_cell_volume 1970.287214
_symmetry_space_group_name_H-M "C 2/M"
_symmetry_group_IT_number 12
_symmetry_cell_setting 'monoclinic'
loop_
_space_group_symop_operation_xyz
x,y,z
-x,y,-z
-x,-y,-z
x,-y,z
1/2+x,1/2+y,z
1/2-x,1/2+y,-z
1/2-x,1/2-y,-z
1/2+x,1/2-y,z
loop_
_atom_site_type_symbol
_atom_site_label
_atom_site_fract_x
_atom_site_fract_y
_atom_site_fract_z
Si Si1 0.647923 0.713322 0.591559
Si Si2 0.846239 0.128079 0.755224
Si Si3 0.500000 0.410332 0.000000
Si Si4 0.000000 0.711759 0.500000
Si Si5 0.301706 0.557478 0.404750
Si Si6 0.289613 0.146438 0.770253
O O1 0.750000 0.750000 0.500000
O O2 0.635825 0.679276 0.388791
O O3 0.542122 0.751720 0.667637
O O4 0.676166 0.677223 0.775489
O O5 0.839455 0.077731 0.611256
O O6 0.952217 0.124129 0.838886
O O7 0.731284 0.132874 0.967873
O O8 0.402737 0.444707 0.166668
O O9 0.097241 0.677080 0.336198
O O10 0.254856 0.500000 0.463003
O O11 0.205474 0.594759 0.376965
#
# Coordination Sequence:
#
# PCOD8102394 Si02
#       6
#     8   8   4   4   8   8
#     4   9  20  36  55  81 114 151 194 232 282 339
#     4  10  21  35  57  83 123 146 190 239 288 345
#     4  10  21  34  60  88 116 148 186 232 299 352
#     4  10  20  36  63  78 113 158 196 236 284 334
#     4  10  21  38  59  83 116 150 187 238 293 353
#     4   9  21  40  55  86 117 150 193 240 285 344
#
# _framework density 20.301608000000002
#
# number of rings (size 3 to 8) (size 9 to 14) (size 15 to 20)
#    0.000    2.400    0.000    0.900    8.400    8.000 
#    0.000   15.500    0.000    1.200    0.000    0.000 
#    0.000    0.000    0.000    0.000    0.000    0.000 
#
# Total GULP energy -247805.983374 kJ/mol
# GULP energy per Si atom -12390.299169 kJ/mol
# Density = 2.025540 g / cm^3
# Si number density = 20.301608 Si / 1000 Ang^3
#
#
#
# Elastic Constant Matrix: (Units=GPa)
#
#
# Indices 1 2 3 4 5 6 
#
# 1 93.5222 56.9464 31.5828 0.0000 -2.6439 0.0000
# 2 56.9464 151.7772 36.8021 0.0000 8.7999 0.0000
# 3 31.5828 36.8021 91.7294 0.0000 8.5868 0.0000
# 4 0.0000 0.0000 0.0000 12.3704 0.0000 -11.6895
# 5 -2.6439 8.7999 8.5868 0.0000 23.5345 0.0000
# 6 0.0000 0.0000 0.0000 -11.6895 0.0000 17.1410
#
#
#
# Elastic Compliance Matrix: (Units=1/GPa)
#
#
# Indices 1 2 3 4 5 6 
#
# 1 0.015162 -0.005092 -0.003639 0.000000 0.004935 0.000000
# 2 -0.005092 0.009077 -0.001571 0.000000 -0.003393 0.000000
# 3 -0.003639 -0.001571 0.013220 0.000000 -0.004645 0.000000
# 4 0.000000 0.000000 0.000000 0.227344 0.000000 0.155040
# 5 0.004935 -0.003393 -0.004645 0.000000 0.046009 0.000000
# 6 0.000000 0.000000 0.000000 0.155040 0.000000 0.164071
#
#
# Mechanical properties :
#
#
# Convention : Reuss Voigt Hill
#
# Bulk Modulus (GPa) = 59.33413 65.29906 62.31660
# Shear Modulus (GPa) = 9.97797 24.72236 17.35016
#
# Velocity S-wave (km/s) = 2.21935 3.49342 2.92656
# Velocity P-wave (km/s) = 5.98808 6.96464 6.49474
#
# Compressibility (1/GPa) = 0.01685371
#
# Stress axis : x y z
#
# Youngs Moduli (GPa) = 65.95441 110.17025 75.64533
#
# Poissons Ratio (x) = 0.56104 0.27529
# Poissons Ratio (y) = 0.33587 0.11882
# Poissons Ratio (z) = 0.24002 0.17304
#
# Static dielectric constant tensor:
#      x y z
#    x 3.796300 0.000000 0.342380 
#    y 0.000000 3.892410 0.000000 
#    z 0.342380 0.000000 3.832510 
# 
# 
# High freq. dielectric constant tensor:
#      x y z
#    x 1.775700 0.000000 0.013650 
#    y 0.000000 1.797530 0.000000 
#    z 0.013650 0.000000 1.783000 
# 
# From -- ./inp_files/8338.got.cif
#   From: 2010.06.25/outbox.cif.g09.slc.cpg/sg12_5_cif.got.tgz:8338.got - 2010.06.28 00:19:55.
