data_PCOD8102769
_publ_section_title
;
Structure prediction by ZEFSAII (Michael W. Deem and Ramdas Pophale) SiO2 
 PCOD8102769
Probable space group: C 2/M
;
_chemical_formula_sum "Si O2"
_cell_formula_units_Z 64
_cell_length_a 14.742733
_cell_length_b 8.841612
_cell_length_c 34.298848
_cell_angle_alpha 90.000000
_cell_angle_beta 47.681819
_cell_angle_gamma 90.000000
_cell_volume 3305.816253
_symmetry_space_group_name_H-M "C 2/M"
_symmetry_group_IT_number 12
_symmetry_cell_setting 'monoclinic'
loop_
_space_group_symop_operation_xyz
x,y,z
-x,y,-z
-x,-y,-z
x,-y,z
1/2+x,1/2+y,z
1/2-x,1/2+y,-z
1/2-x,1/2-y,-z
1/2+x,1/2-y,z
loop_
_atom_site_type_symbol
_atom_site_label
_atom_site_fract_x
_atom_site_fract_y
_atom_site_fract_z
Si Si1 0.150220 0.676620 0.000398
Si Si2 0.245533 0.672552 0.380917
Si Si3 0.870114 0.321835 0.082864
Si Si4 0.408264 0.677630 0.636109
Si Si5 0.680631 0.322500 0.555814
Si Si6 0.967674 0.175387 0.261175
Si Si7 0.225984 0.678597 0.193100
Si Si8 0.304283 0.820314 0.246330
O O1 0.165198 0.500000 0.001621
O O2 0.171030 0.720400 0.949170
O O3 0.250000 0.750000 0.000000
O O4 0.010951 0.724863 0.051109
O O5 0.204486 0.500000 0.386410
O O6 0.145187 0.779516 0.390491
O O7 0.246410 0.715595 0.426000
O O8 0.379607 0.698566 0.323740
O O9 0.851867 0.500000 0.095659
O O10 0.783371 0.223714 0.135325
O O11 0.413858 0.500000 0.638627
O O12 0.544121 0.747083 0.599967
O O13 0.318671 0.739217 0.696024
O O14 0.671833 0.500000 0.550973
O O15 0.750000 0.250000 0.500000
O O16 0.921696 0.270221 0.237339
O O17 0.097587 0.238531 0.236661
O O18 0.978306 0.000000 0.246394
O O19 0.208981 0.500000 0.200218
O O20 0.314254 0.737557 0.201990
O O21 0.305900 0.000000 0.240180
#
# Coordination Sequence:
#
# PCOD8102769 Si02
#       8
#     8   8   8   8   8   8   8   8
#     4   9  19  37  62  84 106 141 185 229 275 322
#     4   9  19  36  57  78 103 136 176 219 267 320
#     4   9  20  39  57  79 112 149 184 223 274 327
#     4   9  19  36  57  78 103 136 176 219 267 320
#     4  10  21  36  52  75 105 137 173 215 265 321
#     4  10  20  37  59  82 109 144 183 227 275 327
#     4  12  24  36  54  84 118 152 186 225 272 325
#     4  10  20  37  59  82 109 144 183 227 275 327
#
# _framework density 19.359819000000002
#
# number of rings (size 3 to 8) (size 9 to 14) (size 15 to 20)
#    0.000    2.250    0.000    3.375    0.000    6.500 
#    0.000    7.500    0.000    0.000    0.000    0.000 
#    0.000    0.000    0.000    0.000    0.000    0.000 
#
# Total GULP energy -396821.558398 kJ/mol
# GULP energy per Si atom -12400.673700 kJ/mol
# Density = 1.931575 g / cm^3
# Si number density = 19.359819 Si / 1000 Ang^3
#
#
#
# Elastic Constant Matrix: (Units=GPa)
#
#
# Indices 1 2 3 4 5 6 
#
# 1 82.2795 21.1872 23.3610 0.0001 13.1020 -0.0004
# 2 21.1872 55.2754 29.3229 -0.0017 4.0535 -0.0012
# 3 23.3610 29.3229 67.1301 -0.0003 20.3234 -0.0004
# 4 0.0001 -0.0017 -0.0003 31.3765 -0.0006 1.9950
# 5 13.1020 4.0535 20.3234 -0.0006 24.7439 -0.0006
# 6 -0.0004 -0.0012 -0.0004 1.9950 -0.0006 37.7895
#
#
#
# Elastic Compliance Matrix: (Units=1/GPa)
#
#
# Indices 1 2 3 4 5 6 
#
# 1 0.014625 -0.004452 -0.001359 0.000000 -0.005899 0.000000
# 2 -0.004452 0.025618 -0.012091 0.000001 0.008091 0.000001
# 3 -0.001359 -0.012091 0.026397 -0.000001 -0.018981 0.000000
# 4 0.000000 0.000001 -0.000001 0.031978 0.000001 -0.001688
# 5 -0.005899 0.008091 -0.018981 0.000001 0.057802 0.000001
# 6 0.000000 0.000001 0.000000 -0.001688 0.000001 0.026552
#
#
# Mechanical properties :
#
#
# Convention : Reuss Voigt Hill
#
# Bulk Modulus (GPa) = 32.42861 39.15861 35.79361
# Shear Modulus (GPa) = 21.82877 27.50289 24.66583
#
# Velocity S-wave (km/s) = 3.36151 3.77320 3.57329
# Velocity P-wave (km/s) = 5.64386 6.26525 5.96266
#
# Compressibility (1/GPa) = 0.03083697
#
# Stress axis : x y z
#
# Youngs Moduli (GPa) = 68.37454 39.03449 37.88304
#
# Poissons Ratio (x) = 0.17380 0.05148
# Poissons Ratio (y) = 0.30444 0.45803
# Poissons Ratio (z) = 0.09291 0.47195
#
# Static dielectric constant tensor:
#      x y z
#    x 3.695970 0.000000 -0.017750 
#    y 0.000000 3.409920 0.000000 
#    z -0.017750 0.000000 3.542280 
# 
# 
# High freq. dielectric constant tensor:
#      x y z
#    x 1.761480 0.000000 0.006230 
#    y 0.000000 1.745550 0.000000 
#    z 0.006230 0.000000 1.750380 
# 
# From -- ./inp_files/375442.got.cif
#   From: 2010.06.25/outbox.cif.g09.slc.cpg/sg12_188_cif.got.tgz:375442.got - 2010.06.28 00:19:55.
