data_PCOD8102193
_publ_section_title
;
Structure prediction by ZEFSAII (Michael W. Deem and Ramdas Pophale) SiO2 
 PCOD8102193
Probable space group: C 2/M
;
_chemical_formula_sum "Si O2"
_cell_formula_units_Z 64
_cell_length_a 32.263489
_cell_length_b 8.992280
_cell_length_c 10.944796
_cell_angle_alpha 90.000000
_cell_angle_beta 90.813594
_cell_angle_gamma 90.000000
_cell_volume 3175.009556
_symmetry_space_group_name_H-M "C 2/M"
_symmetry_group_IT_number 12
_symmetry_cell_setting 'monoclinic'
loop_
_space_group_symop_operation_xyz
x,y,z
-x,y,-z
-x,-y,-z
x,-y,z
1/2+x,1/2+y,z
1/2-x,1/2+y,-z
1/2-x,1/2-y,-z
1/2+x,1/2-y,z
loop_
_atom_site_type_symbol
_atom_site_label
_atom_site_fract_x
_atom_site_fract_y
_atom_site_fract_z
Si Si1 0.269510 0.176098 0.620652
Si Si2 0.559662 0.329846 0.725239
Si Si3 0.438276 0.329527 0.548478
Si Si4 0.518729 0.173061 0.233611
Si Si5 0.102589 0.673088 0.116033
Si Si6 0.730663 0.674421 0.878227
Si Si7 0.134830 0.170062 0.890373
Si Si8 0.852810 0.170457 0.670251
O O1 0.250000 0.250000 0.500000
O O2 0.250304 0.230961 0.750461
O O3 0.317052 0.223444 0.619840
O O4 0.264353 0.000000 0.608384
O O5 0.546695 0.500000 0.732534
O O6 0.556343 0.269651 0.587748
O O7 0.525469 0.243889 0.806080
O O8 0.607253 0.308845 0.768160
O O9 0.452497 0.500000 0.563699
O O10 0.467456 0.230496 0.633507
O O11 0.390099 0.312761 0.577482
O O12 0.554470 0.214996 0.137543
O O13 0.511815 0.000000 0.239810
O O14 0.110677 0.500000 0.144648
O O15 0.133077 0.773537 0.197162
O O16 0.114062 0.712397 0.979675
O O17 0.738585 0.500000 0.893521
O O18 0.682122 0.713607 0.866433
O O19 0.750000 0.750000 0.000000
O O20 0.131786 0.000000 0.938774
O O21 0.837490 0.000000 0.680287
#
# Coordination Sequence:
#
# PCOD8102193 Si02
#       8
#     8   8   8   8   8   8   8   8
#     4  11  24  40  61  91 126 161 198 248 305 364
#     4  10  21  36  56  81 112 148 191 239 286 341
#     4   9  19  35  58  83 111 150 192 234 283 341
#     4  10  21  36  55  81 115 151 187 233 288 343
#     4  10  21  38  58  82 115 151 191 237 286 347
#     4  10  23  42  65  89 120 158 201 250 302 360
#     4  10  22  39  60  84 111 148 193 242 291 342
#     4  10  20  36  61  87 114 150 192 239 290 346
#
# _framework density 20.157419000000001
#
# number of rings (size 3 to 8) (size 9 to 14) (size 15 to 20)
#    0.000    2.000    0.000    2.625    1.750    8.500 
#    0.000    2.500    0.000    0.000    0.000    0.000 
#    0.000    0.000    0.000    0.000    0.000    0.000 
#
# Total GULP energy -396753.373095 kJ/mol
# GULP energy per Si atom -12398.542909 kJ/mol
# Density = 2.011154 g / cm^3
# Si number density = 20.157419 Si / 1000 Ang^3
#
#
#
# Elastic Constant Matrix: (Units=GPa)
#
#
# Indices 1 2 3 4 5 6 
#
# 1 132.0572 36.7857 38.8019 0.0000 6.7754 0.0000
# 2 36.7857 56.7497 33.8662 0.0000 1.2980 0.0000
# 3 38.8019 33.8662 86.1550 0.0000 -9.1156 0.0000
# 4 0.0000 0.0000 0.0000 27.7866 0.0000 4.0067
# 5 6.7754 1.2980 -9.1156 0.0000 16.3073 0.0000
# 6 0.0000 0.0000 0.0000 4.0067 0.0000 34.3021
#
#
#
# Elastic Compliance Matrix: (Units=1/GPa)
#
#
# Indices 1 2 3 4 5 6 
#
# 1 0.010094 -0.004355 -0.003445 0.000000 -0.005773 0.000000
# 2 -0.004355 0.025754 -0.008702 0.000000 -0.005105 0.000000
# 3 -0.003445 -0.008702 0.017860 0.000000 0.012108 0.000000
# 4 0.000000 0.000000 0.000000 0.036605 0.000000 -0.004276
# 5 -0.005773 -0.005105 0.012108 0.000000 0.070895 0.000000
# 6 0.000000 0.000000 0.000000 -0.004276 0.000000 0.029652
#
#
# Mechanical properties :
#
#
# Convention : Reuss Voigt Hill
#
# Bulk Modulus (GPa) = 48.30031 54.87438 51.58735
# Shear Modulus (GPa) = 21.66690 26.71308 24.18999
#
# Velocity S-wave (km/s) = 3.28210 3.64431 3.46794
# Velocity P-wave (km/s) = 6.19488 6.70746 6.45626
#
# Compressibility (1/GPa) = 0.02070380
#
# Stress axis : x y z
#
# Youngs Moduli (GPa) = 99.06828 38.82851 55.99032
#
# Poissons Ratio (x) = 0.16911 0.19288
# Poissons Ratio (y) = 0.43146 0.48724
# Poissons Ratio (z) = 0.34128 0.33790
#
# Static dielectric constant tensor:
#      x y z
#    x 3.902630 0.000000 -0.069260 
#    y 0.000000 3.612230 0.000000 
#    z -0.069260 0.000000 3.646010 
# 
# 
# High freq. dielectric constant tensor:
#      x y z
#    x 1.802150 0.000000 -0.002310 
#    y 0.000000 1.782440 0.000000 
#    z -0.002310 0.000000 1.781800 
# 
# From -- ./inp_files/187442.got.cif
#   From: 2010.06.25/outbox.cif.g09.slc.cpg/sg12_94_cif.got.tgz:187442.got - 2010.06.28 00:19:55.
