data_PCOD8102379
_publ_section_title
;
Structure prediction by ZEFSAII (Michael W. Deem and Ramdas Pophale) SiO2 
 PCOD8102379
Probable space group: C 2/M
;
_chemical_formula_sum "Si O2"
_cell_formula_units_Z 64
_cell_length_a 15.266813
_cell_length_b 8.534110
_cell_length_c 24.823131
_cell_angle_alpha 90.000000
_cell_angle_beta 108.846152
_cell_angle_gamma 90.000000
_cell_volume 3060.786475
_symmetry_space_group_name_H-M "C 2/M"
_symmetry_group_IT_number 12
_symmetry_cell_setting 'monoclinic'
loop_
_space_group_symop_operation_xyz
x,y,z
-x,y,-z
-x,-y,-z
x,-y,z
1/2+x,1/2+y,z
1/2-x,1/2+y,-z
1/2-x,1/2-y,-z
1/2+x,1/2-y,z
loop_
_atom_site_type_symbol
_atom_site_label
_atom_site_fract_x
_atom_site_fract_y
_atom_site_fract_z
Si Si1 0.261413 0.682826 0.061315
Si Si2 0.993293 0.815989 0.631032
Si Si3 0.225715 0.678085 0.761946
Si Si4 0.873636 0.180172 0.878150
Si Si5 0.201090 0.683191 0.438117
Si Si6 0.316151 0.180198 0.366164
Si Si7 0.957677 0.820403 0.241462
Si Si8 0.452558 0.179403 0.130845
O O1 0.239872 0.500000 0.057382
O O2 0.188149 0.769081 0.084293
O O3 0.364380 0.712005 0.103098
O O4 0.250000 0.750000 0.000000
O O5 0.896918 0.769593 0.585550
O O6 0.076303 0.726483 0.617544
O O7 0.989975 0.768399 0.693537
O O8 0.011418 0.000000 0.628409
O O9 0.190674 0.500000 0.765496
O O10 0.321916 0.708294 0.811068
O O11 0.238052 0.707013 0.700780
O O12 0.151933 0.798295 0.771675
O O13 0.967426 0.281311 0.896160
O O14 0.900900 0.000000 0.890931
O O15 0.183133 0.500000 0.440834
O O16 0.250000 0.750000 0.500000
O O17 0.265916 0.712761 0.399750
O O18 0.309848 0.000000 0.383336
O O19 0.991634 0.714663 0.198500
O O20 0.978864 0.000000 0.231469
O O21 0.422538 0.000000 0.118881
#
# Coordination Sequence:
#
# PCOD8102379 Si02
#       8
#     8   8   8   8   8   8   8   8
#     4  12  26  47  71  96 128 171 217 267 321 380
#     4  10  22  41  64  94 129 167 211 263 318 379
#     4   9  19  36  62  92 130 168 207 257 319 381
#     4  11  23  41  65  98 132 170 214 264 321 378
#     4  12  26  44  65  92 125 168 217 266 318 381
#     4  10  21  40  64  95 129 167 210 262 319 378
#     4  10  20  36  62  93 130 169 211 260 318 379
#     4  12  25  41  63  96 133 172 216 264 316 378
#
# _framework density 20.909658
#
# number of rings (size 3 to 8) (size 9 to 14) (size 15 to 20)
#    0.000    1.250    1.250    4.875    1.750    3.500 
#    0.000    5.000    0.000    0.000    0.000    0.000 
#    0.000    0.000    0.000    0.000    0.000    0.000 
#
# Total GULP energy -396968.069981 kJ/mol
# GULP energy per Si atom -12405.252187 kJ/mol
# Density = 2.086207 g / cm^3
# Si number density = 20.909658 Si / 1000 Ang^3
#
#
#
# Elastic Constant Matrix: (Units=GPa)
#
#
# Indices 1 2 3 4 5 6 
#
# 1 73.3901 10.9257 13.0917 0.0000 -17.7778 0.0000
# 2 10.9257 69.9703 26.7343 0.0000 2.6579 0.0000
# 3 13.0917 26.7343 69.0866 0.0000 -19.5750 0.0000
# 4 0.0000 0.0000 0.0000 31.6081 0.0000 -2.5264
# 5 -17.7778 2.6579 -19.5750 0.0000 21.1934 0.0000
# 6 0.0000 0.0000 0.0000 -2.5264 0.0000 38.5685
#
#
#
# Elastic Compliance Matrix: (Units=1/GPa)
#
#
# Indices 1 2 3 4 5 6 
#
# 1 0.018527 -0.005271 0.004225 0.000000 0.020105 0.000000
# 2 -0.005271 0.020391 -0.012013 0.000000 -0.018075 0.000000
# 3 0.004225 -0.012013 0.026756 0.000000 0.029764 0.000000
# 4 0.000000 0.000000 0.000000 0.031804 0.000000 0.002083
# 5 0.020105 -0.018075 0.029764 0.000000 0.093807 0.000000
# 6 0.000000 0.000000 0.000000 0.002083 0.000000 0.026064
#
#
# Mechanical properties :
#
#
# Convention : Reuss Voigt Hill
#
# Bulk Modulus (GPa) = 25.28033 34.88338 30.08185
# Shear Modulus (GPa) = 19.48156 29.05367 24.26762
#
# Velocity S-wave (km/s) = 3.05569 3.73162 3.41044
# Velocity P-wave (km/s) = 4.95643 5.94019 5.47047
#
# Compressibility (1/GPa) = 0.03955644
#
# Stress axis : x y z
#
# Youngs Moduli (GPa) = 53.97554 49.04014 37.37491
#
# Poissons Ratio (x) = 0.25850 -0.15793
# Poissons Ratio (y) = 0.28451 0.44900
# Poissons Ratio (z) = -0.22807 0.58913
#
# Static dielectric constant tensor:
#      x y z
#    x 3.726660 0.000000 0.021950 
#    y 0.000000 3.829000 0.000000 
#    z 0.021950 0.000000 3.936760 
# 
# 
# High freq. dielectric constant tensor:
#      x y z
#    x 1.819190 0.000000 -0.003480 
#    y 0.000000 1.826610 0.000000 
#    z -0.003480 0.000000 1.819820 
# 
# From -- ./inp_files/360003.got.cif
#   From: 2010.06.25/outbox.cif.g09.slc.cpg/sg12_181_cif.got.tgz:360003.got - 2010.06.28 00:19:55.
