data_PCOD8102048
_publ_section_title
;
Structure prediction by ZEFSAII (Michael W. Deem and Ramdas Pophale) SiO2 
 PCOD8102048
Probable space group: C 2/M
;
_chemical_formula_sum "Si O2"
_cell_formula_units_Z 56
_cell_length_a 28.087411
_cell_length_b 8.701367
_cell_length_c 19.529486
_cell_angle_alpha 90.000000
_cell_angle_beta 142.390102
_cell_angle_gamma 90.000000
_cell_volume 2912.866544
_symmetry_space_group_name_H-M "C 2/M"
_symmetry_group_IT_number 12
_symmetry_cell_setting 'monoclinic'
loop_
_space_group_symop_operation_xyz
x,y,z
-x,y,-z
-x,-y,-z
x,-y,z
1/2+x,1/2+y,z
1/2-x,1/2+y,-z
1/2-x,1/2-y,-z
1/2+x,1/2-y,z
loop_
_atom_site_type_symbol
_atom_site_label
_atom_site_fract_x
_atom_site_fract_y
_atom_site_fract_z
Si Si1 0.956039 0.177554 0.636709
Si Si2 0.550348 0.820336 0.622876
Si Si3 0.695773 0.179751 0.583122
Si Si4 0.870378 0.323991 0.936565
Si Si5 0.008367 0.823997 0.167811
Si Si6 0.858307 0.678543 0.766487
Si Si7 0.693972 0.677417 0.727245
O O1 0.866357 0.231838 0.534866
O O2 0.991619 0.207463 0.751690
O O3 0.005659 0.277993 0.640733
O O4 0.960999 0.000000 0.621146
O O5 0.500000 0.769026 0.500000
O O6 0.632491 0.729894 0.714588
O O7 0.567812 0.000000 0.641949
O O8 0.781988 0.227183 0.657067
O O9 0.680230 0.221096 0.644283
O O10 0.683878 0.000000 0.559127
O O11 0.895575 0.500000 0.977321
O O12 0.882937 0.277870 0.871665
O O13 0.780588 0.296841 0.855578
O O14 0.922423 0.214392 0.042612
O O15 0.071178 0.715732 0.203217
O O16 0.028876 0.000000 0.174406
O O17 0.836500 0.500000 0.737713
O O18 0.682072 0.500000 0.693376
#
# Coordination Sequence:
#
# PCOD8102048 Si02
#       7
#     8   8   8   8   8   8   8
#     4  11  24  40  57  81 117 156 192 230 285 349
#     4  11  22  36  59  91 117 144 190 238 282 335
#     4  11  21  35  57  87 117 147 189 239 286 334
#     4   9  20  38  60  86 114 149 193 233 278 339
#     4  11  24  39  57  84 115 152 195 238 284 335
#     4  10  21  38  61  86 114 152 193 234 285 341
#     4  10  20  36  60  88 117 150 187 232 286 340
#
# _framework density 19.225047
#
# number of rings (size 3 to 8) (size 9 to 14) (size 15 to 20)
#    0.000    1.571    1.429    4.714    0.000    8.571 
#    0.000    0.714    0.000    0.000    0.000    0.000 
#    0.000    0.000    0.000    0.000    0.000    0.000 
#
# Total GULP energy -347370.586362 kJ/mol
# GULP energy per Si atom -12406.092370 kJ/mol
# Density = 1.918129 g / cm^3
# Si number density = 19.225047 Si / 1000 Ang^3
#
#
#
# Elastic Constant Matrix: (Units=GPa)
#
#
# Indices 1 2 3 4 5 6 
#
# 1 92.2152 30.0114 52.3514 0.0000 11.2055 0.0000
# 2 30.0114 63.6498 36.4606 0.0000 -1.7994 0.0000
# 3 52.3514 36.4606 74.7021 0.0000 0.6884 0.0000
# 4 0.0000 0.0000 0.0000 31.4709 0.0000 5.5076
# 5 11.2055 -1.7994 0.6884 0.0000 24.7871 0.0000
# 6 0.0000 0.0000 0.0000 5.5076 0.0000 33.3653
#
#
#
# Elastic Compliance Matrix: (Units=1/GPa)
#
#
# Indices 1 2 3 4 5 6 
#
# 1 0.019900 -0.002346 -0.012719 0.000000 -0.008813 0.000000
# 2 -0.002346 0.022173 -0.009205 0.000000 0.002926 0.000000
# 3 -0.012719 -0.009205 0.026753 0.000000 0.004339 0.000000
# 4 0.000000 0.000000 0.000000 0.032721 0.000000 -0.005401
# 5 -0.008813 0.002926 0.004339 0.000000 0.044420 0.000000
# 6 0.000000 0.000000 0.000000 -0.005401 0.000000 0.030863
#
#
# Mechanical properties :
#
#
# Convention : Reuss Voigt Hill
#
# Bulk Modulus (GPa) = 49.29826 52.02376 50.66101
# Shear Modulus (GPa) = 21.53959 25.37424 23.45691
#
# Velocity S-wave (km/s) = 3.35086 3.63692 3.49681
# Velocity P-wave (km/s) = 6.37726 6.68995 6.53547
#
# Compressibility (1/GPa) = 0.02028469
#
# Stress axis : x y z
#
# Youngs Moduli (GPa) = 50.25242 45.10050 37.37876
#
# Poissons Ratio (x) = 0.10580 0.47544
# Poissons Ratio (y) = 0.11788 0.34407
# Poissons Ratio (z) = 0.63918 0.41515
#
# Static dielectric constant tensor:
#      x y z
#    x 3.396750 0.000000 0.164840 
#    y 0.000000 3.539600 0.000000 
#    z 0.164840 0.000000 3.524310 
# 
# 
# High freq. dielectric constant tensor:
#      x y z
#    x 1.741690 0.000000 0.017630 
#    y 0.000000 1.759610 0.000000 
#    z 0.017630 0.000000 1.741570 
# 
# From -- ./inp_files/292527.got.cif
#   From: 2010.06.25/outbox.cif.g09.slc.cpg/sg12_147_cif.got.tgz:292527.got - 2010.06.28 00:19:55.
