data_PCOD8102271
_publ_section_title
;
Structure prediction by ZEFSAII (Michael W. Deem and Ramdas Pophale) SiO2 
 PCOD8102271
Probable space group: C 2/M
;
_chemical_formula_sum "Si O2"
_cell_formula_units_Z 64
_cell_length_a 24.205716
_cell_length_b 14.269225
_cell_length_c 18.469512
_cell_angle_alpha 90.000000
_cell_angle_beta 149.118692
_cell_angle_gamma 90.000000
_cell_volume 3274.253145
_symmetry_space_group_name_H-M "C 2/M"
_symmetry_group_IT_number 12
_symmetry_cell_setting 'monoclinic'
loop_
_space_group_symop_operation_xyz
x,y,z
-x,y,-z
-x,-y,-z
x,-y,z
1/2+x,1/2+y,z
1/2-x,1/2+y,-z
1/2-x,1/2-y,-z
1/2+x,1/2-y,z
loop_
_atom_site_type_symbol
_atom_site_label
_atom_site_fract_x
_atom_site_fract_y
_atom_site_fract_z
Si Si1 0.690403 0.235714 0.857951
Si Si2 0.050853 0.752612 0.382048
Si Si3 0.688409 0.611730 0.121950
Si Si4 0.229557 0.607346 0.624309
Si Si5 0.411854 0.395102 0.455422
Si Si6 0.270935 0.104929 0.857209
Si Si7 0.972022 0.273337 0.049970
Si Si8 0.142872 0.786106 0.340994
O O1 0.566877 0.212578 0.734818
O O2 0.737123 0.153157 0.858830
O O3 0.695971 0.336930 0.826962
O O4 0.750000 0.250000 0.000000
O O5 0.127983 0.664821 0.481951
O O6 0.091404 0.835955 0.476758
O O7 0.057565 0.800610 0.309950
O O8 0.670307 0.500000 0.090543
O O9 0.741173 0.633718 0.259761
O O10 0.574879 0.667309 0.992670
O O11 0.197156 0.500000 0.583371
O O12 0.328406 0.626378 0.679336
O O13 0.500000 0.350858 0.500000
O O14 0.449420 0.500000 0.517114
O O15 0.290665 0.394573 0.288463
O O16 0.284109 0.000000 0.902430
O O17 0.387411 0.150623 0.982397
O O18 0.081749 0.287039 0.219237
O O19 0.000000 0.296549 0.000000
O O20 0.250000 0.750000 0.500000
#
# Coordination Sequence:
#
# PCOD8102271 Si02
#       8
#     8   8   8   8   8   8   8   8
#     4  11  23  39  59  88 122 164 205 250 312 373
#     4  11  21  37  64  87 124 164 201 251 316 370
#     4  10  22  39  62  93 124 158 205 254 305 370
#     4  10  22  40  62  92 125 161 206 256 309 370
#     4  10  20  36  61  92 119 155 202 249 306 368
#     4  10  22  39  60  89 123 156 203 258 306 364
#     4  11  21  39  67  88 117 165 209 251 305 369
#     4  10  23  41  60  88 122 160 205 258 312 359
#
# _framework density 19.546441000000002
#
# number of rings (size 3 to 8) (size 9 to 14) (size 15 to 20)
#    0.000    1.625    2.500    3.000    1.750    2.500 
#    0.000    7.500    0.000    0.000    0.000    0.000 
#    0.000    0.000    0.000    0.000    0.000    0.000 
#
# Total GULP energy -396579.882902 kJ/mol
# GULP energy per Si atom -12393.121341 kJ/mol
# Density = 1.950195 g / cm^3
# Si number density = 19.546441 Si / 1000 Ang^3
#
#
#
# Elastic Constant Matrix: (Units=GPa)
#
#
# Indices 1 2 3 4 5 6 
#
# 1 118.2209 36.3683 33.9183 0.0000 -11.8052 0.0000
# 2 36.3683 100.6982 27.6196 0.0000 -6.5107 0.0000
# 3 33.9183 27.6196 112.3991 0.0000 -4.2205 0.0000
# 4 0.0000 0.0000 0.0000 11.8361 0.0000 5.5974
# 5 -11.8052 -6.5107 -4.2205 0.0000 38.4903 0.0000
# 6 0.0000 0.0000 0.0000 5.5974 0.0000 21.2794
#
#
#
# Elastic Compliance Matrix: (Units=1/GPa)
#
#
# Indices 1 2 3 4 5 6 
#
# 1 0.010253 -0.002921 -0.002286 0.000000 0.002400 0.000000
# 2 -0.002921 0.011570 -0.001930 0.000000 0.000850 0.000000
# 3 -0.002286 -0.001930 0.010064 0.000000 0.000076 0.000000
# 4 0.000000 0.000000 0.000000 0.096491 0.000000 -0.025381
# 5 0.002400 0.000850 0.000076 0.000000 0.026869 0.000000
# 6 0.000000 0.000000 0.000000 -0.025381 0.000000 0.053670
#
#
# Mechanical properties :
#
#
# Convention : Reuss Voigt Hill
#
# Bulk Modulus (GPa) = 56.77570 58.57005 57.67287
# Shear Modulus (GPa) = 21.82833 29.88195 25.85514
#
# Velocity S-wave (km/s) = 3.34539 3.91419 3.64091
# Velocity P-wave (km/s) = 6.63565 7.10334 6.87347
#
# Compressibility (1/GPa) = 0.01761317
#
# Stress axis : x y z
#
# Youngs Moduli (GPa) = 97.53446 86.43246 99.36617
#
# Poissons Ratio (x) = 0.25244 0.22716
# Poissons Ratio (y) = 0.28487 0.19175
# Poissons Ratio (z) = 0.22298 0.16679
#
# Static dielectric constant tensor:
#      x y z
#    x 3.951880 0.000000 0.026690 
#    y 0.000000 3.166400 0.000000 
#    z 0.026690 0.000000 3.683950 
# 
# 
# High freq. dielectric constant tensor:
#      x y z
#    x 1.773750 0.000000 -0.002260 
#    y 0.000000 1.743010 0.000000 
#    z -0.002260 0.000000 1.772570 
# 
# From -- ./inp_files/290126.got.cif
#   From: 2010.06.25/outbox.cif.g09.slc.cpg/sg12_146_cif.got.tgz:290126.got - 2010.06.28 00:19:55.
