data_PCOD8102333
_publ_section_title
;
Structure prediction by ZEFSAII (Michael W. Deem and Ramdas Pophale) SiO2 
 PCOD8102333
Probable space group: C 2/M
;
_chemical_formula_sum "Si O2"
_cell_formula_units_Z 56
_cell_length_a 8.729097
_cell_length_b 17.239441
_cell_length_c 22.569441
_cell_angle_alpha 90.000000
_cell_angle_beta 138.747858
_cell_angle_gamma 90.000000
_cell_volume 2239.469070
_symmetry_space_group_name_H-M "C 2/M"
_symmetry_group_IT_number 12
_symmetry_cell_setting 'monoclinic'
loop_
_space_group_symop_operation_xyz
x,y,z
-x,y,-z
-x,-y,-z
x,-y,z
1/2+x,1/2+y,z
1/2-x,1/2+y,-z
1/2-x,1/2-y,-z
1/2+x,1/2-y,z
loop_
_atom_site_type_symbol
_atom_site_label
_atom_site_fract_x
_atom_site_fract_y
_atom_site_fract_z
Si Si1 0.109035 0.328623 0.468181
Si Si2 0.295317 0.000000 0.141566
Si Si3 0.879592 0.266143 0.858805
Si Si4 0.518920 0.157442 0.233012
Si Si5 0.192107 0.857818 0.905409
Si Si6 0.676910 0.409975 0.299033
Si Si7 0.019487 0.912196 0.628992
Si Si8 0.747001 0.500000 0.996187
O O1 0.250000 0.250000 0.500000
O O2 0.295737 0.398627 0.522960
O O3 0.000000 0.321273 0.500000
O O4 0.906566 0.353641 0.362726
O O5 0.383419 0.923326 0.200070
O O6 0.022217 0.000000 0.067516
O O7 0.382327 0.000000 0.098174
O O8 0.621386 0.227108 0.776150
O O9 0.944531 0.323228 0.825140
O O10 0.074007 0.199091 0.919262
O O11 0.886879 0.314126 0.922245
O O12 0.776168 0.145455 0.334905
O O13 0.987786 0.889362 0.803368
O O14 0.317863 0.925686 0.978049
O O15 0.754655 0.500000 0.318156
O O16 0.536479 0.394284 0.318558
O O17 0.107133 0.000000 0.647787
#
# Coordination Sequence:
#
# PCOD8102333 Si02
#       8
#     8   4   8   8   8   8   8   4
#     4  10  23  37  57  87 123 166 206 261 315 363
#     4  11  24  45  69  96 125 162 210 261 315 379
#     4  10  24  36  63  95 134 158 212 252 320 375
#     4  11  21  41  64  95 124 171 207 260 311 377
#     4  11  21  41  64  95 124 171 207 260 311 377
#     4  10  20  36  62  89 124 161 217 260 309 366
#     4  10  20  36  62  89 124 161 217 260 309 366
#     4  11  24  45  69  96 125 162 210 261 315 379
#
# _framework density 25.005927
#
# number of rings (size 3 to 8) (size 9 to 14) (size 15 to 20)
#    0.000    1.571    4.286    0.429    4.000    2.286 
#    0.000    5.714    0.000    0.857    0.000    0.000 
#    0.000    0.000    0.000    0.000    0.000    0.000 
#
# Total GULP energy -347155.422807 kJ/mol
# GULP energy per Si atom -12398.407957 kJ/mol
# Density = 2.494901 g / cm^3
# Si number density = 25.005927 Si / 1000 Ang^3
#
#
#
# Elastic Constant Matrix: (Units=GPa)
#
#
# Indices 1 2 3 4 5 6 
#
# 1 60.4582 19.6671 -13.4739 0.0000 18.9289 -0.0002
# 2 19.6671 109.2158 -8.9526 -0.0001 12.9740 -0.0001
# 3 -13.4739 -8.9526 31.2606 -0.0009 -3.5468 -0.0001
# 4 0.0000 -0.0001 -0.0009 36.3736 -0.0002 7.9957
# 5 18.9289 12.9740 -3.5468 -0.0002 27.5797 -0.0002
# 6 -0.0002 -0.0001 -0.0001 7.9957 -0.0002 41.6075
#
#
#
# Elastic Compliance Matrix: (Units=1/GPa)
#
#
# Indices 1 2 3 4 5 6 
#
# 1 0.023335 -0.001876 0.007919 0.000000 -0.014114 0.000000
# 2 -0.001876 0.010014 0.001695 0.000000 -0.003205 0.000000
# 3 0.007919 0.001695 0.035702 0.000001 -0.001641 0.000000
# 4 0.000000 0.000000 0.000001 0.028705 0.000000 -0.005516
# 5 -0.014114 -0.003205 -0.001641 0.000000 0.047242 0.000000
# 6 0.000000 0.000000 0.000000 -0.005516 0.000000 0.025094
#
#
# Mechanical properties :
#
#
# Convention : Reuss Voigt Hill
#
# Bulk Modulus (GPa) = 11.83062 21.71288 16.77175
# Shear Modulus (GPa) = 27.35371 34.69176 31.02273
#
# Velocity S-wave (km/s) = 3.31099 3.72874 3.52606
# Velocity P-wave (km/s) = 4.39980 5.21919 4.82692
#
# Compressibility (1/GPa) = 0.08452641
#
# Stress axis : x y z
#
# Youngs Moduli (GPa) = 42.85485 99.86274 28.00992
#
# Poissons Ratio (x) = 0.18736 -0.22181
# Poissons Ratio (y) = 0.08040 -0.04749
# Poissons Ratio (z) = -0.33936 -0.16932
#
# Static dielectric constant tensor:
#      x y z
#    x 4.623260 0.000000 0.256300 
#    y 0.000000 4.639560 0.000000 
#    z 0.256300 0.000000 4.495330 
# 
# 
# High freq. dielectric constant tensor:
#      x y z
#    x 1.994970 0.000000 0.023920 
#    y 0.000000 2.010240 0.000000 
#    z 0.023920 0.000000 1.987060 
# 
# From -- ./inp_files/333341.got.cif
#   From: 2010.06.25/outbox.cif.g09.slc.cpg/sg12_167_cif.got.tgz:333341.got - 2010.06.28 00:19:55.
