data_PCOD8102142
_publ_section_title
;
Structure prediction by ZEFSAII (Michael W. Deem and Ramdas Pophale) SiO2 
 PCOD8102142
Probable space group: C 2/M
;
_chemical_formula_sum "Si O2"
_cell_formula_units_Z 64
_cell_length_a 25.553025
_cell_length_b 17.770438
_cell_length_c 16.578752
_cell_angle_alpha 90.000000
_cell_angle_beta 25.588039
_cell_angle_gamma 90.000000
_cell_volume 3251.419089
_symmetry_space_group_name_H-M "C 2/M"
_symmetry_group_IT_number 12
_symmetry_cell_setting 'monoclinic'
loop_
_space_group_symop_operation_xyz
x,y,z
-x,y,-z
-x,-y,-z
x,-y,z
1/2+x,1/2+y,z
1/2-x,1/2+y,-z
1/2-x,1/2-y,-z
1/2+x,1/2-y,z
loop_
_atom_site_type_symbol
_atom_site_label
_atom_site_fract_x
_atom_site_fract_y
_atom_site_fract_z
Si Si1 0.756231 0.661667 0.486626
Si Si2 0.783851 0.911509 0.038462
Si Si3 0.444837 0.842069 0.350854
Si Si4 0.137594 0.417654 0.805266
Si Si5 0.698615 0.911883 0.979903
Si Si6 0.115973 0.323569 0.389320
Si Si7 0.801791 0.837791 0.690578
Si Si8 0.539850 0.335976 0.681759
O O1 0.750000 0.750000 0.500000
O O2 0.817769 0.631980 0.484209
O O3 0.848056 0.635019 0.291404
O O4 0.623159 0.633772 0.641243
O O5 0.691115 0.884571 0.235387
O O6 0.801624 0.000000 0.021740
O O7 0.732410 0.887992 0.023338
O O8 0.910597 0.871246 0.876036
O O9 0.429371 0.863601 0.466008
O O10 0.468466 0.753764 0.305650
O O11 0.561989 0.884062 0.151775
O O12 0.205416 0.500000 0.707024
O O13 0.176331 0.368170 0.828378
O O14 0.000000 0.437543 0.000000
O O15 0.803460 0.875709 0.776887
O O16 0.702840 0.000000 0.959931
O O17 0.198889 0.251936 0.296412
O O18 0.000000 0.295087 0.500000
O O19 0.906509 0.861908 0.480565
#
# Coordination Sequence:
#
# PCOD8102142 Si02
#       8
#     8   8   8   8   8   8   8   8
#     4   9  19  37  59  87 120 154 199 243 292 351
#     4  11  25  41  58  84 120 162 200 244 304 361
#     4  10  20  38  63  89 115 151 204 256 292 340
#     4  10  20  36  60  90 125 160 193 240 301 356
#     4  11  23  36  56  87 121 156 197 246 299 356
#     4  11  23  41  64  87 113 156 207 257 304 346
#     4  10  22  36  60  91 121 154 198 243 296 361
#     4   9  21  39  60  86 118 158 191 240 300 362
#
# _framework density 19.683712
#
# number of rings (size 3 to 8) (size 9 to 14) (size 15 to 20)
#    0.000    1.875    1.250    2.625    3.500    6.750 
#    0.000    1.875    0.000    0.750    0.000    0.000 
#    0.000    0.000    0.000    0.000    0.000    0.000 
#
# Total GULP energy -396502.201168 kJ/mol
# GULP energy per Si atom -12390.693786 kJ/mol
# Density = 1.963891 g / cm^3
# Si number density = 19.683712 Si / 1000 Ang^3
#
#
#
# Elastic Constant Matrix: (Units=GPa)
#
#
# Indices 1 2 3 4 5 6 
#
# 1 99.6590 22.1753 32.5658 0.0001 2.8675 0.0000
# 2 22.1753 59.2967 32.7186 0.0000 7.3901 0.0000
# 3 32.5658 32.7186 80.8420 0.0002 -0.5179 0.0000
# 4 0.0001 0.0000 0.0002 21.1592 0.0000 -2.6902
# 5 2.8675 7.3901 -0.5179 0.0000 32.7203 0.0000
# 6 0.0000 0.0000 0.0000 -2.6902 0.0000 14.0008
#
#
#
# Elastic Compliance Matrix: (Units=1/GPa)
#
#
# Indices 1 2 3 4 5 6 
#
# 1 0.011806 -0.002207 -0.003866 0.000000 -0.000597 0.000000
# 2 -0.002207 0.022991 -0.008449 0.000000 -0.005133 0.000000
# 3 -0.003866 -0.008449 0.017363 0.000000 0.002522 0.000000
# 4 0.000000 0.000000 0.000000 0.048444 0.000000 0.009308
# 5 -0.000597 -0.005133 0.002522 0.000000 0.031814 0.000000
# 6 0.000000 0.000000 0.000000 0.009308 0.000000 0.073213
#
#
# Mechanical properties :
#
#
# Convention : Reuss Voigt Hill
#
# Bulk Modulus (GPa) = 43.26135 46.07968 44.67052
# Shear Modulus (GPa) = 20.62864 23.73191 22.18028
#
# Velocity S-wave (km/s) = 3.24080 3.47603 3.36048
# Velocity P-wave (km/s) = 6.00247 6.29057 6.14821
#
# Compressibility (1/GPa) = 0.02311532
#
# Stress axis : x y z
#
# Youngs Moduli (GPa) = 84.70303 43.49439 57.59411
#
# Poissons Ratio (x) = 0.09601 0.22268
# Poissons Ratio (y) = 0.18697 0.48661
# Poissons Ratio (z) = 0.32749 0.36748
#
# Static dielectric constant tensor:
#      x y z
#    x 4.150100 0.000000 -0.035290 
#    y 0.000000 3.459500 0.000000 
#    z -0.035290 0.000000 3.547310 
# 
# 
# High freq. dielectric constant tensor:
#      x y z
#    x 1.781220 0.000000 0.001380 
#    y 0.000000 1.758780 0.000000 
#    z 0.001380 0.000000 1.758160 
# 
# From -- ./inp_files/241458.got.cif
#   From: 2010.06.25/outbox.cif.g09.slc.cpg/sg12_121_cif.got.tgz:241458.got - 2010.06.28 00:19:55.
