data_PCOD8102909
_publ_section_title
;
Structure prediction by ZEFSAII (Michael W. Deem and Ramdas Pophale) SiO2 
 PCOD8102909
Probable space group: C 2/M
;
_chemical_formula_sum "Si O2"
_cell_formula_units_Z 56
_cell_length_a 15.014798
_cell_length_b 8.990172
_cell_length_c 23.291851
_cell_angle_alpha 90.000000
_cell_angle_beta 99.982992
_cell_angle_gamma 90.000000
_cell_volume 3096.461388
_symmetry_space_group_name_H-M "C 2/M"
_symmetry_group_IT_number 12
_symmetry_cell_setting 'monoclinic'
loop_
_space_group_symop_operation_xyz
x,y,z
-x,y,-z
-x,-y,-z
x,-y,z
1/2+x,1/2+y,z
1/2-x,1/2+y,-z
1/2-x,1/2-y,-z
1/2+x,1/2-y,z
loop_
_atom_site_type_symbol
_atom_site_label
_atom_site_fract_x
_atom_site_fract_y
_atom_site_fract_z
Si Si1 0.790487 0.172703 0.059643
Si Si2 0.716555 0.323388 0.266733
Si Si3 0.084410 0.832423 0.351033
Si Si4 0.114160 0.167919 0.667945
Si Si5 0.841732 0.675302 0.855515
Si Si6 0.490582 0.824701 0.433524
Si Si7 0.995080 0.172148 0.066404
O O1 0.738346 0.225959 0.110691
O O2 0.895783 0.210198 0.079121
O O3 0.775238 0.000000 0.047308
O O4 0.750000 0.250000 0.000000
O O5 0.719636 0.500000 0.262930
O O6 0.656568 0.268964 0.314089
O O7 0.816929 0.259578 0.285254
O O8 0.671255 0.259930 0.205114
O O9 0.983662 0.832226 0.310849
O O10 0.079831 0.729761 0.407941
O O11 0.110695 0.000000 0.372467
O O12 0.098976 0.246830 0.603915
O O13 0.150017 0.000000 0.662979
O O14 0.840243 0.500000 0.844222
O O15 0.937512 0.721404 0.892326
O O16 0.500000 0.772728 0.500000
O O17 0.479635 0.000000 0.426963
O O18 0.020862 0.000000 0.079835
O O19 0.000000 0.210952 0.000000
#
# Coordination Sequence:
#
# PCOD8102909 Si02
#       7
#     8   8   8   8   8   8   8
#     4  10  21  37  58  82 111 143 178 224 278 331
#     4  11  22  39  59  81 111 149 192 233 276 331
#     4   8  19  36  56  80 111 149 185 230 281 322
#     4   9  19  36  57  82 113 149 185 229 280 325
#     4  11  24  38  55  83 113 144 182 229 277 333
#     4   9  17  32  57  87 116 147 186 229 275 330
#     4  10  20  37  60  82 108 144 181 223 277 333
#
# _framework density 18.085159999999998
#
# number of rings (size 3 to 8) (size 9 to 14) (size 15 to 20)
#    0.857    1.429    1.429    1.286    0.000    4.857 
#    0.000    6.429    0.000    0.000    0.000    0.000 
#    0.000    0.000    0.000    0.000    0.000    0.000 
#
# Total GULP energy -347078.281667 kJ/mol
# GULP energy per Si atom -12395.652917 kJ/mol
# Density = 1.804400 g / cm^3
# Si number density = 18.085160 Si / 1000 Ang^3
#
#
#
# Elastic Constant Matrix: (Units=GPa)
#
#
# Indices 1 2 3 4 5 6 
#
# 1 67.2969 23.4220 17.9254 0.0000 -5.3069 0.0000
# 2 23.4220 73.2200 38.0666 0.0000 -1.3408 0.0000
# 3 17.9254 38.0666 76.5380 0.0000 -3.0699 0.0000
# 4 0.0000 0.0000 0.0000 28.9020 0.0000 7.1388
# 5 -5.3069 -1.3408 -3.0699 0.0000 30.3112 0.0000
# 6 0.0000 0.0000 0.0000 7.1388 0.0000 27.2800
#
#
#
# Elastic Compliance Matrix: (Units=1/GPa)
#
#
# Indices 1 2 3 4 5 6 
#
# 1 0.017091 -0.004576 -0.001622 0.000000 0.002626 0.000000
# 2 -0.004576 0.019646 -0.008732 0.000000 -0.000817 0.000000
# 3 -0.001622 -0.008732 0.017834 0.000000 0.001136 0.000000
# 4 0.000000 0.000000 0.000000 0.036991 0.000000 -0.009680
# 5 0.002626 -0.000817 0.001136 0.000000 0.033530 0.000000
# 6 0.000000 0.000000 0.000000 -0.009680 0.000000 0.039190
#
#
# Mechanical properties :
#
#
# Convention : Reuss Voigt Hill
#
# Bulk Modulus (GPa) = 40.46704 41.76478 41.11591
# Shear Modulus (GPa) = 24.70622 26.47468 25.59045
#
# Velocity S-wave (km/s) = 3.70009 3.83023 3.76573
# Velocity P-wave (km/s) = 6.37798 6.53486 6.45690
#
# Compressibility (1/GPa) = 0.02471147
#
# Stress axis : x y z
#
# Youngs Moduli (GPa) = 58.50973 50.90060 56.07359
#
# Poissons Ratio (x) = 0.23293 0.09092
# Poissons Ratio (y) = 0.26775 0.48964
# Poissons Ratio (z) = 0.09488 0.44447
#
# Static dielectric constant tensor:
#      x y z
#    x 3.368980 0.000000 -0.121740 
#    y 0.000000 3.328430 0.000000 
#    z -0.121740 0.000000 3.201700 
# 
# 
# High freq. dielectric constant tensor:
#      x y z
#    x 1.696410 0.000000 -0.002240 
#    y 0.000000 1.707510 0.000000 
#    z -0.002240 0.000000 1.688200 
# 
# From -- ./inp_files/313328.got.cif
#   From: 2010.06.25/outbox.cif.g09.slc.cpg/sg12_157_cif.got.tgz:313328.got - 2010.06.28 00:19:55.
