data_PCOD8102684
_publ_section_title
;
Structure prediction by ZEFSAII (Michael W. Deem and Ramdas Pophale) SiO2 
 PCOD8102684
Probable space group: C 2/M
;
_chemical_formula_sum "Si O2"
_cell_formula_units_Z 48
_cell_length_a 14.204967
_cell_length_b 7.965359
_cell_length_c 21.965766
_cell_angle_alpha 90.000000
_cell_angle_beta 108.582056
_cell_angle_gamma 90.000000
_cell_volume 2355.808124
_symmetry_space_group_name_H-M "C 2/M"
_symmetry_group_IT_number 12
_symmetry_cell_setting 'monoclinic'
loop_
_space_group_symop_operation_xyz
x,y,z
-x,y,-z
-x,-y,-z
x,-y,z
1/2+x,1/2+y,z
1/2-x,1/2+y,-z
1/2-x,1/2-y,-z
1/2+x,1/2-y,z
loop_
_atom_site_type_symbol
_atom_site_label
_atom_site_fract_x
_atom_site_fract_y
_atom_site_fract_z
Si Si1 0.103531 0.191277 0.240016
Si Si2 0.305121 0.188878 0.346720
Si Si3 0.978579 0.687098 0.658236
Si Si4 0.941928 0.310024 0.903469
Si Si5 0.359297 0.689848 0.007394
Si Si6 0.429240 0.500000 0.574851
Si Si7 0.150377 0.000000 0.568998
O O1 0.219058 0.214156 0.279845
O O2 0.087204 0.254124 0.169245
O O3 0.036937 0.299573 0.272652
O O4 0.068928 0.000000 0.238543
O O5 0.406253 0.217341 0.330973
O O6 0.294408 0.330617 0.396847
O O7 0.301090 0.000000 0.374777
O O8 0.946224 0.500000 0.629263
O O9 0.912542 0.831423 0.611651
O O10 0.908880 0.500000 0.906728
O O11 0.060350 0.296197 0.938048
O O12 0.880899 0.200850 0.939704
O O13 0.371216 0.500000 0.031306
O O14 0.250000 0.750000 0.000000
O O15 0.538538 0.500000 0.569805
O O16 0.348747 0.500000 0.504138
#
# Coordination Sequence:
#
# PCOD8102684 Si02
#       7
#     8   8   8   8   8   4   4
#     4  11  22  39  60  84 121 155 194 244 292 348
#     4   9  21  37  57  83 115 152 194 244 297 354
#     4  10  20  37  58  83 115 153 195 244 298 354
#     4  11  23  39  60  91 120 158 201 240 295 354
#     4  11  22  41  64  88 123 159 197 246 292 345
#     4   9  18  36  56  88 109 152 189 251 292 360
#     4   9  18  34  62  80 115 146 199 237 304 350
#
# _framework density 20.375174999999999
#
# number of rings (size 3 to 8) (size 9 to 14) (size 15 to 20)
#    0.000    1.833    0.833    4.500    2.333    2.000 
#    0.000    9.167    0.000    0.000    0.000    0.000 
#    0.000    0.000    0.000    0.000    0.000    0.000 
#
# Total GULP energy -297623.716808 kJ/mol
# GULP energy per Si atom -12400.988200 kJ/mol
# Density = 2.032880 g / cm^3
# Si number density = 20.375175 Si / 1000 Ang^3
#
#
#
# Elastic Constant Matrix: (Units=GPa)
#
#
# Indices 1 2 3 4 5 6 
#
# 1 70.0116 37.8661 29.2848 0.0000 7.0926 0.0000
# 2 37.8661 141.0108 62.2550 0.0000 1.4548 0.0000
# 3 29.2848 62.2550 146.6225 0.0000 8.3663 0.0000
# 4 0.0000 0.0000 0.0000 32.1509 0.0000 0.9143
# 5 7.0926 1.4548 8.3663 0.0000 14.7352 0.0000
# 6 0.0000 0.0000 0.0000 0.9143 0.0000 28.8412
#
#
#
# Elastic Compliance Matrix: (Units=1/GPa)
#
#
# Indices 1 2 3 4 5 6 
#
# 1 0.017832 -0.004093 -0.001402 0.000000 -0.007383 0.000000
# 2 -0.004093 0.009691 -0.003467 0.000000 0.002982 0.000000
# 3 -0.001402 -0.003467 0.008800 0.000000 -0.003979 0.000000
# 4 0.000000 0.000000 0.000000 0.031131 0.000000 -0.000987
# 5 -0.007383 0.002982 -0.003979 0.000000 0.073383 0.000000
# 6 0.000000 0.000000 0.000000 -0.000987 0.000000 0.034704
#
#
# Mechanical properties :
#
#
# Convention : Reuss Voigt Hill
#
# Bulk Modulus (GPa) = 54.35815 68.49520 61.42668
# Shear Modulus (GPa) = 25.05033 30.36138 27.70586
#
# Velocity S-wave (km/s) = 3.51016 3.86439 3.69153
# Velocity P-wave (km/s) = 6.57000 7.32129 6.95579
#
# Compressibility (1/GPa) = 0.01839650
#
# Stress axis : x y z
#
# Youngs Moduli (GPa) = 56.08019 103.19053 113.64211
#
# Poissons Ratio (x) = 0.42237 0.15936
# Poissons Ratio (y) = 0.22954 0.39403
# Poissons Ratio (z) = 0.07864 0.35779
#
# Static dielectric constant tensor:
#      x y z
#    x 3.874880 0.000000 0.040280 
#    y 0.000000 4.132910 0.000000 
#    z 0.040280 0.000000 3.743990 
# 
# 
# High freq. dielectric constant tensor:
#      x y z
#    x 1.792480 0.000000 -0.001920 
#    y 0.000000 1.817770 0.000000 
#    z -0.001920 0.000000 1.782820 
# 
# From -- ./inp_files/308619.got.cif
#   From: 2010.06.25/outbox.cif.g09.slc.cpg/sg12_155_cif.got.tgz:308619.got - 2010.06.28 00:19:55.
