data_PCOD8102675
_publ_section_title
;
Structure prediction by ZEFSAII (Michael W. Deem and Ramdas Pophale) SiO2 
 PCOD8102675
Probable space group: C 2/M
;
_chemical_formula_sum "Si O2"
_cell_formula_units_Z 56
_cell_length_a 28.322729
_cell_length_b 8.732488
_cell_length_c 14.194129
_cell_angle_alpha 90.000000
_cell_angle_beta 119.339140
_cell_angle_gamma 90.000000
_cell_volume 3060.315532
_symmetry_space_group_name_H-M "C 2/M"
_symmetry_group_IT_number 12
_symmetry_cell_setting 'monoclinic'
loop_
_space_group_symop_operation_xyz
x,y,z
-x,y,-z
-x,-y,-z
x,-y,z
1/2+x,1/2+y,z
1/2-x,1/2+y,-z
1/2-x,1/2-y,-z
1/2+x,1/2-y,z
loop_
_atom_site_type_symbol
_atom_site_label
_atom_site_fract_x
_atom_site_fract_y
_atom_site_fract_z
Si Si1 0.995116 0.318188 0.886926
Si Si2 0.701567 0.320468 0.513373
Si Si3 0.717309 0.178958 0.730571
Si Si4 0.827464 0.327926 0.834168
Si Si5 0.196618 0.819998 0.900429
Si Si6 0.118518 0.327271 0.306996
Si Si7 0.602124 0.321117 0.951358
O O1 0.000422 0.500000 0.886398
O O2 0.041738 0.238148 0.869412
O O3 0.938606 0.262499 0.786103
O O4 0.000000 0.262470 0.000000
O O5 0.710203 0.500000 0.521852
O O6 0.750000 0.250000 0.500000
O O7 0.700509 0.262318 0.618842
O O8 0.642903 0.278540 0.412834
O O9 0.780273 0.210036 0.814699
O O10 0.684207 0.246694 0.786272
O O11 0.706417 0.000000 0.709988
O O12 0.811746 0.500000 0.851010
O O13 0.837532 0.325684 0.733200
O O14 0.881242 0.272828 0.939275
O O15 0.143283 0.780082 0.908051
O O16 0.205673 0.000000 0.899576
O O17 0.250000 0.750000 0.000000
O O18 0.111546 0.500000 0.338554
O O19 0.601870 0.500000 0.973150
#
# Coordination Sequence:
#
# PCOD8102675 Si02
#       7
#     8   8   8   8   8   8   8
#     4  10  20  37  58  82 114 154 193 232 284 340
#     4  12  24  38  58  84 117 154 191 235 289 342
#     4  12  24  38  57  84 116 151 195 238 285 344
#     4  11  20  33  56  82 117 155 190 231 281 337
#     4  11  23  38  57  83 117 154 192 236 288 343
#     4  10  21  37  57  83 116 154 195 235 281 340
#     4  11  23  36  54  84 119 152 192 236 283 340
#
# _framework density 18.298767000000002
#
# number of rings (size 3 to 8) (size 9 to 14) (size 15 to 20)
#    0.000    1.000    4.286    3.857    0.000    3.143 
#    0.000    0.000    0.000    0.857    0.000    6.000 
#    0.000    0.000    0.000    0.000    0.000    0.000 
#
# Total GULP energy -347275.427655 kJ/mol
# GULP energy per Si atom -12402.693845 kJ/mol
# Density = 1.825712 g / cm^3
# Si number density = 18.298767 Si / 1000 Ang^3
#
#
#
# Elastic Constant Matrix: (Units=GPa)
#
#
# Indices 1 2 3 4 5 6 
#
# 1 100.8144 42.6849 47.1925 0.0000 4.0006 0.0000
# 2 42.6849 112.9209 52.2782 0.0000 -2.6392 0.0000
# 3 47.1925 52.2782 118.4626 0.0000 -1.1393 0.0000
# 4 0.0000 0.0000 0.0000 31.5327 0.0000 0.2734
# 5 4.0006 -2.6392 -1.1393 0.0000 27.9403 0.0000
# 6 0.0000 0.0000 0.0000 0.2734 0.0000 30.2594
#
#
#
# Elastic Compliance Matrix: (Units=1/GPa)
#
#
# Indices 1 2 3 4 5 6 
#
# 1 0.013191 -0.003265 -0.003837 0.000000 -0.002354 0.000000
# 2 -0.003265 0.011958 -0.003963 0.000000 0.001435 0.000000
# 3 -0.003837 -0.003963 0.011725 0.000000 0.000653 0.000000
# 4 0.000000 0.000000 0.000000 0.031716 0.000000 -0.000287
# 5 -0.002354 0.001435 0.000653 0.000000 0.036290 0.000000
# 6 0.000000 0.000000 0.000000 -0.000287 0.000000 0.033050
#
#
# Mechanical properties :
#
#
# Convention : Reuss Voigt Hill
#
# Bulk Modulus (GPa) = 67.81853 68.50100 68.15977
# Shear Modulus (GPa) = 30.30787 30.61597 30.46192
#
# Velocity S-wave (km/s) = 4.07416 4.09481 4.08450
# Velocity P-wave (km/s) = 7.69896 7.73774 7.71837
#
# Compressibility (1/GPa) = 0.01474523
#
# Stress axis : x y z
#
# Youngs Moduli (GPa) = 75.80886 83.62553 85.28821
#
# Poissons Ratio (x) = 0.27304 0.32723
# Poissons Ratio (y) = 0.24752 0.33797
# Poissons Ratio (z) = 0.29086 0.33138
#
# Static dielectric constant tensor:
#      x y z
#    x 3.360910 0.000000 0.000980 
#    y 0.000000 3.405080 0.000000 
#    z 0.000980 0.000000 3.395740 
# 
# 
# High freq. dielectric constant tensor:
#      x y z
#    x 1.697380 0.000000 0.001290 
#    y 0.000000 1.717900 0.000000 
#    z 0.001290 0.000000 1.700950 
# 
# From -- ./inp_files/248587.got.cif
#   From: 2010.06.25/outbox.cif.g09.slc.cpg/sg12_125_cif.got.tgz:248587.got - 2010.06.28 00:19:55.
