data_PCOD8102631
_publ_section_title
;
Structure prediction by ZEFSAII (Michael W. Deem and Ramdas Pophale) SiO2 
 PCOD8102631
Probable space group: C 2/M
;
_chemical_formula_sum "Si O2"
_cell_formula_units_Z 56
_cell_length_a 18.749114
_cell_length_b 8.726674
_cell_length_c 19.643369
_cell_angle_alpha 90.000000
_cell_angle_beta 65.358967
_cell_angle_gamma 90.000000
_cell_volume 2921.323275
_symmetry_space_group_name_H-M "C 2/M"
_symmetry_group_IT_number 12
_symmetry_cell_setting 'monoclinic'
loop_
_space_group_symop_operation_xyz
x,y,z
-x,y,-z
-x,-y,-z
x,-y,z
1/2+x,1/2+y,z
1/2-x,1/2+y,-z
1/2-x,1/2-y,-z
1/2+x,1/2-y,z
loop_
_atom_site_type_symbol
_atom_site_label
_atom_site_fract_x
_atom_site_fract_y
_atom_site_fract_z
Si Si1 0.544320 0.818826 0.914568
Si Si2 0.493110 0.319033 0.794837
Si Si3 0.711137 0.168248 0.814221
Si Si4 0.228266 0.323335 0.438742
Si Si5 0.575056 0.182504 0.427503
Si Si6 0.876147 0.680397 0.742139
Si Si7 0.144016 0.668219 0.692926
O O1 0.500860 0.732965 0.869832
O O2 0.636817 0.772538 0.888882
O O3 0.537259 0.000000 0.904068
O O4 0.500000 0.766704 0.000000
O O5 0.503611 0.500000 0.786757
O O6 0.411160 0.268951 0.793238
O O7 0.556926 0.234722 0.722115
O O8 0.782895 0.285928 0.780986
O O9 0.668702 0.147673 0.759787
O O10 0.741458 0.000000 0.826601
O O11 0.213614 0.500000 0.455712
O O12 0.250000 0.250000 0.500000
O O13 0.149839 0.249824 0.437969
O O14 0.300235 0.294788 0.360874
O O15 0.500000 0.245434 0.500000
O O16 0.583112 0.237482 0.345297
O O17 0.575025 0.000000 0.427521
O O18 0.887904 0.500000 0.746201
O O19 0.147261 0.500000 0.655152
#
# Coordination Sequence:
#
# PCOD8102631 Si02
#       7
#     8   8   8   8   8   8   8
#     4   9  19  39  65  91 119 152 190 232 283 345
#     4  11  23  37  57  87 120 150 191 239 286 342
#     4   9  18  34  58  85 113 145 184 233 286 337
#     4  11  22  36  55  81 111 146 192 244 298 349
#     4   9  20  37  55  78 110 151 196 241 290 341
#     4  11  21  36  59  83 114 155 198 240 288 346
#     4  10  20  37  58  79 108 149 193 240 290 342
#
# _framework density 19.169395000000002
#
# number of rings (size 3 to 8) (size 9 to 14) (size 15 to 20)
#    0.000    2.000    1.429    3.429    2.000    2.571 
#    0.000    0.714    0.000    3.429    0.000    0.000 
#    0.000    0.000    0.000    0.000    0.000    0.000 
#
# Total GULP energy -347018.583501 kJ/mol
# GULP energy per Si atom -12393.520839 kJ/mol
# Density = 1.912576 g / cm^3
# Si number density = 19.169395 Si / 1000 Ang^3
#
#
#
# Elastic Constant Matrix: (Units=GPa)
#
#
# Indices 1 2 3 4 5 6 
#
# 1 98.5155 34.4162 46.8355 0.0000 0.1269 0.0000
# 2 34.4162 70.0222 23.5638 0.0000 4.7171 0.0001
# 3 46.8355 23.5638 117.5056 0.0000 -15.2544 0.0000
# 4 0.0000 0.0000 0.0000 25.6259 0.0000 -0.4875
# 5 0.1269 4.7171 -15.2544 0.0000 25.4242 0.0000
# 6 0.0000 0.0001 0.0000 -0.4875 0.0000 28.6803
#
#
#
# Elastic Compliance Matrix: (Units=1/GPa)
#
#
# Indices 1 2 3 4 5 6 
#
# 1 0.014328 -0.005246 -0.004925 0.000000 -0.002053 0.000000
# 2 -0.005246 0.017866 -0.002081 0.000000 -0.004537 0.000000
# 3 -0.004925 -0.002081 0.011868 0.000000 0.007532 0.000000
# 4 0.000000 0.000000 0.000000 0.039036 0.000000 0.000664
# 5 -0.002053 -0.004537 0.007532 0.000000 0.044703 0.000000
# 6 0.000000 0.000000 0.000000 0.000664 0.000000 0.034878
#
#
# Mechanical properties :
#
#
# Convention : Reuss Voigt Hill
#
# Bulk Modulus (GPa) = 51.13171 55.07491 53.10331
# Shear Modulus (GPa) = 25.81282 28.02794 26.92038
#
# Velocity S-wave (km/s) = 3.67354 3.82791 3.75152
# Velocity P-wave (km/s) = 6.68765 6.95200 6.82111
#
# Compressibility (1/GPa) = 0.01955734
#
# Stress axis : x y z
#
# Youngs Moduli (GPa) = 69.79525 55.97363 84.25829
#
# Poissons Ratio (x) = 0.29366 0.41499
# Poissons Ratio (y) = 0.36617 0.17530
# Poissons Ratio (z) = 0.34376 0.11645
#
# Static dielectric constant tensor:
#      x y z
#    x 3.314890 0.000000 -0.211440 
#    y 0.000000 3.381050 0.000000 
#    z -0.211440 0.000000 3.413460 
# 
# 
# High freq. dielectric constant tensor:
#      x y z
#    x 1.747220 0.000000 -0.009680 
#    y 0.000000 1.733510 0.000000 
#    z -0.009680 0.000000 1.738650 
# 
# From -- ./inp_files/313785.got.cif
#   From: 2010.06.25/outbox.cif.g09.slc.cpg/sg12_157_cif.got.tgz:313785.got - 2010.06.28 00:19:55.
