data_PCOD8102010
_publ_section_title
;
Structure prediction by ZEFSAII (Michael W. Deem and Ramdas Pophale) SiO2 
 PCOD8102010
Probable space group: C 2/M
;
_chemical_formula_sum "Si O2"
_cell_formula_units_Z 56
_cell_length_a 21.679258
_cell_length_b 14.237929
_cell_length_c 19.272036
_cell_angle_alpha 90.000000
_cell_angle_beta 28.489510
_cell_angle_gamma 90.000000
_cell_volume 2837.496014
_symmetry_space_group_name_H-M "C 2/M"
_symmetry_group_IT_number 12
_symmetry_cell_setting 'monoclinic'
loop_
_space_group_symop_operation_xyz
x,y,z
-x,y,-z
-x,-y,-z
x,-y,z
1/2+x,1/2+y,z
1/2-x,1/2+y,-z
1/2-x,1/2-y,-z
1/2+x,1/2-y,z
loop_
_atom_site_type_symbol
_atom_site_label
_atom_site_fract_x
_atom_site_fract_y
_atom_site_fract_z
Si Si1 0.896973 0.790959 0.546203
Si Si2 0.503877 0.707240 0.824483
Si Si3 0.630502 0.270689 0.839751
Si Si4 0.927268 0.395204 0.298252
Si Si5 0.372186 0.391437 0.429493
Si Si6 0.210799 0.108870 0.885008
Si Si7 0.989911 0.605837 0.395493
O O1 0.749462 0.803842 0.719752
O O2 0.924456 0.847492 0.449020
O O3 0.000000 0.829300 0.500000
O O4 0.913263 0.678524 0.519503
O O5 0.603130 0.689727 0.789833
O O6 0.486624 0.819070 0.827749
O O7 0.559464 0.659120 0.701574
O O8 0.364373 0.665380 0.980616
O O9 0.666501 0.358510 0.852797
O O10 0.500000 0.221424 0.000000
O O11 0.970926 0.500000 0.232419
O O12 0.780011 0.375319 0.423782
O O13 0.939524 0.382770 0.367838
O O14 0.410065 0.500000 0.389922
O O15 0.359801 0.131460 0.750169
O O16 0.178129 0.000000 0.925383
O O17 0.964259 0.500000 0.448565
#
# Coordination Sequence:
#
# PCOD8102010 Si02
#       7
#     8   8   8   8   8   8   8
#     4  12  22  39  65  87 120 161 203 250 307 356
#     4  11  20  37  64  84 123 161 201 243 308 358
#     4  10  22  37  60  90 123 159 198 244 304 365
#     4  10  20  36  60  87 117 153 199 252 299 354
#     4  11  23  39  61  90 119 155 205 253 299 357
#     4  10  22  38  57  91 129 159 196 249 305 363
#     4  10  21  37  58  90 122 156 201 245 301 362
#
# _framework density 19.735710000000001
#
# number of rings (size 3 to 8) (size 9 to 14) (size 15 to 20)
#    0.000    1.429    4.286    1.714    0.000    4.857 
#    0.000    0.000    0.000    7.714    0.000    0.000 
#    0.000    0.000    0.000    0.000    0.000    0.000 
#
# Total GULP energy -347234.467369 kJ/mol
# GULP energy per Si atom -12401.230977 kJ/mol
# Density = 1.969079 g / cm^3
# Si number density = 19.735710 Si / 1000 Ang^3
#
#
#
# Elastic Constant Matrix: (Units=GPa)
#
#
# Indices 1 2 3 4 5 6 
#
# 1 126.6699 28.6155 40.4395 -0.0013 8.9630 0.0007
# 2 28.6155 104.8445 43.0853 -0.0010 12.8690 0.0006
# 3 40.4395 43.0853 93.7843 -0.0028 9.9078 0.0016
# 4 -0.0013 -0.0010 -0.0028 26.9450 0.0019 4.8499
# 5 8.9630 12.8690 9.9078 0.0019 28.1422 -0.0009
# 6 0.0007 0.0006 0.0016 4.8499 -0.0009 21.7141
#
#
#
# Elastic Compliance Matrix: (Units=1/GPa)
#
#
# Indices 1 2 3 4 5 6 
#
# 1 0.009300 -0.000969 -0.003426 0.000000 -0.001313 0.000000
# 2 -0.000969 0.012223 -0.004819 0.000000 -0.003584 0.000000
# 3 -0.003426 -0.004819 0.014547 0.000002 -0.001827 -0.000001
# 4 0.000000 0.000000 0.000002 0.038667 -0.000004 -0.008636
# 5 -0.001313 -0.003584 -0.001827 -0.000004 0.038234 0.000003
# 6 0.000000 0.000000 -0.000001 -0.008636 0.000003 0.047982
#
#
# Mechanical properties :
#
#
# Convention : Reuss Voigt Hill
#
# Bulk Modulus (GPa) = 56.68473 61.06437 58.87455
# Shear Modulus (GPa) = 26.98893 29.57084 28.27988
#
# Velocity S-wave (km/s) = 3.70201 3.87504 3.78951
# Velocity P-wave (km/s) = 6.85984 7.14349 7.00310
#
# Compressibility (1/GPa) = 0.01764143
#
# Stress axis : x y z
#
# Youngs Moduli (GPa) = 107.52450 81.81593 68.74331
#
# Poissons Ratio (x) = 0.07930 0.23554
# Poissons Ratio (y) = 0.10421 0.33125
# Poissons Ratio (z) = 0.36841 0.39424
#
# Static dielectric constant tensor:
#      x y z
#    x 3.756780 0.000000 -0.073540 
#    y 0.000000 3.642240 0.000000 
#    z -0.073540 0.000000 3.625200 
# 
# 
# High freq. dielectric constant tensor:
#      x y z
#    x 1.785410 0.000000 -0.000150 
#    y 0.000000 1.753260 0.000000 
#    z -0.000150 0.000000 1.763120 
# 
# From -- ./inp_files/96953.got.cif
#   From: 2010.06.25/outbox.cif.g09.slc.cpg/sg12_49_cif.got.tgz:96953.got - 2010.06.28 00:19:55.
