data_PCOD8102251
_publ_section_title
;
Structure prediction by ZEFSAII (Michael W. Deem and Ramdas Pophale) SiO2 
 PCOD8102251
Probable space group: C 2/M
;
_chemical_formula_sum "Si O2"
_cell_formula_units_Z 64
_cell_length_a 24.702692
_cell_length_b 8.818240
_cell_length_c 14.934531
_cell_angle_alpha 90.000000
_cell_angle_beta 109.137432
_cell_angle_gamma 90.000000
_cell_volume 3073.461393
_symmetry_space_group_name_H-M "C 2/M"
_symmetry_group_IT_number 12
_symmetry_cell_setting 'monoclinic'
loop_
_space_group_symop_operation_xyz
x,y,z
-x,y,-z
-x,-y,-z
x,-y,z
1/2+x,1/2+y,z
1/2-x,1/2+y,-z
1/2-x,1/2-y,-z
1/2+x,1/2-y,z
loop_
_atom_site_type_symbol
_atom_site_label
_atom_site_fract_x
_atom_site_fract_y
_atom_site_fract_z
Si Si1 0.275056 0.822606 0.101690
Si Si2 0.748981 0.174908 0.267339
Si Si3 0.389900 0.672151 0.133021
Si Si4 0.120588 0.674583 0.237494
Si Si5 0.082183 0.822231 0.394220
Si Si6 0.565965 0.321981 0.036846
Si Si7 0.140962 0.321775 0.587455
Si Si8 0.952753 0.828318 0.342734
O O1 0.241817 0.757486 0.168652
O O2 0.341828 0.783435 0.145666
O O3 0.265195 0.000000 0.093647
O O4 0.250000 0.750000 0.000000
O O5 0.688900 0.195030 0.285769
O O6 0.799408 0.246552 0.352822
O O7 0.763952 0.000000 0.258069
O O8 0.366186 0.500000 0.116535
O O9 0.442723 0.683748 0.230455
O O10 0.408862 0.725547 0.045539
O O11 0.103051 0.500000 0.239088
O O12 0.088983 0.771962 0.295668
O O13 0.100386 0.730079 0.129656
O O14 0.126981 0.732239 0.479712
O O15 0.018479 0.782566 0.395082
O O16 0.094201 0.000000 0.407650
O O17 0.572746 0.500000 0.059380
O O18 0.500000 0.273289 0.000000
O O19 0.149920 0.500000 0.593888
O O20 0.089361 0.280212 0.625996
O O21 0.941245 0.000000 0.369858
#
# Coordination Sequence:
#
# PCOD8102251 Si02
#       8
#     8   8   8   8   8   8   8   8
#     4  12  24  38  59  89 122 161 207 255 313 373
#     4  11  24  44  66  90 126 168 212 263 319 381
#     4  10  20  36  61  90 123 162 205 256 308 369
#     4  11  25  43  64  93 127 166 213 271 324 371
#     4  11  24  43  68  94 124 170 215 259 316 384
#     4  10  21  39  63  92 126 170 217 256 306 379
#     4  12  25  41  65  98 130 165 209 264 324 378
#     4  10  21  40  66  95 129 168 211 257 315 381
#
# _framework density 20.823426999999999
#
# number of rings (size 3 to 8) (size 9 to 14) (size 15 to 20)
#    0.000    1.125    1.250    5.250    0.000    9.750 
#    0.000    1.250    0.000    0.000    0.000    0.000 
#    0.000    0.000    0.000    0.000    0.000    0.000 
#
# Total GULP energy -396994.152204 kJ/mol
# GULP energy per Si atom -12406.067256 kJ/mol
# Density = 2.077603 g / cm^3
# Si number density = 20.823427 Si / 1000 Ang^3
#
#
#
# Elastic Constant Matrix: (Units=GPa)
#
#
# Indices 1 2 3 4 5 6 
#
# 1 76.3620 39.2158 10.1435 0.0000 5.0303 0.0000
# 2 39.2158 124.4407 30.4168 0.0000 7.2562 0.0000
# 3 10.1435 30.4168 92.0187 0.0000 5.7921 0.0000
# 4 0.0000 0.0000 0.0000 36.6548 0.0000 -2.2022
# 5 5.0303 7.2562 5.7921 0.0000 38.3149 0.0000
# 6 0.0000 0.0000 0.0000 -2.2022 0.0000 22.6158
#
#
#
# Elastic Compliance Matrix: (Units=1/GPa)
#
#
# Indices 1 2 3 4 5 6 
#
# 1 0.015673 -0.004861 -0.000050 0.000000 -0.001130 0.000000
# 2 -0.004861 0.010308 -0.002815 0.000000 -0.000888 0.000000
# 3 -0.000050 -0.002815 0.011883 0.000000 -0.001257 0.000000
# 4 0.000000 0.000000 0.000000 0.027442 0.000000 0.002672
# 5 -0.001130 -0.000888 -0.001257 0.000000 0.026606 0.000000
# 6 0.000000 0.000000 0.000000 0.002672 0.000000 0.044477
#
#
# Mechanical properties :
#
#
# Convention : Reuss Voigt Hill
#
# Bulk Modulus (GPa) = 44.62149 50.26375 47.44262
# Shear Modulus (GPa) = 31.38506 33.72012 32.55259
#
# Velocity S-wave (km/s) = 3.88648 4.02846 3.95811
# Velocity P-wave (km/s) = 6.45094 6.76967 6.61223
#
# Compressibility (1/GPa) = 0.02241073
#
# Stress axis : x y z
#
# Youngs Moduli (GPa) = 63.80423 97.01350 84.15670
#
# Poissons Ratio (x) = 0.47159 0.00419
# Poissons Ratio (y) = 0.31016 0.23694
# Poissons Ratio (z) = 0.00317 0.27314
#
# Static dielectric constant tensor:
#      x y z
#    x 3.793710 0.000000 0.088110 
#    y 0.000000 3.848160 0.000000 
#    z 0.088110 0.000000 3.870780 
# 
# 
# High freq. dielectric constant tensor:
#      x y z
#    x 1.817690 0.000000 0.004500 
#    y 0.000000 1.814670 0.000000 
#    z 0.004500 0.000000 1.830520 
# 
# From -- ./inp_files/244174.got.cif
#   From: 2010.06.25/outbox.cif.g09.slc.cpg/sg12_123_cif.got.tgz:244174.got - 2010.06.28 00:19:55.
