data_PCOD8102108
_publ_section_title
;
Structure prediction by ZEFSAII (Michael W. Deem and Ramdas Pophale) SiO2 
 PCOD8102108
Probable space group: C 2/M
;
_chemical_formula_sum "Si O2"
_cell_formula_units_Z 56
_cell_length_a 24.969671
_cell_length_b 8.933880
_cell_length_c 14.502129
_cell_angle_alpha 90.000000
_cell_angle_beta 59.529466
_cell_angle_gamma 90.000000
_cell_volume 2788.281211
_symmetry_space_group_name_H-M "C 2/M"
_symmetry_group_IT_number 12
_symmetry_cell_setting 'monoclinic'
loop_
_space_group_symop_operation_xyz
x,y,z
-x,y,-z
-x,-y,-z
x,-y,z
1/2+x,1/2+y,z
1/2-x,1/2+y,-z
1/2-x,1/2-y,-z
1/2+x,1/2-y,z
loop_
_atom_site_type_symbol
_atom_site_label
_atom_site_fract_x
_atom_site_fract_y
_atom_site_fract_z
Si Si1 0.138900 0.326807 0.214328
Si Si2 0.071205 0.329228 0.682760
Si Si3 0.528133 0.170716 0.071852
Si Si4 0.847624 0.824221 0.983912
Si Si5 0.488088 0.324371 0.614780
Si Si6 0.242738 0.173023 0.774221
Si Si7 0.208823 0.676669 0.614109
O O1 0.126335 0.500000 0.205164
O O2 0.170063 0.257335 0.095804
O O3 0.073216 0.253085 0.292955
O O4 0.185691 0.303547 0.258615
O O5 0.074236 0.500000 0.645090
O O6 0.138214 0.273168 0.657876
O O7 0.025543 0.311181 0.807530
O O8 0.048486 0.226569 0.618688
O O9 0.582819 0.283077 0.048423
O O10 0.553061 0.000000 0.045829
O O11 0.500000 0.222047 0.000000
O O12 0.841967 0.000000 0.972425
O O13 0.801189 0.770517 0.104633
O O14 0.500000 0.274942 0.500000
O O15 0.478622 0.500000 0.632962
O O16 0.230363 0.270557 0.695442
O O17 0.229259 0.000000 0.763056
O O18 0.216668 0.500000 0.602559
O O19 0.250000 0.750000 0.500000
#
# Coordination Sequence:
#
# PCOD8102108 Si02
#       7
#     8   8   8   8   8   8   8
#     4  11  23  41  65  92 126 168 211 254 309 377
#     4  10  22  41  64  91 123 164 207 250 306 370
#     4  10  20  36  60  89 123 163 206 249 301 369
#     4  11  22  38  61  93 129 162 205 258 315 368
#     4  11  25  42  63  94 127 160 205 260 318 369
#     4  10  24  43  63  92 128 168 211 258 312 371
#     4  11  25  44  67  94 125 166 212 259 311 369
#
# _framework density 20.084057000000001
#
# number of rings (size 3 to 8) (size 9 to 14) (size 15 to 20)
#    0.000    1.429    1.429    3.000    2.000    6.000 
#    0.000    0.000    0.000    0.000    0.000    0.000 
#    0.000    0.000    0.000    0.000    0.000    0.000 
#
# Total GULP energy -347358.622320 kJ/mol
# GULP energy per Si atom -12405.665083 kJ/mol
# Density = 2.003835 g / cm^3
# Si number density = 20.084057 Si / 1000 Ang^3
#
#
#
# Elastic Constant Matrix: (Units=GPa)
#
#
# Indices 1 2 3 4 5 6 
#
# 1 117.8543 40.4822 41.9463 0.0000 15.6187 0.0000
# 2 40.4822 76.7111 46.6721 0.0000 14.8089 0.0000
# 3 41.9463 46.6721 100.1977 0.0000 22.1528 0.0000
# 4 0.0000 0.0000 0.0000 31.9621 0.0000 4.7156
# 5 15.6187 14.8089 22.1528 0.0000 36.0955 0.0000
# 6 0.0000 0.0000 0.0000 4.7156 0.0000 37.0274
#
#
#
# Elastic Compliance Matrix: (Units=1/GPa)
#
#
# Indices 1 2 3 4 5 6 
#
# 1 0.010915 -0.004024 -0.002332 0.000000 -0.001641 0.000000
# 2 -0.004024 0.019892 -0.007129 0.000000 -0.002044 0.000000
# 3 -0.002332 -0.007129 0.015512 0.000000 -0.005587 0.000000
# 4 0.000000 0.000000 0.000000 0.031886 0.000000 -0.004061
# 5 -0.001641 -0.002044 -0.005587 0.000000 0.032682 0.000000
# 6 0.000000 0.000000 0.000000 -0.004061 0.000000 0.027524
#
#
# Mechanical properties :
#
#
# Convention : Reuss Voigt Hill
#
# Bulk Modulus (GPa) = 51.68429 61.44047 56.56238
# Shear Modulus (GPa) = 29.09844 32.06117 30.57980
#
# Velocity S-wave (km/s) = 3.81048 3.99977 3.90627
# Velocity P-wave (km/s) = 6.71934 7.21034 6.96916
#
# Compressibility (1/GPa) = 0.01934824
#
# Stress axis : x y z
#
# Youngs Moduli (GPa) = 91.61830 50.27244 64.46522
#
# Poissons Ratio (x) = 0.20232 0.15034
# Poissons Ratio (y) = 0.36871 0.45956
# Poissons Ratio (z) = 0.21366 0.35838
#
# Static dielectric constant tensor:
#      x y z
#    x 3.770340 0.000000 0.061340 
#    y 0.000000 3.681390 0.000000 
#    z 0.061340 0.000000 3.827920 
# 
# 
# High freq. dielectric constant tensor:
#      x y z
#    x 1.798520 0.000000 0.003140 
#    y 0.000000 1.784630 0.000000 
#    z 0.003140 0.000000 1.794400 
# 
# From -- ./inp_files/238349.got.cif
#   From: 2010.06.25/outbox.cif.g09.slc.cpg/sg12_120_cif.got.tgz:238349.got - 2010.06.28 00:19:55.
