data_PCOD8102185
_publ_section_title
;
Structure prediction by ZEFSAII (Michael W. Deem and Ramdas Pophale) SiO2 
 PCOD8102185
Probable space group: C 2/M
;
_chemical_formula_sum "Si O2"
_cell_formula_units_Z 56
_cell_length_a 30.890156
_cell_length_b 8.862624
_cell_length_c 20.972263
_cell_angle_alpha 90.000000
_cell_angle_beta 28.479621
_cell_angle_gamma 90.000000
_cell_volume 2737.827010
_symmetry_space_group_name_H-M "C 2/M"
_symmetry_group_IT_number 12
_symmetry_cell_setting 'monoclinic'
loop_
_space_group_symop_operation_xyz
x,y,z
-x,y,-z
-x,-y,-z
x,-y,z
1/2+x,1/2+y,z
1/2-x,1/2+y,-z
1/2-x,1/2-y,-z
1/2+x,1/2-y,z
loop_
_atom_site_type_symbol
_atom_site_label
_atom_site_fract_x
_atom_site_fract_y
_atom_site_fract_z
Si Si1 0.138052 0.328435 0.597926
Si Si2 0.019644 0.827249 0.655037
Si Si3 0.596060 0.323904 0.898259
Si Si4 0.186472 0.330440 0.671115
Si Si5 0.579451 0.177580 0.447021
Si Si6 0.282596 0.320724 0.144027
Si Si7 0.318678 0.671255 0.956729
O O1 0.166556 0.500000 0.543323
O O2 0.118084 0.316815 0.699448
O O3 0.213423 0.206273 0.482343
O O4 0.049704 0.278344 0.674410
O O5 0.058858 0.766538 0.538188
O O6 0.051484 0.000000 0.622598
O O7 0.912272 0.813817 0.798138
O O8 0.580813 0.500000 0.927935
O O9 0.664687 0.292791 0.752162
O O10 0.643655 0.255361 0.900263
O O11 0.500000 0.248425 0.000000
O O12 0.183874 0.500000 0.702751
O O13 0.500000 0.219553 0.500000
O O14 0.678599 0.230777 0.293258
O O15 0.578999 0.000000 0.462288
O O16 0.286581 0.500000 0.142759
O O17 0.314433 0.258346 0.033700
O O18 0.287840 0.500000 0.004637
O O19 0.250000 0.750000 0.000000
#
# Coordination Sequence:
#
# PCOD8102185 Si02
#       7
#     8   8   8   8   8   8   8
#     4  10  21  37  58  83 113 152 193 236 289 356
#     4  11  23  36  58  89 119 150 190 246 304 352
#     4  10  21  35  57  83 112 158 204 238 282 349
#     4  10  21  37  57  83 116 150 190 244 298 340
#     4  10  20  36  61  86 112 154 200 244 296 358
#     4   9  19  37  58  83 114 151 198 243 285 343
#     4  10  22  40  61  85 117 153 194 244 295 352
#
# _framework density 20.454177000000001
#
# number of rings (size 3 to 8) (size 9 to 14) (size 15 to 20)
#    0.000    2.000    0.000    3.000    2.000    5.714 
#    0.000    1.429    0.000    0.000    0.000    0.000 
#    0.000    0.000    0.000    0.000    0.000    0.000 
#
# Total GULP energy -347060.339438 kJ/mol
# GULP energy per Si atom -12395.012123 kJ/mol
# Density = 2.040762 g / cm^3
# Si number density = 20.454177 Si / 1000 Ang^3
#
#
#
# Elastic Constant Matrix: (Units=GPa)
#
#
# Indices 1 2 3 4 5 6 
#
# 1 148.9896 33.2398 41.7658 0.0134 -5.2384 -0.0088
# 2 33.2398 41.7812 15.1974 -0.0144 -0.2219 -0.0059
# 3 41.7658 15.1974 82.0860 -0.0010 7.9586 -0.0144
# 4 0.0134 -0.0144 -0.0010 24.3736 -0.0029 1.7502
# 5 -5.2384 -0.2219 7.9586 -0.0029 36.7626 0.0032
# 6 -0.0088 -0.0059 -0.0144 1.7502 0.0032 27.3937
#
#
#
# Elastic Compliance Matrix: (Units=1/GPa)
#
#
# Indices 1 2 3 4 5 6 
#
# 1 0.009159 -0.005905 -0.003769 -0.000008 0.002085 0.000000
# 2 -0.005905 0.029522 -0.002448 0.000020 -0.000133 0.000002
# 3 -0.003769 -0.002448 0.014920 0.000000 -0.003782 0.000007
# 4 -0.000008 0.000020 0.000000 0.041217 0.000002 -0.002633
# 5 0.002085 -0.000133 -0.003782 0.000002 0.028317 -0.000005
# 6 0.000000 0.000002 0.000007 -0.002633 -0.000005 0.036673
#
#
# Mechanical properties :
#
#
# Convention : Reuss Voigt Hill
#
# Bulk Modulus (GPa) = 34.06420 50.36253 42.21337
# Shear Modulus (GPa) = 25.79478 29.88290 27.83884
#
# Velocity S-wave (km/s) = 3.55505 3.82641 3.69322
# Velocity P-wave (km/s) = 5.79148 6.64812 6.23453
#
# Compressibility (1/GPa) = 0.02935633
#
# Stress axis : x y z
#
# Youngs Moduli (GPa) = 109.18034 33.87348 67.02360
#
# Poissons Ratio (x) = 0.20001 0.25263
# Poissons Ratio (y) = 0.64467 0.16410
# Poissons Ratio (z) = 0.41153 0.08294
#
# Static dielectric constant tensor:
#      x y z
#    x 4.049610 0.000000 -0.119720 
#    y 0.000000 3.478930 0.000050 
#    z -0.119720 0.000050 3.602390 
# 
# 
# High freq. dielectric constant tensor:
#      x y z
#    x 1.817920 0.000000 -0.000900 
#    y 0.000000 1.776560 0.000000 
#    z -0.000900 0.000000 1.795320 
# 
# From -- ./inp_files/329555.got.cif
#   From: 2010.06.25/outbox.cif.g09.slc.cpg/sg12_165_cif.got.tgz:329555.got - 2010.06.28 00:19:55.
