data_PCOD8102506
_publ_section_title
;
Structure prediction by ZEFSAII (Michael W. Deem and Ramdas Pophale) SiO2 
 PCOD8102506
Probable space group: C 2/M
;
_chemical_formula_sum "Si O2"
_cell_formula_units_Z 48
_cell_length_a 13.060680
_cell_length_b 22.795949
_cell_length_c 11.972051
_cell_angle_alpha 90.000000
_cell_angle_beta 46.717832
_cell_angle_gamma 90.000000
_cell_volume 2594.867289
_symmetry_space_group_name_H-M "C 2/M"
_symmetry_group_IT_number 12
_symmetry_cell_setting 'monoclinic'
loop_
_space_group_symop_operation_xyz
x,y,z
-x,y,-z
-x,-y,-z
x,-y,z
1/2+x,1/2+y,z
1/2-x,1/2+y,-z
1/2-x,1/2-y,-z
1/2+x,1/2-y,z
loop_
_atom_site_type_symbol
_atom_site_label
_atom_site_fract_x
_atom_site_fract_y
_atom_site_fract_z
Si Si1 0.458976 0.372462 0.412906
Si Si2 0.120526 0.327709 0.139409
Si Si3 0.270251 0.569560 0.134270
Si Si4 0.201714 0.703819 0.628641
Si Si5 0.954042 0.067275 0.191398
Si Si6 0.216086 0.213237 0.185659
O O1 0.500000 0.402434 0.500000
O O2 0.299430 0.352147 0.540915
O O3 0.454012 0.421180 0.322097
O O4 0.564489 0.318722 0.306772
O O5 0.142790 0.390858 0.183148
O O6 0.202722 0.277252 0.143384
O O7 0.956531 0.315867 0.270084
O O8 0.177885 0.326740 0.968423
O O9 0.234579 0.500000 0.144793
O O10 0.309818 0.585567 0.234312
O O11 0.404686 0.594528 0.965571
O O12 0.250000 0.750000 0.500000
O O13 0.219027 0.727013 0.741780
O O14 0.972879 0.000000 0.151868
#
# Coordination Sequence:
#
# PCOD8102506 Si02
#       6
#     8   8   8   8   8   8
#     4  10  20  37  55  81 119 148 185 227 276 345
#     4  11  21  37  60  83 113 149 188 238 282 334
#     4   9  19  35  60  86 110 144 192 242 280 324
#     4  11  23  37  53  82 121 149 180 228 291 342
#     4   9  18  36  59  86 112 144 193 235 275 330
#     4  10  22  37  56  85 111 146 196 229 274 344
#
# _framework density 18.498055000000001
#
# number of rings (size 3 to 8) (size 9 to 14) (size 15 to 20)
#    0.000    2.000    3.333    1.500    2.333    0.333 
#    3.000    0.833    0.000    5.000    0.000    0.000 
#    0.000    0.000    0.000    0.000    0.000    0.000 
#
# Total GULP energy -297399.893480 kJ/mol
# GULP energy per Si atom -12391.662228 kJ/mol
# Density = 1.845595 g / cm^3
# Si number density = 18.498055 Si / 1000 Ang^3
#
#
#
# Elastic Constant Matrix: (Units=GPa)
#
#
# Indices 1 2 3 4 5 6 
#
# 1 129.7580 47.5357 66.6999 0.0000 10.9589 0.0000
# 2 47.5357 53.1487 27.7135 0.0000 1.6418 0.0000
# 3 66.6999 27.7135 99.2391 0.0000 8.8828 0.0000
# 4 0.0000 0.0000 0.0000 24.5119 0.0000 4.5262
# 5 10.9589 1.6418 8.8828 0.0000 44.9203 0.0000
# 6 0.0000 0.0000 0.0000 4.5262 0.0000 24.1735
#
#
#
# Elastic Compliance Matrix: (Units=1/GPa)
#
#
# Indices 1 2 3 4 5 6 
#
# 1 0.015190 -0.009706 -0.007329 0.000000 -0.001902 0.000000
# 2 -0.009706 0.028231 -0.001507 0.000000 0.001634 0.000000
# 3 -0.007329 -0.001507 0.015533 0.000000 -0.001229 0.000000
# 4 0.000000 0.000000 0.000000 0.042258 0.000000 -0.007912
# 5 -0.001902 0.001634 -0.001229 0.000000 0.022909 0.000000
# 6 0.000000 0.000000 0.000000 -0.007912 0.000000 0.042849
#
#
# Mechanical properties :
#
#
# Convention : Reuss Voigt Hill
#
# Bulk Modulus (GPa) = 45.72089 62.89378 54.30734
# Shear Modulus (GPa) = 23.65823 28.06757 25.86290
#
# Velocity S-wave (km/s) = 3.58013 3.89951 3.74323
# Velocity P-wave (km/s) = 6.46993 7.37217 6.93574
#
# Compressibility (1/GPa) = 0.02187184
#
# Stress axis : x y z
#
# Youngs Moduli (GPa) = 65.83215 35.42211 64.37803
#
# Poissons Ratio (x) = 0.34379 0.47182
# Poissons Ratio (y) = 0.63894 0.09700
# Poissons Ratio (z) = 0.48248 0.05337
#
# Static dielectric constant tensor:
#      x y z
#    x 4.198700 0.000000 0.349680 
#    y 0.000000 3.099010 0.000000 
#    z 0.349680 0.000000 3.568240 
# 
# 
# High freq. dielectric constant tensor:
#      x y z
#    x 1.726430 0.000000 0.012380 
#    y 0.000000 1.692720 0.000000 
#    z 0.012380 0.000000 1.719530 
# 
# From -- ./inp_files/51307.got.cif
#   From: 2010.06.25/outbox.cif.g09.slc.cpg/sg12_26_cif.got.tgz:51307.got - 2010.06.28 00:19:55.
