data_PCOD8102734
_publ_section_title
;
Structure prediction by ZEFSAII (Michael W. Deem and Ramdas Pophale) SiO2 
 PCOD8102734
Probable space group: C 2/M
;
_chemical_formula_sum "Si O2"
_cell_formula_units_Z 56
_cell_length_a 12.146946
_cell_length_b 31.201736
_cell_length_c 14.252890
_cell_angle_alpha 90.000000
_cell_angle_beta 30.588374
_cell_angle_gamma 90.000000
_cell_volume 2748.861552
_symmetry_space_group_name_H-M "C 2/M"
_symmetry_group_IT_number 12
_symmetry_cell_setting 'monoclinic'
loop_
_space_group_symop_operation_xyz
x,y,z
-x,y,-z
-x,-y,-z
x,-y,z
1/2+x,1/2+y,z
1/2-x,1/2+y,-z
1/2-x,1/2-y,-z
1/2+x,1/2-y,z
loop_
_atom_site_type_symbol
_atom_site_label
_atom_site_fract_x
_atom_site_fract_y
_atom_site_fract_z
Si Si1 0.835575 0.550484 0.498413
Si Si2 0.328623 0.825303 0.706853
Si Si3 0.280005 0.155395 0.118320
Si Si4 0.261414 0.733184 0.715358
Si Si5 0.520665 0.827524 0.768663
Si Si6 0.200526 0.082729 0.794145
Si Si7 0.393501 0.395663 0.482846
O O1 0.864239 0.500000 0.477117
O O2 0.699492 0.564343 0.689736
O O3 0.709903 0.564954 0.497658
O O4 0.072352 0.571746 0.322634
O O5 0.500000 0.832559 0.500000
O O6 0.192833 0.781484 0.794493
O O7 0.464257 0.822941 0.702687
O O8 0.169322 0.865842 0.818618
O O9 0.249014 0.202460 0.186564
O O10 0.074749 0.125704 0.284753
O O11 0.500000 0.134864 0.000000
O O12 0.310758 0.158408 0.983215
O O13 0.500000 0.734093 0.500000
O O14 0.100622 0.717929 0.751324
O O15 0.715760 0.860805 0.641793
O O16 0.000000 0.062650 0.000000
O O17 0.500000 0.413738 0.500000
#
# Coordination Sequence:
#
# PCOD8102734 Si02
#       7
#     8   8   8   8   8   8   8
#     4  11  26  46  69 100 131 163 212 271 336 405
#     4  11  23  40  61  97 131 170 224 271 311 377
#     4  10  20  37  63  91 125 175 221 260 311 381
#     4  10  20  37  58  91 129 174 219 264 312 366
#     4  11  21  40  63  88 130 177 217 266 324 372
#     4  11  23  45  71  96 130 172 217 269 324 388
#     4  12  21  41  70  96 129 171 215 266 331 396
#
# _framework density 20.372070000000001
#
# number of rings (size 3 to 8) (size 9 to 14) (size 15 to 20)
#    0.000    1.143    7.143    0.857    2.000    6.000 
#    2.571    0.000    0.000    0.429    0.000    0.000 
#    0.000    0.000    0.000    0.000    0.000    0.000 
#
# Total GULP energy -347209.591814 kJ/mol
# GULP energy per Si atom -12400.342565 kJ/mol
# Density = 2.032570 g / cm^3
# Si number density = 20.372070 Si / 1000 Ang^3
#
#
#
# Elastic Constant Matrix: (Units=GPa)
#
#
# Indices 1 2 3 4 5 6 
#
# 1 129.3315 32.4939 31.4947 -0.0001 25.6105 0.0000
# 2 32.4939 85.5358 26.8879 0.0000 0.7630 0.0000
# 3 31.4947 26.8879 131.1438 -0.0001 21.9776 -0.0001
# 4 -0.0001 0.0000 -0.0001 4.6197 0.0001 -5.6104
# 5 25.6105 0.7630 21.9776 0.0001 20.8051 0.0001
# 6 0.0000 0.0000 -0.0001 -5.6104 0.0001 23.3838
#
#
#
# Elastic Compliance Matrix: (Units=1/GPa)
#
#
# Indices 1 2 3 4 5 6 
#
# 1 0.011642 -0.004481 0.000604 0.000001 -0.014805 0.000000
# 2 -0.004481 0.014350 -0.003283 -0.000001 0.008458 0.000000
# 3 0.000604 -0.003283 0.010034 0.000001 -0.011222 0.000000
# 4 0.000001 -0.000001 0.000001 0.305477 -0.000003 0.073292
# 5 -0.014805 0.008458 -0.011222 -0.000003 0.077834 -0.000001
# 6 0.000000 0.000000 0.000000 0.073292 -0.000001 0.060349
#
#
# Mechanical properties :
#
#
# Convention : Reuss Voigt Hill
#
# Bulk Modulus (GPa) = 46.07043 58.64045 52.35544
# Shear Modulus (GPa) = 9.97521 26.77069 18.37295
#
# Velocity S-wave (km/s) = 2.21521 3.62897 3.00637
# Velocity P-wave (km/s) = 5.40430 6.81223 6.14869
#
# Compressibility (1/GPa) = 0.02170589
#
# Stress axis : x y z
#
# Youngs Moduli (GPa) = 85.89248 69.68743 99.66005
#
# Poissons Ratio (x) = 0.31224 -0.06017
# Poissons Ratio (y) = 0.38484 0.32723
# Poissons Ratio (z) = -0.05185 0.22881
#
# Static dielectric constant tensor:
#      x y z
#    x 3.684560 0.000000 0.089310 
#    y 0.000000 3.677330 0.000000 
#    z 0.089310 0.000000 4.085910 
# 
# 
# High freq. dielectric constant tensor:
#      x y z
#    x 1.792930 0.000000 0.012740 
#    y 0.000000 1.776300 0.000000 
#    z 0.012740 0.000000 1.811270 
# 
# From -- ./inp_files/210010.got.cif
#   From: 2010.06.25/outbox.cif.g09.slc.cpg/sg12_106_cif.got.tgz:210010.got - 2010.06.28 00:19:55.
