data_PCOD8102116
_publ_section_title
;
Structure prediction by ZEFSAII (Michael W. Deem and Ramdas Pophale) SiO2 
 PCOD8102116
Probable space group: C 2/M
;
_chemical_formula_sum "Si O2"
_cell_formula_units_Z 64
_cell_length_a 29.297152
_cell_length_b 8.986493
_cell_length_c 19.116926
_cell_angle_alpha 90.000000
_cell_angle_beta 139.310321
_cell_angle_gamma 90.000000
_cell_volume 3281.375048
_symmetry_space_group_name_H-M "C 2/M"
_symmetry_group_IT_number 12
_symmetry_cell_setting 'monoclinic'
loop_
_space_group_symop_operation_xyz
x,y,z
-x,y,-z
-x,-y,-z
x,-y,z
1/2+x,1/2+y,z
1/2-x,1/2+y,-z
1/2-x,1/2-y,-z
1/2+x,1/2-y,z
loop_
_atom_site_type_symbol
_atom_site_label
_atom_site_fract_x
_atom_site_fract_y
_atom_site_fract_z
Si Si1 0.205371 0.323351 0.111715
Si Si2 0.580960 0.834778 0.608118
Si Si3 0.727360 0.170961 0.292112
Si Si4 0.384177 0.670522 0.484678
Si Si5 0.953751 0.324386 0.688801
Si Si6 0.816648 0.323579 0.613531
Si Si7 0.154897 0.827900 0.806795
Si Si8 0.599355 0.326118 0.891803
O O1 0.195731 0.500000 0.099905
O O2 0.215422 0.254333 0.201994
O O3 0.270604 0.277368 0.138226
O O4 0.135793 0.248147 0.000800
O O5 0.500000 0.841688 0.500000
O O6 0.616072 0.719113 0.596123
O O7 0.594557 0.771454 0.701199
O O8 0.613621 0.000000 0.638201
O O9 0.804297 0.194127 0.414735
O O10 0.677543 0.226873 0.297570
O O11 0.713507 0.000000 0.260248
O O12 0.408602 0.500000 0.520249
O O13 0.436055 0.773491 0.589490
O O14 0.965597 0.500000 0.703361
O O15 0.889132 0.273203 0.662399
O O16 0.023175 0.244838 0.795642
O O17 0.806280 0.500000 0.595815
O O18 0.750000 0.250000 0.500000
O O19 0.149042 0.795545 0.882432
O O20 0.140163 0.000000 0.773085
O O21 0.589613 0.500000 0.893831
#
# Coordination Sequence:
#
# PCOD8102116 Si02
#       8
#     8   8   8   8   8   8   8   8
#     4  10  20  39  63  85 113 150 195 244 293 346
#     4  11  23  35  50  79 119 157 194 238 288 342
#     4   9  18  35  60  87 114 146 185 232 289 344
#     4  11  20  35  59  83 115 154 191 235 287 349
#     4  11  23  38  58  87 121 155 194 241 292 349
#     4  10  20  36  60  90 119 149 191 237 289 351
#     4  10  21  38  59  84 112 151 199 241 290 348
#     4  11  24  40  59  85 117 155 199 243 290 346
#
# _framework density 19.504020000000001
#
# number of rings (size 3 to 8) (size 9 to 14) (size 15 to 20)
#    0.000    1.625    2.500    2.625    0.000    5.000 
#    0.000    1.250    0.000    3.750    0.000    0.000 
#    0.000    0.000    0.000    0.000    0.000    0.000 
#
# Total GULP energy -396749.171289 kJ/mol
# GULP energy per Si atom -12398.411603 kJ/mol
# Density = 1.945963 g / cm^3
# Si number density = 19.504020 Si / 1000 Ang^3
#
#
#
# Elastic Constant Matrix: (Units=GPa)
#
#
# Indices 1 2 3 4 5 6 
#
# 1 88.8731 29.5877 44.9220 0.0000 -4.1222 0.0000
# 2 29.5877 62.7455 42.6619 0.0000 1.3886 0.0000
# 3 44.9220 42.6619 124.2618 0.0000 -11.8874 0.0000
# 4 0.0000 0.0000 0.0000 27.3640 0.0000 2.8205
# 5 -4.1222 1.3886 -11.8874 0.0000 16.9183 0.0000
# 6 0.0000 0.0000 0.0000 2.8205 0.0000 22.8474
#
#
#
# Elastic Compliance Matrix: (Units=1/GPa)
#
#
# Indices 1 2 3 4 5 6 
#
# 1 0.014636 -0.004468 -0.003624 0.000000 0.001386 0.000000
# 2 -0.004468 0.023008 -0.007042 0.000000 -0.007925 0.000000
# 3 -0.003624 -0.007042 0.012593 0.000000 0.008543 0.000000
# 4 0.000000 0.000000 0.000000 0.037015 0.000000 -0.004569
# 5 0.001386 -0.007925 0.008543 0.000000 0.066098 0.000000
# 6 0.000000 0.000000 0.000000 -0.004569 0.000000 0.044333
#
#
# Mechanical properties :
#
#
# Convention : Reuss Voigt Hill
#
# Bulk Modulus (GPa) = 50.08140 56.69152 53.38646
# Shear Modulus (GPa) = 21.31224 24.00652 22.65938
#
# Velocity S-wave (km/s) = 3.30920 3.51215 3.41219
# Velocity P-wave (km/s) = 6.35093 6.75105 6.55404
#
# Compressibility (1/GPa) = 0.01996749
#
# Stress axis : x y z
#
# Youngs Moduli (GPa) = 68.32578 43.46394 79.41071
#
# Poissons Ratio (x) = 0.19419 0.28782
# Poissons Ratio (y) = 0.30527 0.55921
# Poissons Ratio (z) = 0.24765 0.30607
#
# Static dielectric constant tensor:
#      x y z
#    x 4.656900 0.000000 -0.430930 
#    y 0.000000 3.483790 0.000000 
#    z -0.430930 0.000000 3.578390 
# 
# 
# High freq. dielectric constant tensor:
#      x y z
#    x 1.760320 0.000000 -0.008060 
#    y 0.000000 1.749940 0.000000 
#    z -0.008060 0.000000 1.756570 
# 
# From -- ./inp_files/295805.got.cif
#   From: 2010.06.25/outbox.cif.g09.slc.cpg/sg12_148_cif.got.tgz:295805.got - 2010.06.28 00:19:55.
