data_PCOD8102174
_publ_section_title
;
Structure prediction by ZEFSAII (Michael W. Deem and Ramdas Pophale) SiO2 
 PCOD8102174
Probable space group: C 2/M
;
_chemical_formula_sum "Si O2"
_cell_formula_units_Z 32
_cell_length_a 13.051896
_cell_length_b 16.840293
_cell_length_c 13.123350
_cell_angle_alpha 90.000000
_cell_angle_beta 34.064164
_cell_angle_gamma 90.000000
_cell_volume 1615.659325
_symmetry_space_group_name_H-M "C 2/M"
_symmetry_group_IT_number 12
_symmetry_cell_setting 'monoclinic'
loop_
_space_group_symop_operation_xyz
x,y,z
-x,y,-z
-x,-y,-z
x,-y,z
1/2+x,1/2+y,z
1/2-x,1/2+y,-z
1/2-x,1/2-y,-z
1/2+x,1/2-y,z
loop_
_atom_site_type_symbol
_atom_site_label
_atom_site_fract_x
_atom_site_fract_y
_atom_site_fract_z
Si Si1 0.533449 0.193308 0.587406
Si Si2 0.985055 0.500000 0.891390
Si Si3 0.930702 0.850631 0.314411
Si Si4 0.606140 0.500000 0.516777
Si Si5 0.740896 0.911718 0.069347
O O1 0.500000 0.221363 0.500000
O O2 0.728573 0.149865 0.434107
O O3 0.523623 0.269042 0.667680
O O4 0.375533 0.132391 0.748965
O O5 0.878219 0.421557 0.937874
O O6 0.180141 0.500000 0.678037
O O7 0.000000 0.500000 0.000000
O O8 0.955386 0.922961 0.371183
O O9 0.075755 0.861877 0.103561
O O10 0.500000 0.500000 0.500000
O O11 0.790149 0.000000 0.070680
#
# Coordination Sequence:
#
# PCOD8102174 Si02
#       5
#     8   4   8   4   8
#     4  11  25  42  63  92 132 170 203 257 322 375
#     4  10  20  36  60  96 123 159 210 264 312 357
#     4  11  22  43  64  92 126 160 216 262 307 376
#     4  12  20  38  68  92 123 165 210 264 316 363
#     4  10  21  41  63  92 128 161 211 262 304 376
#
# _framework density 19.806156000000001
#
# number of rings (size 3 to 8) (size 9 to 14) (size 15 to 20)
#    0.750    0.500    3.750    3.000    0.000    1.500 
#    0.000    1.250    0.000    0.000    0.000    0.000 
#    0.000    0.000    0.000    0.000    0.000    0.000 
#
# Total GULP energy -198413.729695 kJ/mol
# GULP energy per Si atom -12400.858106 kJ/mol
# Density = 1.976108 g / cm^3
# Si number density = 19.806156 Si / 1000 Ang^3
#
#
#
# Elastic Constant Matrix: (Units=GPa)
#
#
# Indices 1 2 3 4 5 6 
#
# 1 49.4651 19.6834 26.9466 0.0043 -5.0394 -0.0003
# 2 19.6834 91.8197 46.6854 -0.0072 -11.2903 -0.0020
# 3 26.9466 46.6854 158.9805 -0.0229 -23.4151 -0.0117
# 4 0.0043 -0.0072 -0.0229 16.2728 0.0062 -74.9321
# 5 -5.0394 -11.2903 -23.4151 0.0062 29.6923 0.0055
# 6 -0.0003 -0.0020 -0.0117 -74.9321 0.0055 -185.9203
#
#
#
# Elastic Compliance Matrix: (Units=1/GPa)
#
#
# Indices 1 2 3 4 5 6 
#
# 1 0.023192 -0.003474 -0.002857 -0.000004 0.000362 0.000002
# 2 -0.003474 0.013446 -0.003047 0.000001 0.002120 0.000000
# 3 -0.002857 -0.003047 0.008403 0.000003 0.004983 -0.000001
# 4 -0.000004 0.000001 0.000003 0.021518 -0.000001 -0.008672
# 5 0.000362 0.002120 0.004983 -0.000001 0.038476 0.000001
# 6 0.000002 0.000000 -0.000001 -0.008672 0.000001 -0.001883
#
#
# Mechanical properties :
#
#
# Convention : Reuss Voigt Hill
#
# Bulk Modulus (GPa) = 38.04747 54.09956 46.07352
# Shear Modulus (GPa) = 38.26409 -14.19437 12.03486
#
# Velocity S-wave (km/s) = 4.40014 -2.67996 2.46769
# Velocity P-wave (km/s) = 6.71317 4.21871 5.60643
#
# Compressibility (1/GPa) = 0.02628295
#
# Stress axis : x y z
#
# Youngs Moduli (GPa) = 43.11776 74.37286 119.00265
#
# Poissons Ratio (x) = 0.25840 0.34005
# Poissons Ratio (y) = 0.14981 0.36264
# Poissons Ratio (z) = 0.12321 0.22664
#
# Static dielectric constant tensor:
#      x y z
#    x 3.377680 0.000030 -0.213490 
#    y 0.000030 3.342490 0.000020 
#    z -0.213490 0.000020 3.775630 
# 
# 
# High freq. dielectric constant tensor:
#      x y z
#    x 1.757450 0.000000 -0.013400 
#    y 0.000000 1.771510 0.000000 
#    z -0.013400 0.000000 1.790630 
# 
# From -- ./inp_files/130761.got.cif
#   From: 2010.06.25/outbox.cif.g09.slc.cpg/sg12_66_cif.got.tgz:130761.got - 2010.06.28 00:19:55.
