data_PCOD8102512
_publ_section_title
;
Structure prediction by ZEFSAII (Michael W. Deem and Ramdas Pophale) SiO2 
 PCOD8102512
Probable space group: C 2/M
;
_chemical_formula_sum "Si O2"
_cell_formula_units_Z 64
_cell_length_a 18.993789
_cell_length_b 9.073934
_cell_length_c 23.054868
_cell_angle_alpha 90.000000
_cell_angle_beta 122.279674
_cell_angle_gamma 90.000000
_cell_volume 3359.374988
_symmetry_space_group_name_H-M "C 2/M"
_symmetry_group_IT_number 12
_symmetry_cell_setting 'monoclinic'
loop_
_space_group_symop_operation_xyz
x,y,z
-x,y,-z
-x,-y,-z
x,-y,z
1/2+x,1/2+y,z
1/2-x,1/2+y,-z
1/2-x,1/2-y,-z
1/2+x,1/2-y,z
loop_
_atom_site_type_symbol
_atom_site_label
_atom_site_fract_x
_atom_site_fract_y
_atom_site_fract_z
Si Si1 0.201039 0.325116 0.792605
Si Si2 0.836761 0.325612 0.550652
Si Si3 0.883373 0.325506 0.698087
Si Si4 0.453460 0.325504 0.067201
Si Si5 0.877551 0.825550 0.914444
Si Si6 0.905847 0.165691 0.477528
Si Si7 0.940317 0.674705 0.179502
Si Si8 0.286853 0.673941 0.321214
O O1 0.203387 0.500000 0.787056
O O2 0.289335 0.261326 0.854415
O O3 0.129232 0.274983 0.805203
O O4 0.180993 0.255680 0.721701
O O5 0.825927 0.500000 0.545340
O O6 0.750000 0.250000 0.500000
O O7 0.870588 0.267914 0.627148
O O8 0.900850 0.274931 0.529671
O O9 0.886880 0.500000 0.698495
O O10 0.806970 0.273248 0.704985
O O11 0.970166 0.262259 0.760582
O O12 0.448788 0.500000 0.074274
O O13 0.548548 0.273929 0.096109
O O14 0.418079 0.245066 0.108050
O O15 0.396046 0.273280 0.988188
O O16 0.875123 0.000000 0.913476
O O17 0.846640 0.222643 0.399974
O O18 0.000000 0.167300 0.500000
O O19 0.877947 0.000000 0.482961
O O20 0.941540 0.500000 0.173282
O O21 0.291759 0.500000 0.312839
#
# Coordination Sequence:
#
# PCOD8102512 Si02
#       8
#     8   8   8   8   8   8   8   8
#     4  10  21  35  52  76 108 139 174 215 262 315
#     4  11  21  37  60  83 110 143 185 229 276 331
#     4   9  19  36  55  74 104 141 172 213 269 319
#     4   9  17  33  57  78 101 136 179 215 253 307
#     4   8  16  33  55  78 104 137 172 216 261 301
#     4  10  22  39  57  80 112 146 181 228 281 328
#     4  10  21  35  51  76 109 140 168 212 267 313
#     4  10  20  37  56  74 103 140 176 217 267 315
#
# _framework density 19.051162999999999
#
# number of rings (size 3 to 8) (size 9 to 14) (size 15 to 20)
#    0.000    2.375    1.250    1.875    1.750    1.750 
#    0.000    3.125    0.000    0.000    0.000    0.000 
#    0.000    0.000    0.000    0.000    0.000    0.000 
#
# Total GULP energy -396813.569358 kJ/mol
# GULP energy per Si atom -12400.424042 kJ/mol
# Density = 1.900780 g / cm^3
# Si number density = 19.051163 Si / 1000 Ang^3
#
#
#
# Elastic Constant Matrix: (Units=GPa)
#
#
# Indices 1 2 3 4 5 6 
#
# 1 107.9858 23.2667 45.6440 0.0000 -16.7577 0.0000
# 2 23.2667 32.5863 22.5180 0.0000 -12.2294 0.0000
# 3 45.6440 22.5180 94.2332 0.0000 -21.5035 0.0000
# 4 0.0000 0.0000 0.0000 28.2991 0.0000 -9.1817
# 5 -16.7577 -12.2294 -21.5035 0.0000 40.5042 0.0000
# 6 0.0000 0.0000 0.0000 -9.1817 0.0000 16.5460
#
#
#
# Elastic Compliance Matrix: (Units=1/GPa)
#
#
# Indices 1 2 3 4 5 6 
#
# 1 0.012504 -0.005379 -0.004507 0.000000 0.001156 0.000000
# 2 -0.005379 0.041085 -0.005563 0.000000 0.007226 0.000000
# 3 -0.004507 -0.005563 0.015151 0.000000 0.004499 0.000000
# 4 0.000000 0.000000 0.000000 0.043096 0.000000 0.023915
# 5 0.001156 0.007226 0.004499 0.000000 0.029737 0.000000
# 6 0.000000 0.000000 0.000000 0.023915 0.000000 0.073709
#
#
# Mechanical properties :
#
#
# Convention : Reuss Voigt Hill
#
# Bulk Modulus (GPa) = 26.42686 46.40696 36.41691
# Shear Modulus (GPa) = 19.32030 26.62830 22.97430
#
# Velocity S-wave (km/s) = 3.18799 3.74267 3.47641
# Velocity P-wave (km/s) = 5.23953 6.56421 5.93892
#
# Compressibility (1/GPa) = 0.03784028
#
# Stress axis : x y z
#
# Youngs Moduli (GPa) = 79.97350 24.34002 66.00100
#
# Poissons Ratio (x) = 0.13093 0.29749
# Poissons Ratio (y) = 0.43021 0.36717
# Poissons Ratio (z) = 0.36047 0.13541
#
# Static dielectric constant tensor:
#      x y z
#    x 3.620190 0.000000 0.339870 
#    y 0.000000 3.251320 0.000000 
#    z 0.339870 0.000000 2.846000 
# 
# 
# High freq. dielectric constant tensor:
#      x y z
#    x 1.747980 0.000000 -0.001210 
#    y 0.000000 1.706860 0.000000 
#    z -0.001210 0.000000 1.752220 
# 
# From -- ./inp_files/320085.got.cif
#   From: 2010.06.25/outbox.cif.g09.slc.cpg/sg12_161_cif.got.tgz:320085.got - 2010.06.28 00:19:55.
