data_PCOD8102374
_publ_section_title
;
Structure prediction by ZEFSAII (Michael W. Deem and Ramdas Pophale) SiO2 
 PCOD8102374
Probable space group: C 2/M
;
_chemical_formula_sum "Si O2"
_cell_formula_units_Z 64
_cell_length_a 20.412816
_cell_length_b 21.934342
_cell_length_c 18.292221
_cell_angle_alpha 90.000000
_cell_angle_beta 158.421580
_cell_angle_gamma 90.000000
_cell_volume 3012.141631
_symmetry_space_group_name_H-M "C 2/M"
_symmetry_group_IT_number 12
_symmetry_cell_setting 'monoclinic'
loop_
_space_group_symop_operation_xyz
x,y,z
-x,y,-z
-x,-y,-z
x,-y,z
1/2+x,1/2+y,z
1/2-x,1/2+y,-z
1/2-x,1/2-y,-z
1/2+x,1/2-y,z
loop_
_atom_site_type_symbol
_atom_site_label
_atom_site_fract_x
_atom_site_fract_y
_atom_site_fract_z
Si Si1 0.435814 0.070869 0.096188
Si Si2 0.564204 0.178076 0.650176
Si Si3 0.466224 0.431601 0.792403
Si Si4 0.974790 0.185016 0.058902
Si Si5 0.217040 0.755721 0.551496
Si Si6 0.097147 0.931326 0.669037
Si Si7 0.623430 0.068306 0.806222
Si Si8 0.182993 0.104956 0.511832
O O1 0.437696 0.098346 0.180282
O O2 0.627761 0.082187 0.260357
O O3 0.387868 0.000000 0.054330
O O4 0.283304 0.101037 0.886034
O O5 0.500000 0.183244 0.500000
O O6 0.445179 0.217357 0.582313
O O7 0.549372 0.108175 0.662016
O O8 0.770890 0.198141 0.870663
O O9 0.412260 0.500000 0.763524
O O10 0.453037 0.381994 0.843179
O O11 0.331617 0.409641 0.589400
O O12 0.664602 0.432252 0.967961
O O13 0.094756 0.238051 0.217699
O O14 0.000000 0.188200 0.000000
O O15 0.250000 0.750000 0.500000
O O16 0.163420 0.824741 0.512013
O O17 0.000000 0.896832 0.500000
O O18 0.968682 0.932852 0.605274
O O19 0.140476 0.000000 0.688551
O O20 0.547915 0.000000 0.715926
#
# Coordination Sequence:
#
# PCOD8102374 Si02
#       8
#     8   8   8   8   8   8   8   8
#     4  10  20  36  62  93 124 162 209 266 331 395
#     4  11  24  44  69  94 134 178 217 272 336 388
#     4  10  20  39  68 100 131 168 211 264 334 398
#     4  11  24  46  69  97 140 174 215 278 330 389
#     4  12  26  45  66  95 129 177 233 269 318 389
#     4  10  22  41  60  85 124 160 204 273 340 391
#     4   9  19  37  64  98 132 165 210 264 324 397
#     4  12  23  39  64  90 126 165 219 270 316 390
#
# _framework density 21.247340999999999
#
# number of rings (size 3 to 8) (size 9 to 14) (size 15 to 20)
#    0.000    1.375    3.750    1.875    0.000    3.000 
#    2.250    1.875    0.000    0.000    0.000    0.000 
#    0.000    0.000    0.000    0.000    0.000    0.000 
#
# Total GULP energy -396700.345181 kJ/mol
# GULP energy per Si atom -12396.885787 kJ/mol
# Density = 2.119898 g / cm^3
# Si number density = 21.247341 Si / 1000 Ang^3
#
#
#
# Elastic Constant Matrix: (Units=GPa)
#
#
# Indices 1 2 3 4 5 6 
#
# 1 96.7482 22.5109 57.8603 -0.0010 -16.4567 -0.0010
# 2 22.5109 80.6218 29.0701 0.0001 -8.9261 0.0002
# 3 57.8603 29.0701 147.2408 -0.0023 -0.6334 -0.0044
# 4 -0.0010 0.0001 -0.0023 22.1510 -0.0016 0.7818
# 5 -16.4567 -8.9261 -0.6334 -0.0016 36.0496 -0.0022
# 6 -0.0010 0.0002 -0.0044 0.7818 -0.0022 30.3705
#
#
#
# Elastic Compliance Matrix: (Units=1/GPa)
#
#
# Indices 1 2 3 4 5 6 
#
# 1 0.015146 -0.001485 -0.005631 0.000001 0.006448 0.000000
# 2 -0.001485 0.013894 -0.002148 0.000000 0.002725 0.000000
# 3 -0.005631 -0.002148 0.009416 0.000000 -0.002937 0.000001
# 4 0.000001 0.000000 0.000000 0.045186 0.000002 -0.001163
# 5 0.006448 0.002725 -0.002937 0.000002 0.031306 0.000002
# 6 0.000000 0.000000 0.000001 -0.001163 0.000002 0.032957
#
#
# Mechanical properties :
#
#
# Convention : Reuss Voigt Hill
#
# Bulk Modulus (GPa) = 50.17903 60.38816 55.28360
# Shear Modulus (GPa) = 28.88927 32.05883 30.47405
#
# Velocity S-wave (km/s) = 3.69136 3.88859 3.79126
# Velocity P-wave (km/s) = 6.46808 6.97458 6.72610
#
# Compressibility (1/GPa) = 0.01992864
#
# Stress axis : x y z
#
# Youngs Moduli (GPa) = 66.02468 71.97163 106.20454
#
# Poissons Ratio (x) = 0.10686 0.59803
# Poissons Ratio (y) = 0.09803 0.22813
# Poissons Ratio (z) = 0.37178 0.15460
#
# Static dielectric constant tensor:
#      x y z
#    x 3.744240 0.000000 0.096680 
#    y 0.000000 4.055130 -0.000020 
#    z 0.096680 -0.000020 4.798460 
# 
# 
# High freq. dielectric constant tensor:
#      x y z
#    x 1.826560 0.000000 0.003850 
#    y 0.000000 1.814980 0.000000 
#    z 0.003850 0.000000 1.851230 
# 
# From -- ./inp_files/286443.got.cif
#   From: 2010.06.25/outbox.cif.g09.slc.cpg/sg12_144_cif.got.tgz:286443.got - 2010.06.28 00:19:55.
