data_PCOD8102643
_publ_section_title
;
Structure prediction by ZEFSAII (Michael W. Deem and Ramdas Pophale) SiO2 
 PCOD8102643
Probable space group: C 2/M
;
_chemical_formula_sum "Si O2"
_cell_formula_units_Z 64
_cell_length_a 11.481934
_cell_length_b 16.602554
_cell_length_c 25.884020
_cell_angle_alpha 90.000000
_cell_angle_beta 138.465648
_cell_angle_gamma 90.000000
_cell_volume 3271.752015
_symmetry_space_group_name_H-M "C 2/M"
_symmetry_group_IT_number 12
_symmetry_cell_setting 'monoclinic'
loop_
_space_group_symop_operation_xyz
x,y,z
-x,y,-z
-x,-y,-z
x,-y,z
1/2+x,1/2+y,z
1/2-x,1/2+y,-z
1/2-x,1/2-y,-z
1/2+x,1/2-y,z
loop_
_atom_site_type_symbol
_atom_site_label
_atom_site_fract_x
_atom_site_fract_y
_atom_site_fract_z
Si Si1 0.594561 0.092107 0.945401
Si Si2 0.893448 0.908653 0.654258
Si Si3 0.791298 0.158920 0.808936
Si Si4 0.143146 0.095500 0.883388
Si Si5 0.274013 0.659798 0.192292
Si Si6 0.694078 0.595508 0.078190
Si Si7 0.628638 0.908029 0.655150
Si Si8 0.134973 0.693493 0.499944
O O1 0.386858 0.100148 0.872638
O O2 0.682694 0.133735 0.925118
O O3 0.650461 0.000000 0.961035
O O4 0.679273 0.122208 0.027357
O O5 0.810981 0.903629 0.684256
O O6 0.778108 0.859504 0.576118
O O7 0.091278 0.873458 0.719956
O O8 0.900063 0.000000 0.636784
O O9 0.800770 0.255398 0.813835
O O10 0.723816 0.130505 0.842055
O O11 0.654540 0.132789 0.719439
O O12 0.978080 0.115614 0.864624
O O13 0.124093 0.155653 0.828396
O O14 0.140253 0.000000 0.867374
O O15 0.699069 0.500000 0.083878
O O16 0.500000 0.626948 0.000000
O O17 0.476381 0.862979 0.574238
O O18 0.569318 0.000000 0.643282
O O19 0.250000 0.750000 0.500000
O O20 0.000000 0.731457 0.500000
#
# Coordination Sequence:
#
# PCOD8102643 Si02
#       8
#     8   8   8   8   8   8   8   8
#     4  10  22  39  60  82 113 160 210 253 307 377
#     4  10  20  38  64  90 121 163 209 250 297 361
#     4  12  24  36  59  87 121 156 201 255 312 362
#     4  11  22  42  63  80 112 164 212 251 304 376
#     4  12  25  36  57  90 124 152 200 263 319 358
#     4  10  20  37  58  80 111 156 203 248 303 373
#     4  10  20  38  65  92 119 161 215 251 287 366
#     4  10  21  39  65  99 131 162 198 259 319 371
#
# _framework density 19.561384
#
# number of rings (size 3 to 8) (size 9 to 14) (size 15 to 20)
#    0.000    1.375    2.500    3.750    1.750    4.000 
#    0.000    1.250    0.000    3.000    0.000    0.000 
#    0.000    0.000    0.000    0.000    0.000    0.000 
#
# Total GULP energy -396596.920665 kJ/mol
# GULP energy per Si atom -12393.653771 kJ/mol
# Density = 1.951686 g / cm^3
# Si number density = 19.561384 Si / 1000 Ang^3
#
#
#
# Elastic Constant Matrix: (Units=GPa)
#
#
# Indices 1 2 3 4 5 6 
#
# 1 66.5483 38.4570 35.0150 0.0000 -5.0553 0.0000
# 2 38.4570 84.3135 38.0967 0.0000 -4.2280 0.0000
# 3 35.0150 38.0967 142.1519 0.0000 -2.9355 0.0000
# 4 0.0000 0.0000 0.0000 22.6196 0.0000 -2.1881
# 5 -5.0553 -4.2280 -2.9355 0.0000 34.9934 0.0000
# 6 0.0000 0.0000 0.0000 -2.1881 0.0000 31.4999
#
#
#
# Elastic Compliance Matrix: (Units=1/GPa)
#
#
# Indices 1 2 3 4 5 6 
#
# 1 0.021616 -0.008395 -0.003037 0.000000 0.001854 0.000000
# 2 -0.008395 0.016817 -0.002426 0.000000 0.000616 0.000000
# 3 -0.003037 -0.002426 0.008432 0.000000 -0.000024 0.000000
# 4 0.000000 0.000000 0.000000 0.044509 0.000000 0.003092
# 5 0.001854 0.000616 -0.000024 0.000000 0.028917 0.000000
# 6 0.000000 0.000000 0.000000 0.003092 0.000000 0.031961
#
#
# Mechanical properties :
#
#
# Convention : Reuss Voigt Hill
#
# Bulk Modulus (GPa) = 52.21826 57.35013 54.78420
# Shear Modulus (GPa) = 26.83120 29.91892 28.37506
#
# Velocity S-wave (km/s) = 3.70759 3.91511 3.81276
# Velocity P-wave (km/s) = 6.71422 7.05827 6.88839
#
# Compressibility (1/GPa) = 0.01915039
#
# Stress axis : x y z
#
# Youngs Moduli (GPa) = 46.26140 59.46484 118.58949
#
# Poissons Ratio (x) = 0.49918 0.36010
# Poissons Ratio (y) = 0.38835 0.28774
# Poissons Ratio (z) = 0.14047 0.14428
#
# Static dielectric constant tensor:
#      x y z
#    x 3.709800 0.000000 -0.110570 
#    y 0.000000 3.388670 0.000000 
#    z -0.110570 0.000000 3.627370 
# 
# 
# High freq. dielectric constant tensor:
#      x y z
#    x 1.755700 0.000000 -0.005530 
#    y 0.000000 1.747570 0.000000 
#    z -0.005530 0.000000 1.776540 
# 
# From -- ./inp_files/358447.got.cif
#   From: 2010.06.25/outbox.cif.g09.slc.cpg/sg12_180_cif.got.tgz:358447.got - 2010.06.28 00:19:55.
