data_PCOD8102630
_publ_section_title
;
Structure prediction by ZEFSAII (Michael W. Deem and Ramdas Pophale) SiO2 
 PCOD8102630
Probable space group: C 2/M
;
_chemical_formula_sum "Si O2"
_cell_formula_units_Z 56
_cell_length_a 26.969084
_cell_length_b 9.118266
_cell_length_c 12.452527
_cell_angle_alpha 90.000000
_cell_angle_beta 74.618909
_cell_angle_gamma 90.000000
_cell_volume 2952.537428
_symmetry_space_group_name_H-M "C 2/M"
_symmetry_group_IT_number 12
_symmetry_cell_setting 'monoclinic'
loop_
_space_group_symop_operation_xyz
x,y,z
-x,y,-z
-x,-y,-z
x,-y,z
1/2+x,1/2+y,z
1/2-x,1/2+y,-z
1/2-x,1/2-y,-z
1/2+x,1/2-y,z
loop_
_atom_site_type_symbol
_atom_site_label
_atom_site_fract_x
_atom_site_fract_y
_atom_site_fract_z
Si Si1 0.746416 0.332653 0.192897
Si Si2 0.359513 0.171295 0.056834
Si Si3 0.229536 0.829747 0.615362
Si Si4 0.452206 0.168082 0.383147
Si Si5 0.885315 0.171029 0.252562
Si Si6 0.930278 0.668121 0.637418
Si Si7 0.138588 0.169783 0.158641
O O1 0.747275 0.500000 0.233642
O O2 0.798846 0.294687 0.100622
O O3 0.739645 0.228862 0.299468
O O4 0.699325 0.304196 0.139994
O O5 0.390269 0.243972 0.137328
O O6 0.371917 0.000000 0.048742
O O7 0.379910 0.241119 0.934826
O O8 0.250000 0.750000 0.500000
O O9 0.169362 0.795003 0.661812
O O10 0.241210 0.000000 0.597316
O O11 0.429302 0.274585 0.307012
O O12 0.428742 0.208749 0.512551
O O13 0.513042 0.192693 0.348376
O O14 0.438805 0.000000 0.362658
O O15 0.892659 0.000000 0.225220
O O16 0.913338 0.500000 0.664185
O O17 0.891187 0.774859 0.719558
O O18 0.125885 0.000000 0.147976
#
# Coordination Sequence:
#
# PCOD8102630 Si02
#       7
#     8   8   8   8   8   8   8
#     4   9  20  36  53  77 110 147 185 223 268 321
#     4  10  20  37  58  79 108 149 190 224 265 326
#     4  10  21  34  50  76 111 146 182 224 266 319
#     4   9  19  38  61  82 109 143 182 226 272 328
#     4  10  21  36  56  81 110 143 180 225 279 327
#     4   9  20  38  58  83 111 142 183 226 270 328
#     4  11  22  35  55  83 115 144 180 232 278 319
#
# _framework density 18.966736000000001
#
# number of rings (size 3 to 8) (size 9 to 14) (size 15 to 20)
#    0.000    2.286    0.000    3.000    2.000    4.571 
#    0.000    2.143    0.000    4.286    0.000    0.000 
#    0.000    0.000    0.000    0.000    0.000    0.000 
#
# Total GULP energy -347313.381093 kJ/mol
# GULP energy per Si atom -12404.049325 kJ/mol
# Density = 1.892357 g / cm^3
# Si number density = 18.966736 Si / 1000 Ang^3
#
#
#
# Elastic Constant Matrix: (Units=GPa)
#
#
# Indices 1 2 3 4 5 6 
#
# 1 61.5658 33.7865 26.1024 0.0000 17.6771 0.0000
# 2 33.7865 94.7960 44.2021 0.0000 13.0199 0.0000
# 3 26.1024 44.2021 79.6532 0.0000 11.2412 0.0000
# 4 0.0000 0.0000 0.0000 37.6403 0.0000 3.4541
# 5 17.6771 13.0199 11.2412 0.0000 25.7163 0.0000
# 6 0.0000 0.0000 0.0000 3.4541 0.0000 31.1851
#
#
#
# Elastic Compliance Matrix: (Units=1/GPa)
#
#
# Indices 1 2 3 4 5 6 
#
# 1 0.024130 -0.005425 -0.003137 0.000000 -0.012469 0.000000
# 2 -0.005425 0.015848 -0.006832 0.000000 -0.001308 0.000000
# 3 -0.003137 -0.006832 0.017672 0.000000 -0.002109 0.000000
# 4 0.000000 0.000000 0.000000 0.026840 0.000000 -0.002973
# 5 -0.012469 -0.001308 -0.002109 0.000000 0.049041 0.000000
# 6 0.000000 0.000000 0.000000 -0.002973 0.000000 0.032396
#
#
# Mechanical properties :
#
#
# Convention : Reuss Voigt Hill
#
# Bulk Modulus (GPa) = 37.22887 49.35522 43.29204
# Shear Modulus (GPa) = 24.31095 27.70330 26.00712
#
# Velocity S-wave (km/s) = 3.58406 3.82596 3.70698
# Velocity P-wave (km/s) = 6.06617 6.75246 6.41850
#
# Compressibility (1/GPa) = 0.02686088
#
# Stress axis : x y z
#
# Youngs Moduli (GPa) = 41.44196 63.09995 56.58809
#
# Poissons Ratio (x) = 0.34231 0.17754
# Poissons Ratio (y) = 0.22482 0.38662
# Poissons Ratio (z) = 0.13002 0.43111
#
# Static dielectric constant tensor:
#      x y z
#    x 3.343560 0.000000 0.080340 
#    y 0.000000 3.484130 0.000000 
#    z 0.080340 0.000000 3.420410 
# 
# 
# High freq. dielectric constant tensor:
#      x y z
#    x 1.724610 0.000000 0.009390 
#    y 0.000000 1.744480 0.000000 
#    z 0.009390 0.000000 1.737740 
# 
# From -- ./inp_files/180753.got.cif
#   From: 2010.06.25/outbox.cif.g09.slc.cpg/sg12_91_cif.got.tgz:180753.got - 2010.06.28 00:19:55.
