data_PCOD8102034
_publ_section_title
;
Structure prediction by ZEFSAII (Michael W. Deem and Ramdas Pophale) SiO2 
 PCOD8102034
Probable space group: C 2/M
;
_chemical_formula_sum "Si O2"
_cell_formula_units_Z 56
_cell_length_a 9.993138
_cell_length_b 18.244045
_cell_length_c 17.165175
_cell_angle_alpha 90.000000
_cell_angle_beta 115.229309
_cell_angle_gamma 90.000000
_cell_volume 2830.950153
_symmetry_space_group_name_H-M "C 2/M"
_symmetry_group_IT_number 12
_symmetry_cell_setting 'monoclinic'
loop_
_space_group_symop_operation_xyz
x,y,z
-x,y,-z
-x,-y,-z
x,-y,z
1/2+x,1/2+y,z
1/2-x,1/2+y,-z
1/2-x,1/2-y,-z
1/2+x,1/2-y,z
loop_
_atom_site_type_symbol
_atom_site_label
_atom_site_fract_x
_atom_site_fract_y
_atom_site_fract_z
Si Si1 0.658674 0.829123 0.065877
Si Si2 0.839042 0.162793 0.957257
Si Si3 0.686307 0.083549 0.785195
Si Si4 0.834184 0.321234 0.489600
Si Si5 0.197925 0.085131 0.757624
Si Si6 0.378739 0.914522 0.650447
Si Si7 0.357666 0.584542 0.675057
O O1 0.642524 0.742691 0.076889
O O2 0.711707 0.867915 0.157521
O O3 0.500000 0.861856 0.000000
O O4 0.780470 0.839764 0.030059
O O5 0.725751 0.119346 0.876324
O O6 0.000000 0.124590 0.000000
O O7 0.535707 0.119443 0.715602
O O8 0.816762 0.092941 0.755430
O O9 0.652106 0.000000 0.796315
O O10 0.750000 0.250000 0.500000
O O11 0.831678 0.377849 0.559164
O O12 0.742282 0.359680 0.398239
O O13 0.000000 0.302889 0.500000
O O14 0.259255 0.102070 0.687241
O O15 0.027466 0.108673 0.711316
O O16 0.215628 0.000000 0.784672
O O17 0.393241 0.000000 0.635823
O O18 0.333356 0.500000 0.641426
#
# Coordination Sequence:
#
# PCOD8102034 Si02
#       7
#     8   8   8   8   8   8   8
#     4  10  21  37  56  80 119 163 201 241 300 366
#     4  10  21  35  54  82 115 157 201 245 301 360
#     4  10  20  36  60  88 113 150 205 252 297 353
#     4  12  27  43  64  94 126 158 200 248 298 362
#     4  10  22  38  60  92 121 154 203 255 305 356
#     4  10  22  41  65  89 119 160 204 248 301 362
#     4  10  22  41  65  89 121 162 201 250 307 358
#
# _framework density 19.781345000000002
#
# number of rings (size 3 to 8) (size 9 to 14) (size 15 to 20)
#    0.000    1.714    1.429    2.143    2.000    4.000 
#    0.000    2.143    0.000    0.000    0.000    0.000 
#    0.000    0.000    0.000    0.000    0.000    0.000 
#
# Total GULP energy -347249.985817 kJ/mol
# GULP energy per Si atom -12401.785208 kJ/mol
# Density = 1.973632 g / cm^3
# Si number density = 19.781345 Si / 1000 Ang^3
#
#
#
# Elastic Constant Matrix: (Units=GPa)
#
#
# Indices 1 2 3 4 5 6 
#
# 1 119.6761 18.5700 13.4860 0.0000 13.5091 0.0000
# 2 18.5700 53.0624 32.3758 0.0000 1.1971 0.0000
# 3 13.4860 32.3758 85.3789 0.0000 8.2390 0.0000
# 4 0.0000 0.0000 0.0000 -10.9717 0.0000 3.6009
# 5 13.5091 1.1971 8.2390 0.0000 30.4376 0.0000
# 6 0.0000 0.0000 0.0000 3.6009 0.0000 21.1617
#
#
#
# Elastic Compliance Matrix: (Units=1/GPa)
#
#
# Indices 1 2 3 4 5 6 
#
# 1 0.009300 -0.003259 0.000157 0.000000 -0.004042 0.000000
# 2 -0.003259 0.025736 -0.009535 0.000000 0.003015 0.000000
# 3 0.000157 -0.009535 0.015684 0.000000 -0.003940 0.000000
# 4 0.000000 0.000000 0.000000 -0.086323 0.000000 0.014689
# 5 -0.004042 0.003015 -0.003940 0.000000 0.035596 0.000000
# 6 0.000000 0.000000 0.000000 0.014689 0.000000 0.044756
#
#
# Mechanical properties :
#
#
# Convention : Reuss Voigt Hill
#
# Bulk Modulus (GPa) = 39.30084 42.99790 41.14937
# Shear Modulus (GPa) = 63.68919 21.03789 42.36354
#
# Velocity S-wave (km/s) = 5.68036 3.26471 4.63275
# Velocity P-wave (km/s) = 7.93302 5.99957 7.03305
#
# Compressibility (1/GPa) = 0.02544475
#
# Stress axis : x y z
#
# Youngs Moduli (GPa) = 107.52443 38.85559 63.76034
#
# Poissons Ratio (x) = 0.12664 -0.01001
# Poissons Ratio (y) = 0.35046 0.60798
# Poissons Ratio (z) = -0.01688 0.37050
#
# Static dielectric constant tensor:
#      x y z
#    x 3.868300 0.000000 0.100910 
#    y 0.000000 3.532940 0.000000 
#    z 0.100910 0.000000 3.527360 
# 
# 
# High freq. dielectric constant tensor:
#      x y z
#    x 1.792900 0.000000 0.001640 
#    y 0.000000 1.757450 0.000000 
#    z 0.001640 0.000000 1.775840 
# 
# From -- ./inp_files/257209.got.cif
#   From: 2010.06.25/outbox.cif.g09.slc.cpg/sg12_129_cif.got.tgz:257209.got - 2010.06.28 00:19:55.
