data_PCOD8102256
_publ_section_title
;
Structure prediction by ZEFSAII (Michael W. Deem and Ramdas Pophale) SiO2 
 PCOD8102256
Probable space group: C 2/M
;
_chemical_formula_sum "Si O2"
_cell_formula_units_Z 56
_cell_length_a 23.500853
_cell_length_b 8.872077
_cell_length_c 14.616720
_cell_angle_alpha 90.000000
_cell_angle_beta 69.930226
_cell_angle_gamma 90.000000
_cell_volume 2862.541633
_symmetry_space_group_name_H-M "C 2/M"
_symmetry_group_IT_number 12
_symmetry_cell_setting 'monoclinic'
loop_
_space_group_symop_operation_xyz
x,y,z
-x,y,-z
-x,-y,-z
x,-y,z
1/2+x,1/2+y,z
1/2-x,1/2+y,-z
1/2-x,1/2-y,-z
1/2+x,1/2-y,z
loop_
_atom_site_type_symbol
_atom_site_label
_atom_site_fract_x
_atom_site_fract_y
_atom_site_fract_z
Si Si1 0.823997 0.825392 0.864570
Si Si2 0.385873 0.321843 0.542218
Si Si3 0.736969 0.174880 0.411154
Si Si4 0.300916 0.326194 0.083419
Si Si5 0.071499 0.325476 0.307486
Si Si6 0.358661 0.328015 0.235214
Si Si7 0.063267 0.326239 0.665184
O O1 0.757870 0.775889 0.867053
O O2 0.875335 0.730793 0.786612
O O3 0.833182 0.000000 0.835545
O O4 0.830608 0.792793 0.968945
O O5 0.382822 0.500000 0.545851
O O6 0.320401 0.254533 0.604029
O O7 0.431802 0.263056 0.594383
O O8 0.405691 0.271441 0.430817
O O9 0.750000 0.250000 0.500000
O O10 0.793305 0.201549 0.314608
O O11 0.722614 0.000000 0.434145
O O12 0.280002 0.500000 0.102791
O O13 0.351913 0.289016 0.131380
O O14 0.081604 0.500000 0.324289
O O15 0.008283 0.296401 0.291042
O O16 0.379283 0.500000 0.238826
O O17 0.409168 0.221563 0.252342
O O18 0.078007 0.500000 0.637467
#
# Coordination Sequence:
#
# PCOD8102256 Si02
#       7
#     8   8   8   8   8   8   8
#     4  10  20  36  61  91 117 146 188 237 286 339
#     4  12  24  38  59  86 114 150 193 239 289 342
#     4  11  21  34  55  84 118 152 186 230 281 334
#     4   9  19  37  61  89 120 150 184 231 288 344
#     4  11  24  41  59  81 112 152 194 239 290 342
#     4  10  21  37  58  83 114 153 191 230 283 338
#     4  11  24  40  58  80 112 153 195 239 286 340
#
# _framework density 19.563034999999999
#
# number of rings (size 3 to 8) (size 9 to 14) (size 15 to 20)
#    0.000    1.429    1.429    4.286    0.000    6.857 
#    0.000    0.714    0.000    4.286    0.000    0.000 
#    0.000    0.000    0.000    0.000    0.000    0.000 
#
# Total GULP energy -347347.749832 kJ/mol
# GULP energy per Si atom -12405.276780 kJ/mol
# Density = 1.951851 g / cm^3
# Si number density = 19.563035 Si / 1000 Ang^3
#
#
#
# Elastic Constant Matrix: (Units=GPa)
#
#
# Indices 1 2 3 4 5 6 
#
# 1 103.4566 51.0359 33.8744 0.0000 19.6086 0.0000
# 2 51.0359 113.0301 26.1498 0.0000 9.3662 0.0000
# 3 33.8744 26.1498 69.1293 0.0000 20.0100 0.0000
# 4 0.0000 0.0000 0.0000 26.7782 0.0000 4.8050
# 5 19.6086 9.3662 20.0100 0.0000 29.1383 0.0000
# 6 0.0000 0.0000 0.0000 4.8050 0.0000 33.8819
#
#
#
# Elastic Compliance Matrix: (Units=1/GPa)
#
#
# Indices 1 2 3 4 5 6 
#
# 1 0.014469 -0.005263 -0.003458 0.000000 -0.005671 0.000000
# 2 -0.005263 0.011623 -0.002198 0.000000 0.001316 0.000000
# 3 -0.003458 -0.002198 0.020111 0.000000 -0.010777 0.000000
# 4 0.000000 0.000000 0.000000 0.038319 0.000000 -0.005434
# 5 -0.005671 0.001316 -0.010777 0.000000 0.045113 0.000000
# 6 0.000000 0.000000 0.000000 -0.005434 0.000000 0.030285
#
#
# Mechanical properties :
#
#
# Convention : Reuss Voigt Hill
#
# Bulk Modulus (GPa) = 41.04302 56.41511 48.72906
# Shear Modulus (GPa) = 26.33217 29.59676 27.96447
#
# Velocity S-wave (km/s) = 3.67279 3.89381 3.78491
# Velocity P-wave (km/s) = 6.24590 7.00827 6.63804
#
# Compressibility (1/GPa) = 0.02436468
#
# Stress axis : x y z
#
# Youngs Moduli (GPa) = 69.11173 86.03363 49.72358
#
# Poissons Ratio (x) = 0.45283 0.17193
# Poissons Ratio (y) = 0.36376 0.10932
# Poissons Ratio (z) = 0.23897 0.18914
#
# Static dielectric constant tensor:
#      x y z
#    x 3.680330 0.000000 0.090250 
#    y 0.000000 3.689890 0.000000 
#    z 0.090250 0.000000 3.733000 
# 
# 
# High freq. dielectric constant tensor:
#      x y z
#    x 1.761990 0.000000 0.013650 
#    y 0.000000 1.771680 0.000000 
#    z 0.013650 0.000000 1.757450 
# 
# From -- ./inp_files/237429.got.cif
#   From: 2010.06.25/outbox.cif.g09.slc.cpg/sg12_119_cif.got.tgz:237429.got - 2010.06.28 00:19:55.
