data_PCOD8102176
_publ_section_title
;
Structure prediction by ZEFSAII (Michael W. Deem and Ramdas Pophale) SiO2 
 PCOD8102176
Probable space group: C 2/M
;
_chemical_formula_sum "Si O2"
_cell_formula_units_Z 40
_cell_length_a 18.546486
_cell_length_b 24.939419
_cell_length_c 9.383730
_cell_angle_alpha 90.000000
_cell_angle_beta 29.654303
_cell_angle_gamma 90.000000
_cell_volume 2147.450070
_symmetry_space_group_name_H-M "C 2/M"
_symmetry_group_IT_number 12
_symmetry_cell_setting 'monoclinic'
loop_
_space_group_symop_operation_xyz
x,y,z
-x,y,-z
-x,-y,-z
x,-y,z
1/2+x,1/2+y,z
1/2-x,1/2+y,-z
1/2-x,1/2-y,-z
1/2+x,1/2-y,z
loop_
_atom_site_type_symbol
_atom_site_label
_atom_site_fract_x
_atom_site_fract_y
_atom_site_fract_z
Si Si1 0.883215 0.397721 0.406239
Si Si2 0.888311 0.000000 0.398846
Si Si3 0.207746 0.000000 0.761259
Si Si4 0.163393 0.812491 0.269324
Si Si5 0.209486 0.399236 0.756816
Si Si6 0.654973 0.192175 0.302267
O O1 0.806963 0.447526 0.618247
O O2 0.817887 0.389704 0.362405
O O3 0.846479 0.343305 0.553294
O O4 0.056502 0.408547 0.101324
O O5 0.844110 0.000000 0.311069
O O6 0.816934 0.949062 0.598875
O O7 0.065036 0.000000 0.109023
O O8 0.203189 0.848255 0.336303
O O9 0.211233 0.752612 0.236571
O O10 0.000000 0.816878 0.500000
O O11 0.246879 0.834684 0.987437
O O12 0.500000 0.197738 0.500000
#
# Coordination Sequence:
#
# PCOD8102176 Si02
#       6
#     8   4   4   8   8   8
#     4  10  20  36  61  82 110 146 189 226 268 330
#     4   9  19  35  55  81 117 142 177 228 284 326
#     4   9  19  35  55  83 111 147 179 225 282 327
#     4  10  22  37  58  81 113 148 182 226 281 327
#     4  10  20  37  58  85 110 145 187 229 270 325
#     4  10  20  39  58  80 111 151 185 221 276 336
#
# _framework density 18.626743999999999
#
# number of rings (size 3 to 8) (size 9 to 14) (size 15 to 20)
#    0.000    2.200    2.000    0.600    2.800    3.200 
#    0.000    2.000    0.000    0.000    0.000    0.000 
#    0.000    0.000    0.000    0.000    0.000    0.000 
#
# Total GULP energy -247928.191582 kJ/mol
# GULP energy per Si atom -12396.409579 kJ/mol
# Density = 1.858435 g / cm^3
# Si number density = 18.626744 Si / 1000 Ang^3
#
#
#
# Elastic Constant Matrix: (Units=GPa)
#
#
# Indices 1 2 3 4 5 6 
#
# 1 51.6362 51.6769 28.7524 -0.0070 -2.1065 0.0022
# 2 51.6769 134.8127 56.4284 -0.0049 6.5475 0.0017
# 3 28.7524 56.4284 125.5905 -0.0234 3.0841 0.0047
# 4 -0.0070 -0.0049 -0.0234 30.9077 0.0144 -4.8344
# 5 -2.1065 6.5475 3.0841 0.0144 21.1781 -0.0034
# 6 0.0022 0.0017 0.0047 -4.8344 -0.0034 25.3586
#
#
#
# Elastic Compliance Matrix: (Units=1/GPa)
#
#
# Indices 1 2 3 4 5 6 
#
# 1 0.033006 -0.012033 -0.002330 0.000000 0.007343 -0.000001
# 2 -0.012033 0.013630 -0.003248 -0.000001 -0.004938 0.000000
# 3 -0.002330 -0.003248 0.009972 0.000007 -0.000680 0.000000
# 4 0.000000 -0.000001 0.000007 0.033349 -0.000022 0.006358
# 5 0.007343 -0.004938 -0.000680 -0.000022 0.049574 0.000002
# 6 -0.000001 0.000000 0.000000 0.006358 0.000002 0.040646
#
#
# Mechanical properties :
#
#
# Convention : Reuss Voigt Hill
#
# Bulk Modulus (GPa) = 46.76121 65.08385 55.92253
# Shear Modulus (GPa) = 22.46915 27.16766 24.81841
#
# Velocity S-wave (km/s) = 3.47693 3.82321 3.65418
# Velocity P-wave (km/s) = 6.42476 7.38283 6.92040
#
# Compressibility (1/GPa) = 0.02138525
#
# Stress axis : x y z
#
# Youngs Moduli (GPa) = 30.29752 73.36999 100.28375
#
# Poissons Ratio (x) = 0.88289 0.23366
# Poissons Ratio (y) = 0.36458 0.32569
# Poissons Ratio (z) = 0.07059 0.23828
#
# Static dielectric constant tensor:
#      x y z
#    x 3.091480 0.000000 -0.108650 
#    y 0.000000 3.607340 0.000010 
#    z -0.108650 0.000010 3.656240 
# 
# 
# High freq. dielectric constant tensor:
#      x y z
#    x 1.696130 0.000000 -0.009100 
#    y 0.000000 1.726550 0.000000 
#    z -0.009100 0.000000 1.740900 
# 
# From -- ./inp_files/79781.got.cif
#   From: 2010.06.25/outbox.cif.g09.slc.cpg/sg12_40_cif.got.tgz:79781.got - 2010.06.28 00:19:55.
