data_PCOD8102711
_publ_section_title
;
Structure prediction by ZEFSAII (Michael W. Deem and Ramdas Pophale) SiO2 
 PCOD8102711
Probable space group: C 2/M
;
_chemical_formula_sum "Si O2"
_cell_formula_units_Z 48
_cell_length_a 19.291662
_cell_length_b 23.368674
_cell_length_c 13.365622
_cell_angle_alpha 90.000000
_cell_angle_beta 23.612490
_cell_angle_gamma 90.000000
_cell_volume 2413.505566
_symmetry_space_group_name_H-M "C 2/M"
_symmetry_group_IT_number 12
_symmetry_cell_setting 'monoclinic'
loop_
_space_group_symop_operation_xyz
x,y,z
-x,y,-z
-x,-y,-z
x,-y,z
1/2+x,1/2+y,z
1/2-x,1/2+y,-z
1/2-x,1/2-y,-z
1/2+x,1/2-y,z
loop_
_atom_site_type_symbol
_atom_site_label
_atom_site_fract_x
_atom_site_fract_y
_atom_site_fract_z
Si Si1 0.303017 0.354488 0.730226
Si Si2 0.772385 0.630882 0.401839
Si Si3 0.960105 0.141250 0.937575
Si Si4 0.513736 0.231502 0.099204
Si Si5 0.038783 0.433262 0.163318
Si Si6 0.356069 0.063758 0.608077
O O1 0.500000 0.342851 0.500000
O O2 0.282234 0.369242 0.640959
O O3 0.190969 0.298059 0.900719
O O4 0.228120 0.404851 0.900099
O O5 0.925829 0.585123 0.215935
O O6 0.845418 0.692313 0.349308
O O7 0.610058 0.607875 0.680424
O O8 0.780116 0.108221 0.164304
O O9 0.970179 0.205048 0.874914
O O10 0.000000 0.142996 0.000000
O O11 0.500000 0.238101 0.000000
O O12 0.070635 0.500000 0.125065
O O13 0.940304 0.412209 0.394180
O O14 0.500000 0.057573 0.500000
O O15 0.274473 0.000000 0.697325
#
# Coordination Sequence:
#
# PCOD8102711 Si02
#       6
#     8   8   8   8   8   8
#     4  10  22  38  57  83 118 147 189 239 281 330
#     4  10  20  37  58  85 116 147 188 238 277 330
#     4  11  20  35  62  88 108 149 196 228 277 343
#     4   8  18  36  57  82 115 150 182 233 283 329
#     4  10  21  40  61  81 112 153 190 232 283 334
#     4  10  23  40  57  83 121 151 182 233 287 335
#
# _framework density 19.888083000000002
#
# number of rings (size 3 to 8) (size 9 to 14) (size 15 to 20)
#    0.000    2.167    1.667    2.000    2.333    3.333 
#    0.000    0.833    0.000    0.000    0.000    0.000 
#    0.000    0.000    0.000    0.000    0.000    0.000 
#
# Total GULP energy -297392.307185 kJ/mol
# GULP energy per Si atom -12391.346133 kJ/mol
# Density = 1.984282 g / cm^3
# Si number density = 19.888083 Si / 1000 Ang^3
#
#
#
# Elastic Constant Matrix: (Units=GPa)
#
#
# Indices 1 2 3 4 5 6 
#
# 1 67.7262 9.1854 31.1544 0.0065 -8.8658 -0.0060
# 2 9.1854 79.0209 42.2522 -0.0045 -4.0740 0.0079
# 3 31.1544 42.2522 131.9169 0.0060 -6.5607 0.0331
# 4 0.0065 -0.0045 0.0060 18.7607 -0.0031 1.2662
# 5 -8.8658 -4.0740 -6.5607 -0.0031 31.8133 0.0034
# 6 -0.0060 0.0079 0.0331 1.2662 0.0034 21.1187
#
#
#
# Elastic Compliance Matrix: (Units=1/GPa)
#
#
# Indices 1 2 3 4 5 6 
#
# 1 0.017052 0.000326 -0.003934 -0.000005 0.003983 0.000010
# 2 0.000326 0.015305 -0.004928 0.000005 0.001035 0.000002
# 3 -0.003934 -0.004928 0.010106 -0.000002 0.000357 -0.000015
# 4 -0.000005 0.000005 -0.000002 0.053519 0.000005 -0.003209
# 5 0.003983 0.001035 0.000357 0.000005 0.032749 -0.000005
# 6 0.000010 0.000002 -0.000015 -0.003209 -0.000005 0.047544
#
#
# Mechanical properties :
#
#
# Convention : Reuss Voigt Hill
#
# Bulk Modulus (GPa) = 39.38119 49.31645 44.34882
# Shear Modulus (GPa) = 24.77585 27.41000 26.09292
#
# Velocity S-wave (km/s) = 3.53337 3.71646 3.62607
# Velocity P-wave (km/s) = 6.04075 6.57776 6.31496
#
# Compressibility (1/GPa) = 0.02539283
#
# Stress axis : x y z
#
# Youngs Moduli (GPa) = 58.64461 65.33750 98.95501
#
# Poissons Ratio (x) = -0.02133 0.38925
# Poissons Ratio (y) = -0.01915 0.48763
# Poissons Ratio (z) = 0.23068 0.32197
#
# Static dielectric constant tensor:
#      x y z
#    x 3.322050 -0.000170 -0.250660 
#    y -0.000170 4.053930 -0.000350 
#    z -0.250660 -0.000350 1.454780 
# 
# 
# High freq. dielectric constant tensor:
#      x y z
#    x 1.756830 -0.000010 0.007400 
#    y -0.000010 1.770050 0.000020 
#    z 0.007400 0.000020 1.783410 
# 
# From -- ./inp_files/50589.got.cif
#   From: 2010.06.25/outbox.cif.g09.slc.cpg/sg12_26_cif.got.tgz:50589.got - 2010.06.28 00:19:55.
