data_PCOD8102758
_publ_section_title
;
Structure prediction by ZEFSAII (Michael W. Deem and Ramdas Pophale) SiO2 
 PCOD8102758
Probable space group: C 2/M
;
_chemical_formula_sum "Si O2"
_cell_formula_units_Z 64
_cell_length_a 19.708478
_cell_length_b 9.270817
_cell_length_c 21.128824
_cell_angle_alpha 90.000000
_cell_angle_beta 61.790486
_cell_angle_gamma 90.000000
_cell_volume 3401.991442
_symmetry_space_group_name_H-M "C 2/M"
_symmetry_group_IT_number 12
_symmetry_cell_setting 'monoclinic'
loop_
_space_group_symop_operation_xyz
x,y,z
-x,y,-z
-x,-y,-z
x,-y,z
1/2+x,1/2+y,z
1/2-x,1/2+y,-z
1/2-x,1/2-y,-z
1/2+x,1/2-y,z
loop_
_atom_site_type_symbol
_atom_site_label
_atom_site_fract_x
_atom_site_fract_y
_atom_site_fract_z
Si Si1 0.190814 0.167006 0.824932
Si Si2 0.233087 0.169997 0.442631
Si Si3 0.941035 0.831111 0.475788
Si Si4 0.675361 0.165756 0.053248
Si Si5 0.845509 0.832189 0.301828
Si Si6 0.491603 0.331101 0.317554
Si Si7 0.585658 0.833238 0.968918
Si Si8 0.140176 0.331435 0.208638
O O1 0.158731 0.206837 0.770082
O O2 0.144409 0.253401 0.897604
O O3 0.280918 0.207028 0.789667
O O4 0.178717 0.000000 0.845796
O O5 0.250000 0.250000 0.500000
O O6 0.144934 0.202459 0.463144
O O7 0.284503 0.232682 0.364145
O O8 0.248450 0.000000 0.444303
O O9 0.955473 0.770359 0.398860
O O10 0.000000 0.759188 0.500000
O O11 0.956251 0.000000 0.465983
O O12 0.645351 0.222341 0.133871
O O13 0.700042 0.000000 0.048282
O O14 0.750000 0.250000 0.000000
O O15 0.608470 0.189752 0.031741
O O16 0.931284 0.795872 0.288191
O O17 0.825304 0.000000 0.323511
O O18 0.508678 0.500000 0.313367
O O19 0.571846 0.252696 0.272020
O O20 0.587460 0.000000 0.948384
O O21 0.500000 0.768992 0.000000
O O22 0.121458 0.500000 0.220497
#
# Coordination Sequence:
#
# PCOD8102758 Si02
#       8
#     8   8   8   8   8   8   8   8
#     4  10  22  40  59  81 115 153 187 231 282 337
#     4  11  21  37  62  86 112 149 189 233 283 333
#     4   9  19  36  57  82 112 144 184 232 276 323
#     4  10  20  37  59  81 109 145 185 232 279 331
#     4  10  22  40  58  82 116 150 189 233 279 333
#     4  10  21  38  58  81 112 148 186 230 276 330
#     4  10  22  38  58  85 115 145 186 239 285 331
#     4  10  22  38  56  82 115 147 184 231 284 334
#
# _framework density 18.812511000000001
#
# number of rings (size 3 to 8) (size 9 to 14) (size 15 to 20)
#    0.000    2.000    2.500    0.375    3.500    2.250 
#    0.000    0.000    0.000    1.875    0.000    0.000 
#    0.000    0.000    0.000    0.000    0.000    0.000 
#
# Total GULP energy -396868.584629 kJ/mol
# GULP energy per Si atom -12402.143270 kJ/mol
# Density = 1.876969 g / cm^3
# Si number density = 18.812511 Si / 1000 Ang^3
#
#
#
# Elastic Constant Matrix: (Units=GPa)
#
#
# Indices 1 2 3 4 5 6 
#
# 1 124.8463 31.2126 36.9913 0.0001 3.9589 -0.0003
# 2 31.2126 47.3291 27.8777 0.0002 -6.4818 -0.0013
# 3 36.9913 27.8777 77.7516 0.0000 -1.0509 0.0000
# 4 0.0001 0.0002 0.0000 31.6937 0.0000 -5.9354
# 5 3.9589 -6.4818 -1.0509 0.0000 39.9313 0.0000
# 6 -0.0003 -0.0013 0.0000 -5.9354 0.0000 25.5330
#
#
#
# Elastic Compliance Matrix: (Units=1/GPa)
#
#
# Indices 1 2 3 4 5 6 
#
# 1 0.010287 -0.005265 -0.003033 0.000000 -0.001954 0.000000
# 2 -0.005265 0.030168 -0.008241 0.000000 0.005202 0.000001
# 3 -0.003033 -0.008241 0.017251 0.000000 -0.000583 0.000000
# 4 0.000000 0.000000 0.000000 0.032988 0.000000 0.007668
# 5 -0.001954 0.005202 -0.000583 0.000000 0.026066 0.000000
# 6 0.000000 0.000001 0.000000 0.007668 0.000000 0.040948
#
#
# Mechanical properties :
#
#
# Convention : Reuss Voigt Hill
#
# Bulk Modulus (GPa) = 40.60511 49.12114 44.86312
# Shear Modulus (GPa) = 25.12629 29.68796 27.40713
#
# Velocity S-wave (km/s) = 3.65857 3.97684 3.82102
# Velocity P-wave (km/s) = 6.28314 6.87419 6.58530
#
# Compressibility (1/GPa) = 0.02462744
#
# Stress axis : x y z
#
# Youngs Moduli (GPa) = 97.21257 33.14802 57.96670
#
# Poissons Ratio (x) = 0.17453 0.17579
# Poissons Ratio (y) = 0.51185 0.47772
# Poissons Ratio (z) = 0.29481 0.27318
#
# Static dielectric constant tensor:
#      x y z
#    x 0.134430 0.000060 0.458560 
#    y 0.000060 3.381290 0.000000 
#    z 0.458560 0.000000 3.593440 
# 
# 
# High freq. dielectric constant tensor:
#      x y z
#    x 1.747430 0.000000 0.005350 
#    y 0.000000 1.712760 0.000000 
#    z 0.005350 0.000000 1.734960 
# 
# From -- ./inp_files/319983.got.cif
#   From: 2010.06.25/outbox.cif.g09.slc.cpg/sg12_160_cif.got.tgz:319983.got - 2010.06.28 00:19:55.
