data_PCOD8102877
_publ_section_title
;
Structure prediction by ZEFSAII (Michael W. Deem and Ramdas Pophale) SiO2 
 PCOD8102877
Probable space group: C 2/M
;
_chemical_formula_sum "Si O2"
_cell_formula_units_Z 56
_cell_length_a 18.825392
_cell_length_b 14.868342
_cell_length_c 9.832631
_cell_angle_alpha 90.000000
_cell_angle_beta 111.890472
_cell_angle_gamma 90.000000
_cell_volume 2553.739978
_symmetry_space_group_name_H-M "C 2/M"
_symmetry_group_IT_number 12
_symmetry_cell_setting 'monoclinic'
loop_
_space_group_symop_operation_xyz
x,y,z
-x,y,-z
-x,-y,-z
x,-y,z
1/2+x,1/2+y,z
1/2-x,1/2+y,-z
1/2-x,1/2-y,-z
1/2+x,1/2-y,z
loop_
_atom_site_type_symbol
_atom_site_label
_atom_site_fract_x
_atom_site_fract_y
_atom_site_fract_z
Si Si1 0.161636 0.903641 0.767228
Si Si2 0.141760 0.321777 0.457833
Si Si3 0.611166 0.790114 0.721369
Si Si4 0.098894 0.098388 0.193073
Si Si5 0.262020 0.396750 0.900519
Si Si6 0.204756 0.126264 0.508869
Si Si7 0.017921 0.279938 0.162091
O O1 0.105154 0.818906 0.714345
O O2 0.205345 0.918779 0.656784
O O3 0.118939 0.000000 0.768718
O O4 0.223131 0.884936 0.929151
O O5 0.089711 0.332749 0.557414
O O6 0.187289 0.230346 0.516342
O O7 0.210467 0.393741 0.493458
O O8 0.093796 0.321978 0.283951
O O9 0.694912 0.827525 0.816883
O O10 0.550373 0.815805 0.792068
O O11 0.160928 0.132166 0.125744
O O12 0.140862 0.083928 0.366659
O O13 0.030352 0.171459 0.157512
O O14 0.064934 0.000000 0.128228
O O15 0.239552 0.500000 0.848320
O O16 0.000000 0.319764 0.000000
#
# Coordination Sequence:
#
# PCOD8102877 Si02
#       7
#     8   8   8   8   8   8   8
#     4  10  21  33  55  90 122 153 196 247 302 356
#     4   9  19  35  55  82 113 153 200 246 288 353
#     4  11  21  38  60  83 122 165 197 243 302 358
#     4  10  20  37  59  87 120 155 199 249 297 357
#     4  10  21  37  60  89 119 155 204 255 296 346
#     4   9  17  33  58  82 113 148 198 253 294 339
#     4  11  24  35  55  89 121 161 197 237 302 369
#
# _framework density 21.928623000000002
#
# number of rings (size 3 to 8) (size 9 to 14) (size 15 to 20)
#    0.000    2.000    1.429    2.143    4.000    0.857 
#    0.000    0.000    0.000    9.000    0.000    0.000 
#    0.000    0.000    0.000    0.000    0.000    0.000 
#
# Total GULP energy -346870.092965 kJ/mol
# GULP energy per Si atom -12388.217606 kJ/mol
# Density = 2.187871 g / cm^3
# Si number density = 21.928623 Si / 1000 Ang^3
#
#
#
# Elastic Constant Matrix: (Units=GPa)
#
#
# Indices 1 2 3 4 5 6 
#
# 1 76.8432 0.2931 25.9841 0.0000 -22.5478 0.0000
# 2 0.2931 30.8121 1.0122 0.0000 -3.0070 0.0000
# 3 25.9841 1.0122 162.5768 0.0000 -19.6191 0.0000
# 4 0.0000 0.0000 0.0000 -11.8327 0.0000 -0.4941
# 5 -22.5478 -3.0070 -19.6191 0.0000 30.3949 0.0000
# 6 0.0000 0.0000 0.0000 -0.4941 0.0000 15.5868
#
#
#
# Elastic Compliance Matrix: (Units=1/GPa)
#
#
# Indices 1 2 3 4 5 6 
#
# 1 0.016912 0.001035 -0.001283 0.000000 0.011820 0.000000
# 2 0.001035 0.032841 0.000125 0.000000 0.004097 0.000000
# 3 -0.001283 0.000125 0.006769 0.000000 0.003430 0.000000
# 4 0.000000 0.000000 0.000000 -0.084400 0.000000 -0.002675
# 5 0.011820 0.004097 0.003430 0.000000 0.044288 0.000000
# 6 0.000000 0.000000 0.000000 -0.002675 0.000000 0.064072
#
#
# Mechanical properties :
#
#
# Convention : Reuss Voigt Hill
#
# Bulk Modulus (GPa) = 17.77014 36.09008 26.93011
# Shear Modulus (GPa) = 50.25805 23.02599 36.64202
#
# Velocity S-wave (km/s) = 4.79257 3.24395 4.09218
# Velocity P-wave (km/s) = 6.22464 5.52491 5.88518
#
# Compressibility (1/GPa) = 0.05627419
#
# Stress axis : x y z
#
# Youngs Moduli (GPa) = 59.13085 30.45005 147.72973
#
# Poissons Ratio (x) = -0.03151 0.18954
# Poissons Ratio (y) = -0.06119 -0.01840
# Poissons Ratio (z) = 0.07587 -0.00379
#
# Static dielectric constant tensor:
#      x y z
#    x 3.763160 0.000000 -0.351390 
#    y 0.000000 4.131090 0.000000 
#    z -0.351390 0.000000 4.172040 
# 
# 
# High freq. dielectric constant tensor:
#      x y z
#    x 1.835700 0.000000 -0.018930 
#    y 0.000000 1.836420 0.000000 
#    z -0.018930 0.000000 1.881400 
# 
# From -- ./inp_files/76001.got.cif
#   From: 2010.06.25/outbox.cif.g09.slc.cpg/sg12_39_cif.got.tgz:76001.got - 2010.06.28 00:19:55.
