data_PCOD8102263
_publ_section_title
;
Structure prediction by ZEFSAII (Michael W. Deem and Ramdas Pophale) SiO2 
 PCOD8102263
Probable space group: C 2/M
;
_chemical_formula_sum "Si O2"
_cell_formula_units_Z 40
_cell_length_a 26.172858
_cell_length_b 16.962650
_cell_length_c 8.953709
_cell_angle_alpha 90.000000
_cell_angle_beta 151.925591
_cell_angle_gamma 90.000000
_cell_volume 1870.751951
_symmetry_space_group_name_H-M "C 2/M"
_symmetry_group_IT_number 12
_symmetry_cell_setting 'monoclinic'
loop_
_space_group_symop_operation_xyz
x,y,z
-x,y,-z
-x,-y,-z
x,-y,z
1/2+x,1/2+y,z
1/2-x,1/2+y,-z
1/2-x,1/2-y,-z
1/2+x,1/2-y,z
loop_
_atom_site_type_symbol
_atom_site_label
_atom_site_fract_x
_atom_site_fract_y
_atom_site_fract_z
Si Si1 0.996710 0.586214 0.813804
Si Si2 0.392810 0.663014 0.638418
Si Si3 0.269104 0.091324 0.557073
Si Si4 0.897212 0.091103 0.339210
Si Si5 0.710146 0.176155 0.697143
O O1 0.970870 0.500000 0.680006
O O2 0.901821 0.644377 0.518788
O O3 0.115990 0.615280 0.067692
O O4 0.000000 0.582508 0.000000
O O5 0.329495 0.605308 0.586183
O O6 0.430738 0.611503 0.594912
O O7 0.308884 0.731276 0.374643
O O8 0.500000 0.696550 0.000000
O O9 0.253488 0.140013 0.366163
O O10 0.273218 0.000000 0.521064
O O11 0.000000 0.105073 0.500000
O O12 0.857397 0.000000 0.224941
O O13 0.804271 0.153755 0.055457
#
# Coordination Sequence:
#
# PCOD8102263 Si02
#       5
#     8   8   8   8   8
#     4   8  15  30  55  84 112 149 198 245 291 350
#     4  12  25  40  61  93 129 162 203 257 312 364
#     4  10  20  36  61  91 124 164 208 251 300 366
#     4  11  25  44  65  89 122 167 212 253 304 368
#     4  11  21  39  63  90 121 160 206 255 309 363
#
# _framework density 21.381775999999999
#
# number of rings (size 3 to 8) (size 9 to 14) (size 15 to 20)
#    0.000    1.600    0.000    7.800    0.000    4.800 
#    0.000    1.000    0.000    3.600    0.000    0.000 
#    0.000    0.000    0.000    0.000    0.000    0.000 
#
# Total GULP energy -247970.923376 kJ/mol
# GULP energy per Si atom -12398.546169 kJ/mol
# Density = 2.133311 g / cm^3
# Si number density = 21.381776 Si / 1000 Ang^3
#
#
#
# Elastic Constant Matrix: (Units=GPa)
#
#
# Indices 1 2 3 4 5 6 
#
# 1 114.8164 26.3630 32.2910 0.0000 9.5873 0.0000
# 2 26.3630 72.8601 29.1909 0.0000 1.0311 0.0000
# 3 32.2910 29.1909 105.2696 0.0000 4.3894 0.0000
# 4 0.0000 0.0000 0.0000 31.1260 0.0000 6.9538
# 5 9.5873 1.0311 4.3894 0.0000 25.7024 0.0000
# 6 0.0000 0.0000 0.0000 6.9538 0.0000 18.6623
#
#
#
# Elastic Compliance Matrix: (Units=1/GPa)
#
#
# Indices 1 2 3 4 5 6 
#
# 1 0.010252 -0.002765 -0.002239 0.000000 -0.003331 0.000000
# 2 -0.002765 0.016187 -0.003682 0.000000 0.001011 0.000000
# 3 -0.002239 -0.003682 0.011246 0.000000 -0.000938 0.000000
# 4 0.000000 0.000000 0.000000 0.035045 0.000000 -0.013058
# 5 -0.003331 0.001011 -0.000938 0.000000 0.040269 0.000000
# 6 0.000000 0.000000 0.000000 -0.013058 0.000000 0.058450
#
#
# Mechanical properties :
#
#
# Convention : Reuss Voigt Hill
#
# Bulk Modulus (GPa) = 49.23295 52.07066 50.65180
# Shear Modulus (GPa) = 25.56329 28.77156 27.16743
#
# Velocity S-wave (km/s) = 3.46144 3.67224 3.56840
# Velocity P-wave (km/s) = 6.24909 6.51046 6.38111
#
# Compressibility (1/GPa) = 0.02031160
#
# Stress axis : x y z
#
# Youngs Moduli (GPa) = 97.53822 61.77977 88.91682
#
# Poissons Ratio (x) = 0.17085 0.19910
# Poissons Ratio (y) = 0.26973 0.32742
# Poissons Ratio (z) = 0.21840 0.22749
#
# Static dielectric constant tensor:
#      x y z
#    x 3.738150 0.000000 0.324730 
#    y 0.000000 3.741180 0.000000 
#    z 0.324730 0.000000 4.102750 
# 
# 
# High freq. dielectric constant tensor:
#      x y z
#    x 1.822460 0.000000 0.020490 
#    y 0.000000 1.838760 0.000000 
#    z 0.020490 0.000000 1.837950 
# 
# From -- ./inp_files/98326.got.cif
#   From: 2010.06.25/outbox.cif.g09.slc.cpg/sg12_50_cif.got.tgz:98326.got - 2010.06.28 00:19:55.
