data_PCOD8102531
_publ_section_title
;
Structure prediction by ZEFSAII (Michael W. Deem and Ramdas Pophale) SiO2 
 PCOD8102531
Probable space group: C 2/M
;
_chemical_formula_sum "Si O2"
_cell_formula_units_Z 32
_cell_length_a 19.129401
_cell_length_b 12.776345
_cell_length_c 19.471760
_cell_angle_alpha 90.000000
_cell_angle_beta 22.282202
_cell_angle_gamma 90.000000
_cell_volume 1804.453666
_symmetry_space_group_name_H-M "C 2/M"
_symmetry_group_IT_number 12
_symmetry_cell_setting 'monoclinic'
loop_
_space_group_symop_operation_xyz
x,y,z
-x,y,-z
-x,-y,-z
x,-y,z
1/2+x,1/2+y,z
1/2-x,1/2+y,-z
1/2-x,1/2-y,-z
1/2+x,1/2-y,z
loop_
_atom_site_type_symbol
_atom_site_label
_atom_site_fract_x
_atom_site_fract_y
_atom_site_fract_z
Si Si1 0.874387 0.193476 0.797927
Si Si2 0.500175 0.216638 0.919964
Si Si3 0.151427 0.880994 0.032448
Si Si4 0.115046 0.122203 0.461090
O O1 0.913574 0.123558 0.829348
O O2 0.046351 0.184759 0.590483
O O3 0.687068 0.153509 0.929861
O O4 0.843453 0.315404 0.848840
O O5 0.504168 0.327101 0.874681
O O6 0.670736 0.144707 0.744209
O O7 0.500000 0.243311 0.000000
O O8 0.182530 0.000000 0.981104
O O9 0.000000 0.161874 0.500000
O O10 0.082818 0.000000 0.502826
#
# Coordination Sequence:
#
# PCOD8102531 Si02
#       4
#     8   8   8   8
#     4   9  20  38  55  80 113 140 180 228 262 322
#     4  10  20  37  56  81 112 141 181 225 269 320
#     4   9  19  38  59  78 110 148 177 221 274 317
#     4  11  21  33  55  83 111 144 179 223 275 320
#
# _framework density 17.733899000000001
#
# number of rings (size 3 to 8) (size 9 to 14) (size 15 to 20)
#    1.500    0.750    2.500    0.750    0.000    4.000 
#    0.000    1.250    0.000    3.000    0.000    0.000 
#    0.000    0.000    0.000    0.000    0.000    0.000 
#
# Total GULP energy -198287.953020 kJ/mol
# GULP energy per Si atom -12392.997064 kJ/mol
# Density = 1.769354 g / cm^3
# Si number density = 17.733899 Si / 1000 Ang^3
#
#
#
# Elastic Constant Matrix: (Units=GPa)
#
#
# Indices 1 2 3 4 5 6 
#
# 1 121.0844 15.5131 37.7076 0.0058 21.6027 -0.0006
# 2 15.5131 69.6795 13.3818 0.0267 12.4082 -0.0052
# 3 37.7076 13.3818 87.1463 0.0132 14.5211 -0.0046
# 4 0.0058 0.0267 0.0132 18.6963 -0.0056 -3.2165
# 5 21.6027 12.4082 14.5211 -0.0056 32.9988 0.0005
# 6 -0.0006 -0.0052 -0.0046 -3.2165 0.0005 17.6829
#
#
#
# Elastic Compliance Matrix: (Units=1/GPa)
#
#
# Indices 1 2 3 4 5 6 
#
# 1 0.010335 -0.000744 -0.003536 -0.000001 -0.004930 -0.000001
# 2 -0.000744 0.015621 -0.001273 -0.000023 -0.004827 0.000000
# 3 -0.003536 -0.001273 0.013743 -0.000007 -0.003254 0.000002
# 4 -0.000001 -0.000023 -0.000007 0.055214 0.000022 0.010043
# 5 -0.004930 -0.004827 -0.003254 0.000022 0.036778 0.000000
# 6 -0.000001 0.000000 0.000002 0.010043 0.000000 0.058379
#
#
# Mechanical properties :
#
#
# Convention : Reuss Voigt Hill
#
# Bulk Modulus (GPa) = 34.97314 45.67946 40.32630
# Shear Modulus (GPa) = 23.72974 27.96277 25.84625
#
# Velocity S-wave (km/s) = 3.66197 3.97520 3.82180
# Velocity P-wave (km/s) = 6.13547 6.84717 6.50107
#
# Compressibility (1/GPa) = 0.02859337
#
# Stress axis : x y z
#
# Youngs Moduli (GPa) = 96.76107 64.01644 72.76636
#
# Poissons Ratio (x) = 0.04762 0.25731
# Poissons Ratio (y) = 0.07198 0.09260
# Poissons Ratio (z) = 0.34215 0.08146
#
# Static dielectric constant tensor:
#      x y z
#    x 3.396680 0.000000 0.073550 
#    y 0.000000 2.951080 0.000010 
#    z 0.073550 0.000010 3.016730 
# 
# 
# High freq. dielectric constant tensor:
#      x y z
#    x 1.699050 0.000000 0.014600 
#    y 0.000000 1.660760 0.000000 
#    z 0.014600 0.000000 1.667890 
# 
# From -- ./inp_files/19787.got.cif
#   From: 2010.06.25/outbox.cif.g09.slc.cpg/sg12_10_cif.got.tgz:19787.got - 2010.06.28 00:19:55.
