data_PCOD8102572
_publ_section_title
;
Structure prediction by ZEFSAII (Michael W. Deem and Ramdas Pophale) SiO2 
 PCOD8102572
Probable space group: C 2/M
;
_chemical_formula_sum "Si O2"
_cell_formula_units_Z 64
_cell_length_a 29.652169
_cell_length_b 9.098780
_cell_length_c 25.338224
_cell_angle_alpha 90.000000
_cell_angle_beta 30.044516
_cell_angle_gamma 90.000000
_cell_volume 3422.706981
_symmetry_space_group_name_H-M "C 2/M"
_symmetry_group_IT_number 12
_symmetry_cell_setting 'monoclinic'
loop_
_space_group_symop_operation_xyz
x,y,z
-x,y,-z
-x,-y,-z
x,-y,z
1/2+x,1/2+y,z
1/2-x,1/2+y,-z
1/2-x,1/2-y,-z
1/2+x,1/2-y,z
loop_
_atom_site_type_symbol
_atom_site_label
_atom_site_fract_x
_atom_site_fract_y
_atom_site_fract_z
Si Si1 0.639439 0.170555 0.995031
Si Si2 0.996632 0.668416 0.229830
Si Si3 0.514838 0.672485 0.319587
Si Si4 0.416348 0.669815 0.050065
Si Si5 0.296541 0.171253 0.404228
Si Si6 0.680031 0.825861 0.207610
Si Si7 0.279311 0.832240 0.715716
Si Si8 0.672619 0.671440 0.436881
O O1 0.578906 0.196653 0.107447
O O2 0.660823 0.000000 0.964276
O O3 0.584530 0.230932 0.000823
O O4 0.732587 0.256945 0.909048
O O5 0.996249 0.500000 0.250597
O O6 0.009448 0.779574 0.264628
O O7 0.902931 0.703765 0.294976
O O8 0.535772 0.500000 0.301309
O O9 0.591657 0.762195 0.270995
O O10 0.421738 0.714614 0.441538
O O11 0.424114 0.500000 0.024627
O O12 0.327613 0.694479 0.174999
O O13 0.500000 0.721875 0.000000
O O14 0.250000 0.250000 0.500000
O O15 0.252667 0.229665 0.393999
O O16 0.274701 0.000000 0.432721
O O17 0.679051 0.783060 0.270392
O O18 0.684880 0.000000 0.194813
O O19 0.323703 0.740608 0.624417
O O20 0.303043 0.000000 0.680301
O O21 0.681970 0.500000 0.418867
#
# Coordination Sequence:
#
# PCOD8102572 Si02
#       8
#     8   8   8   8   8   8   8   8
#     4  10  21  37  58  86 115 147 190 237 285 338
#     4  10  22  38  58  85 118 153 191 232 281 340
#     4  11  23  39  60  86 113 147 194 239 285 338
#     4   9  19  36  55  80 115 153 193 235 280 335
#     4  10  20  37  57  81 116 154 189 231 279 333
#     4  10  22  42  63  83 113 150 189 237 289 340
#     4   9  20  37  57  82 111 148 192 232 278 338
#     4  10  22  37  56  85 119 150 186 234 284 334
#
# _framework density 18.698651000000002
#
# number of rings (size 3 to 8) (size 9 to 14) (size 15 to 20)
#    0.000    2.125    1.250    1.875    1.750    6.250 
#    0.000    2.500    0.000    0.000    0.000    0.000 
#    0.000    0.000    0.000    0.000    0.000    0.000 
#
# Total GULP energy -396889.131979 kJ/mol
# GULP energy per Si atom -12402.785374 kJ/mol
# Density = 1.865609 g / cm^3
# Si number density = 18.698651 Si / 1000 Ang^3
#
#
#
# Elastic Constant Matrix: (Units=GPa)
#
#
# Indices 1 2 3 4 5 6 
#
# 1 191.3186 65.3818 57.0472 -0.0782 8.0176 0.0325
# 2 65.3818 77.1790 55.2973 -0.0050 4.1070 0.0076
# 3 57.0472 55.2973 102.4323 0.0287 4.7063 -0.0092
# 4 -0.0782 -0.0050 0.0287 24.8248 -0.0301 3.3321
# 5 8.0176 4.1070 4.7063 -0.0301 37.2804 0.0090
# 6 0.0325 0.0076 -0.0092 3.3321 0.0090 36.0377
#
#
#
# Elastic Compliance Matrix: (Units=1/GPa)
#
#
# Indices 1 2 3 4 5 6 
#
# 1 0.007475 -0.005434 -0.001190 0.000024 -0.000859 -0.000008
# 2 -0.005434 0.025109 -0.010516 0.000000 -0.000270 -0.000003
# 3 -0.001190 -0.010516 0.016131 -0.000027 -0.000622 0.000010
# 4 0.000024 0.000000 -0.000027 0.040789 0.000032 -0.003771
# 5 -0.000859 -0.000270 -0.000622 0.000032 0.027117 -0.000009
# 6 -0.000008 -0.000003 0.000010 -0.003771 -0.000009 0.028097
#
#
# Mechanical properties :
#
#
# Convention : Reuss Voigt Hill
#
# Bulk Modulus (GPa) = 69.27810 80.70917 74.99364
# Shear Modulus (GPa) = 27.20200 32.50882 29.85541
#
# Velocity S-wave (km/s) = 3.81827 4.17413 4.00016
# Velocity P-wave (km/s) = 7.52124 8.15402 7.84401
#
# Compressibility (1/GPa) = 0.01443458
#
# Stress axis : x y z
#
# Youngs Moduli (GPa) = 133.78501 39.82583 61.99207
#
# Poissons Ratio (x) = 0.21641 0.07377
# Poissons Ratio (y) = 0.72697 0.65194
# Poissons Ratio (z) = 0.15920 0.41883
#
# Static dielectric constant tensor:
#      x y z
#    x 3.414590 -0.000050 -0.069040 
#    y -0.000050 3.440050 0.000040 
#    z -0.069040 0.000040 3.401600 
# 
# 
# High freq. dielectric constant tensor:
#      x y z
#    x 1.732780 0.000000 -0.005740 
#    y 0.000000 1.727970 0.000000 
#    z -0.005740 0.000000 1.728870 
# 
# From -- ./inp_files/353258.got.cif
#   From: 2010.06.25/outbox.cif.g09.slc.cpg/sg12_177_cif.got.tgz:353258.got - 2010.06.28 00:19:55.
