data_PCOD8102608
_publ_section_title
;
Structure prediction by ZEFSAII (Michael W. Deem and Ramdas Pophale) SiO2 
 PCOD8102608
Probable space group: C 2/M
;
_chemical_formula_sum "Si O2"
_cell_formula_units_Z 56
_cell_length_a 13.146195
_cell_length_b 18.176462
_cell_length_c 16.807462
_cell_angle_alpha 90.000000
_cell_angle_beta 135.950630
_cell_angle_gamma 90.000000
_cell_volume 2792.351038
_symmetry_space_group_name_H-M "C 2/M"
_symmetry_group_IT_number 12
_symmetry_cell_setting 'monoclinic'
loop_
_space_group_symop_operation_xyz
x,y,z
-x,y,-z
-x,-y,-z
x,-y,z
1/2+x,1/2+y,z
1/2-x,1/2+y,-z
1/2-x,1/2-y,-z
1/2+x,1/2-y,z
loop_
_atom_site_type_symbol
_atom_site_label
_atom_site_fract_x
_atom_site_fract_y
_atom_site_fract_z
Si Si1 0.839468 0.809163 0.443373
Si Si2 0.500484 0.661041 0.826491
Si Si3 0.313360 0.417689 0.838189
Si Si4 0.001194 0.582162 0.356717
Si Si5 0.041608 0.669439 0.223567
Si Si6 0.723306 0.915379 0.969451
Si Si7 0.237756 0.147657 0.429226
O O1 0.717844 0.837763 0.309756
O O2 0.830960 0.852781 0.521210
O O3 0.802395 0.724803 0.437697
O O4 0.000000 0.820850 0.500000
O O5 0.433933 0.640370 0.875977
O O6 0.513340 0.747648 0.820565
O O7 0.392992 0.622250 0.702170
O O8 0.662840 0.627195 0.909696
O O9 0.379483 0.500000 0.866111
O O10 0.271725 0.402394 0.905908
O O11 0.163895 0.409185 0.701994
O O12 0.013837 0.500000 0.325115
O O13 0.022855 0.647317 0.305272
O O14 0.124069 0.591431 0.494156
O O15 0.941163 0.617493 0.111404
O O16 0.719409 0.000000 0.992119
#
# Coordination Sequence:
#
# PCOD8102608 Si02
#       7
#     8   8   8   8   8   8   8
#     4   9  18  35  58  78 112 146 180 230 283 330
#     4  11  20  31  50  83 118 143 181 238 277 329
#     4   9  19  33  52  80 112 151 186 218 282 354
#     4   9  18  34  54  76 114 153 181 223 278 344
#     4   9  19  34  52  79 107 143 194 226 266 326
#     4  10  20  37  58  76 112 156 188 228 281 345
#     4   9  20  32  50  86 114 143 183 226 277 341
#
# _framework density 20.054786
#
# number of rings (size 3 to 8) (size 9 to 14) (size 15 to 20)
#    0.000    2.571    0.000    3.429    4.000    2.286 
#    0.000    1.429    0.000   10.714    0.000    1.000 
#    0.000    0.000    0.000    0.000    0.000    0.000 
#
# Total GULP energy -346937.119675 kJ/mol
# GULP energy per Si atom -12390.611417 kJ/mol
# Density = 2.000914 g / cm^3
# Si number density = 20.054786 Si / 1000 Ang^3
#
#
#
# Elastic Constant Matrix: (Units=GPa)
#
#
# Indices 1 2 3 4 5 6 
#
# 1 57.7936 27.7025 28.9510 0.0000 30.0566 0.0000
# 2 27.7025 100.5471 40.6563 -0.0002 16.3301 -0.0002
# 3 28.9510 40.6563 137.7792 -0.0004 46.4778 -0.0003
# 4 0.0000 -0.0002 -0.0004 26.4195 -0.0003 3.9681
# 5 30.0566 16.3301 46.4778 -0.0003 36.1615 -0.0002
# 6 0.0000 -0.0002 -0.0003 3.9681 -0.0002 13.9427
#
#
#
# Elastic Compliance Matrix: (Units=1/GPa)
#
#
# Indices 1 2 3 4 5 6 
#
# 1 0.035090 -0.006591 0.006013 0.000000 -0.033918 0.000000
# 2 -0.006591 0.012574 -0.003986 0.000000 0.004923 0.000000
# 3 0.006013 -0.003986 0.014564 0.000000 -0.021917 0.000000
# 4 0.000000 0.000000 0.000000 0.039541 0.000001 -0.011253
# 5 -0.033918 0.004923 -0.021917 0.000001 0.081792 0.000001
# 6 0.000000 0.000000 0.000000 -0.011253 0.000001 0.074925
#
#
# Mechanical properties :
#
#
# Convention : Reuss Voigt Hill
#
# Bulk Modulus (GPa) = 18.83222 54.52661 36.67942
# Shear Modulus (GPa) = 17.52467 28.55874 23.04171
#
# Velocity S-wave (km/s) = 2.95929 3.77773 3.39328
# Velocity P-wave (km/s) = 4.59209 6.80266 5.80360
#
# Compressibility (1/GPa) = 0.05310047
#
# Stress axis : x y z
#
# Youngs Moduli (GPa) = 28.49855 79.53158 68.66219
#
# Poissons Ratio (x) = 0.52416 -0.41289
# Poissons Ratio (y) = 0.18782 0.27370
# Poissons Ratio (z) = -0.17137 0.31703
#
# Static dielectric constant tensor:
#      x y z
#    x 3.315450 0.000000 0.438640 
#    y 0.000000 3.537970 0.000000 
#    z 0.438640 0.000000 4.233440 
# 
# 
# High freq. dielectric constant tensor:
#      x y z
#    x 1.735910 0.000000 0.032390 
#    y 0.000000 1.768930 0.000000 
#    z 0.032390 0.000000 1.807050 
# 
# From -- ./inp_files/271431.got.cif
#   From: 2010.06.25/outbox.cif.g09.slc.cpg/sg12_136_cif.got.tgz:271431.got - 2010.06.28 00:19:55.
