data_PCOD8102265
_publ_section_title
;
Structure prediction by ZEFSAII (Michael W. Deem and Ramdas Pophale) SiO2 
 PCOD8102265
Probable space group: C 2/M
;
_chemical_formula_sum "Si O2"
_cell_formula_units_Z 64
_cell_length_a 15.293294
_cell_length_b 8.579274
_cell_length_c 23.850221
_cell_angle_alpha 90.000000
_cell_angle_beta 90.403713
_cell_angle_gamma 90.000000
_cell_volume 3129.199142
_symmetry_space_group_name_H-M "C 2/M"
_symmetry_group_IT_number 12
_symmetry_cell_setting 'monoclinic'
loop_
_space_group_symop_operation_xyz
x,y,z
-x,y,-z
-x,-y,-z
x,-y,z
1/2+x,1/2+y,z
1/2-x,1/2+y,-z
1/2-x,1/2-y,-z
1/2+x,1/2-y,z
loop_
_atom_site_type_symbol
_atom_site_label
_atom_site_fract_x
_atom_site_fract_y
_atom_site_fract_z
Si Si1 0.404263 0.681065 0.675853
Si Si2 0.856243 0.180234 0.444212
Si Si3 0.849658 0.679809 0.561860
Si Si4 0.416346 0.181832 0.331740
Si Si5 0.245208 0.315916 0.136322
Si Si6 0.242653 0.182703 0.736370
Si Si7 0.895669 0.814877 0.057126
Si Si8 0.090942 0.184390 0.068253
O O1 0.386604 0.500000 0.686806
O O2 0.394759 0.719977 0.610316
O O3 0.502272 0.725925 0.695222
O O4 0.337745 0.782417 0.712105
O O5 0.884583 0.254467 0.503242
O O6 0.753729 0.202128 0.433417
O O7 0.907605 0.271659 0.396555
O O8 0.883231 0.000000 0.442965
O O9 0.876569 0.500000 0.568146
O O10 0.329145 0.222719 0.297986
O O11 0.435221 0.000000 0.327573
O O12 0.247802 0.500000 0.133246
O O13 0.260734 0.259361 0.199599
O O14 0.321469 0.243267 0.097332
O O15 0.150686 0.260323 0.115754
O O16 0.223075 0.000000 0.730204
O O17 0.991288 0.759715 0.078433
O O18 0.893191 0.000000 0.058254
O O19 0.878761 0.757939 0.993373
O O20 0.098338 0.000000 0.072860
#
# Coordination Sequence:
#
# PCOD8102265 Si02
#       8
#     8   8   8   8   8   8   8   8
#     4  12  25  42  65  89 117 156 201 249 305 363
#     4  10  20  36  61  91 125 158 194 240 295 358
#     4  10  20  36  61  91 125 157 193 242 296 357
#     4  12  25  42  65  90 119 156 200 249 303 361
#     4  10  21  36  57  83 116 153 192 240 295 346
#     4  11  24  43  61  84 119 159 204 254 301 353
#     4   8  16  33  55  83 118 157 192 233 287 344
#     4   9  17  32  57  85 117 154 197 237 279 342
#
# _framework density 20.452518000000001
#
# number of rings (size 3 to 8) (size 9 to 14) (size 15 to 20)
#    0.000    1.750    1.250    4.500    0.000    3.500 
#    0.000    5.625    0.000    0.000    0.000    0.000 
#    0.000    0.000    0.000    0.000    0.000    0.000 
#
# Total GULP energy -396921.374039 kJ/mol
# GULP energy per Si atom -12403.792939 kJ/mol
# Density = 2.040597 g / cm^3
# Si number density = 20.452518 Si / 1000 Ang^3
#
#
#
# Elastic Constant Matrix: (Units=GPa)
#
#
# Indices 1 2 3 4 5 6 
#
# 1 84.2513 11.7248 33.9367 0.0000 -8.3051 0.0000
# 2 11.7248 56.7868 23.0582 0.0000 3.4692 0.0000
# 3 33.9367 23.0582 97.4765 0.0000 -6.3422 0.0000
# 4 0.0000 0.0000 0.0000 24.2988 0.0000 5.8716
# 5 -8.3051 3.4692 -6.3422 0.0000 6.5048 0.0000
# 6 0.0000 0.0000 0.0000 5.8716 0.0000 30.5364
#
#
#
# Elastic Compliance Matrix: (Units=1/GPa)
#
#
# Indices 1 2 3 4 5 6 
#
# 1 0.015445 -0.002832 -0.003551 0.000000 0.017768 0.000000
# 2 -0.002832 0.021671 -0.005475 0.000000 -0.020511 0.000000
# 3 -0.003551 -0.005475 0.013544 0.000000 0.011591 0.000000
# 4 0.000000 0.000000 0.000000 0.043160 0.000000 -0.008299
# 5 0.017768 -0.020511 0.011591 0.000000 0.198658 0.000000
# 6 0.000000 0.000000 0.000000 -0.008299 0.000000 0.034343
#
#
# Mechanical properties :
#
#
# Convention : Reuss Voigt Hill
#
# Bulk Modulus (GPa) = 37.11445 41.77266 39.44356
# Shear Modulus (GPa) = 13.90747 23.58768 18.74757
#
# Velocity S-wave (km/s) = 2.61049 3.39970 3.03089
# Velocity P-wave (km/s) = 5.22228 5.98992 5.61922
#
# Compressibility (1/GPa) = 0.02694368
#
# Stress axis : x y z
#
# Youngs Moduli (GPa) = 64.74426 46.14550 73.83083
#
# Poissons Ratio (x) = 0.13071 0.26219
# Poissons Ratio (y) = 0.18339 0.40420
# Poissons Ratio (z) = 0.22992 0.25263
#
# Static dielectric constant tensor:
#      x y z
#    x 3.855230 0.000000 -0.102530 
#    y 0.000000 3.507140 0.000000 
#    z -0.102530 0.000000 3.892420 
# 
# 
# High freq. dielectric constant tensor:
#      x y z
#    x 1.808370 0.000000 -0.001580 
#    y 0.000000 1.787930 0.000000 
#    z -0.001580 0.000000 1.797020 
# 
# From -- ./inp_files/338769.got.cif
#   From: 2010.06.25/outbox.cif.g09.slc.cpg/sg12_170_cif.got.tgz:338769.got - 2010.06.28 00:19:55.
