data_PCOD8102860
_publ_section_title
;
Structure prediction by ZEFSAII (Michael W. Deem and Ramdas Pophale) SiO2 
 PCOD8102860
Probable space group: C 2/M
;
_chemical_formula_sum "Si O2"
_cell_formula_units_Z 48
_cell_length_a 10.074124
_cell_length_b 28.780090
_cell_length_c 10.784982
_cell_angle_alpha 90.000000
_cell_angle_beta 126.202739
_cell_angle_gamma 90.000000
_cell_volume 2523.224219
_symmetry_space_group_name_H-M "C 2/M"
_symmetry_group_IT_number 12
_symmetry_cell_setting 'monoclinic'
loop_
_space_group_symop_operation_xyz
x,y,z
-x,y,-z
-x,-y,-z
x,-y,z
1/2+x,1/2+y,z
1/2-x,1/2+y,-z
1/2-x,1/2-y,-z
1/2+x,1/2-y,z
loop_
_atom_site_type_symbol
_atom_site_label
_atom_site_fract_x
_atom_site_fract_y
_atom_site_fract_z
Si Si1 0.736419 0.121749 0.364466
Si Si2 0.984195 0.553134 0.346325
Si Si3 0.872813 0.776646 0.161885
Si Si4 0.986322 0.874044 0.291160
Si Si5 0.125290 0.947914 0.178994
Si Si6 0.103809 0.290390 0.184312
O O1 0.625477 0.079372 0.348996
O O2 0.838672 0.107368 0.297641
O O3 0.605557 0.161498 0.258086
O O4 0.859878 0.141098 0.538024
O O5 0.007626 0.500000 0.320147
O O6 0.797755 0.570580 0.215978
O O7 0.000000 0.561679 0.500000
O O8 0.920925 0.831216 0.167907
O O9 0.789654 0.774819 0.251426
O O10 0.040434 0.748073 0.245572
O O11 0.750000 0.750000 0.000000
O O12 0.049884 0.915917 0.243141
O O13 0.154168 0.000000 0.250825
O O14 0.000000 0.950068 0.000000
O O15 0.000000 0.295521 0.000000
#
# Coordination Sequence:
#
# PCOD8102860 Si02
#       6
#     8   8   8   8   8   8
#     4  10  21  36  57  86 115 151 191 244 298 347
#     4  10  20  37  59  85 118 152 194 242 289 352
#     4   9  19  35  53  77 108 148 188 236 286 339
#     4  10  21  37  58  84 118 152 197 242 291 354
#     4  10  22  39  59  86 120 155 195 245 293 347
#     4   9  19  35  54  77 109 144 187 236 289 348
#
# _framework density 19.023278999999999
#
# number of rings (size 3 to 8) (size 9 to 14) (size 15 to 20)
#    0.000    2.333    1.667    0.000    0.000    8.667 
#    0.000    1.667    0.000    3.500    0.000    0.000 
#    0.000    0.000    0.000    0.000    0.000    0.000 
#
# Total GULP energy -297319.698493 kJ/mol
# GULP energy per Si atom -12388.320771 kJ/mol
# Density = 1.897998 g / cm^3
# Si number density = 19.023279 Si / 1000 Ang^3
#
#
#
# Elastic Constant Matrix: (Units=GPa)
#
#
# Indices 1 2 3 4 5 6 
#
# 1 139.1528 87.6143 30.1867 0.0000 9.9689 0.0000
# 2 87.6143 121.1171 35.5632 0.0000 -2.2258 0.0000
# 3 30.1867 35.5632 58.2431 0.0000 7.2046 0.0000
# 4 0.0000 0.0000 0.0000 29.2357 0.0000 2.1930
# 5 9.9689 -2.2258 7.2046 0.0000 24.0628 0.0000
# 6 0.0000 0.0000 0.0000 2.1930 0.0000 43.2039
#
#
#
# Elastic Compliance Matrix: (Units=1/GPa)
#
#
# Indices 1 2 3 4 5 6 
#
# 1 0.014249 -0.010370 -0.000212 0.000000 -0.006799 0.000000
# 2 -0.010370 0.017803 -0.006470 0.000000 0.007880 0.000000
# 3 -0.000212 -0.006470 0.022112 0.000000 -0.007131 0.000000
# 4 0.000000 0.000000 0.000000 0.034336 0.000000 -0.001743
# 5 -0.006799 0.007880 -0.007131 0.000000 0.047239 0.000000
# 6 0.000000 0.000000 0.000000 -0.001743 0.000000 0.023234
#
#
# Mechanical properties :
#
#
# Convention : Reuss Voigt Hill
#
# Bulk Modulus (GPa) = 49.85351 69.47127 59.66239
# Shear Modulus (GPa) = 25.02968 30.31041 27.67005
#
# Velocity S-wave (km/s) = 3.63125 3.99599 3.81798
# Velocity P-wave (km/s) = 6.62154 7.60848 7.13210
#
# Compressibility (1/GPa) = 0.02005877
#
# Stress axis : x y z
#
# Youngs Moduli (GPa) = 70.18263 56.17162 45.22371
#
# Poissons Ratio (x) = 0.58249 0.00959
# Poissons Ratio (y) = 0.72778 0.29262
# Poissons Ratio (z) = 0.01488 0.36346
#
# Static dielectric constant tensor:
#      x y z
#    x 3.799100 0.000000 0.361110 
#    y 0.000000 3.577590 0.000000 
#    z 0.361110 0.000000 3.446720 
# 
# 
# High freq. dielectric constant tensor:
#      x y z
#    x 1.757150 0.000000 0.016880 
#    y 0.000000 1.731630 0.000000 
#    z 0.016880 0.000000 1.725670 
# 
# From -- ./inp_files/135542.got.cif
#   From: 2010.06.25/outbox.cif.g09.slc.cpg/sg12_68_cif.got.tgz:135542.got - 2010.06.28 00:19:55.
