data_PCOD8102017
_publ_section_title
;
Structure prediction by ZEFSAII (Michael W. Deem and Ramdas Pophale) SiO2 
 PCOD8102017
Probable space group: C 2/M
;
_chemical_formula_sum "Si O2"
_cell_formula_units_Z 44
_cell_length_a 25.220625
_cell_length_b 9.113084
_cell_length_c 24.185205
_cell_angle_alpha 90.000000
_cell_angle_beta 21.702185
_cell_angle_gamma 90.000000
_cell_volume 2055.497634
_symmetry_space_group_name_H-M "C 2/M"
_symmetry_group_IT_number 12
_symmetry_cell_setting 'monoclinic'
loop_
_space_group_symop_operation_xyz
x,y,z
-x,y,-z
-x,-y,-z
x,-y,z
1/2+x,1/2+y,z
1/2-x,1/2+y,-z
1/2-x,1/2-y,-z
1/2+x,1/2-y,z
loop_
_atom_site_type_symbol
_atom_site_label
_atom_site_fract_x
_atom_site_fract_y
_atom_site_fract_z
Si Si1 0.397253 0.170436 0.871289
Si Si2 0.500000 0.757102 0.500000
Si Si3 0.308314 0.163516 0.782754
Si Si4 0.960889 0.330126 0.937512
Si Si5 0.726766 0.335718 0.364162
Si Si6 0.516336 0.324330 0.658788
O O1 0.440327 0.193503 0.892423
O O2 0.521407 0.246648 0.713564
O O3 0.384289 0.000000 0.868464
O O4 0.250000 0.250000 0.000000
O O5 0.590418 0.853309 0.369173
O O6 0.383657 0.660244 0.579954
O O7 0.372663 0.271500 0.766625
O O8 0.288096 0.000000 0.826625
O O9 0.154128 0.234034 0.916828
O O10 0.942671 0.500000 0.972932
O O11 0.119123 0.263817 0.799249
O O12 0.766368 0.500000 0.342662
O O13 0.651495 0.266714 0.491586
O O14 0.509850 0.500000 0.670345
#
# Coordination Sequence:
#
# PCOD8102017 Si02
#       6
#     8   4   8   8   8   8
#     4  11  21  34  57  87 122 160 198 237 286 342
#     4  10  22  40  62  86 113 150 195 246 299 352
#     4  11  22  38  60  86 117 153 195 242 294 351
#     4  10  22  39  59  87 121 153 194 243 288 344
#     4   9  20  39  61  87 117 153 196 243 293 347
#     4  10  20  36  60  87 118 156 199 240 285 344
#
# _framework density 21.406009000000001
#
# number of rings (size 3 to 8) (size 9 to 14) (size 15 to 20)
#    0.000    1.818    1.818    2.182    0.000    4.364 
#    0.000    8.182    0.000    0.000    0.000    0.000 
#    0.000    0.000    0.000    0.000    0.000    0.000 
#
# Total GULP energy -272672.343128 kJ/mol
# GULP energy per Si atom -12394.197415 kJ/mol
# Density = 2.135729 g / cm^3
# Si number density = 21.406009 Si / 1000 Ang^3
#
#
#
# Elastic Constant Matrix: (Units=GPa)
#
#
# Indices 1 2 3 4 5 6 
#
# 1 67.3448 22.8755 39.7883 0.0009 2.7210 0.0003
# 2 22.8755 106.7447 45.6120 -0.0017 1.2501 -0.0011
# 3 39.7883 45.6120 149.1522 0.0011 -12.1748 -0.0022
# 4 0.0009 -0.0017 0.0011 21.9980 -0.0013 7.7212
# 5 2.7210 1.2501 -12.1748 -0.0013 34.6389 0.0010
# 6 0.0003 -0.0011 -0.0022 7.7212 0.0010 16.0176
#
#
#
# Elastic Compliance Matrix: (Units=1/GPa)
#
#
# Indices 1 2 3 4 5 6 
#
# 1 0.018307 -0.001954 -0.004528 -0.000001 -0.002959 -0.000001
# 2 -0.001954 0.011071 -0.002970 0.000001 -0.001290 0.000000
# 3 -0.004528 -0.002970 0.009120 -0.000001 0.003668 0.000001
# 4 -0.000001 0.000001 -0.000001 0.054717 0.000003 -0.026376
# 5 -0.002959 -0.001290 0.003668 0.000003 0.030438 -0.000003
# 6 -0.000001 0.000000 0.000001 -0.026376 -0.000003 0.075146
#
#
# Mechanical properties :
#
#
# Convention : Reuss Voigt Hill
#
# Bulk Modulus (GPa) = 51.03184 59.97702 55.50443
# Shear Modulus (GPa) = 22.29832 28.86196 25.58014
#
# Velocity S-wave (km/s) = 3.23102 3.67592 3.46062
# Velocity P-wave (km/s) = 6.14906 6.78941 6.47716
#
# Compressibility (1/GPa) = 0.01959561
#
# Stress axis : x y z
#
# Youngs Moduli (GPa) = 54.62319 90.32687 109.64981
#
# Poissons Ratio (x) = 0.17649 0.49646
# Poissons Ratio (y) = 0.10673 0.32562
# Poissons Ratio (z) = 0.24732 0.26824
#
# Static dielectric constant tensor:
#      x y z
#    x 3.829580 0.000000 0.120810 
#    y 0.000000 3.627280 0.000000 
#    z 0.120810 0.000000 4.308270 
# 
# 
# High freq. dielectric constant tensor:
#      x y z
#    x 1.826340 0.000000 0.012290 
#    y 0.000000 1.817710 0.000000 
#    z 0.012290 0.000000 1.856710 
# 
# From -- ./inp_files/368983.got.cif
#   From: 2010.06.25/outbox.cif.g09.slc.cpg/sg12_185_cif.got.tgz:368983.got - 2010.06.28 00:19:55.
