data_PCOD8102934
_publ_section_title
;
Structure prediction by ZEFSAII (Michael W. Deem and Ramdas Pophale) SiO2 
 PCOD8102934
Probable space group: C 2/M
;
_chemical_formula_sum "Si O2"
_cell_formula_units_Z 56
_cell_length_a 18.601878
_cell_length_b 9.088780
_cell_length_c 18.232986
_cell_angle_alpha 90.000000
_cell_angle_beta 111.626484
_cell_angle_gamma 90.000000
_cell_volume 2865.623999
_symmetry_space_group_name_H-M "C 2/M"
_symmetry_group_IT_number 12
_symmetry_cell_setting 'monoclinic'
loop_
_space_group_symop_operation_xyz
x,y,z
-x,y,-z
-x,-y,-z
x,-y,z
1/2+x,1/2+y,z
1/2-x,1/2+y,-z
1/2-x,1/2-y,-z
1/2+x,1/2-y,z
loop_
_atom_site_type_symbol
_atom_site_label
_atom_site_fract_x
_atom_site_fract_y
_atom_site_fract_z
Si Si1 0.470504 0.173760 0.135138
Si Si2 0.729121 0.169300 0.706162
Si Si3 0.359817 0.173912 0.839944
Si Si4 0.462643 0.336308 0.564471
Si Si5 0.311414 0.826863 0.472809
Si Si6 0.569127 0.829654 0.715786
Si Si7 0.676636 0.174457 0.009191
O O1 0.553430 0.236985 0.140101
O O2 0.453230 0.221846 0.211506
O O3 0.401631 0.234659 0.058252
O O4 0.472094 0.000000 0.128127
O O5 0.803826 0.261583 0.757027
O O6 0.700140 0.223023 0.615615
O O7 0.660615 0.194289 0.738869
O O8 0.754253 0.000000 0.712654
O O9 0.360205 0.000000 0.830909
O O10 0.328778 0.220908 0.907944
O O11 0.500000 0.347352 0.500000
O O12 0.435588 0.500000 0.579225
O O13 0.393123 0.222699 0.534874
O O14 0.524471 0.275267 0.644296
O O15 0.250000 0.750000 0.500000
O O16 0.304740 0.000000 0.478566
O O17 0.547294 0.000000 0.692755
O O18 0.684995 0.000000 0.002598
O O19 0.750000 0.250000 0.000000
#
# Coordination Sequence:
#
# PCOD8102934 Si02
#       7
#     8   8   8   8   8   8   8
#     4   9  19  36  59  86 114 149 190 234 284 342
#     4  10  22  39  58  83 117 154 191 239 293 346
#     4  10  21  36  58  87 116 150 192 238 287 340
#     4  11  23  39  60  87 118 154 196 247 300 347
#     4  11  24  41  61  85 118 157 200 246 298 354
#     4  10  20  37  60  83 111 153 199 239 288 350
#     4  10  20  37  61  86 117 151 190 235 282 341
#
# _framework density 19.541990999999999
#
# number of rings (size 3 to 8) (size 9 to 14) (size 15 to 20)
#    0.000    1.857    1.429    2.143    2.000    5.714 
#    0.000    1.429    0.000    1.714    0.000    0.000 
#    0.000    0.000    0.000    0.000    0.000    0.000 
#
# Total GULP energy -347252.975367 kJ/mol
# GULP energy per Si atom -12401.891977 kJ/mol
# Density = 1.949751 g / cm^3
# Si number density = 19.541991 Si / 1000 Ang^3
#
#
#
# Elastic Constant Matrix: (Units=GPa)
#
#
# Indices 1 2 3 4 5 6 
#
# 1 130.8569 34.9752 37.2591 0.0000 2.6706 0.0000
# 2 34.9752 56.0503 38.7774 0.0000 2.4710 0.0000
# 3 37.2591 38.7774 87.5755 0.0000 11.4245 0.0000
# 4 0.0000 0.0000 0.0000 120.0743 0.0000 15.9761
# 5 2.6706 2.4710 11.4245 0.0000 39.7847 0.0000
# 6 0.0000 0.0000 0.0000 15.9761 0.0000 35.1702
#
#
#
# Elastic Compliance Matrix: (Units=1/GPa)
#
#
# Indices 1 2 3 4 5 6 
#
# 1 0.009416 -0.004459 -0.002063 0.000000 0.000237 0.000000
# 2 -0.004459 0.027948 -0.010691 0.000000 0.001634 0.000000
# 3 -0.002063 -0.010691 0.017584 0.000000 -0.004247 0.000000
# 4 0.000000 0.000000 0.000000 0.008864 0.000000 -0.004026
# 5 0.000237 0.001634 -0.004247 0.000000 0.026237 0.000000
# 6 0.000000 0.000000 0.000000 -0.004026 0.000000 0.030262
#
#
# Mechanical properties :
#
#
# Convention : Reuss Voigt Hill
#
# Bulk Modulus (GPa) = 48.72625 55.16733 51.94679
# Shear Modulus (GPa) = 30.94475 49.90390 40.42432
#
# Velocity S-wave (km/s) = 3.98364 5.05887 4.55311
# Velocity P-wave (km/s) = 6.79319 7.90028 7.36756
#
# Compressibility (1/GPa) = 0.02052282
#
# Stress axis : x y z
#
# Youngs Moduli (GPa) = 106.19966 35.78078 56.86948
#
# Poissons Ratio (x) = 0.15955 0.11730
# Poissons Ratio (y) = 0.47356 0.60799
# Poissons Ratio (z) = 0.21905 0.38253
#
# Static dielectric constant tensor:
#      x y z
#    x 3.687160 0.000000 -0.105890 
#    y 0.000000 4.075650 0.000000 
#    z -0.105890 0.000000 3.660930 
# 
# 
# High freq. dielectric constant tensor:
#      x y z
#    x 1.774740 0.000000 0.000180 
#    y 0.000000 1.740700 0.000000 
#    z 0.000180 0.000000 1.771790 
# 
# From -- ./inp_files/275486.got.cif
#   From: 2010.06.25/outbox.cif.g09.slc.cpg/sg12_138_cif.got.tgz:275486.got - 2010.06.28 00:19:55.
