data_PCOD8102426
_publ_section_title
;
Structure prediction by ZEFSAII (Michael W. Deem and Ramdas Pophale) SiO2 
 PCOD8102426
Probable space group: C 2/M
;
_chemical_formula_sum "Si O2"
_cell_formula_units_Z 60
_cell_length_a 11.664252
_cell_length_b 26.343923
_cell_length_c 9.483655
_cell_angle_alpha 90.000000
_cell_angle_beta 86.400276
_cell_angle_gamma 90.000000
_cell_volume 2908.408417
_symmetry_space_group_name_H-M "C 2/M"
_symmetry_group_IT_number 12
_symmetry_cell_setting 'monoclinic'
loop_
_space_group_symop_operation_xyz
x,y,z
-x,y,-z
-x,-y,-z
x,-y,z
1/2+x,1/2+y,z
1/2-x,1/2+y,-z
1/2-x,1/2-y,-z
1/2+x,1/2-y,z
loop_
_atom_site_type_symbol
_atom_site_label
_atom_site_fract_x
_atom_site_fract_y
_atom_site_fract_z
Si Si1 0.000000 0.605879 0.000000
Si Si2 0.633611 0.286288 0.174074
Si Si3 0.511454 0.058035 0.708778
Si Si4 0.923069 0.943505 0.369324
Si Si5 0.199516 0.320591 0.077952
Si Si6 0.678150 0.905482 0.471339
Si Si7 0.300885 0.305029 0.517494
Si Si8 0.082706 0.158315 0.758371
O O1 0.960844 0.570762 0.131912
O O2 0.106798 0.638298 0.044016
O O3 0.631769 0.225455 0.160123
O O4 0.649992 0.307799 0.329341
O O5 0.508606 0.309481 0.141547
O O6 0.738116 0.304849 0.070571
O O7 0.409951 0.092960 0.653210
O O8 0.627151 0.066962 0.612090
O O9 0.472262 0.000000 0.697891
O O10 0.792120 0.935585 0.423327
O O11 0.959167 0.900262 0.253424
O O12 0.000000 0.936676 0.500000
O O13 0.938753 0.000000 0.302728
O O14 0.293209 0.342758 0.177555
O O15 0.701042 0.846687 0.505664
O O16 0.250000 0.250000 0.500000
O O17 0.402055 0.315900 0.396933
#
# Coordination Sequence:
#
# PCOD8102426 Si02
#       8
#     4   8   8   8   8   8   8   8
#     4  12  25  40  60  90 126 158 211 264 310 360
#     4  11  24  41  62  87 125 170 207 246 303 374
#     4  11  23  41  65  91 123 163 206 257 316 369
#     4  10  20  36  63  93 122 158 202 253 309 361
#     4  11  26  41  62  87 122 171 210 247 306 377
#     4  10  21  39  63  91 124 161 201 251 304 375
#     4  11  21  38  59  94 129 156 203 251 304 360
#     4  11  22  42  63  91 126 162 203 259 305 361
#
# _framework density 20.629840000000002
#
# number of rings (size 3 to 8) (size 9 to 14) (size 15 to 20)
#    0.000    1.200    1.333    6.600    3.733    1.067 
#    2.400    0.667    0.000    2.400    0.000    0.000 
#    0.000    0.000    0.000    0.000    0.000    0.000 
#
# Total GULP energy -372034.231551 kJ/mol
# GULP energy per Si atom -12401.141052 kJ/mol
# Density = 2.058289 g / cm^3
# Si number density = 20.629840 Si / 1000 Ang^3
#
#
#
# Elastic Constant Matrix: (Units=GPa)
#
#
# Indices 1 2 3 4 5 6 
#
# 1 89.4589 38.3000 16.9869 0.0000 3.2000 0.0000
# 2 38.3000 151.3801 30.3610 0.0000 7.8841 0.0000
# 3 16.9869 30.3610 104.0946 0.0000 5.5649 0.0000
# 4 0.0000 0.0000 0.0000 33.4766 0.0000 15.0607
# 5 3.2000 7.8841 5.5649 0.0000 23.7613 0.0000
# 6 0.0000 0.0000 0.0000 15.0607 0.0000 44.7208
#
#
#
# Elastic Compliance Matrix: (Units=1/GPa)
#
#
# Indices 1 2 3 4 5 6 
#
# 1 0.012681 -0.002947 -0.001186 0.000000 -0.000452 0.000000
# 2 -0.002947 0.007784 -0.001694 0.000000 -0.001789 0.000000
# 3 -0.001186 -0.001694 0.010386 0.000000 -0.001711 0.000000
# 4 0.000000 0.000000 0.000000 0.035206 0.000000 -0.011856
# 5 -0.000452 -0.001789 -0.001711 0.000000 0.043141 0.000000
# 6 0.000000 0.000000 0.000000 -0.011856 0.000000 0.026354
#
#
# Mechanical properties :
#
#
# Convention : Reuss Voigt Hill
#
# Bulk Modulus (GPa) = 52.08846 57.35884 54.72365
# Shear Modulus (GPa) = 32.55123 37.67746 35.11434
#
# Velocity S-wave (km/s) = 3.97655 4.27823 4.13014
# Velocity P-wave (km/s) = 6.81086 7.22969 7.02340
#
# Compressibility (1/GPa) = 0.01919811
#
# Stress axis : x y z
#
# Youngs Moduli (GPa) = 78.85581 128.46141 96.28683
#
# Poissons Ratio (x) = 0.37859 0.11417
# Poissons Ratio (y) = 0.23240 0.16310
# Poissons Ratio (z) = 0.09350 0.21760
#
# Static dielectric constant tensor:
#      x y z
#    x 3.902810 0.000000 -0.034570 
#    y 0.000000 3.898610 0.000000 
#    z -0.034570 0.000000 3.938240 
# 
# 
# High freq. dielectric constant tensor:
#      x y z
#    x 1.810330 0.000000 0.006460 
#    y 0.000000 1.812160 0.000000 
#    z 0.006460 0.000000 1.808160 
# 
# From -- ./inp_files/53248.got.cif
#   From: 2010.06.25/outbox.cif.g09.slc.cpg/sg12_27_cif.got.tgz:53248.got - 2010.06.28 00:19:55.
