data_PCOD8102038
_publ_section_title
;
Structure prediction by ZEFSAII (Michael W. Deem and Ramdas Pophale) SiO2 
 PCOD8102038
Probable space group: C 2/M
;
_chemical_formula_sum "Si O2"
_cell_formula_units_Z 32
_cell_length_a 15.073651
_cell_length_b 10.438190
_cell_length_c 12.818407
_cell_angle_alpha 90.000000
_cell_angle_beta 40.620093
_cell_angle_gamma 90.000000
_cell_volume 1313.063352
_symmetry_space_group_name_H-M "C 2/M"
_symmetry_group_IT_number 12
_symmetry_cell_setting 'monoclinic'
loop_
_space_group_symop_operation_xyz
x,y,z
-x,y,-z
-x,-y,-z
x,-y,z
1/2+x,1/2+y,z
1/2-x,1/2+y,-z
1/2-x,1/2-y,-z
1/2+x,1/2-y,z
loop_
_atom_site_type_symbol
_atom_site_label
_atom_site_fract_x
_atom_site_fract_y
_atom_site_fract_z
Si Si1 0.147836 0.500000 0.641021
Si Si2 0.766257 0.263130 0.814503
Si Si3 0.657874 0.000000 0.384865
Si Si4 0.565843 0.500000 0.660363
Si Si5 0.142816 0.000000 0.316320
Si Si6 0.524688 0.246184 0.187492
O O1 0.178514 0.500000 0.490174
O O2 0.307651 0.500000 0.539809
O O3 0.067834 0.623079 0.752622
O O4 0.769727 0.375566 0.727387
O O5 0.895864 0.278861 0.775206
O O6 0.769324 0.128986 0.747977
O O7 0.626024 0.269086 0.001839
O O8 0.500000 0.000000 0.500000
O O9 0.410763 0.500000 0.756169
O O10 0.575782 0.368987 0.718024
O O11 0.000000 0.000000 0.500000
#
# Coordination Sequence:
#
# PCOD8102038 Si02
#       6
#     4   8   4   4   4   8
#     4  12  23  38  62  86 121 157 193 237 295 354
#     4  10  20  36  60  88 114 147 198 246 288 332
#     4  12  21  36  60  93 119 145 197 252 290 336
#     4  10  23  38  59  86 116 155 193 232 291 361
#     4  10  21  36  62  85 114 148 198 244 284 338
#     4  10  20  38  60  84 115 155 194 239 287 349
#
# _framework density 24.370493
#
# number of rings (size 3 to 8) (size 9 to 14) (size 15 to 20)
#    0.000    1.500    2.500    3.000    3.500    4.000 
#    0.000    2.500    0.000    1.500    0.000    0.000 
#    0.000    0.000    0.000    0.000    0.000    0.000 
#
# Total GULP energy -198403.239665 kJ/mol
# GULP energy per Si atom -12400.202479 kJ/mol
# Density = 2.431502 g / cm^3
# Si number density = 24.370493 Si / 1000 Ang^3
#
#
#
# Elastic Constant Matrix: (Units=GPa)
#
#
# Indices 1 2 3 4 5 6 
#
# 1 44.1022 -2.9857 -3.0401 0.0000 -8.0181 0.0000
# 2 -2.9857 216.4936 52.2889 0.0000 -13.0668 0.0000
# 3 -3.0401 52.2889 116.1626 0.0000 -11.7055 0.0000
# 4 0.0000 0.0000 0.0000 57.5949 0.0000 6.4829
# 5 -8.0181 -13.0668 -11.7055 0.0000 36.8405 0.0000
# 6 0.0000 0.0000 0.0000 6.4829 0.0000 -6.1671
#
#
#
# Elastic Compliance Matrix: (Units=1/GPa)
#
#
# Indices 1 2 3 4 5 6 
#
# 1 0.023800 0.000428 0.001000 0.000000 0.005649 0.000000
# 2 0.000428 0.005236 -0.002220 0.000000 0.001245 0.000000
# 3 0.001000 -0.002220 0.009894 0.000000 0.002574 0.000000
# 4 0.000000 0.000000 0.000000 0.015526 0.000000 0.016321
# 5 0.005649 0.001245 0.002574 0.000000 0.029633 0.000000
# 6 0.000000 0.000000 0.000000 0.016321 0.000000 -0.144995
#
#
# Mechanical properties :
#
#
# Convention : Reuss Voigt Hill
#
# Bulk Modulus (GPa) = 26.77857 52.14272 39.46065
# Shear Modulus (GPa) = -106.67190 39.68668 -33.49261
#
# Velocity S-wave (km/s) = -6.62314 4.03981 -3.71119
# Velocity P-wave (km/s) = 6.89028 6.57285 1.46177
#
# Compressibility (1/GPa) = 0.03734330
#
# Stress axis : x y z
#
# Youngs Moduli (GPa) = 42.01764 190.97073 101.07529
#
# Poissons Ratio (x) = -0.08169 -0.10103
# Poissons Ratio (y) = -0.01797 0.22443
# Poissons Ratio (z) = -0.04200 0.42404
#
# Static dielectric constant tensor:
#      x y z
#    x 6.735640 0.000000 -0.537760 
#    y 0.000000 5.190860 0.000000 
#    z -0.537760 0.000000 4.370440 
# 
# 
# High freq. dielectric constant tensor:
#      x y z
#    x 1.963430 0.000000 -0.001580 
#    y 0.000000 1.985140 0.000000 
#    z -0.001580 0.000000 1.977560 
# 
# From -- ./inp_files/70754.got.cif
#   From: 2010.06.25/outbox.cif.g09.slc.cpg/sg12_36_cif.got.tgz:70754.got - 2010.06.28 00:19:55.
