data_PCOD8102609
_publ_section_title
;
Structure prediction by ZEFSAII (Michael W. Deem and Ramdas Pophale) SiO2 
 PCOD8102609
Probable space group: C 2/M
;
_chemical_formula_sum "Si O2"
_cell_formula_units_Z 56
_cell_length_a 19.838082
_cell_length_b 9.056343
_cell_length_c 21.529626
_cell_angle_alpha 90.000000
_cell_angle_beta 57.664145
_cell_angle_gamma 90.000000
_cell_volume 3268.198000
_symmetry_space_group_name_H-M "C 2/M"
_symmetry_group_IT_number 12
_symmetry_cell_setting 'monoclinic'
loop_
_space_group_symop_operation_xyz
x,y,z
-x,y,-z
-x,-y,-z
x,-y,z
1/2+x,1/2+y,z
1/2-x,1/2+y,-z
1/2-x,1/2-y,-z
1/2+x,1/2-y,z
loop_
_atom_site_type_symbol
_atom_site_label
_atom_site_fract_x
_atom_site_fract_y
_atom_site_fract_z
Si Si1 0.707053 0.827828 0.805176
Si Si2 0.035480 0.326307 0.686046
Si Si3 0.099236 0.833157 0.773701
Si Si4 0.909049 0.829914 0.551705
Si Si5 0.331461 0.825767 0.478633
Si Si6 0.886279 0.168665 0.705834
Si Si7 0.930177 0.166936 0.076963
O O1 0.682221 0.748254 0.752153
O O2 0.798941 0.796329 0.776457
O O3 0.651469 0.763297 0.888487
O O4 0.690873 0.000000 0.804546
O O5 0.035737 0.500000 0.695560
O O6 0.054138 0.251481 0.742018
O O7 0.100215 0.276435 0.603312
O O8 0.948302 0.277335 0.707204
O O9 0.043129 0.832330 0.863359
O O10 0.118364 0.000000 0.742821
O O11 0.854659 0.728093 0.535503
O O12 0.880916 0.803442 0.635302
O O13 0.000000 0.778395 0.500000
O O14 0.899113 0.000000 0.536024
O O15 0.250000 0.750000 0.500000
O O16 0.319464 0.000000 0.484988
O O17 0.912104 0.000000 0.706665
O O18 0.911865 0.000000 0.063529
O O19 0.000000 0.236625 0.000000
#
# Coordination Sequence:
#
# PCOD8102609 Si02
#       7
#     8   8   8   8   8   8   8
#     4   9  18  32  52  82 111 137 173 215 258 309
#     4  11  23  37  53  75 105 138 177 223 264 310
#     4   9  19  34  54  78 106 139 172 209 260 313
#     4  10  20  37  58  77 100 137 180 220 268 319
#     4  11  25  39  53  75 103 136 176 225 273 317
#     4  10  21  36  55  77 107 142 176 219 267 319
#     4   8  16  32  54  81 110 140 175 214 258 309
#
# _framework density 17.134823999999998
#
# number of rings (size 3 to 8) (size 9 to 14) (size 15 to 20)
#    0.857    1.429    1.429    1.286    2.000    4.000 
#    0.000    0.000    0.000    0.857    0.000    0.000 
#    0.000    0.000    0.000    0.000    0.000    0.000 
#
# Total GULP energy -347079.042237 kJ/mol
# GULP energy per Si atom -12395.680080 kJ/mol
# Density = 1.709582 g / cm^3
# Si number density = 17.134824 Si / 1000 Ang^3
#
#
#
# Elastic Constant Matrix: (Units=GPa)
#
#
# Indices 1 2 3 4 5 6 
#
# 1 103.8515 53.2558 31.5963 0.0000 -12.4417 0.0007
# 2 53.2558 87.7351 33.8324 0.0001 -9.5756 0.0011
# 3 31.5963 33.8324 63.4786 0.0000 -19.9867 0.0003
# 4 0.0000 0.0001 0.0000 24.7479 0.0000 0.3110
# 5 -12.4417 -9.5756 -19.9867 0.0000 27.1197 0.0001
# 6 0.0007 0.0011 0.0003 0.3110 0.0001 34.8871
#
#
#
# Elastic Compliance Matrix: (Units=1/GPa)
#
#
# Indices 1 2 3 4 5 6 
#
# 1 0.014566 -0.007643 -0.002503 0.000000 0.002139 0.000000
# 2 -0.007643 0.018368 -0.006573 0.000000 -0.001865 0.000000
# 3 -0.002503 -0.006573 0.025275 0.000000 0.015158 0.000000
# 4 0.000000 0.000000 0.000000 0.040412 0.000000 -0.000360
# 5 0.002139 -0.001865 0.015158 0.000000 0.048368 0.000000
# 6 0.000000 0.000000 0.000000 -0.000360 0.000000 0.028667
#
#
# Mechanical properties :
#
#
# Convention : Reuss Voigt Hill
#
# Bulk Modulus (GPa) = 40.36869 54.71494 47.54181
# Shear Modulus (GPa) = 23.00415 26.44299 24.72357
#
# Velocity S-wave (km/s) = 3.66804 3.93266 3.80265
# Velocity P-wave (km/s) = 6.44593 7.25413 6.86194
#
# Compressibility (1/GPa) = 0.02477167
#
# Stress axis : x y z
#
# Youngs Moduli (GPa) = 68.65068 54.44125 39.56476
#
# Poissons Ratio (x) = 0.41610 0.09904
# Poissons Ratio (y) = 0.52471 0.26004
# Poissons Ratio (z) = 0.17186 0.35782
#
# Static dielectric constant tensor:
#      x y z
#    x 2.795100 0.000000 -0.333370 
#    y 0.000000 3.238720 0.000000 
#    z -0.333370 0.000000 2.903190 
# 
# 
# High freq. dielectric constant tensor:
#      x y z
#    x 1.648950 0.000000 -0.007710 
#    y 0.000000 1.670340 0.000000 
#    z -0.007710 0.000000 1.647400 
# 
# From -- ./inp_files/313680.got.cif
#   From: 2010.06.25/outbox.cif.g09.slc.cpg/sg12_157_cif.got.tgz:313680.got - 2010.06.28 00:19:55.
