data_PCOD8102448
_publ_section_title
;
Structure prediction by ZEFSAII (Michael W. Deem and Ramdas Pophale) SiO2 
 PCOD8102448
Probable space group: C 2/M
;
_chemical_formula_sum "Si O2"
_cell_formula_units_Z 44
_cell_length_a 9.015528
_cell_length_b 24.665556
_cell_length_c 15.596190
_cell_angle_alpha 90.000000
_cell_angle_beta 40.195877
_cell_angle_gamma 90.000000
_cell_volume 2238.367477
_symmetry_space_group_name_H-M "C 2/M"
_symmetry_group_IT_number 12
_symmetry_cell_setting 'monoclinic'
loop_
_space_group_symop_operation_xyz
x,y,z
-x,y,-z
-x,-y,-z
x,-y,z
1/2+x,1/2+y,z
1/2-x,1/2+y,-z
1/2-x,1/2-y,-z
1/2+x,1/2-y,z
loop_
_atom_site_type_symbol
_atom_site_label
_atom_site_fract_x
_atom_site_fract_y
_atom_site_fract_z
Si Si1 0.920957 0.938183 0.401799
Si Si2 0.477301 0.236996 0.321518
Si Si3 0.500000 0.731479 0.500000
Si Si4 0.238934 0.144902 0.847437
Si Si5 0.739537 0.347446 0.646894
Si Si6 0.871464 0.562023 0.304222
O O1 0.866504 0.901294 0.345692
O O2 0.715974 0.931598 0.560318
O O3 0.165224 0.920150 0.332884
O O4 0.934358 0.000000 0.364232
O O5 0.562451 0.234591 0.383572
O O6 0.659116 0.205811 0.181361
O O7 0.420328 0.297027 0.314184
O O8 0.235351 0.200797 0.421807
O O9 0.212796 0.139210 0.757946
O O10 0.408834 0.099641 0.810241
O O11 0.000000 0.138740 0.000000
O O12 0.000000 0.337384 0.500000
O O13 0.943875 0.500000 0.254259
#
# Coordination Sequence:
#
# PCOD8102448 Si02
#       6
#     8   8   4   8   8   8
#     4   9  20  37  66 100 122 147 198 263 310 349
#     4  11  22  38  59  92 121 155 205 253 299 359
#     4  10  20  36  64  90 114 150 204 258 300 344
#     4  12  27  42  58  87 128 168 203 248 304 364
#     4  12  22  40  64  94 121 158 209 253 303 361
#     4   9  20  40  65  94 123 157 199 250 311 363
#
# _framework density 19.657184000000001
#
# number of rings (size 3 to 8) (size 9 to 14) (size 15 to 20)
#    0.000    1.455    4.545    2.182    2.545    2.182 
#    0.000    0.909    0.000    2.182    0.000    0.000 
#    0.000    0.000    0.000    0.000    0.000    0.000 
#
# Total GULP energy -272548.437280 kJ/mol
# GULP energy per Si atom -12388.565331 kJ/mol
# Density = 1.961244 g / cm^3
# Si number density = 19.657184 Si / 1000 Ang^3
#
#
#
# Elastic Constant Matrix: (Units=GPa)
#
#
# Indices 1 2 3 4 5 6 
#
# 1 83.3693 42.4121 36.7491 0.0000 -2.8442 0.0000
# 2 42.4121 95.7123 44.2179 0.0000 -12.1945 0.0000
# 3 36.7491 44.2179 119.5692 0.0000 -20.3352 0.0000
# 4 0.0000 0.0000 0.0000 19.0248 0.0000 -3.4625
# 5 -2.8442 -12.1945 -20.3352 0.0000 27.2565 0.0000
# 6 0.0000 0.0000 0.0000 -3.4625 0.0000 30.6100
#
#
#
# Elastic Compliance Matrix: (Units=1/GPa)
#
#
# Indices 1 2 3 4 5 6 
#
# 1 0.016529 -0.006214 -0.003392 0.000000 -0.003586 0.000000
# 2 -0.006214 0.015085 -0.003013 0.000000 0.003852 0.000000
# 3 -0.003392 -0.003013 0.011718 0.000000 0.007040 0.000000
# 4 0.000000 0.000000 0.000000 0.053668 0.000000 0.006071
# 5 -0.003586 0.003852 0.007040 0.000000 0.043290 0.000000
# 6 0.000000 0.000000 0.000000 0.006071 0.000000 0.033356
#
#
# Mechanical properties :
#
#
# Convention : Reuss Voigt Hill
#
# Bulk Modulus (GPa) = 55.27287 60.60100 57.93694
# Shear Modulus (GPa) = 24.40042 27.06302 25.73172
#
# Velocity S-wave (km/s) = 3.52703 3.71448 3.62197
# Velocity P-wave (km/s) = 6.69074 7.02085 6.85778
#
# Compressibility (1/GPa) = 0.01809206
#
# Stress axis : x y z
#
# Youngs Moduli (GPa) = 60.49991 66.29295 85.34232
#
# Poissons Ratio (x) = 0.41196 0.28947
# Poissons Ratio (y) = 0.37596 0.25717
# Poissons Ratio (z) = 0.20521 0.19977
#
# Static dielectric constant tensor:
#      x y z
#    x 3.859160 0.000000 -0.100270 
#    y 0.000000 3.670520 0.000000 
#    z -0.100270 0.000000 3.226100 
# 
# 
# High freq. dielectric constant tensor:
#      x y z
#    x 1.789010 0.000000 -0.006730 
#    y 0.000000 1.774320 0.000000 
#    z -0.006730 0.000000 1.716440 
# 
# From -- ./inp_files/199567.got.cif
#   From: 2010.06.25/outbox.cif.g09.slc.cpg/sg12_100_cif.got.tgz:199567.got - 2010.06.28 00:19:55.
