data_PCOD8102292
_publ_section_title
;
Structure prediction by ZEFSAII (Michael W. Deem and Ramdas Pophale) SiO2 
 PCOD8102292
Probable space group: C 2/M
;
_chemical_formula_sum "Si O2"
_cell_formula_units_Z 36
_cell_length_a 5.061221
_cell_length_b 22.765209
_cell_length_c 16.821198
_cell_angle_alpha 90.000000
_cell_angle_beta 112.725960
_cell_angle_gamma 90.000000
_cell_volume 1787.663643
_symmetry_space_group_name_H-M "C 2/M"
_symmetry_group_IT_number 12
_symmetry_cell_setting 'monoclinic'
loop_
_space_group_symop_operation_xyz
x,y,z
-x,y,-z
-x,-y,-z
x,-y,z
1/2+x,1/2+y,z
1/2-x,1/2+y,-z
1/2-x,1/2-y,-z
1/2+x,1/2-y,z
loop_
_atom_site_type_symbol
_atom_site_label
_atom_site_fract_x
_atom_site_fract_y
_atom_site_fract_z
Si Si1 0.874503 0.710569 0.401299
Si Si2 0.332647 0.632934 0.755838
Si Si3 0.067693 0.788416 0.910021
Si Si4 0.000000 0.383913 0.000000
Si Si5 0.904676 0.567259 0.820209
O O1 0.598001 0.750576 0.379249
O O2 0.800506 0.651738 0.343876
O O3 0.000000 0.689036 0.500000
O O4 0.466963 0.691841 0.810892
O O5 0.572476 0.583624 0.770460
O O6 0.086950 0.608307 0.783948
O O7 0.294082 0.734276 0.929391
O O8 0.212421 0.844758 0.967974
O O9 0.006652 0.424331 0.922761
O O10 0.949100 0.500000 0.800977
#
# Coordination Sequence:
#
# PCOD8102292 Si02
#       5
#     8   8   8   4   8
#     4  10  20  36  61  93 124 150 178 217 273 345
#     4  11  22  38  59  84 112 150 188 229 285 335
#     4  11  21  34  52  79 114 144 176 218 273 343
#     4  10  23  38  56  82 108 150 193 238 288 330
#     4  11  24  41  59  78 107 148 200 249 283 321
#
# _framework density 20.138013999999998
#
# number of rings (size 3 to 8) (size 9 to 14) (size 15 to 20)
#    0.000    1.333    0.000    7.000    0.000    7.111 
#    0.000    5.556    0.000    4.000    0.000    0.000 
#    0.000    0.000    0.000    0.000    0.000    0.000 
#
# Total GULP energy -223301.247131 kJ/mol
# GULP energy per Si atom -12405.624841 kJ/mol
# Density = 2.009218 g / cm^3
# Si number density = 20.138014 Si / 1000 Ang^3
#
#
#
# Elastic Constant Matrix: (Units=GPa)
#
#
# Indices 1 2 3 4 5 6 
#
# 1 121.3144 26.5580 34.7449 0.0000 -9.9450 0.0000
# 2 26.5580 86.6394 50.6657 0.0000 -5.3538 0.0000
# 3 34.7449 50.6657 127.9660 0.0000 -5.3246 0.0000
# 4 0.0000 0.0000 0.0000 19.2316 0.0000 -5.3553
# 5 -9.9450 -5.3538 -5.3246 0.0000 28.6167 0.0000
# 6 0.0000 0.0000 0.0000 -5.3553 0.0000 8.3055
#
#
#
# Elastic Compliance Matrix: (Units=1/GPa)
#
#
# Indices 1 2 3 4 5 6 
#
# 1 0.009326 -0.001666 -0.001764 0.000000 0.002601 0.000000
# 2 -0.001666 0.015402 -0.005593 0.000000 0.001262 0.000000
# 3 -0.001764 -0.005593 0.010520 0.000000 0.000298 0.000000
# 4 0.000000 0.000000 0.000000 0.063377 0.000000 0.040865
# 5 0.002601 0.001262 0.000298 0.000000 0.036140 0.000000
# 6 0.000000 0.000000 0.000000 0.040865 0.000000 0.146751
#
#
# Mechanical properties :
#
#
# Convention : Reuss Voigt Hill
#
# Bulk Modulus (GPa) = 58.13592 62.20632 60.17112
# Shear Modulus (GPa) = 16.37744 26.16085 21.26915
#
# Velocity S-wave (km/s) = 2.85487 3.60818 3.25340
# Velocity P-wave (km/s) = 6.30860 6.95095 6.63755
#
# Compressibility (1/GPa) = 0.01720107
#
# Stress axis : x y z
#
# Youngs Moduli (GPa) = 107.22283 64.92837 95.05301
#
# Poissons Ratio (x) = 0.10820 0.16770
# Poissons Ratio (y) = 0.17868 0.53163
# Poissons Ratio (z) = 0.18917 0.36314
#
# Static dielectric constant tensor:
#      x y z
#    x 3.769200 0.000000 0.121280 
#    y 0.000000 3.394170 0.000000 
#    z 0.121280 0.000000 3.763060 
# 
# 
# High freq. dielectric constant tensor:
#      x y z
#    x 1.808920 0.000000 0.002090 
#    y 0.000000 1.764880 0.000000 
#    z 0.002090 0.000000 1.783450 
# 
# From -- ./inp_files/252861.got.cif
#   From: 2010.06.25/outbox.cif.g09.slc.cpg/sg12_127_cif.got.tgz:252861.got - 2010.06.28 00:19:55.
