data_PCOD8102365
_publ_section_title
;
Structure prediction by ZEFSAII (Michael W. Deem and Ramdas Pophale) SiO2 
 PCOD8102365
Probable space group: C 2/M
;
_chemical_formula_sum "Si O2"
_cell_formula_units_Z 48
_cell_length_a 29.334890
_cell_length_b 8.812324
_cell_length_c 14.625384
_cell_angle_alpha 90.000000
_cell_angle_beta 142.003592
_cell_angle_gamma 90.000000
_cell_volume 2327.498049
_symmetry_space_group_name_H-M "C 2/M"
_symmetry_group_IT_number 12
_symmetry_cell_setting 'monoclinic'
loop_
_space_group_symop_operation_xyz
x,y,z
-x,y,-z
-x,-y,-z
x,-y,z
1/2+x,1/2+y,z
1/2-x,1/2+y,-z
1/2-x,1/2-y,-z
1/2+x,1/2-y,z
loop_
_atom_site_type_symbol
_atom_site_label
_atom_site_fract_x
_atom_site_fract_y
_atom_site_fract_z
Si Si1 0.060021 0.829008 0.825979
Si Si2 0.699290 0.177336 0.685081
Si Si3 0.707013 0.822282 0.016909
Si Si4 0.469238 0.678082 0.853629
Si Si5 0.683323 0.179879 0.451101
Si Si6 0.055004 0.172138 0.509376
O O1 0.035872 0.780650 0.889576
O O2 0.984301 0.819170 0.650022
O O3 0.092318 0.000000 0.875058
O O4 0.120183 0.717838 0.876589
O O5 0.765441 0.262327 0.841317
O O6 0.693232 0.235050 0.571414
O O7 0.624366 0.216316 0.620537
O O8 0.714968 0.000000 0.715046
O O9 0.718333 0.000000 0.027915
O O10 0.750000 0.750000 0.000000
O O11 0.450469 0.500000 0.820718
O O12 0.394665 0.767309 0.712714
O O13 0.500000 0.729787 0.000000
O O14 0.750000 0.250000 0.500000
O O15 0.687188 0.000000 0.451258
O O16 0.000000 0.231257 0.500000
O O17 0.081424 0.000000 0.572836
#
# Coordination Sequence:
#
# PCOD8102365 Si02
#       6
#     8   8   8   8   8   8
#     4  10  21  39  62  91 130 166 205 257 314 377
#     4  11  24  42  64  92 127 165 209 262 317 375
#     4  12  26  43  65  93 129 170 215 262 313 374
#     4  10  22  41  66  95 127 166 208 256 317 381
#     4  11  25  43  66  95 128 166 213 266 318 378
#     4  10  20  36  62  92 121 159 203 250 308 375
#
# _framework density 20.623004000000002
#
# number of rings (size 3 to 8) (size 9 to 14) (size 15 to 20)
#    0.000    1.333    1.667    3.500    2.333    5.333 
#    0.000    0.000    0.000    0.000    0.000    0.000 
#    0.000    0.000    0.000    0.000    0.000    0.000 
#
# Total GULP energy -297707.890449 kJ/mol
# GULP energy per Si atom -12404.495435 kJ/mol
# Density = 2.057607 g / cm^3
# Si number density = 20.623004 Si / 1000 Ang^3
#
#
#
# Elastic Constant Matrix: (Units=GPa)
#
#
# Indices 1 2 3 4 5 6 
#
# 1 103.7819 33.9456 23.7368 0.0000 -3.0058 0.0000
# 2 33.9456 89.6647 33.8658 0.0000 2.6837 0.0000
# 3 23.7368 33.8658 80.4692 0.0000 -2.0349 0.0000
# 4 0.0000 0.0000 0.0000 36.6966 0.0000 6.1768
# 5 -3.0058 2.6837 -2.0349 0.0000 37.9738 0.0000
# 6 0.0000 0.0000 0.0000 6.1768 0.0000 32.8985
#
#
#
# Elastic Compliance Matrix: (Units=1/GPa)
#
#
# Indices 1 2 3 4 5 6 
#
# 1 0.011256 -0.003625 -0.001768 0.000000 0.001052 0.000000
# 2 -0.003625 0.014486 -0.005067 0.000000 -0.001582 0.000000
# 3 -0.001768 -0.005067 0.015107 0.000000 0.001028 0.000000
# 4 0.000000 0.000000 0.000000 0.028140 0.000000 -0.005283
# 5 0.001052 -0.001582 0.001028 0.000000 0.026584 0.000000
# 6 0.000000 0.000000 0.000000 -0.005283 0.000000 0.031388
#
#
# Mechanical properties :
#
#
# Convention : Reuss Voigt Hill
#
# Bulk Modulus (GPa) = 50.17878 50.77913 50.47895
# Shear Modulus (GPa) = 32.35699 33.67162 33.01430
#
# Velocity S-wave (km/s) = 3.96533 4.04508 4.00540
# Velocity P-wave (km/s) = 6.73419 6.81857 6.77651
#
# Compressibility (1/GPa) = 0.01992874
#
# Stress axis : x y z
#
# Youngs Moduli (GPa) = 88.83999 69.03064 66.19341
#
# Poissons Ratio (x) = 0.25024 0.11704
# Poissons Ratio (y) = 0.32206 0.33542
# Poissons Ratio (z) = 0.15708 0.34980
#
# Static dielectric constant tensor:
#      x y z
#    x 3.854310 0.000000 -0.185570 
#    y 0.000000 3.652090 0.000000 
#    z -0.185570 0.000000 3.863310 
# 
# 
# High freq. dielectric constant tensor:
#      x y z
#    x 1.820340 0.000000 -0.005840 
#    y 0.000000 1.798020 0.000000 
#    z -0.005840 0.000000 1.815400 
# 
# From -- ./inp_files/244900.got.cif
#   From: 2010.06.25/outbox.cif.g09.slc.cpg/sg12_123_cif.got.tgz:244900.got - 2010.06.28 00:19:55.
