data_PCOD8102618
_publ_section_title
;
Structure prediction by ZEFSAII (Michael W. Deem and Ramdas Pophale) SiO2 
 PCOD8102618
Probable space group: C 2/M
;
_chemical_formula_sum "Si O2"
_cell_formula_units_Z 64
_cell_length_a 29.458703
_cell_length_b 9.089160
_cell_length_c 14.731347
_cell_angle_alpha 90.000000
_cell_angle_beta 60.988950
_cell_angle_gamma 90.000000
_cell_volume 3449.472211
_symmetry_space_group_name_H-M "C 2/M"
_symmetry_group_IT_number 12
_symmetry_cell_setting 'monoclinic'
loop_
_space_group_symop_operation_xyz
x,y,z
-x,y,-z
-x,-y,-z
x,-y,z
1/2+x,1/2+y,z
1/2-x,1/2+y,-z
1/2-x,1/2-y,-z
1/2+x,1/2-y,z
loop_
_atom_site_type_symbol
_atom_site_label
_atom_site_fract_x
_atom_site_fract_y
_atom_site_fract_z
Si Si1 0.364791 0.830680 0.758308
Si Si2 0.339326 0.672736 0.147082
Si Si3 0.701251 0.675481 0.499303
Si Si4 0.606798 0.173776 0.069898
Si Si5 0.778818 0.329770 0.702231
Si Si6 0.504835 0.328459 0.216005
Si Si7 0.962848 0.829785 0.612719
Si Si8 0.390852 0.326027 0.282546
O O1 0.365745 0.778202 0.862127
O O2 0.309059 0.799974 0.767160
O O3 0.407306 0.745904 0.658288
O O4 0.380247 0.000000 0.739131
O O5 0.345800 0.500000 0.121753
O O6 0.280178 0.715417 0.223833
O O7 0.372568 0.725495 0.201142
O O8 0.357391 0.762529 0.042982
O O9 0.707647 0.500000 0.497194
O O10 0.750000 0.750000 0.500000
O O11 0.696901 0.729454 0.400129
O O12 0.649364 0.729186 0.601836
O O13 0.549101 0.241221 0.118466
O O14 0.602644 0.000000 0.063463
O O15 0.783079 0.500000 0.668292
O O16 0.510414 0.500000 0.185772
O O17 0.510501 0.300066 0.317015
O O18 0.448654 0.263633 0.242931
O O19 0.000000 0.761601 0.500000
O O20 0.953229 0.000000 0.603169
O O21 0.392712 0.500000 0.286124
#
# Coordination Sequence:
#
# PCOD8102618 Si02
#       8
#     8   8   8   8   8   8   8   8
#     4   9  20  37  55  76 110 147 178 222 278 331
#     4  10  20  37  58  78 105 143 185 227 274 328
#     4  11  21  36  58  83 115 151 183 225 273 321
#     4  10  21  38  56  79 110 141 180 231 282 325
#     4  10  21  38  57  82 112 146 186 225 271 330
#     4   9  18  35  56  77 105 143 183 220 269 326
#     4   9  18  31  51  79 108 138 180 230 268 313
#     4   9  19  35  56  81 108 143 184 220 264 326
#
# _framework density 18.553561999999999
#
# number of rings (size 3 to 8) (size 9 to 14) (size 15 to 20)
#    0.000    2.375    1.250    0.750    1.750    2.750 
#    0.000    4.375    0.000    0.000    0.000    0.000 
#    0.000    0.000    0.000    0.000    0.000    0.000 
#
# Total GULP energy -396842.483805 kJ/mol
# GULP energy per Si atom -12401.327619 kJ/mol
# Density = 1.851133 g / cm^3
# Si number density = 18.553562 Si / 1000 Ang^3
#
#
#
# Elastic Constant Matrix: (Units=GPa)
#
#
# Indices 1 2 3 4 5 6 
#
# 1 113.7545 26.8243 28.9397 0.0000 4.5939 0.0000
# 2 26.8243 48.7355 35.4757 0.0000 1.9930 0.0000
# 3 28.9397 35.4757 104.8294 0.0000 9.0071 0.0000
# 4 0.0000 0.0000 0.0000 30.9697 0.0000 -1.2543
# 5 4.5939 1.9930 9.0071 0.0000 13.6564 0.0000
# 6 0.0000 0.0000 0.0000 -1.2543 0.0000 24.9475
#
#
#
# Elastic Compliance Matrix: (Units=1/GPa)
#
#
# Indices 1 2 3 4 5 6 
#
# 1 0.010273 -0.004823 -0.001026 0.000000 -0.002075 0.000000
# 2 -0.004823 0.029554 -0.008946 0.000000 0.003209 0.000000
# 3 -0.001026 -0.008946 0.013471 0.000000 -0.007235 0.000000
# 4 0.000000 0.000000 0.000000 0.032355 0.000000 0.001627
# 5 -0.002075 0.003209 -0.007235 0.000000 0.078227 0.000000
# 6 0.000000 0.000000 0.000000 0.001627 0.000000 0.040166
#
#
# Mechanical properties :
#
#
# Convention : Reuss Voigt Hill
#
# Bulk Modulus (GPa) = 42.17646 49.97763 46.07704
# Shear Modulus (GPa) = 20.70060 25.65336 23.17698
#
# Velocity S-wave (km/s) = 3.34387 3.72245 3.53823
# Velocity P-wave (km/s) = 6.13923 6.74322 6.44830
#
# Compressibility (1/GPa) = 0.02370991
#
# Stress axis : x y z
#
# Youngs Moduli (GPa) = 97.34398 33.83622 74.23113
#
# Poissons Ratio (x) = 0.16319 0.07613
# Poissons Ratio (y) = 0.46948 0.66406
# Poissons Ratio (z) = 0.09983 0.30269
#
# Static dielectric constant tensor:
#      x y z
#    x 3.634160 0.000000 -0.008010 
#    y 0.000000 3.275810 0.000000 
#    z -0.008010 0.000000 3.501400 
# 
# 
# High freq. dielectric constant tensor:
#      x y z
#    x 1.727610 0.000000 -0.000240 
#    y 0.000000 1.702740 0.000000 
#    z -0.000240 0.000000 1.723470 
# 
# From -- ./inp_files/249108.got.cif
#   From: 2010.06.25/outbox.cif.g09.slc.cpg/sg12_125_cif.got.tgz:249108.got - 2010.06.28 00:19:55.
