data_PCOD8102598
_publ_section_title
;
Structure prediction by ZEFSAII (Michael W. Deem and Ramdas Pophale) SiO2 
 PCOD8102598
Probable space group: C 2/M
;
_chemical_formula_sum "Si O2"
_cell_formula_units_Z 64
_cell_length_a 14.258617
_cell_length_b 15.042204
_cell_length_c 17.799546
_cell_angle_alpha 90.000000
_cell_angle_beta 125.137603
_cell_angle_gamma 90.000000
_cell_volume 3121.980086
_symmetry_space_group_name_H-M "C 2/M"
_symmetry_group_IT_number 12
_symmetry_cell_setting 'monoclinic'
loop_
_space_group_symop_operation_xyz
x,y,z
-x,y,-z
-x,-y,-z
x,-y,z
1/2+x,1/2+y,z
1/2-x,1/2+y,-z
1/2-x,1/2-y,-z
1/2+x,1/2-y,z
loop_
_atom_site_type_symbol
_atom_site_label
_atom_site_fract_x
_atom_site_fract_y
_atom_site_fract_z
Si Si1 0.592522 0.851282 0.744547
Si Si2 0.731485 0.901700 0.670131
Si Si3 0.491471 0.399954 0.772770
Si Si4 0.679150 0.713682 0.585545
Si Si5 0.802202 0.782629 0.101307
Si Si6 0.112983 0.604769 0.093667
Si Si7 0.007236 0.811851 0.380973
Si Si8 0.620149 0.901506 0.268943
O O1 0.664793 0.907765 0.718318
O O2 0.684412 0.803242 0.840318
O O3 0.509795 0.782787 0.664661
O O4 0.506794 0.910745 0.754437
O O5 0.865147 0.883518 0.747903
O O6 0.683639 0.821228 0.596742
O O7 0.716061 0.000000 0.624368
O O8 0.533056 0.500000 0.808179
O O9 0.574870 0.330729 0.853433
O O10 0.489571 0.387029 0.681405
O O11 0.598172 0.669402 0.611380
O O12 0.628485 0.691050 0.480457
O O13 0.803282 0.668974 0.649964
O O14 0.723159 0.852999 0.106539
O O15 0.750000 0.750000 0.000000
O O16 0.123443 0.500000 0.088524
O O17 0.107729 0.632949 0.178135
O O18 0.000000 0.641339 0.000000
O O19 0.676143 0.000000 0.297148
#
# Coordination Sequence:
#
# PCOD8102598 Si02
#       8
#     8   8   8   8   8   8   8   8
#     4  10  21  38  56  80 114 149 190 236 282 341
#     4  10  21  38  59  81 113 157 196 234 282 338
#     4  10  21  38  59  83 113 151 193 235 286 348
#     4  10  20  37  57  85 118 147 191 242 289 345
#     4  11  22  36  60  87 111 147 188 234 291 346
#     4  10  21  37  57  83 115 148 186 236 291 349
#     4   9  20  36  58  83 114 152 185 235 291 339
#     4  11  22  36  58  85 114 149 188 238 296 345
#
# _framework density 20.49981
#
# number of rings (size 3 to 8) (size 9 to 14) (size 15 to 20)
#    0.000    1.875    0.000    5.250    0.000    5.000 
#    0.000   10.000    0.000    1.500    0.000    0.000 
#    0.000    0.000    0.000    0.000    0.000    0.000 
#
# Total GULP energy -396794.733155 kJ/mol
# GULP energy per Si atom -12399.835411 kJ/mol
# Density = 2.045315 g / cm^3
# Si number density = 20.499810 Si / 1000 Ang^3
#
#
#
# Elastic Constant Matrix: (Units=GPa)
#
#
# Indices 1 2 3 4 5 6 
#
# 1 104.4666 15.2709 31.3417 0.0000 7.0730 0.0000
# 2 15.2709 70.8072 31.9023 0.0000 3.6641 0.0000
# 3 31.3417 31.9023 135.6423 0.0000 1.9621 0.0000
# 4 0.0000 0.0000 0.0000 12.8207 0.0000 2.8771
# 5 7.0730 3.6641 1.9621 0.0000 27.4685 0.0000
# 6 0.0000 0.0000 0.0000 2.8771 0.0000 26.2723
#
#
#
# Elastic Compliance Matrix: (Units=1/GPa)
#
#
# Indices 1 2 3 4 5 6 
#
# 1 0.010546 -0.001194 -0.002121 0.000000 -0.002405 0.000000
# 2 -0.001194 0.016026 -0.003470 0.000000 -0.001582 0.000000
# 3 -0.002121 -0.003470 0.008673 0.000000 0.000390 0.000000
# 4 0.000000 0.000000 0.000000 0.079964 0.000000 -0.008757
# 5 -0.002405 -0.001582 0.000390 0.000000 0.037208 0.000000
# 6 0.000000 0.000000 0.000000 -0.008757 0.000000 0.039022
#
#
# Mechanical properties :
#
#
# Convention : Reuss Voigt Hill
#
# Bulk Modulus (GPa) = 46.13942 51.99401 49.06671
# Shear Modulus (GPa) = 23.55878 28.80570 26.18224
#
# Velocity S-wave (km/s) = 3.39369 3.75263 3.57766
# Velocity P-wave (km/s) = 6.15730 6.64789 6.40729
#
# Compressibility (1/GPa) = 0.02167344
#
# Stress axis : x y z
#
# Youngs Moduli (GPa) = 94.82070 62.39903 115.30017
#
# Poissons Ratio (x) = 0.07453 0.24457
# Poissons Ratio (y) = 0.11325 0.40013
# Poissons Ratio (z) = 0.20113 0.21655
#
# Static dielectric constant tensor:
#      x y z
#    x 3.697530 0.000000 -0.224080 
#    y 0.000000 3.623760 0.000000 
#    z -0.224080 0.000000 3.444910 
# 
# 
# High freq. dielectric constant tensor:
#      x y z
#    x 1.813110 0.000000 0.006420 
#    y 0.000000 1.798290 0.000000 
#    z 0.006420 0.000000 1.788910 
# 
# From -- ./inp_files/270711.got.cif
#   From: 2010.06.25/outbox.cif.g09.slc.cpg/sg12_136_cif.got.tgz:270711.got - 2010.06.28 00:19:55.
