data_PCOD8102061
_publ_section_title
;
Structure prediction by ZEFSAII (Michael W. Deem and Ramdas Pophale) SiO2 
 PCOD8102061
Probable space group: C 2/M
;
_chemical_formula_sum "Si O2"
_cell_formula_units_Z 64
_cell_length_a 18.493837
_cell_length_b 8.640923
_cell_length_c 29.488902
_cell_angle_alpha 90.000000
_cell_angle_beta 136.940541
_cell_angle_gamma 90.000000
_cell_volume 3217.450678
_symmetry_space_group_name_H-M "C 2/M"
_symmetry_group_IT_number 12
_symmetry_cell_setting 'monoclinic'
loop_
_space_group_symop_operation_xyz
x,y,z
-x,y,-z
-x,-y,-z
x,-y,z
1/2+x,1/2+y,z
1/2-x,1/2+y,-z
1/2-x,1/2-y,-z
1/2+x,1/2-y,z
loop_
_atom_site_type_symbol
_atom_site_label
_atom_site_fract_x
_atom_site_fract_y
_atom_site_fract_z
Si Si1 0.156505 0.179962 0.987579
Si Si2 0.428707 0.823959 0.339521
Si Si3 0.691631 0.818461 0.098809
Si Si4 0.408400 0.824384 0.224643
Si Si5 0.918653 0.177977 0.866953
Si Si6 0.850700 0.818838 0.570670
Si Si7 0.624097 0.322052 0.313741
Si Si8 0.777676 0.678210 0.725058
O O1 0.042441 0.202156 0.910990
O O2 0.181283 0.000000 0.007456
O O3 0.250000 0.250000 0.000000
O O4 0.142641 0.269012 0.028572
O O5 0.395255 0.809369 0.272179
O O6 0.545504 0.760137 0.402699
O O7 0.345457 0.721606 0.328780
O O8 0.423886 0.000000 0.354348
O O9 0.801030 0.727387 0.152334
O O10 0.612304 0.777169 0.103178
O O11 0.713857 0.000000 0.110017
O O12 0.500366 0.711858 0.249402
O O13 0.435439 0.000000 0.222867
O O14 0.849637 0.222627 0.791898
O O15 0.894840 0.000000 0.867950
O O16 0.750000 0.750000 0.500000
O O17 0.841845 0.780116 0.619708
O O18 0.858545 0.000000 0.565479
O O19 0.646494 0.500000 0.312141
O O20 0.691063 0.211699 0.312161
O O21 0.793963 0.500000 0.744714
#
# Coordination Sequence:
#
# PCOD8102061 Si02
#       8
#     8   8   8   8   8   8   8   8
#     4  11  26  45  64  86 119 158 204 257 314 373
#     4  10  20  37  62  90 124 161 201 249 299 355
#     4  12  24  39  63  90 120 156 201 252 308 372
#     4  10  20  36  60  88 118 156 201 248 299 359
#     4  11  24  43  64  87 118 160 205 253 309 369
#     4  10  21  39  65  94 126 165 207 250 297 358
#     4  10  22  39  60  88 126 163 202 249 302 358
#     4  12  24  38  61  92 126 161 202 254 309 364
#
# _framework density 19.891524
#
# number of rings (size 3 to 8) (size 9 to 14) (size 15 to 20)
#    0.000    1.250    1.250    4.875    1.750    6.000 
#    0.000    0.625    0.000    3.750    0.000    0.000 
#    0.000    0.000    0.000    0.000    0.000    0.000 
#
# Total GULP energy -396976.718234 kJ/mol
# GULP energy per Si atom -12405.522445 kJ/mol
# Density = 1.984625 g / cm^3
# Si number density = 19.891524 Si / 1000 Ang^3
#
#
#
# Elastic Constant Matrix: (Units=GPa)
#
#
# Indices 1 2 3 4 5 6 
#
# 1 105.5690 34.5125 40.0190 0.0000 9.7140 0.0001
# 2 34.5125 86.0361 28.6156 0.0000 3.5603 0.0002
# 3 40.0190 28.6156 102.9099 0.0000 20.6092 0.0000
# 4 0.0000 0.0000 0.0000 30.7542 0.0000 3.2335
# 5 9.7140 3.5603 20.6092 0.0000 22.8169 0.0000
# 6 0.0001 0.0002 0.0000 3.2335 0.0000 37.9522
#
#
#
# Elastic Compliance Matrix: (Units=1/GPa)
#
#
# Indices 1 2 3 4 5 6 
#
# 1 0.012091 -0.003664 -0.003378 0.000000 -0.001525 0.000000
# 2 -0.003664 0.013959 -0.002848 0.000000 0.001954 0.000000
# 3 -0.003378 -0.002848 0.013973 0.000000 -0.010739 0.000000
# 4 0.000000 0.000000 0.000000 0.032810 0.000000 -0.002795
# 5 -0.001525 0.001954 -0.010739 0.000000 0.053871 0.000000
# 6 0.000000 0.000000 0.000000 -0.002795 0.000000 0.026587
#
#
# Mechanical properties :
#
#
# Convention : Reuss Voigt Hill
#
# Bulk Modulus (GPa) = 49.39666 55.64549 52.52107
# Shear Modulus (GPa) = 27.80578 31.06252 29.43415
#
# Velocity S-wave (km/s) = 3.74287 3.95599 3.85090
# Velocity P-wave (km/s) = 6.60043 6.99297 6.79953
#
# Compressibility (1/GPa) = 0.02024428
#
# Stress axis : x y z
#
# Youngs Moduli (GPa) = 82.70660 71.63788 71.56479
#
# Poissons Ratio (x) = 0.26245 0.24173
# Poissons Ratio (y) = 0.30301 0.20383
# Poissons Ratio (z) = 0.27936 0.20404
#
# Static dielectric constant tensor:
#      x y z
#    x 3.651300 0.000000 0.108380 
#    y 0.000000 3.750220 0.000000 
#    z 0.108380 0.000000 3.490620 
# 
# 
# High freq. dielectric constant tensor:
#      x y z
#    x 1.776910 0.000000 0.012730 
#    y 0.000000 1.791890 0.000000 
#    z 0.012730 0.000000 1.768870 
# 
# From -- ./inp_files/378450.got.cif
#   From: 2010.06.25/outbox.cif.g09.slc.cpg/sg12_190_cif.got.tgz:378450.got - 2010.06.28 00:19:55.
