data_PCOD8102350
_publ_section_title
;
Structure prediction by ZEFSAII (Michael W. Deem and Ramdas Pophale) SiO2 
 PCOD8102350
Probable space group: C 2/M
;
_chemical_formula_sum "Si O2"
_cell_formula_units_Z 64
_cell_length_a 7.968497
_cell_length_b 19.090068
_cell_length_c 21.478406
_cell_angle_alpha 90.000000
_cell_angle_beta 85.643850
_cell_angle_gamma 90.000000
_cell_volume 3257.838265
_symmetry_space_group_name_H-M "C 2/M"
_symmetry_group_IT_number 12
_symmetry_cell_setting 'monoclinic'
loop_
_space_group_symop_operation_xyz
x,y,z
-x,y,-z
-x,-y,-z
x,-y,z
1/2+x,1/2+y,z
1/2-x,1/2+y,-z
1/2-x,1/2-y,-z
1/2+x,1/2-y,z
loop_
_atom_site_type_symbol
_atom_site_label
_atom_site_fract_x
_atom_site_fract_y
_atom_site_fract_z
Si Si1 0.557763 0.418278 0.727921
Si Si2 0.267432 0.918518 0.182586
Si Si3 0.136355 0.834297 0.604558
Si Si4 0.347557 0.918564 0.816902
Si Si5 0.798901 0.208716 0.560810
Si Si6 0.681920 0.826130 0.069062
Si Si7 0.192991 0.576851 0.503471
Si Si8 0.288043 0.173586 0.068473
O O1 0.560592 0.500000 0.709307
O O2 0.379567 0.399029 0.764801
O O3 0.562727 0.368996 0.668015
O O4 0.724562 0.399802 0.763200
O O5 0.456005 0.895923 0.201474
O O6 0.215780 0.882119 0.119245
O O7 0.265884 0.000000 0.168299
O O8 0.242004 0.762794 0.617523
O O9 0.236247 0.892909 0.563269
O O10 0.994499 0.805286 0.562202
O O11 0.267660 0.881380 0.879556
O O12 0.339793 0.000000 0.831897
O O13 0.750000 0.250000 0.500000
O O14 0.715658 0.131039 0.560593
O O15 0.486279 0.830668 0.062881
O O16 0.729540 0.749686 0.092665
O O17 0.776792 0.841777 0.000465
O O18 0.275755 0.500000 0.515654
O O19 0.000000 0.563824 0.500000
#
# Coordination Sequence:
#
# PCOD8102350 Si02
#       8
#     8   8   8   8   8   8   8   8
#     4  10  22  41  61  84 118 157 199 242 287 347
#     4   9  19  38  59  82 112 152 196 244 299 346
#     4  11  22  40  60  87 122 154 191 236 283 343
#     4   9  19  38  60  80 113 153 193 247 297 347
#     4  10  20  38  62  85 118 149 182 235 285 335
#     4   9  18  32  52  81 111 149 192 242 308 351
#     4  10  20  36  62  91 117 151 187 227 285 340
#     4   9  18  32  52  80 114 146 191 250 297 356
#
# _framework density 19.644928
#
# number of rings (size 3 to 8) (size 9 to 14) (size 15 to 20)
#    0.000    2.375    0.000    3.375    1.750    2.000 
#    6.750    2.500    0.000    2.250    0.000    0.000 
#    0.000    0.000    0.000    0.000    0.000    0.000 
#
# Total GULP energy -396461.947974 kJ/mol
# GULP energy per Si atom -12389.435874 kJ/mol
# Density = 1.960022 g / cm^3
# Si number density = 19.644928 Si / 1000 Ang^3
#
#
#
# Elastic Constant Matrix: (Units=GPa)
#
#
# Indices 1 2 3 4 5 6 
#
# 1 88.0857 41.5719 45.9196 0.0000 -4.7866 0.0000
# 2 41.5719 120.5373 59.8348 0.0000 -11.5641 0.0000
# 3 45.9196 59.8348 107.4332 0.0000 -12.6148 0.0000
# 4 0.0000 0.0000 0.0000 49.8702 0.0000 -10.9417
# 5 -4.7866 -11.5641 -12.6148 0.0000 23.5096 0.0000
# 6 0.0000 0.0000 0.0000 -10.9417 0.0000 34.4193
#
#
#
# Elastic Compliance Matrix: (Units=1/GPa)
#
#
# Indices 1 2 3 4 5 6 
#
# 1 0.015284 -0.002856 -0.005060 0.000000 -0.001008 0.000000
# 2 -0.002856 0.012124 -0.005229 0.000000 0.002576 0.000000
# 3 -0.005060 -0.005229 0.014899 0.000000 0.004392 0.000000
# 4 0.000000 0.000000 0.000000 0.021555 0.000000 0.006852
# 5 -0.001008 0.002576 0.004392 0.000000 0.045955 0.000000
# 6 0.000000 0.000000 0.000000 0.006852 0.000000 0.031232
#
#
# Mechanical properties :
#
#
# Convention : Reuss Voigt Hill
#
# Bulk Modulus (GPa) = 62.43857 67.85653 65.14755
# Shear Modulus (GPa) = 28.95549 32.80847 30.88198
#
# Velocity S-wave (km/s) = 3.84336 4.09109 3.96916
# Velocity P-wave (km/s) = 7.17968 7.54536 7.36479
#
# Compressibility (1/GPa) = 0.01601574
#
# Stress axis : x y z
#
# Youngs Moduli (GPa) = 65.42939 82.47983 67.11744
#
# Poissons Ratio (x) = 0.23555 0.33964
# Poissons Ratio (y) = 0.18686 0.35098
# Poissons Ratio (z) = 0.33110 0.43132
#
# Static dielectric constant tensor:
#      x y z
#    x 3.820230 0.000000 -0.057640 
#    y 0.000000 4.117680 0.000000 
#    z -0.057640 0.000000 3.582170 
# 
# 
# High freq. dielectric constant tensor:
#      x y z
#    x 1.774080 0.000000 -0.003120 
#    y 0.000000 1.772750 0.000000 
#    z -0.003120 0.000000 1.740660 
# 
# From -- ./inp_files/300824.got.cif
#   From: 2010.06.25/outbox.cif.g09.slc.cpg/sg12_151_cif.got.tgz:300824.got - 2010.06.28 00:19:55.
