data_PCOD8102053
_publ_section_title
;
Structure prediction by ZEFSAII (Michael W. Deem and Ramdas Pophale) SiO2 
 PCOD8102053
Probable space group: C 2/M
;
_chemical_formula_sum "Si O2"
_cell_formula_units_Z 56
_cell_length_a 18.881272
_cell_length_b 8.580632
_cell_length_c 26.466258
_cell_angle_alpha 90.000000
_cell_angle_beta 137.657010
_cell_angle_gamma 90.000000
_cell_volume 2888.178631
_symmetry_space_group_name_H-M "C 2/M"
_symmetry_group_IT_number 12
_symmetry_cell_setting 'monoclinic'
loop_
_space_group_symop_operation_xyz
x,y,z
-x,y,-z
-x,-y,-z
x,-y,z
1/2+x,1/2+y,z
1/2-x,1/2+y,-z
1/2-x,1/2-y,-z
1/2+x,1/2-y,z
loop_
_atom_site_type_symbol
_atom_site_label
_atom_site_fract_x
_atom_site_fract_y
_atom_site_fract_z
Si Si1 0.235937 0.682903 0.742195
Si Si2 0.336277 0.321557 0.195836
Si Si3 0.031721 0.316906 0.571972
Si Si4 0.862498 0.176931 0.555692
Si Si5 0.063819 0.677481 0.201172
Si Si6 0.948493 0.327569 0.691323
Si Si7 0.834217 0.821365 0.081532
O O1 0.221175 0.500000 0.743547
O O2 0.238125 0.773512 0.796990
O O3 0.142142 0.745394 0.654927
O O4 0.351273 0.714907 0.781427
O O5 0.374723 0.500000 0.223921
O O6 0.427632 0.194829 0.244372
O O7 0.286961 0.304917 0.113615
O O8 0.042503 0.500000 0.571848
O O9 0.000000 0.245439 0.500000
O O10 0.936637 0.276150 0.558633
O O11 0.750000 0.250000 0.500000
O O12 0.902173 0.188215 0.633823
O O13 0.859623 0.000000 0.535237
O O14 0.069995 0.500000 0.184509
O O15 0.097577 0.686635 0.277251
O O16 0.945678 0.737675 0.131697
O O17 0.923398 0.500000 0.655836
O O18 0.852650 0.000000 0.077265
O O19 0.750000 0.750000 0.000000
#
# Coordination Sequence:
#
# PCOD8102053 Si02
#       7
#     8   8   8   8   8   8   8
#     4  11  22  37  60  87 121 159 199 248 298 352
#     4  10  20  36  60  88 117 154 194 235 286 347
#     4  10  23  42  60  84 118 157 200 249 305 356
#     4  12  25  39  58  82 113 150 195 248 299 354
#     4  10  22  38  60  88 121 156 197 243 290 348
#     4  10  20  37  58  83 112 148 194 242 291 345
#     4  10  21  39  64  93 124 156 194 237 291 350
#
# _framework density 19.389382999999999
#
# number of rings (size 3 to 8) (size 9 to 14) (size 15 to 20)
#    0.000    1.571    1.429    3.429    2.000    4.286 
#    0.000    0.714    0.000    4.286    0.000    0.000 
#    0.000    0.000    0.000    0.000    0.000    0.000 
#
# Total GULP energy -347018.209636 kJ/mol
# GULP energy per Si atom -12393.507487 kJ/mol
# Density = 1.934525 g / cm^3
# Si number density = 19.389383 Si / 1000 Ang^3
#
#
#
# Elastic Constant Matrix: (Units=GPa)
#
#
# Indices 1 2 3 4 5 6 
#
# 1 115.6404 26.2854 56.4983 0.0000 2.0283 0.0000
# 2 26.2854 59.8675 28.9417 0.0000 -10.8776 0.0000
# 3 56.4983 28.9417 115.3123 0.0000 -9.4455 0.0000
# 4 0.0000 0.0000 0.0000 30.1232 0.0000 1.7152
# 5 2.0283 -10.8776 -9.4455 0.0000 25.1165 0.0000
# 6 0.0000 0.0000 0.0000 1.7152 0.0000 27.7084
#
#
#
# Elastic Compliance Matrix: (Units=1/GPa)
#
#
# Indices 1 2 3 4 5 6 
#
# 1 0.012204 -0.003549 -0.005464 0.000000 -0.004577 0.000000
# 2 -0.003549 0.021181 -0.002892 0.000000 0.008372 0.000000
# 3 -0.005464 -0.002892 0.012390 0.000000 0.003848 0.000000
# 4 0.000000 0.000000 0.000000 0.033314 0.000000 -0.002062
# 5 -0.004577 0.008372 0.003848 0.000000 0.045257 0.000000
# 6 0.000000 0.000000 0.000000 -0.002062 0.000000 0.036218
#
#
# Mechanical properties :
#
#
# Convention : Reuss Voigt Hill
#
# Bulk Modulus (GPa) = 45.52303 57.14122 51.33212
# Shear Modulus (GPa) = 26.08327 28.52926 27.30626
#
# Velocity S-wave (km/s) = 3.67172 3.84003 3.75682
# Velocity P-wave (km/s) = 6.44241 7.01394 6.73424
#
# Compressibility (1/GPa) = 0.02196690
#
# Stress axis : x y z
#
# Youngs Moduli (GPa) = 81.94220 47.21293 80.70999
#
# Poissons Ratio (x) = 0.16754 0.44097
# Poissons Ratio (y) = 0.29077 0.23338
# Poissons Ratio (z) = 0.44770 0.13652
#
# Static dielectric constant tensor:
#      x y z
#    x 3.574030 0.000000 -0.236130 
#    y 0.000000 3.599990 0.000000 
#    z -0.236130 0.000000 3.541990 
# 
# 
# High freq. dielectric constant tensor:
#      x y z
#    x 1.756870 0.000000 -0.008910 
#    y 0.000000 1.763330 0.000000 
#    z -0.008910 0.000000 1.743300 
# 
# From -- ./inp_files/363192.got.cif
#   From: 2010.06.25/outbox.cif.g09.slc.cpg/sg12_182_cif.got.tgz:363192.got - 2010.06.28 00:19:55.
