data_PCOD8102730
_publ_section_title
;
Structure prediction by ZEFSAII (Michael W. Deem and Ramdas Pophale) SiO2 
 PCOD8102730
Probable space group: C 2/M
;
_chemical_formula_sum "Si O2"
_cell_formula_units_Z 44
_cell_length_a 23.914592
_cell_length_b 10.582368
_cell_length_c 23.950444
_cell_angle_alpha 90.000000
_cell_angle_beta 20.259362
_cell_angle_gamma 90.000000
_cell_volume 2098.817669
_symmetry_space_group_name_H-M "C 2/M"
_symmetry_group_IT_number 12
_symmetry_cell_setting 'monoclinic'
loop_
_space_group_symop_operation_xyz
x,y,z
-x,y,-z
-x,-y,-z
x,-y,z
1/2+x,1/2+y,z
1/2-x,1/2+y,-z
1/2-x,1/2-y,-z
1/2+x,1/2-y,z
loop_
_atom_site_type_symbol
_atom_site_label
_atom_site_fract_x
_atom_site_fract_y
_atom_site_fract_z
Si Si1 0.051238 0.360365 0.276948
Si Si2 0.904002 0.862578 0.974199
Si Si3 0.014826 0.640748 0.186181
Si Si4 0.500000 0.271923 0.000000
Si Si5 0.669497 0.638064 0.475959
Si Si6 0.680919 0.356839 0.338039
O O1 0.968005 0.500000 0.358253
O O2 0.212351 0.361809 0.162489
O O3 0.091805 0.328218 0.174282
O O4 0.944916 0.252306 0.402822
O O5 0.991157 0.854255 0.952270
O O6 0.955705 0.000000 0.900152
O O7 0.942105 0.747084 0.898273
O O8 0.070967 0.500000 0.113206
O O9 0.821591 0.641788 0.374830
O O10 0.329607 0.196335 0.161962
O O11 0.582615 0.500000 0.563228
O O12 0.734001 0.655144 0.352618
O O13 0.500000 0.293522 0.500000
O O14 0.663761 0.500000 0.333604
#
# Coordination Sequence:
#
# PCOD8102730 Si02
#       6
#     8   8   8   4   8   8
#     4  10  22  39  60  89 121 158 199 249 308 371
#     4  11  24  40  59  87 123 159 205 252 302 367
#     4  10  21  39  62  88 120 154 201 252 304 368
#     4  12  22  40  64  84 125 170 205 254 315 354
#     4  10  20  37  58  88 121 151 198 252 299 369
#     4  10  21  37  60  92 125 161 209 257 305 368
#
# _framework density 20.964183999999999
#
# number of rings (size 3 to 8) (size 9 to 14) (size 15 to 20)
#    0.000    1.636    1.818    2.727    0.000    2.909 
#    0.000    0.000    0.000    3.818    0.000    0.000 
#    0.000    0.000    0.000    0.000    0.000    0.000 
#
# Total GULP energy -272597.158205 kJ/mol
# GULP energy per Si atom -12390.779918 kJ/mol
# Density = 2.091647 g / cm^3
# Si number density = 20.964184 Si / 1000 Ang^3
#
#
#
# Elastic Constant Matrix: (Units=GPa)
#
#
# Indices 1 2 3 4 5 6 
#
# 1 74.1444 21.7541 10.7535 -0.0037 -10.1237 -0.0019
# 2 21.7541 143.7309 50.5820 -0.0128 17.0683 -0.0074
# 3 10.7535 50.5820 93.9900 -0.0212 -5.9387 -0.0086
# 4 -0.0037 -0.0128 -0.0212 13.8468 0.0039 -23.8805
# 5 -10.1237 17.0683 -5.9387 0.0039 30.2717 0.0026
# 6 -0.0019 -0.0074 -0.0086 -23.8805 0.0026 -5.6298
#
#
#
# Elastic Compliance Matrix: (Units=1/GPa)
#
#
# Indices 1 2 3 4 5 6 
#
# 1 0.015370 -0.003345 0.000492 0.000000 0.007123 0.000000
# 2 -0.003345 0.010458 -0.005760 -0.000001 -0.008145 -0.000002
# 3 0.000492 -0.005760 0.014073 -0.000001 0.006173 -0.000009
# 4 0.000000 -0.000001 -0.000001 0.008685 0.000003 -0.036839
# 5 0.007123 -0.008145 0.006173 0.000003 0.041220 0.000006
# 6 0.000000 -0.000002 -0.000009 -0.036839 0.000006 -0.021361
#
#
# Mechanical properties :
#
#
# Convention : Reuss Voigt Hill
#
# Bulk Modulus (GPa) = 44.10311 53.11604 48.60958
# Shear Modulus (GPa) = 53.63058 22.94943 38.29001
#
# Velocity S-wave (km/s) = 5.06335 3.31221 4.27833
# Velocity P-wave (km/s) = 7.43414 6.32607 6.90238
#
# Compressibility (1/GPa) = 0.02267414
#
# Stress axis : x y z
#
# Youngs Moduli (GPa) = 65.06218 95.61915 71.05756
#
# Poissons Ratio (x) = 0.31987 -0.03495
# Poissons Ratio (y) = 0.21765 0.40930
# Poissons Ratio (z) = -0.03200 0.55078
#
# Static dielectric constant tensor:
#      x y z
#    x 3.977920 -0.000010 -0.322480 
#    y -0.000010 4.018490 0.000020 
#    z -0.322480 0.000020 3.523080 
# 
# 
# High freq. dielectric constant tensor:
#      x y z
#    x 1.832390 0.000000 -0.022330 
#    y 0.000000 1.826700 0.000000 
#    z -0.022330 0.000000 1.795200 
# 
# From -- ./inp_files/369002.got.cif
#   From: 2010.06.25/outbox.cif.g09.slc.cpg/sg12_185_cif.got.tgz:369002.got - 2010.06.28 00:19:55.
