data_PCOD8102344
_publ_section_title
;
Structure prediction by ZEFSAII (Michael W. Deem and Ramdas Pophale) SiO2 
 PCOD8102344
Probable space group: C 2/M
;
_chemical_formula_sum "Si O2"
_cell_formula_units_Z 64
_cell_length_a 18.391399
_cell_length_b 10.792135
_cell_length_c 31.912018
_cell_angle_alpha 90.000000
_cell_angle_beta 28.950277
_cell_angle_gamma 90.000000
_cell_volume 3065.963655
_symmetry_space_group_name_H-M "C 2/M"
_symmetry_group_IT_number 12
_symmetry_cell_setting 'monoclinic'
loop_
_space_group_symop_operation_xyz
x,y,z
-x,y,-z
-x,-y,-z
x,-y,z
1/2+x,1/2+y,z
1/2-x,1/2+y,-z
1/2-x,1/2-y,-z
1/2+x,1/2-y,z
loop_
_atom_site_type_symbol
_atom_site_label
_atom_site_fract_x
_atom_site_fract_y
_atom_site_fract_z
Si Si1 0.876070 0.855664 0.593370
Si Si2 0.530369 0.638344 0.829740
Si Si3 0.842099 0.759314 0.698576
Si Si4 0.097078 0.637592 0.688386
Si Si5 0.181396 0.637188 0.857290
Si Si6 0.451888 0.639762 0.961009
Si Si7 0.644675 0.860610 0.569231
Si Si8 0.827004 0.760110 0.858759
O O1 0.909999 0.837165 0.625428
O O2 0.715051 0.796723 0.660896
O O3 0.000000 0.794056 0.500000
O O4 0.870111 0.000000 0.586003
O O5 0.563708 0.500000 0.798472
O O6 0.690698 0.698270 0.757909
O O7 0.429599 0.645259 0.922424
O O8 0.430011 0.699288 0.844965
O O9 0.802811 0.843817 0.758726
O O10 0.969419 0.660318 0.646546
O O11 0.070884 0.500000 0.717940
O O12 0.168208 0.641549 0.606766
O O13 0.934046 0.697794 0.770495
O O14 0.107495 0.500000 0.887509
O O15 0.252915 0.631531 0.868010
O O16 0.066133 0.751879 0.916960
O O17 0.509025 0.500000 0.944745
O O18 0.293997 0.663201 0.062853
O O19 0.750000 0.750000 0.500000
O O20 0.688524 0.000000 0.530440
#
# Coordination Sequence:
#
# PCOD8102344 Si02
#       8
#     8   8   8   8   8   8   8   8
#     4  10  20  36  62  90 122 161 209 263 314 367
#     4  10  22  40  62  90 125 166 209 260 317 376
#     4  11  21  41  65  90 128 166 214 258 315 382
#     4  10  21  38  61  93 124 163 214 261 313 371
#     4  11  25  41  64  96 130 170 212 260 320 381
#     4  10  24  43  66  95 125 167 218 264 313 373
#     4  11  24  43  68  96 129 169 212 267 321 380
#     4  12  21  40  63  91 128 170 210 261 315 384
#
# _framework density 20.87435
#
# number of rings (size 3 to 8) (size 9 to 14) (size 15 to 20)
#    0.000    1.375    2.500    3.000    0.000    5.500 
#    0.000    1.875    0.000    1.500    0.000    0.000 
#    0.000    0.000    0.000    0.000    0.000    0.000 
#
# Total GULP energy -396480.404695 kJ/mol
# GULP energy per Si atom -12390.012647 kJ/mol
# Density = 2.082684 g / cm^3
# Si number density = 20.874350 Si / 1000 Ang^3
#
#
#
# Elastic Constant Matrix: (Units=GPa)
#
#
# Indices 1 2 3 4 5 6 
#
# 1 108.3342 41.5579 26.8374 0.0001 -2.7558 0.0003
# 2 41.5579 138.2664 49.4452 0.0001 -9.5705 -0.0005
# 3 26.8374 49.4452 104.2017 -0.0024 5.0271 -0.0002
# 4 0.0001 0.0001 -0.0024 21.0448 0.0001 -3.4301
# 5 -2.7558 -9.5705 5.0271 0.0001 24.0115 0.0005
# 6 0.0003 -0.0005 -0.0002 -3.4301 0.0005 25.9743
#
#
#
# Elastic Compliance Matrix: (Units=1/GPa)
#
#
# Indices 1 2 3 4 5 6 
#
# 1 0.010623 -0.002615 -0.001519 0.000000 0.000495 0.000000
# 2 -0.002615 0.009836 -0.004211 -0.000001 0.004502 0.000000
# 3 -0.001519 -0.004211 0.012199 0.000001 -0.004407 0.000000
# 4 0.000000 -0.000001 0.000001 0.048563 -0.000001 0.006413
# 5 0.000495 0.004502 -0.004407 -0.000001 0.044420 -0.000001
# 6 0.000000 0.000000 0.000000 0.006413 -0.000001 0.039347
#
#
# Mechanical properties :
#
#
# Convention : Reuss Voigt Hill
#
# Bulk Modulus (GPa) = 62.62803 65.16479 63.89641
# Shear Modulus (GPa) = 26.73801 29.73692 28.23746
#
# Velocity S-wave (km/s) = 3.58285 3.77844 3.68194
# Velocity P-wave (km/s) = 6.86901 7.09372 6.98227
#
# Compressibility (1/GPa) = 0.01596729
#
# Stress axis : x y z
#
# Youngs Moduli (GPa) = 94.13688 101.66742 81.97637
#
# Poissons Ratio (x) = 0.26591 0.12450
# Poissons Ratio (y) = 0.24621 0.34519
# Poissons Ratio (z) = 0.14297 0.42811
#
# Static dielectric constant tensor:
#      x y z
#    x 3.903020 0.000000 0.029150 
#    y 0.000000 3.657600 0.000000 
#    z 0.029150 0.000000 3.951170 
# 
# 
# High freq. dielectric constant tensor:
#      x y z
#    x 1.830450 0.000000 0.006630 
#    y 0.000000 1.800680 0.000000 
#    z 0.006630 0.000000 1.824080 
# 
# From -- ./inp_files/379081.got.cif
#   From: 2010.06.25/outbox.cif.g09.slc.cpg/sg12_190_cif.got.tgz:379081.got - 2010.06.28 00:19:55.
