data_PCOD8102427
_publ_section_title
;
Structure prediction by ZEFSAII (Michael W. Deem and Ramdas Pophale) SiO2 
 PCOD8102427
Probable space group: C 2/M
;
_chemical_formula_sum "Si O2"
_cell_formula_units_Z 56
_cell_length_a 12.859707
_cell_length_b 16.364591
_cell_length_c 14.750739
_cell_angle_alpha 90.000000
_cell_angle_beta 120.387295
_cell_angle_gamma 90.000000
_cell_volume 2677.765119
_symmetry_space_group_name_H-M "C 2/M"
_symmetry_group_IT_number 12
_symmetry_cell_setting 'monoclinic'
loop_
_space_group_symop_operation_xyz
x,y,z
-x,y,-z
-x,-y,-z
x,-y,z
1/2+x,1/2+y,z
1/2-x,1/2+y,-z
1/2-x,1/2-y,-z
1/2+x,1/2-y,z
loop_
_atom_site_type_symbol
_atom_site_label
_atom_site_fract_x
_atom_site_fract_y
_atom_site_fract_z
Si Si1 0.149988 0.713329 0.392665
Si Si2 0.006281 0.821069 0.791406
Si Si3 0.723550 0.401470 0.233908
Si Si4 0.128741 0.585965 0.526920
Si Si5 0.628791 0.907635 0.231869
Si Si6 0.743738 0.406634 0.895489
Si Si7 0.130505 0.654958 0.876440
O O1 0.250000 0.750000 0.500000
O O2 0.091246 0.645120 0.429316
O O3 0.191895 0.662363 0.321992
O O4 0.059578 0.786561 0.327763
O O5 0.105579 0.887731 0.806777
O O6 0.078046 0.745677 0.866771
O O7 0.910741 0.862820 0.818468
O O8 0.718817 0.500000 0.219543
O O9 0.790490 0.375180 0.356870
O O10 0.792445 0.358972 0.180970
O O11 0.192514 0.500000 0.523103
O O12 0.000000 0.557385 0.500000
O O13 0.667716 0.884866 0.147604
O O14 0.483701 0.905920 0.175139
O O15 0.671705 0.000000 0.275912
O O16 0.753912 0.500000 0.927393
O O17 0.782315 0.356524 0.000384
#
# Coordination Sequence:
#
# PCOD8102427 Si02
#       7
#     8   8   8   8   8   8   8
#     4  11  22  39  61  89 126 170 212 260 326 385
#     4  11  25  41  64  98 137 168 214 278 330 390
#     4  11  23  42  67  99 135 171 218 275 332 394
#     4  10  20  36  63  93 123 164 217 271 326 385
#     4  10  22  41  67  95 127 166 221 273 315 387
#     4  11  24  45  68  94 131 176 217 265 330 397
#     4  11  24  42  71  94 131 171 223 270 327 389
#
# _framework density 20.912963000000001
#
# number of rings (size 3 to 8) (size 9 to 14) (size 15 to 20)
#    0.000    1.286    1.429    4.714    4.000    4.000 
#    5.143    1.429    0.000    1.714    0.000    0.000 
#    0.000    0.000    0.000    0.000    0.000    0.000 
#
# Total GULP energy -346926.461431 kJ/mol
# GULP energy per Si atom -12390.230765 kJ/mol
# Density = 2.086536 g / cm^3
# Si number density = 20.912963 Si / 1000 Ang^3
#
#
#
# Elastic Constant Matrix: (Units=GPa)
#
#
# Indices 1 2 3 4 5 6 
#
# 1 130.7370 40.8858 42.4283 0.0000 -0.6667 0.0000
# 2 40.8858 70.9948 40.1453 0.0000 0.6520 0.0000
# 3 42.4283 40.1453 124.0932 0.0000 0.0490 0.0000
# 4 0.0000 0.0000 0.0000 25.3189 0.0000 14.0577
# 5 -0.6667 0.6520 0.0490 0.0000 29.2500 0.0000
# 6 0.0000 0.0000 0.0000 14.0577 0.0000 27.7786
#
#
#
# Elastic Compliance Matrix: (Units=1/GPa)
#
#
# Indices 1 2 3 4 5 6 
#
# 1 0.009664 -0.004528 -0.001839 0.000000 0.000324 0.000000
# 2 -0.004528 0.019365 -0.004716 0.000000 -0.000527 0.000000
# 3 -0.001839 -0.004716 0.010213 0.000000 0.000046 0.000000
# 4 0.000000 0.000000 0.000000 0.054931 0.000000 -0.027798
# 5 0.000324 -0.000527 0.000046 0.000000 0.034207 0.000000
# 6 0.000000 0.000000 0.000000 -0.027798 0.000000 0.050067
#
#
# Mechanical properties :
#
#
# Convention : Reuss Voigt Hill
#
# Bulk Modulus (GPa) = 58.56806 63.63822 61.10314
# Shear Modulus (GPa) = 24.23593 29.96054 27.09823
#
# Velocity S-wave (km/s) = 3.40795 3.78912 3.60358
# Velocity P-wave (km/s) = 6.59939 7.04552 6.82610
#
# Compressibility (1/GPa) = 0.01707415
#
# Stress axis : x y z
#
# Youngs Moduli (GPa) = 103.48097 51.63930 97.91360
#
# Poissons Ratio (x) = 0.23383 0.18009
# Poissons Ratio (y) = 0.46858 0.46180
# Poissons Ratio (z) = 0.19033 0.24355
#
# Static dielectric constant tensor:
#      x y z
#    x 3.744990 0.000000 0.296790 
#    y 0.000000 4.646720 0.000000 
#    z 0.296790 0.000000 2.951070 
# 
# 
# High freq. dielectric constant tensor:
#      x y z
#    x 1.805980 0.000000 0.001100 
#    y 0.000000 1.839170 0.000000 
#    z 0.001100 0.000000 1.818200 
# 
# From -- ./inp_files/206767.got.cif
#   From: 2010.06.25/outbox.cif.g09.slc.cpg/sg12_104_cif.got.tgz:206767.got - 2010.06.28 00:19:55.
