data_PCOD8102836
_publ_section_title
;
Structure prediction by ZEFSAII (Michael W. Deem and Ramdas Pophale) SiO2 
 PCOD8102836
Probable space group: C 2/M
;
_chemical_formula_sum "Si O2"
_cell_formula_units_Z 56
_cell_length_a 27.062764
_cell_length_b 9.331064
_cell_length_c 18.681679
_cell_angle_alpha 90.000000
_cell_angle_beta 36.223920
_cell_angle_gamma 90.000000
_cell_volume 2787.818239
_symmetry_space_group_name_H-M "C 2/M"
_symmetry_group_IT_number 12
_symmetry_cell_setting 'monoclinic'
loop_
_space_group_symop_operation_xyz
x,y,z
-x,y,-z
-x,-y,-z
x,-y,z
1/2+x,1/2+y,z
1/2-x,1/2+y,-z
1/2-x,1/2-y,-z
1/2+x,1/2-y,z
loop_
_atom_site_type_symbol
_atom_site_label
_atom_site_fract_x
_atom_site_fract_y
_atom_site_fract_z
Si Si1 0.221120 0.835313 0.104284
Si Si2 0.597849 0.332293 0.370280
Si Si3 0.875214 0.838915 0.156535
Si Si4 0.318059 0.662074 0.464810
Si Si5 0.881203 0.665054 0.008252
Si Si6 0.681420 0.836594 0.398857
Si Si7 0.472076 0.341994 0.182876
O O1 0.132092 0.796379 0.248585
O O2 0.219689 0.000000 0.081924
O O3 0.250000 0.750000 0.000000
O O4 0.290348 0.803731 0.083217
O O5 0.500000 0.297448 0.500000
O O6 0.615665 0.500000 0.364638
O O7 0.651754 0.234865 0.360064
O O8 0.780283 0.835134 0.292292
O O9 0.933363 0.786698 0.153374
O O10 0.898961 0.000000 0.104790
O O11 0.889854 0.729717 0.076275
O O12 0.284571 0.500000 0.519660
O O13 0.250000 0.750000 0.500000
O O14 0.349742 0.741255 0.499025
O O15 0.401903 0.653038 0.323364
O O16 0.901531 0.500000 0.988163
O O17 0.953658 0.739028 0.876237
O O18 0.647309 0.000000 0.442577
O O19 0.510219 0.500000 0.128178
#
# Coordination Sequence:
#
# PCOD8102836 Si02
#       7
#     8   8   8   8   8   8   8
#     4  10  23  42  64  91 122 157 202 255 313 374
#     4  10  22  43  68  93 122 158 206 261 317 379
#     4  10  20  37  59  84 117 159 201 240 289 355
#     4  11  22  38  59  85 121 163 206 250 299 356
#     4  11  23  38  58  89 121 152 198 252 302 353
#     4  11  22  38  62  91 121 157 201 247 302 362
#     4  10  22  39  57  84 122 163 204 241 290 358
#
# _framework density 20.087392999999999
#
# number of rings (size 3 to 8) (size 9 to 14) (size 15 to 20)
#    0.000    1.571    2.857    1.714    0.000    7.143 
#    0.000    4.286    0.000    0.000    0.000    0.000 
#    0.000    0.000    0.000    0.000    0.000    0.000 
#
# Total GULP energy -347022.749799 kJ/mol
# GULP energy per Si atom -12393.669636 kJ/mol
# Density = 2.004167 g / cm^3
# Si number density = 20.087393 Si / 1000 Ang^3
#
#
#
# Elastic Constant Matrix: (Units=GPa)
#
#
# Indices 1 2 3 4 5 6 
#
# 1 49.7244 52.0726 40.2883 -0.0056 10.3432 0.0009
# 2 52.0726 113.7787 54.9728 -0.0118 5.1647 0.0061
# 3 40.2883 54.9728 121.5254 -0.0196 3.9734 0.0097
# 4 -0.0056 -0.0118 -0.0196 32.4374 0.0077 2.8614
# 5 10.3432 5.1647 3.9734 0.0077 35.0471 -0.0018
# 6 0.0009 0.0061 0.0097 2.8614 -0.0018 33.1928
#
#
#
# Elastic Compliance Matrix: (Units=1/GPa)
#
#
# Indices 1 2 3 4 5 6 
#
# 1 0.045959 -0.017109 -0.007163 0.000000 -0.010230 0.000003
# 2 -0.017109 0.017657 -0.002404 0.000002 0.002720 -0.000002
# 3 -0.007163 -0.002404 0.011653 0.000005 0.001147 -0.000003
# 4 0.000000 0.000002 0.000005 0.031065 -0.000008 -0.002678
# 5 -0.010230 0.002720 0.001147 -0.000008 0.031021 0.000002
# 6 0.000003 -0.000002 -0.000003 -0.002678 0.000002 0.030358
#
#
# Mechanical properties :
#
#
# Convention : Reuss Voigt Hill
#
# Bulk Modulus (GPa) = 45.62432 64.41066 55.01749
# Shear Modulus (GPa) = 21.89408 29.31510 25.60459
#
# Velocity S-wave (km/s) = 3.30501 3.82433 3.57411
# Velocity P-wave (km/s) = 6.10953 7.18578 6.66940
#
# Compressibility (1/GPa) = 0.02191813
#
# Stress axis : x y z
#
# Youngs Moduli (GPa) = 21.75842 56.63349 85.81154
#
# Poissons Ratio (x) = 0.96894 0.61464
# Poissons Ratio (y) = 0.37226 0.20632
# Poissons Ratio (z) = 0.15585 0.13617
#
# Static dielectric constant tensor:
#      x y z
#    x 3.586790 0.000010 -0.074370 
#    y 0.000010 3.917710 0.000120 
#    z -0.074370 0.000120 4.047740 
# 
# 
# High freq. dielectric constant tensor:
#      x y z
#    x 1.770260 0.000000 -0.001580 
#    y 0.000000 1.787080 0.000000 
#    z -0.001580 0.000000 1.800710 
# 
# From -- ./inp_files/292385.got.cif
#   From: 2010.06.25/outbox.cif.g09.slc.cpg/sg12_147_cif.got.tgz:292385.got - 2010.06.28 00:19:55.
