data_PCOD8102530
_publ_section_title
;
Structure prediction by ZEFSAII (Michael W. Deem and Ramdas Pophale) SiO2 
 PCOD8102530
Probable space group: C 2/M
;
_chemical_formula_sum "Si O2"
_cell_formula_units_Z 56
_cell_length_a 29.731120
_cell_length_b 9.626901
_cell_length_c 11.029426
_cell_angle_alpha 90.000000
_cell_angle_beta 66.176071
_cell_angle_gamma 90.000000
_cell_volume 2887.836454
_symmetry_space_group_name_H-M "C 2/M"
_symmetry_group_IT_number 12
_symmetry_cell_setting 'monoclinic'
loop_
_space_group_symop_operation_xyz
x,y,z
-x,y,-z
-x,-y,-z
x,-y,z
1/2+x,1/2+y,z
1/2-x,1/2+y,-z
1/2-x,1/2-y,-z
1/2+x,1/2-y,z
loop_
_atom_site_type_symbol
_atom_site_label
_atom_site_fract_x
_atom_site_fract_y
_atom_site_fract_z
Si Si1 0.788872 0.162317 0.033218
Si Si2 0.377621 0.655251 0.772426
Si Si3 0.526686 0.164779 0.345455
Si Si4 0.628063 0.843659 0.660036
Si Si5 0.720830 0.842257 0.727273
Si Si6 0.523444 0.836780 0.850809
Si Si7 0.669876 0.654120 0.427054
O O1 0.789820 0.222854 0.165871
O O2 0.773651 0.000000 0.049545
O O3 0.750000 0.250000 0.000000
O O4 0.844547 0.182472 0.926276
O O5 0.400760 0.500000 0.749536
O O6 0.419760 0.768342 0.715703
O O7 0.338807 0.669772 0.705907
O O8 0.500000 0.211702 0.500000
O O9 0.498918 0.217785 0.253268
O O10 0.532907 0.000000 0.337409
O O11 0.678383 0.827459 0.676001
O O12 0.581167 0.796538 0.790765
O O13 0.631785 0.754018 0.535160
O O14 0.618737 0.000000 0.626032
O O15 0.773194 0.810503 0.607797
O O16 0.721281 0.000000 0.781756
O O17 0.514385 0.000000 0.865591
O O18 0.500000 0.770485 0.000000
O O19 0.657792 0.500000 0.486655
#
# Coordination Sequence:
#
# PCOD8102530 Si02
#       7
#     8   8   8   8   8   8   8
#     4  11  22  38  58  83 117 153 191 237 285 341
#     4  10  22  38  57  83 117 153 187 232 290 346
#     4  10  21  37  60  88 114 145 196 252 289 338
#     4  10  21  36  59  85 111 147 194 237 279 340
#     4  10  21  37  57  84 117 151 190 233 281 341
#     4   9  19  36  56  82 115 148 187 242 297 337
#     4  10  20  37  56  80 119 152 180 230 288 342
#
# _framework density 19.391680000000001
#
# number of rings (size 3 to 8) (size 9 to 14) (size 15 to 20)
#    0.000    2.000    1.429    1.714    2.000    4.286 
#    0.000    0.714    0.000    0.857    0.000    0.000 
#    0.000    0.000    0.000    0.000    0.000    0.000 
#
# Total GULP energy -347113.377267 kJ/mol
# GULP energy per Si atom -12396.906331 kJ/mol
# Density = 1.934754 g / cm^3
# Si number density = 19.391680 Si / 1000 Ang^3
#
#
#
# Elastic Constant Matrix: (Units=GPa)
#
#
# Indices 1 2 3 4 5 6 
#
# 1 85.8572 23.0885 34.1191 0.0000 -13.0272 0.0000
# 2 23.0885 75.3255 50.7317 0.0000 -9.1014 0.0000
# 3 34.1191 50.7317 127.4824 0.0000 -7.2273 0.0000
# 4 0.0000 0.0000 0.0000 31.1285 0.0000 -2.6171
# 5 -13.0272 -9.1014 -7.2273 0.0000 29.7163 0.0000
# 6 0.0000 0.0000 0.0000 -2.6171 0.0000 27.3932
#
#
#
# Elastic Compliance Matrix: (Units=1/GPa)
#
#
# Indices 1 2 3 4 5 6 
#
# 1 0.013971 -0.001857 -0.002723 0.000000 0.004894 0.000000
# 2 -0.001857 0.018829 -0.006809 0.000000 0.003297 0.000000
# 3 -0.002723 -0.006809 0.011252 0.000000 -0.000542 0.000000
# 4 0.000000 0.000000 0.000000 0.032385 0.000000 0.003094
# 5 0.004894 0.003297 -0.000542 0.000000 0.036675 0.000000
# 6 0.000000 0.000000 0.000000 0.003094 0.000000 0.036801
#
#
# Mechanical properties :
#
#
# Convention : Reuss Voigt Hill
#
# Bulk Modulus (GPa) = 47.00564 56.06040 51.53302
# Shear Modulus (GPa) = 27.81133 29.69598 28.75366
#
# Velocity S-wave (km/s) = 3.79118 3.91753 3.85487
# Velocity P-wave (km/s) = 6.59217 7.03100 6.81512
#
# Compressibility (1/GPa) = 0.02127404
#
# Stress axis : x y z
#
# Youngs Moduli (GPa) = 71.57568 53.10863 88.87435
#
# Poissons Ratio (x) = 0.09864 0.24197
# Poissons Ratio (y) = 0.13295 0.60516
# Poissons Ratio (z) = 0.19487 0.36162
#
# Static dielectric constant tensor:
#      x y z
#    x 4.013760 0.000000 0.415450 
#    y 0.000000 3.516180 0.000000 
#    z 0.415450 0.000000 3.946120 
# 
# 
# High freq. dielectric constant tensor:
#      x y z
#    x 1.757660 0.000000 -0.005310 
#    y 0.000000 1.738460 0.000000 
#    z -0.005310 0.000000 1.759560 
# 
# From -- ./inp_files/180732.got.cif
#   From: 2010.06.25/outbox.cif.g09.slc.cpg/sg12_91_cif.got.tgz:180732.got - 2010.06.28 00:19:55.
