data_PCOD8102275
_publ_section_title
;
Structure prediction by ZEFSAII (Michael W. Deem and Ramdas Pophale) SiO2 
 PCOD8102275
Probable space group: C 2/M
;
_chemical_formula_sum "Si O2"
_cell_formula_units_Z 52
_cell_length_a 30.746153
_cell_length_b 13.543847
_cell_length_c 6.808885
_cell_angle_alpha 90.000000
_cell_angle_beta 111.149807
_cell_angle_gamma 90.000000
_cell_volume 2644.374565
_symmetry_space_group_name_H-M "C 2/M"
_symmetry_group_IT_number 12
_symmetry_cell_setting 'monoclinic'
loop_
_space_group_symop_operation_xyz
x,y,z
-x,y,-z
-x,-y,-z
x,-y,z
1/2+x,1/2+y,z
1/2-x,1/2+y,-z
1/2-x,1/2-y,-z
1/2+x,1/2-y,z
loop_
_atom_site_type_symbol
_atom_site_label
_atom_site_fract_x
_atom_site_fract_y
_atom_site_fract_z
Si Si1 0.040787 0.614641 0.724781
Si Si2 0.639066 0.391557 0.137283
Si Si3 0.612723 0.267330 0.742060
Si Si4 0.433225 0.612027 0.653889
Si Si5 0.259849 0.611674 0.548610
Si Si6 0.500000 0.244273 0.000000
Si Si7 0.782856 0.241228 0.242311
O O1 0.049576 0.500000 0.789440
O O2 0.088399 0.659892 0.710916
O O3 0.000000 0.626718 0.500000
O O4 0.029441 0.673111 0.906045
O O5 0.632385 0.500000 0.029039
O O6 0.615368 0.389168 0.310190
O O7 0.693252 0.370229 0.252811
O O8 0.616535 0.307938 0.967795
O O9 0.578265 0.343322 0.576822
O O10 0.663254 0.261734 0.727340
O O11 0.453282 0.500000 0.666148
O O12 0.469187 0.683227 0.819235
O O13 0.243327 0.500000 0.516558
O O14 0.220682 0.670238 0.605627
O O15 0.266225 0.643920 0.332448
O O16 0.750000 0.250000 0.000000
#
# Coordination Sequence:
#
# PCOD8102275 Si02
#       7
#     8   8   8   8   8   4   8
#     4  11  25  44  65  88 117 162 217 263 307 360
#     4  10  20  36  61  92 124 159 198 245 312 385
#     4  12  22  40  65  91 127 164 206 258 317 368
#     4  11  23  38  62  98 130 158 196 248 320 390
#     4  10  22  40  61  88 123 165 209 253 306 372
#     4  12  22  44  68  90 122 166 198 262 314 372
#     4  11  23  38  63  91 127 163 204 258 309 364
#
# _framework density 19.664383999999998
#
# number of rings (size 3 to 8) (size 9 to 14) (size 15 to 20)
#    0.000    1.077    6.154    0.923    0.000    1.846 
#    0.000    0.769    0.000    0.000    0.000    0.000 
#    0.000    0.000    0.000    0.000    0.000    0.000 
#
# Total GULP energy -322380.601956 kJ/mol
# GULP energy per Si atom -12399.253921 kJ/mol
# Density = 1.961963 g / cm^3
# Si number density = 19.664384 Si / 1000 Ang^3
#
#
#
# Elastic Constant Matrix: (Units=GPa)
#
#
# Indices 1 2 3 4 5 6 
#
# 1 55.3975 35.1667 25.5108 0.0000 -5.4322 0.0000
# 2 35.1667 144.3500 46.0156 0.0000 0.4799 0.0000
# 3 25.5108 46.0156 86.4487 0.0000 -0.7265 0.0000
# 4 0.0000 0.0000 0.0000 29.0082 0.0000 1.0866
# 5 -5.4322 0.4799 -0.7265 0.0000 26.8050 0.0000
# 6 0.0000 0.0000 0.0000 1.0866 0.0000 27.1408
#
#
#
# Elastic Compliance Matrix: (Units=1/GPa)
#
#
# Indices 1 2 3 4 5 6 
#
# 1 0.023308 -0.004232 -0.004586 0.000000 0.004675 0.000000
# 2 -0.004232 0.009114 -0.003612 0.000000 -0.001119 0.000000
# 3 -0.004586 -0.003612 0.014840 0.000000 -0.000463 0.000000
# 4 0.000000 0.000000 0.000000 0.034525 0.000000 -0.001382
# 5 0.004675 -0.001119 -0.000463 0.000000 0.038261 0.000000
# 6 0.000000 0.000000 0.000000 -0.001382 0.000000 0.036900
#
#
# Mechanical properties :
#
#
# Convention : Reuss Voigt Hill
#
# Bulk Modulus (GPa) = 44.63961 55.50917 50.07439
# Shear Modulus (GPa) = 26.41662 28.55767 27.48715
#
# Velocity S-wave (km/s) = 3.66918 3.81498 3.74279
# Velocity P-wave (km/s) = 6.37970 6.90616 6.64814
#
# Compressibility (1/GPa) = 0.02240163
#
# Stress axis : x y z
#
# Youngs Moduli (GPa) = 42.90326 109.72589 67.38762
#
# Poissons Ratio (x) = 0.46435 0.30906
# Poissons Ratio (y) = 0.18156 0.24338
# Poissons Ratio (z) = 0.19677 0.39629
#
# Static dielectric constant tensor:
#      x y z
#    x 3.570370 0.000000 -0.042730 
#    y 0.000000 3.743940 0.000000 
#    z -0.042730 0.000000 3.587590 
# 
# 
# High freq. dielectric constant tensor:
#      x y z
#    x 1.765210 0.000000 -0.005560 
#    y 0.000000 1.770780 0.000000 
#    z -0.005560 0.000000 1.772410 
# 
# From -- ./inp_files/31558.got.cif
#   From: 2010.06.25/outbox.cif.g09.slc.cpg/sg12_16_cif.got.tgz:31558.got - 2010.06.28 00:19:55.
