data_PCOD8102705
_publ_section_title
;
Structure prediction by ZEFSAII (Michael W. Deem and Ramdas Pophale) SiO2 
 PCOD8102705
Probable space group: C 2/M
;
_chemical_formula_sum "Si O2"
_cell_formula_units_Z 64
_cell_length_a 33.371018
_cell_length_b 14.523965
_cell_length_c 23.454516
_cell_angle_alpha 90.000000
_cell_angle_beta 15.631285
_cell_angle_gamma 90.000000
_cell_volume 3063.037893
_symmetry_space_group_name_H-M "C 2/M"
_symmetry_group_IT_number 12
_symmetry_cell_setting 'monoclinic'
loop_
_space_group_symop_operation_xyz
x,y,z
-x,y,-z
-x,-y,-z
x,-y,z
1/2+x,1/2+y,z
1/2-x,1/2+y,-z
1/2-x,1/2-y,-z
1/2+x,1/2-y,z
loop_
_atom_site_type_symbol
_atom_site_label
_atom_site_fract_x
_atom_site_fract_y
_atom_site_fract_z
Si Si1 0.311075 0.391834 0.191602
Si Si2 0.676510 0.598761 0.256464
Si Si3 0.111652 0.898911 0.590699
Si Si4 0.330834 0.205360 0.713535
Si Si5 0.720578 0.602631 0.971291
Si Si6 0.818878 0.700923 0.522775
Si Si7 0.619906 0.394816 0.712993
Si Si8 0.627471 0.105342 0.120884
O O1 0.294417 0.500000 0.221596
O O2 0.186175 0.357677 0.318481
O O3 0.284780 0.345396 0.288113
O O4 0.471521 0.362531 0.948859
O O5 0.500000 0.592433 0.500000
O O6 0.739246 0.500000 0.194747
O O7 0.724177 0.689923 0.226356
O O8 0.737586 0.613048 0.108706
O O9 0.201695 0.811651 0.442788
O O10 0.090438 0.882015 0.686894
O O11 0.188927 0.000000 0.474325
O O12 0.953640 0.900345 0.775542
O O13 0.500000 0.205228 0.500000
O O14 0.237785 0.169440 0.894372
O O15 0.775882 0.500000 0.878846
O O16 0.809380 0.638846 0.904730
O O17 0.757226 0.667709 0.545891
O O18 0.991186 0.671678 0.291166
O O19 0.657593 0.500000 0.676480
O O20 0.569660 0.000000 0.203760
#
# Coordination Sequence:
#
# PCOD8102705 Si02
#       8
#     8   8   8   8   8   8   8   8
#     4  11  23  39  60  90 124 155 194 244 304 367
#     4   9  20  38  55  76 115 163 206 243 286 354
#     4  10  22  40  61  86 117 161 204 243 293 358
#     4  11  21  33  56  85 116 155 195 241 299 359
#     4  10  20  37  58  84 121 156 190 240 304 366
#     4  12  23  37  62  93 121 154 199 254 302 349
#     4  10  21  41  65  88 119 158 201 244 299 363
#     4  10  21  35  57  90 123 153 196 253 304 353
#
# _framework density 20.894289000000001
#
# number of rings (size 3 to 8) (size 9 to 14) (size 15 to 20)
#    0.000    1.625    1.250    3.750    0.000    7.000 
#    0.000    1.875    0.000    1.500    0.000    0.000 
#    0.000    0.000    0.000    0.000    0.000    0.000 
#
# Total GULP energy -396651.622259 kJ/mol
# GULP energy per Si atom -12395.363196 kJ/mol
# Density = 2.084673 g / cm^3
# Si number density = 20.894289 Si / 1000 Ang^3
#
#
#
# Elastic Constant Matrix: (Units=GPa)
#
#
# Indices 1 2 3 4 5 6 
#
# 1 79.8913 36.0695 23.8222 0.0000 -17.2948 0.0028
# 2 36.0695 153.5435 31.5577 0.0097 -5.6733 -0.0072
# 3 23.8222 31.5577 33.1309 -0.0022 -3.9177 -0.0004
# 4 0.0000 0.0097 -0.0022 24.3058 0.0033 2.4263
# 5 -17.2948 -5.6733 -3.9177 0.0033 29.9074 -0.0054
# 6 0.0028 -0.0072 -0.0004 2.4263 -0.0054 21.1110
#
#
#
# Elastic Compliance Matrix: (Units=1/GPa)
#
#
# Indices 1 2 3 4 5 6 
#
# 1 0.018385 -0.001852 -0.010401 -0.000001 0.008918 -0.000001
# 2 -0.001852 0.008293 -0.006611 -0.000004 -0.000364 0.000003
# 3 -0.010401 -0.006611 0.043778 0.000007 -0.001534 -0.000001
# 4 -0.000001 -0.000004 0.000007 0.041620 -0.000006 -0.004783
# 5 0.008918 -0.000364 -0.001534 -0.000006 0.038324 0.000009
# 6 -0.000001 0.000003 -0.000001 -0.004783 0.000009 0.047919
#
#
# Mechanical properties :
#
#
# Convention : Reuss Voigt Hill
#
# Bulk Modulus (GPa) = 30.55456 49.94052 40.24754
# Shear Modulus (GPa) = 20.24660 26.73922 23.49291
#
# Velocity S-wave (km/s) = 3.11626 3.58122 3.35680
# Velocity P-wave (km/s) = 5.25388 6.40731 5.85905
#
# Compressibility (1/GPa) = 0.03272834
#
# Stress axis : x y z
#
# Youngs Moduli (GPa) = 54.39220 120.58225 22.84265
#
# Poissons Ratio (x) = 0.22327 0.23759
# Poissons Ratio (y) = 0.10071 0.15101
# Poissons Ratio (z) = 0.56574 0.79716
#
# Static dielectric constant tensor:
#      x y z
#    x 3.656860 -0.000010 -0.005010 
#    y -0.000010 4.424460 0.000000 
#    z -0.005010 0.000000 3.589580 
# 
# 
# High freq. dielectric constant tensor:
#      x y z
#    x 1.803500 0.000000 -0.000020 
#    y 0.000000 1.838280 0.000000 
#    z -0.000020 0.000000 1.797040 
# 
# From -- ./inp_files/330378.got.cif
#   From: 2010.06.25/outbox.cif.g09.slc.cpg/sg12_166_cif.got.tgz:330378.got - 2010.06.28 00:19:55.
