data_PCOD8102446
_publ_section_title
;
Structure prediction by ZEFSAII (Michael W. Deem and Ramdas Pophale) SiO2 
 PCOD8102446
Probable space group: C 2/M
;
_chemical_formula_sum "Si O2"
_cell_formula_units_Z 36
_cell_length_a 23.756521
_cell_length_b 10.755698
_cell_length_c 9.350181
_cell_angle_alpha 90.000000
_cell_angle_beta 130.427430
_cell_angle_gamma 90.000000
_cell_volume 1818.679523
_symmetry_space_group_name_H-M "C 2/M"
_symmetry_group_IT_number 12
_symmetry_cell_setting 'monoclinic'
loop_
_space_group_symop_operation_xyz
x,y,z
-x,y,-z
-x,-y,-z
x,-y,z
1/2+x,1/2+y,z
1/2-x,1/2+y,-z
1/2-x,1/2-y,-z
1/2+x,1/2-y,z
loop_
_atom_site_type_symbol
_atom_site_label
_atom_site_fract_x
_atom_site_fract_y
_atom_site_fract_z
Si Si1 0.163838 0.772591 0.350290
Si Si2 0.844088 0.000000 0.153723
Si Si3 0.611759 0.257053 0.946627
Si Si4 0.695722 0.000000 0.043789
Si Si5 0.331136 0.500000 0.448453
Si Si6 0.028580 0.365849 0.207086
O O1 0.250000 0.750000 0.500000
O O2 0.115782 0.663803 0.344156
O O3 0.142735 0.886628 0.414162
O O4 0.140421 0.797167 0.149245
O O5 0.871455 0.127269 0.127568
O O6 0.873843 0.000000 0.366391
O O7 0.753984 0.000000 0.007481
O O8 0.648393 0.126572 0.957081
O O9 0.523006 0.234985 0.797190
O O10 0.741907 0.000000 0.270267
O O11 0.020444 0.500000 0.269723
O O12 0.000000 0.375059 0.000000
#
# Coordination Sequence:
#
# PCOD8102446 Si02
#       6
#     8   4   8   4   4   8
#     4  11  21  35  61  91 121 148 197 251 302 353
#     4  10  23  38  63  86 123 168 202 243 296 358
#     4  11  20  40  64  92 118 161 203 250 299 360
#     4  10  20  36  64  89 119 152 209 246 296 347
#     4  10  23  38  56  91 121 159 200 247 303 349
#     4   9  20  35  61  90 120 154 197 248 305 357
#
# _framework density 19.794581000000001
#
# number of rings (size 3 to 8) (size 9 to 14) (size 15 to 20)
#    0.667    1.111    3.333    1.333    3.111    0.889 
#    0.000    5.556    2.444    1.333    0.000    0.000 
#    0.000    0.000    0.000    0.000    0.000    0.000 
#
# Total GULP energy -222991.100666 kJ/mol
# GULP energy per Si atom -12388.394481 kJ/mol
# Density = 1.974953 g / cm^3
# Si number density = 19.794581 Si / 1000 Ang^3
#
#
#
# Elastic Constant Matrix: (Units=GPa)
#
#
# Indices 1 2 3 4 5 6 
#
# 1 151.7857 79.5317 56.8975 0.0000 8.5105 0.0000
# 2 79.5317 167.9992 52.1994 0.0000 -11.7060 0.0000
# 3 56.8975 52.1994 57.8575 0.0000 1.1322 0.0000
# 4 0.0000 0.0000 0.0000 7.4844 0.0000 -7.9659
# 5 8.5105 -11.7060 1.1322 0.0000 41.3447 0.0000
# 6 0.0000 0.0000 0.0000 -7.9659 0.0000 45.8500
#
#
#
# Elastic Compliance Matrix: (Units=1/GPa)
#
#
# Indices 1 2 3 4 5 6 
#
# 1 0.011552 -0.003009 -0.008586 0.000000 -0.002995 0.000000
# 2 -0.003009 0.009332 -0.005527 0.000000 0.003413 0.000000
# 3 -0.008586 -0.005527 0.030726 0.000000 -0.000639 0.000000
# 4 0.000000 0.000000 0.000000 0.163923 0.000000 0.028480
# 5 -0.002995 0.003413 -0.000639 0.000000 0.025787 0.000000
# 6 0.000000 0.000000 0.000000 0.028480 0.000000 0.026758
#
#
# Mechanical properties :
#
#
# Convention : Reuss Voigt Hill
#
# Bulk Modulus (GPa) = 57.58623 83.87772 70.73198
# Shear Modulus (GPa) = 16.22786 31.53674 23.88230
#
# Velocity S-wave (km/s) = 2.86634 3.99582 3.47725
# Velocity P-wave (km/s) = 6.33322 7.98466 7.20640
#
# Compressibility (1/GPa) = 0.01736526
#
# Stress axis : x y z
#
# Youngs Moduli (GPa) = 86.56830 107.15640 32.54528
#
# Poissons Ratio (x) = 0.32248 0.27944
# Poissons Ratio (y) = 0.26052 0.17987
# Poissons Ratio (z) = 0.74329 0.59224
#
# Static dielectric constant tensor:
#      x y z
#    x 3.905740 0.000000 0.027050 
#    y 0.000000 3.228150 0.000000 
#    z 0.027050 0.000000 3.346880 
# 
# 
# High freq. dielectric constant tensor:
#      x y z
#    x 1.781980 0.000000 0.008020 
#    y 0.000000 1.781180 0.000000 
#    z 0.008020 0.000000 1.738060 
# 
# From -- ./inp_files/83829.got.cif
#   From: 2010.06.25/outbox.cif.g09.slc.cpg/sg12_42_cif.got.tgz:83829.got - 2010.06.28 00:19:55.
