data_PCOD8102463
_publ_section_title
;
Structure prediction by ZEFSAII (Michael W. Deem and Ramdas Pophale) SiO2 
 PCOD8102463
Probable space group: C 2/M
;
_chemical_formula_sum "Si O2"
_cell_formula_units_Z 64
_cell_length_a 20.898485
_cell_length_b 14.178530
_cell_length_c 28.404103
_cell_angle_alpha 90.000000
_cell_angle_beta 158.035882
_cell_angle_gamma 90.000000
_cell_volume 3147.956500
_symmetry_space_group_name_H-M "C 2/M"
_symmetry_group_IT_number 12
_symmetry_cell_setting 'monoclinic'
loop_
_space_group_symop_operation_xyz
x,y,z
-x,y,-z
-x,-y,-z
x,-y,z
1/2+x,1/2+y,z
1/2-x,1/2+y,-z
1/2-x,1/2-y,-z
1/2+x,1/2-y,z
loop_
_atom_site_type_symbol
_atom_site_label
_atom_site_fract_x
_atom_site_fract_y
_atom_site_fract_z
Si Si1 0.658007 0.226001 0.485503
Si Si2 0.073285 0.604122 0.141316
Si Si3 0.901702 0.189879 0.817936
Si Si4 0.656171 0.104214 0.720511
Si Si5 0.202413 0.862153 0.855228
Si Si6 0.575901 0.601829 0.670831
Si Si7 0.094565 0.892076 0.281704
Si Si8 0.858571 0.819983 0.937080
O O1 0.750000 0.250000 0.500000
O O2 0.523249 0.143616 0.384049
O O3 0.561443 0.319746 0.438991
O O4 0.790189 0.185972 0.613788
O O5 0.095280 0.500000 0.181282
O O6 0.069319 0.697184 0.172296
O O7 0.232990 0.624261 0.216349
O O8 0.895844 0.599395 0.991353
O O9 0.725164 0.171014 0.725537
O O10 0.903316 0.131843 0.771586
O O11 0.053049 0.146373 0.954116
O O12 0.779394 0.097597 0.850684
O O13 0.633542 0.000000 0.684451
O O14 0.092671 0.908551 0.738648
O O15 0.206297 0.751302 0.846054
O O16 0.100765 0.882863 0.833925
O O17 0.511756 0.500000 0.607733
O O18 0.159947 0.000000 0.333240
O O19 0.000000 0.768112 0.000000
#
# Coordination Sequence:
#
# PCOD8102463 Si02
#       8
#     8   8   8   8   8   8   8   8
#     4  12  24  42  62  86 125 160 206 261 312 368
#     4  10  20  36  64  95 123 156 200 256 323 383
#     4  10  22  40  61  91 130 164 209 257 309 371
#     4  11  21  38  63  90 121 166 212 259 308 365
#     4  11  19  36  60  94 128 158 201 260 318 377
#     4  11  20  36  64  94 121 155 203 261 320 373
#     4  12  26  41  60  89 128 175 214 254 306 369
#     4   9  18  35  62  92 126 158 200 259 320 368
#
# _framework density 20.330649999999999
#
# number of rings (size 3 to 8) (size 9 to 14) (size 15 to 20)
#    0.000    1.250    3.750    3.750    0.000    6.750 
#    0.000    1.875    0.000    3.750    0.000    0.000 
#    0.000    0.000    0.000    0.000    0.000    0.000 
#
# Total GULP energy -396482.483424 kJ/mol
# GULP energy per Si atom -12390.077607 kJ/mol
# Density = 2.028438 g / cm^3
# Si number density = 20.330650 Si / 1000 Ang^3
#
#
#
# Elastic Constant Matrix: (Units=GPa)
#
#
# Indices 1 2 3 4 5 6 
#
# 1 95.8904 27.8781 47.1335 -0.0153 -3.8531 -0.0055
# 2 27.8781 137.0629 45.2460 -0.0103 2.9138 -0.0021
# 3 47.1335 45.2460 92.3585 0.0091 7.8748 0.0067
# 4 -0.0153 -0.0103 0.0091 15.1314 0.0025 -1.9905
# 5 -3.8531 2.9138 7.8748 0.0025 25.9290 0.0022
# 6 -0.0055 -0.0021 0.0067 -1.9905 0.0022 20.5564
#
#
#
# Elastic Compliance Matrix: (Units=1/GPa)
#
#
# Indices 1 2 3 4 5 6 
#
# 1 0.014449 -0.000565 -0.007479 0.000019 0.004482 0.000008
# 2 -0.000565 0.008728 -0.004000 0.000008 0.000150 0.000003
# 3 -0.007479 -0.004000 0.017103 -0.000021 -0.005856 -0.000009
# 4 0.000019 0.000008 -0.000021 0.066940 0.000001 0.006482
# 5 0.004482 0.000150 -0.005856 0.000001 0.040995 -0.000001
# 6 0.000008 0.000003 -0.000009 0.006482 -0.000001 0.049274
#
#
# Mechanical properties :
#
#
# Convention : Reuss Voigt Hill
#
# Bulk Modulus (GPa) = 61.76114 62.86967 62.31541
# Shear Modulus (GPa) = 22.02868 25.99363 24.01116
#
# Velocity S-wave (km/s) = 3.29526 3.57955 3.44034
# Velocity P-wave (km/s) = 6.70243 6.93361 6.81900
#
# Compressibility (1/GPa) = 0.01619141
#
# Stress axis : x y z
#
# Youngs Moduli (GPa) = 69.20750 114.57076 58.46838
#
# Poissons Ratio (x) = 0.06476 0.43730
# Poissons Ratio (y) = 0.03912 0.23389
# Poissons Ratio (z) = 0.51762 0.45831
#
# Static dielectric constant tensor:
#      x y z
#    x 3.424860 0.000000 0.169940 
#    y 0.000000 3.857410 -0.000030 
#    z 0.169940 -0.000030 3.689900 
# 
# 
# High freq. dielectric constant tensor:
#      x y z
#    x 1.764060 0.000000 0.019830 
#    y 0.000000 1.804170 0.000000 
#    z 0.019830 0.000000 1.784700 
# 
# From -- ./inp_files/381494.got.cif
#   From: 2010.06.25/outbox.cif.g09.slc.cpg/sg12_191_cif.got.tgz:381494.got - 2010.06.28 00:19:55.
