data_PCOD8102984
_publ_section_title
;
Structure prediction by ZEFSAII (Michael W. Deem and Ramdas Pophale) SiO2 
 PCOD8102984
Probable space group: C 2/M
;
_chemical_formula_sum "Si O2"
_cell_formula_units_Z 48
_cell_length_a 24.563511
_cell_length_b 9.553547
_cell_length_c 11.015312
_cell_angle_alpha 90.000000
_cell_angle_beta 102.734949
_cell_angle_gamma 90.000000
_cell_volume 2521.359416
_symmetry_space_group_name_H-M "C 2/M"
_symmetry_group_IT_number 12
_symmetry_cell_setting 'monoclinic'
loop_
_space_group_symop_operation_xyz
x,y,z
-x,y,-z
-x,-y,-z
x,-y,z
1/2+x,1/2+y,z
1/2-x,1/2+y,-z
1/2-x,1/2-y,-z
1/2+x,1/2-y,z
loop_
_atom_site_type_symbol
_atom_site_label
_atom_site_fract_x
_atom_site_fract_y
_atom_site_fract_z
Si Si1 0.194505 0.660549 0.491256
Si Si2 0.018237 0.161697 0.640474
Si Si3 0.855344 0.157066 0.331020
Si Si4 0.855813 0.658582 0.788499
Si Si5 0.963395 0.834046 0.864188
Si Si6 0.749165 0.342908 0.884167
O O1 0.211745 0.500000 0.527288
O O2 0.250000 0.750000 0.500000
O O3 0.157522 0.724070 0.579096
O O4 0.152606 0.668499 0.358715
O O5 0.083769 0.185161 0.693436
O O6 0.000000 0.229284 0.500000
O O7 0.988836 0.223655 0.748029
O O8 0.001569 0.000000 0.626614
O O9 0.811788 0.170879 0.201818
O O10 0.851934 0.000000 0.387017
O O11 0.871274 0.500000 0.834599
O O12 0.903808 0.762410 0.855998
O O13 0.796905 0.707905 0.815615
O O14 0.955225 0.000000 0.854785
O O15 0.000000 0.792681 0.000000
O O16 0.761617 0.500000 0.931052
O O17 0.750000 0.250000 0.000000
#
# Coordination Sequence:
#
# PCOD8102984 Si02
#       6
#     8   8   8   8   8   8
#     4  11  21  36  58  86 118 149 189 235 286 348
#     4   9  18  34  57  84 114 148 187 233 289 343
#     4  10  20  37  60  84 117 152 185 239 297 340
#     4  10  22  40  58  82 118 153 187 235 292 350
#     4  10  22  38  60  89 113 146 201 248 282 341
#     4  10  22  38  56  82 115 153 194 235 288 346
#
# _framework density 19.037348999999999
#
# number of rings (size 3 to 8) (size 9 to 14) (size 15 to 20)
#    0.000    2.000    1.667    1.500    2.333    4.333 
#    0.000    0.833    0.000    3.000    0.000    0.000 
#    0.000    0.000    0.000    0.000    0.000    0.000 
#
# Total GULP energy -297524.881174 kJ/mol
# GULP energy per Si atom -12396.870049 kJ/mol
# Density = 1.899402 g / cm^3
# Si number density = 19.037349 Si / 1000 Ang^3
#
#
#
# Elastic Constant Matrix: (Units=GPa)
#
#
# Indices 1 2 3 4 5 6 
#
# 1 105.2139 35.8057 46.3251 0.0000 18.0211 0.0000
# 2 35.8057 72.7864 42.7506 0.0000 4.9140 0.0000
# 3 46.3251 42.7506 108.2500 0.0000 -0.5393 0.0000
# 4 0.0000 0.0000 0.0000 29.1549 0.0000 -0.6132
# 5 18.0211 4.9140 -0.5393 0.0000 32.6557 0.0000
# 6 0.0000 0.0000 0.0000 -0.6132 0.0000 32.2222
#
#
#
# Elastic Compliance Matrix: (Units=1/GPa)
#
#
# Indices 1 2 3 4 5 6 
#
# 1 0.014026 -0.003728 -0.004566 0.000000 -0.007255 0.000000
# 2 -0.003728 0.019140 -0.005968 0.000000 -0.000921 0.000000
# 3 -0.004566 -0.005968 0.013567 0.000000 0.003642 0.000000
# 4 0.000000 0.000000 0.000000 0.034313 0.000000 0.000653
# 5 -0.007255 -0.000921 0.003642 0.000000 0.034825 0.000000
# 6 0.000000 0.000000 0.000000 0.000653 0.000000 0.031047
#
#
# Mechanical properties :
#
#
# Convention : Reuss Voigt Hill
#
# Bulk Modulus (GPa) = 54.91915 59.55702 57.23809
# Shear Modulus (GPa) = 27.54613 29.56449 28.55531
#
# Velocity S-wave (km/s) = 3.80801 3.94505 3.87714
# Velocity P-wave (km/s) = 6.94588 7.21827 7.08339
#
# Compressibility (1/GPa) = 0.01820859
#
# Stress axis : x y z
#
# Youngs Moduli (GPa) = 71.29457 52.24553 73.70762
#
# Poissons Ratio (x) = 0.19478 0.33657
# Poissons Ratio (y) = 0.26580 0.43990
# Poissons Ratio (z) = 0.32555 0.31181
#
# Static dielectric constant tensor:
#      x y z
#    x 3.539330 0.000000 -0.390420 
#    y 0.000000 3.431830 0.000000 
#    z -0.390420 0.000000 1.003610 
# 
# 
# High freq. dielectric constant tensor:
#      x y z
#    x 1.749340 0.000000 0.002500 
#    y 0.000000 1.718940 0.000000 
#    z 0.002500 0.000000 1.743790 
# 
# From -- ./inp_files/172378.got.cif
#   From: 2010.06.25/outbox.cif.g09.slc.cpg/sg12_87_cif.got.tgz:172378.got - 2010.06.28 00:19:55.
