data_PCOD8102235
_publ_section_title
;
Structure prediction by ZEFSAII (Michael W. Deem and Ramdas Pophale) SiO2 
 PCOD8102235
Probable space group: C 2/M
;
_chemical_formula_sum "Si O2"
_cell_formula_units_Z 64
_cell_length_a 10.795642
_cell_length_b 21.846952
_cell_length_c 18.902410
_cell_angle_alpha 90.000000
_cell_angle_beta 43.977176
_cell_angle_gamma 90.000000
_cell_volume 3095.626528
_symmetry_space_group_name_H-M "C 2/M"
_symmetry_group_IT_number 12
_symmetry_cell_setting 'monoclinic'
loop_
_space_group_symop_operation_xyz
x,y,z
-x,y,-z
-x,-y,-z
x,-y,z
1/2+x,1/2+y,z
1/2-x,1/2+y,-z
1/2-x,1/2-y,-z
1/2+x,1/2-y,z
loop_
_atom_site_type_symbol
_atom_site_label
_atom_site_fract_x
_atom_site_fract_y
_atom_site_fract_z
Si Si1 0.286246 0.222502 0.762005
Si Si2 0.034545 0.426856 0.794402
Si Si3 0.948175 0.836126 0.861504
Si Si4 0.209902 0.933725 0.726495
Si Si5 0.802707 0.151603 0.064527
Si Si6 0.319843 0.639414 0.760284
Si Si7 0.552181 0.114693 0.636982
Si Si8 0.835248 0.927629 0.413516
O O1 0.251719 0.207076 0.859838
O O2 0.342527 0.291625 0.723407
O O3 0.449216 0.179588 0.669155
O O4 0.099648 0.216982 0.793865
O O5 0.049599 0.500000 0.796045
O O6 0.130775 0.392189 0.820232
O O7 0.125216 0.400780 0.685292
O O8 0.828396 0.406307 0.877135
O O9 0.840935 0.854897 0.835980
O O10 0.079455 0.892951 0.827999
O O11 0.806450 0.822771 0.982193
O O12 0.406390 0.937341 0.679092
O O13 0.231873 0.909792 0.637077
O O14 0.120844 0.000000 0.761094
O O15 0.000000 0.127395 0.000000
O O16 0.462656 0.595858 0.663172
O O17 0.717896 0.111196 0.516274
O O18 0.824747 0.000000 0.434158
#
# Coordination Sequence:
#
# PCOD8102235 Si02
#       8
#     8   8   8   8   8   8   8   8
#     4   9  21  39  60  86 120 151 205 255 300 352
#     4  11  24  40  60  89 127 163 201 246 300 363
#     4   9  20  38  59  87 116 155 196 245 305 357
#     4   9  17  32  58  91 121 150 191 247 303 352
#     4   9  20  41  63  94 117 150 202 250 299 358
#     4  11  24  39  58  83 123 165 197 249 300 363
#     4  10  20  36  61  89 117 158 203 255 297 347
#     4  10  20  36  61  90 120 159 205 246 302 369
#
# _framework density 20.674327999999999
#
# number of rings (size 3 to 8) (size 9 to 14) (size 15 to 20)
#    0.000    2.250    0.000    2.625    3.500    4.250 
#    4.500    1.875    8.250    0.000    0.000    0.000 
#    0.000    0.000    0.000    0.000    0.000    0.000 
#
# Total GULP energy -396550.024519 kJ/mol
# GULP energy per Si atom -12392.188266 kJ/mol
# Density = 2.062727 g / cm^3
# Si number density = 20.674328 Si / 1000 Ang^3
#
#
#
# Elastic Constant Matrix: (Units=GPa)
#
#
# Indices 1 2 3 4 5 6 
#
# 1 97.2945 23.6689 19.1026 0.0001 -3.0514 -0.0002
# 2 23.6689 100.2204 27.0112 0.0000 -5.8821 -0.0002
# 3 19.1026 27.0112 89.6950 0.0002 2.2451 -0.0001
# 4 0.0001 0.0000 0.0002 12.7311 -0.0001 0.0834
# 5 -3.0514 -5.8821 2.2451 -0.0001 21.7352 0.0002
# 6 -0.0002 -0.0002 -0.0001 0.0834 0.0002 26.7591
#
#
#
# Elastic Compliance Matrix: (Units=1/GPa)
#
#
# Indices 1 2 3 4 5 6 
#
# 1 0.011173 -0.002089 -0.001780 0.000000 0.001187 0.000000
# 2 -0.002089 0.011489 -0.003093 0.000000 0.003135 0.000000
# 3 -0.001780 -0.003093 0.012519 0.000000 -0.002380 0.000000
# 4 0.000000 0.000000 0.000000 0.078549 0.000000 -0.000245
# 5 0.001187 0.003135 -0.002380 0.000000 0.047269 0.000000
# 6 0.000000 0.000000 0.000000 -0.000245 0.000000 0.037371
#
#
# Mechanical properties :
#
#
# Convention : Reuss Voigt Hill
#
# Bulk Modulus (GPa) = 47.04605 47.41950 47.23277
# Shear Modulus (GPa) = 22.79129 26.74024 24.76576
#
# Velocity S-wave (km/s) = 3.32384 3.60029 3.46482
# Velocity P-wave (km/s) = 6.12664 6.34579 6.23718
#
# Compressibility (1/GPa) = 0.02125577
#
# Stress axis : x y z
#
# Youngs Moduli (GPa) = 89.50098 87.03828 79.87759
#
# Poissons Ratio (x) = 0.18185 0.14219
# Poissons Ratio (y) = 0.18699 0.24710
# Poissons Ratio (z) = 0.15932 0.26925
#
# Static dielectric constant tensor:
#      x y z
#    x 3.960570 0.000000 0.072590 
#    y 0.000000 3.560150 0.000000 
#    z 0.072590 0.000000 3.666130 
# 
# 
# High freq. dielectric constant tensor:
#      x y z
#    x 1.814780 0.000000 0.002640 
#    y 0.000000 1.799230 0.000000 
#    z 0.002640 0.000000 1.794470 
# 
# From -- ./inp_files/306769.got.cif
#   From: 2010.06.25/outbox.cif.g09.slc.cpg/sg12_154_cif.got.tgz:306769.got - 2010.06.28 00:19:55.
