data_PCOD8102199
_publ_section_title
;
Structure prediction by ZEFSAII (Michael W. Deem and Ramdas Pophale) SiO2 
 PCOD8102199
Probable space group: C 2/M
;
_chemical_formula_sum "Si O2"
_cell_formula_units_Z 44
_cell_length_a 10.489156
_cell_length_b 26.444162
_cell_length_c 9.054900
_cell_angle_alpha 90.000000
_cell_angle_beta 65.941152
_cell_angle_gamma 90.000000
_cell_volume 2293.429007
_symmetry_space_group_name_H-M "C 2/M"
_symmetry_group_IT_number 12
_symmetry_cell_setting 'monoclinic'
loop_
_space_group_symop_operation_xyz
x,y,z
-x,y,-z
-x,-y,-z
x,-y,z
1/2+x,1/2+y,z
1/2-x,1/2+y,-z
1/2-x,1/2-y,-z
1/2+x,1/2-y,z
loop_
_atom_site_type_symbol
_atom_site_label
_atom_site_fract_x
_atom_site_fract_y
_atom_site_fract_z
Si Si1 0.294743 0.794054 0.669904
Si Si2 0.000000 0.637682 0.000000
Si Si3 0.776077 0.556186 0.023976
Si Si4 0.132541 0.886047 0.851118
Si Si5 0.928459 0.712058 0.299067
Si Si6 0.508836 0.556993 0.332257
O O1 0.251668 0.844488 0.775643
O O2 0.159252 0.758251 0.727665
O O3 0.419456 0.769798 0.711079
O O4 0.344867 0.809057 0.481108
O O5 0.058517 0.671017 0.837126
O O6 0.883913 0.601111 0.989832
O O7 0.845013 0.500000 0.981913
O O8 0.690765 0.566034 0.914053
O O9 0.670136 0.558271 0.210099
O O10 0.087876 0.905674 0.713414
O O11 0.000000 0.862294 0.000000
O O12 0.500000 0.578645 0.500000
O O13 0.449508 0.500000 0.349789
#
# Coordination Sequence:
#
# PCOD8102199 Si02
#       6
#     8   4   8   8   8   8
#     4  10  22  44  60  88 118 161 193 255 303 362
#     4  12  23  38  62  90 116 162 197 248 294 366
#     4  10  21  38  58  86 123 160 199 243 296 351
#     4  10  20  36  61  87 116 157 199 242 298 358
#     4  10  24  41  64  84 123 153 204 246 307 359
#     4   9  19  35  57  86 117 152 199 250 294 349
#
# _framework density 19.185245999999999
#
# number of rings (size 3 to 8) (size 9 to 14) (size 15 to 20)
#    0.000    2.000    1.818    0.818    3.818    5.818 
#    3.273    0.000    0.000    1.091    0.000    0.000 
#    0.000    0.000    0.000    0.000    0.000    0.000 
#
# Total GULP energy -272729.389975 kJ/mol
# GULP energy per Si atom -12396.790453 kJ/mol
# Density = 1.914158 g / cm^3
# Si number density = 19.185246 Si / 1000 Ang^3
#
#
#
# Elastic Constant Matrix: (Units=GPa)
#
#
# Indices 1 2 3 4 5 6 
#
# 1 106.8521 48.1093 46.9288 0.0000 1.1725 0.0000
# 2 48.1093 95.8448 60.7583 0.0000 -2.8586 0.0000
# 3 46.9288 60.7583 115.3512 0.0000 11.7973 0.0000
# 4 0.0000 0.0000 0.0000 16.0356 0.0000 -7.8178
# 5 1.1725 -2.8586 11.7973 0.0000 21.7670 0.0000
# 6 0.0000 0.0000 0.0000 -7.8178 0.0000 20.7487
#
#
#
# Elastic Compliance Matrix: (Units=1/GPa)
#
#
# Indices 1 2 3 4 5 6 
#
# 1 0.012629 -0.004599 -0.002736 0.000000 0.000199 0.000000
# 2 -0.004599 0.018386 -0.008560 0.000000 0.007302 0.000000
# 3 -0.002736 -0.008560 0.015236 0.000000 -0.009234 0.000000
# 4 0.000000 0.000000 0.000000 0.076394 0.000000 0.028784
# 5 0.000199 0.007302 -0.009234 0.000000 0.051894 0.000000
# 6 0.000000 0.000000 0.000000 0.028784 0.000000 0.059041
#
#
# Mechanical properties :
#
#
# Convention : Reuss Voigt Hill
#
# Bulk Modulus (GPa) = 69.15311 69.96012 69.55661
# Shear Modulus (GPa) = 18.50548 22.52705 20.51626
#
# Velocity S-wave (km/s) = 3.10912 3.43036 3.27368
# Velocity P-wave (km/s) = 7.00086 7.22735 7.11500
#
# Compressibility (1/GPa) = 0.01446067
#
# Stress axis : x y z
#
# Youngs Moduli (GPa) = 79.18507 54.38839 65.63587
#
# Poissons Ratio (x) = 0.25012 0.17957
# Poissons Ratio (y) = 0.36415 0.56187
# Poissons Ratio (z) = 0.21664 0.46558
#
# Static dielectric constant tensor:
#      x y z
#    x 3.587830 0.000000 0.027180 
#    y 0.000000 3.329690 0.000000 
#    z 0.027180 0.000000 3.595590 
# 
# 
# High freq. dielectric constant tensor:
#      x y z
#    x 1.752200 0.000000 0.007140 
#    y 0.000000 1.734880 0.000000 
#    z 0.007140 0.000000 1.753710 
# 
# From -- ./inp_files/51211.got.cif
#   From: 2010.06.25/outbox.cif.g09.slc.cpg/sg12_26_cif.got.tgz:51211.got - 2010.06.28 00:19:55.
