data_PCOD8102304
_publ_section_title
;
Structure prediction by ZEFSAII (Michael W. Deem and Ramdas Pophale) SiO2 
 PCOD8102304
Probable space group: C 2/M
;
_chemical_formula_sum "Si O2"
_cell_formula_units_Z 40
_cell_length_a 7.638815
_cell_length_b 22.360868
_cell_length_c 12.483573
_cell_angle_alpha 90.000000
_cell_angle_beta 116.292868
_cell_angle_gamma 90.000000
_cell_volume 1911.718705
_symmetry_space_group_name_H-M "C 2/M"
_symmetry_group_IT_number 12
_symmetry_cell_setting 'monoclinic'
loop_
_space_group_symop_operation_xyz
x,y,z
-x,y,-z
-x,-y,-z
x,-y,z
1/2+x,1/2+y,z
1/2-x,1/2+y,-z
1/2-x,1/2-y,-z
1/2+x,1/2-y,z
loop_
_atom_site_type_symbol
_atom_site_label
_atom_site_fract_x
_atom_site_fract_y
_atom_site_fract_z
Si Si1 0.500000 0.614336 0.000000
Si Si2 0.188126 0.690896 0.791120
Si Si3 0.500000 0.337651 0.500000
Si Si4 0.741577 0.817423 0.248759
Si Si5 0.283955 0.115130 0.404604
Si Si6 0.564266 0.565538 0.797379
O O1 0.336337 0.656048 0.905435
O O2 0.586215 0.572119 0.930926
O O3 0.230935 0.761450 0.823504
O O4 0.206794 0.674147 0.669641
O O5 0.977771 0.672782 0.776167
O O6 0.375996 0.297279 0.385440
O O7 0.342174 0.376900 0.522017
O O8 0.815677 0.880571 0.223715
O O9 0.500000 0.093693 0.500000
O O10 0.164580 0.066761 0.301048
O O11 0.648997 0.500000 0.788877
#
# Coordination Sequence:
#
# PCOD8102304 Si02
#       6
#     4   8   4   8   8   8
#     4  10  23  44  66  88 123 164 208 268 322 366
#     4  11  23  39  64  96 127 163 209 262 319 378
#     4  10  20  36  61  94 136 168 197 254 314 382
#     4  11  23  38  62  96 128 167 207 257 318 378
#     4  10  20  38  64  96 128 166 211 256 319 377
#     4  10  23  43  64  90 124 167 215 259 309 375
#
# _framework density 20.923579
#
# number of rings (size 3 to 8) (size 9 to 14) (size 15 to 20)
#    0.000    1.600    2.000    3.900    1.400    6.000 
#    0.000   14.000    0.000    0.000    0.000    0.000 
#    0.000    0.000    0.000    0.000    0.000    0.000 
#
# Total GULP energy -247817.072670 kJ/mol
# GULP energy per Si atom -12390.853633 kJ/mol
# Density = 2.087596 g / cm^3
# Si number density = 20.923579 Si / 1000 Ang^3
#
#
#
# Elastic Constant Matrix: (Units=GPa)
#
#
# Indices 1 2 3 4 5 6 
#
# 1 145.7673 47.1918 49.1661 0.0000 0.7755 0.0000
# 2 47.1918 152.7831 29.5349 0.0000 -7.4504 0.0000
# 3 49.1661 29.5349 97.6645 0.0000 -1.7683 0.0000
# 4 0.0000 0.0000 0.0000 6.9815 0.0000 0.9033
# 5 0.7755 -7.4504 -1.7683 0.0000 26.0560 0.0000
# 6 0.0000 0.0000 0.0000 0.9033 0.0000 19.7120
#
#
#
# Elastic Compliance Matrix: (Units=1/GPa)
#
#
# Indices 1 2 3 4 5 6 
#
# 1 0.008822 -0.002036 -0.003846 0.000000 -0.001106 0.000000
# 2 -0.002036 0.007511 -0.001208 0.000000 0.002126 0.000000
# 3 -0.003846 -0.001208 0.012552 0.000000 0.000621 0.000000
# 4 0.000000 0.000000 0.000000 0.144090 0.000000 -0.006603
# 5 -0.001106 0.002126 0.000621 0.000000 0.039062 0.000000
# 6 0.000000 0.000000 0.000000 -0.006603 0.000000 0.051033
#
#
# Mechanical properties :
#
#
# Convention : Reuss Voigt Hill
#
# Bulk Modulus (GPa) = 67.99843 72.00006 69.99924
# Shear Modulus (GPa) = 17.72097 28.57139 23.14618
#
# Velocity S-wave (km/s) = 2.91338 3.69929 3.32960
# Velocity P-wave (km/s) = 6.62465 7.26168 6.95047
#
# Compressibility (1/GPa) = 0.01470622
#
# Stress axis : x y z
#
# Youngs Moduli (GPa) = 113.34968 133.13419 79.66998
#
# Poissons Ratio (x) = 0.27100 0.30639
# Poissons Ratio (y) = 0.23072 0.09626
# Poissons Ratio (z) = 0.43591 0.16086
#
# Static dielectric constant tensor:
#      x y z
#    x 3.866500 0.000000 0.022330 
#    y 0.000000 3.486710 0.000000 
#    z 0.022330 0.000000 4.240040 
# 
# 
# High freq. dielectric constant tensor:
#      x y z
#    x 1.822370 0.000000 0.004070 
#    y 0.000000 1.795470 0.000000 
#    z 0.004070 0.000000 1.832550 
# 
# From -- ./inp_files/122210.got.cif
#   From: 2010.06.25/outbox.cif.g09.slc.cpg/sg12_62_cif.got.tgz:122210.got - 2010.06.28 00:19:55.
