data_PCOD8102130
_publ_section_title
;
Structure prediction by ZEFSAII (Michael W. Deem and Ramdas Pophale) SiO2 
 PCOD8102130
Probable space group: C 2/M
;
_chemical_formula_sum "Si O2"
_cell_formula_units_Z 48
_cell_length_a 11.863365
_cell_length_b 17.781176
_cell_length_c 14.092812
_cell_angle_alpha 90.000000
_cell_angle_beta 49.260681
_cell_angle_gamma 90.000000
_cell_volume 2252.452656
_symmetry_space_group_name_H-M "C 2/M"
_symmetry_group_IT_number 12
_symmetry_cell_setting 'monoclinic'
loop_
_space_group_symop_operation_xyz
x,y,z
-x,y,-z
-x,-y,-z
x,-y,z
1/2+x,1/2+y,z
1/2-x,1/2+y,-z
1/2-x,1/2-y,-z
1/2+x,1/2-y,z
loop_
_atom_site_type_symbol
_atom_site_label
_atom_site_fract_x
_atom_site_fract_y
_atom_site_fract_z
Si Si1 0.621302 0.413082 0.362827
Si Si2 0.662279 0.196626 0.432961
Si Si3 0.618225 0.589196 0.152742
Si Si4 0.638647 0.836686 0.661156
Si Si5 0.681185 0.414508 0.775905
Si Si6 0.341414 0.913139 0.875529
O O1 0.500000 0.375394 0.500000
O O2 0.585102 0.500000 0.369477
O O3 0.616911 0.375473 0.259947
O O4 0.779593 0.402744 0.325978
O O5 0.500000 0.232415 0.500000
O O6 0.670290 0.159488 0.532227
O O7 0.793216 0.257152 0.341687
O O8 0.684386 0.128948 0.348001
O O9 0.612698 0.500000 0.160636
O O10 0.476737 0.619749 0.171322
O O11 0.771137 0.611575 0.015082
O O12 0.466125 0.851299 0.780381
O O13 0.692811 0.500000 0.735307
O O14 0.705013 0.408024 0.875619
O O15 0.401627 0.000000 0.844127
#
# Coordination Sequence:
#
# PCOD8102130 Si02
#       6
#     8   8   8   8   8   8
#     4  10  20  36  60  90 121 157 202 246 295 360
#     4  11  23  40  59  86 120 160 205 247 308 360
#     4   9  19  36  61  92 124 159 195 242 304 359
#     4  11  23  38  59  85 120 160 199 250 303 363
#     4  10  20  37  63  90 119 156 204 255 298 352
#     4  10  20  37  63  93 123 157 201 250 301 356
#
# _framework density 21.310103000000002
#
# number of rings (size 3 to 8) (size 9 to 14) (size 15 to 20)
#    0.000    1.833    1.667    2.500    0.000    7.000 
#    0.000    3.333    3.667    0.000    0.000    0.000 
#    0.000    0.000    0.000    0.000    0.000    0.000 
#
# Total GULP energy -297472.113910 kJ/mol
# GULP energy per Si atom -12394.671413 kJ/mol
# Density = 2.126160 g / cm^3
# Si number density = 21.310103 Si / 1000 Ang^3
#
#
#
# Elastic Constant Matrix: (Units=GPa)
#
#
# Indices 1 2 3 4 5 6 
#
# 1 119.8383 25.8348 55.0379 0.0000 2.2116 0.0000
# 2 25.8348 49.8844 46.0780 0.0000 -4.0855 0.0000
# 3 55.0379 46.0780 153.0749 0.0001 7.5658 0.0000
# 4 0.0000 0.0000 0.0001 24.4630 0.0000 -7.1328
# 5 2.2116 -4.0855 7.5658 0.0000 34.3438 0.0000
# 6 0.0000 0.0000 0.0000 -7.1328 0.0000 27.9477
#
#
#
# Elastic Compliance Matrix: (Units=1/GPa)
#
#
# Indices 1 2 3 4 5 6 
#
# 1 0.010243 -0.002698 -0.002853 0.000000 -0.000352 0.000000
# 2 -0.002698 0.029428 -0.008159 0.000000 0.005472 0.000000
# 3 -0.002853 -0.008159 0.010164 0.000000 -0.003026 0.000000
# 4 0.000000 0.000000 0.000000 0.044165 0.000000 0.011272
# 5 -0.000352 0.005472 -0.003026 0.000000 0.030458 0.000000
# 6 0.000000 0.000000 0.000000 0.011272 0.000000 0.038658
#
#
# Mechanical properties :
#
#
# Convention : Reuss Voigt Hill
#
# Bulk Modulus (GPa) = 44.61288 64.07768 54.34528
# Shear Modulus (GPa) = 25.25165 30.40735 27.82950
#
# Velocity S-wave (km/s) = 3.44606 3.78153 3.61769
# Velocity P-wave (km/s) = 6.06748 7.01435 6.55802
#
# Compressibility (1/GPa) = 0.02241505
#
# Stress axis : x y z
#
# Youngs Moduli (GPa) = 97.62589 33.98143 98.38539
#
# Poissons Ratio (x) = 0.09168 0.28073
# Poissons Ratio (y) = 0.26340 0.80269
# Poissons Ratio (z) = 0.27856 0.27724
#
# Static dielectric constant tensor:
#      x y z
#    x 3.948630 0.000000 0.163360 
#    y 0.000000 3.476160 0.000000 
#    z 0.163360 0.000000 3.953290 
# 
# 
# High freq. dielectric constant tensor:
#      x y z
#    x 1.843520 0.000000 0.007720 
#    y 0.000000 1.805550 0.000000 
#    z 0.007720 0.000000 1.834760 
# 
# From -- ./inp_files/131248.got.cif
#   From: 2010.06.25/outbox.cif.g09.slc.cpg/sg12_66_cif.got.tgz:131248.got - 2010.06.28 00:19:55.
