data_PCOD8102977
_publ_section_title
;
Structure prediction by ZEFSAII (Michael W. Deem and Ramdas Pophale) SiO2 
 PCOD8102977
Probable space group: C 2/M
;
_chemical_formula_sum "Si O2"
_cell_formula_units_Z 64
_cell_length_a 24.725626
_cell_length_b 19.273652
_cell_length_c 9.686727
_cell_angle_alpha 90.000000
_cell_angle_beta 133.089010
_cell_angle_gamma 90.000000
_cell_volume 3371.209167
_symmetry_space_group_name_H-M "C 2/M"
_symmetry_group_IT_number 12
_symmetry_cell_setting 'monoclinic'
loop_
_space_group_symop_operation_xyz
x,y,z
-x,y,-z
-x,-y,-z
x,-y,z
1/2+x,1/2+y,z
1/2-x,1/2+y,-z
1/2-x,1/2-y,-z
1/2+x,1/2-y,z
loop_
_atom_site_type_symbol
_atom_site_label
_atom_site_fract_x
_atom_site_fract_y
_atom_site_fract_z
Si Si1 0.545499 0.173552 0.445640
Si Si2 0.434115 0.418939 0.781136
Si Si3 0.782061 0.669167 0.212253
Si Si4 0.445888 0.332654 0.524283
Si Si5 0.220583 0.827337 0.814426
Si Si6 0.782546 0.079664 0.661992
Si Si7 0.198065 0.420493 0.248003
Si Si8 0.967323 0.422235 0.093637
O O1 0.500000 0.149374 0.500000
O O2 0.631551 0.155454 0.612969
O O3 0.532029 0.254664 0.392745
O O4 0.515078 0.130680 0.264624
O O5 0.430875 0.500000 0.740144
O O6 0.449030 0.379720 0.664629
O O7 0.357411 0.394480 0.717228
O O8 0.500000 0.400698 0.000000
O O9 0.757991 0.748913 0.188742
O O10 0.732048 0.625197 0.229015
O O11 0.763470 0.646064 0.024297
O O12 0.500000 0.361783 0.500000
O O13 0.366535 0.332579 0.312379
O O14 0.240978 0.875949 0.723517
O O15 0.712934 0.088622 0.437221
O O16 0.791512 0.000000 0.724724
O O17 0.209873 0.500000 0.225936
O O18 0.116655 0.394626 0.064970
O O19 0.969718 0.500000 0.162272
O O20 0.000000 0.424966 0.000000
#
# Coordination Sequence:
#
# PCOD8102977 Si02
#       8
#     8   8   8   8   8   8   8   8
#     4  10  21  39  57  84 120 152 194 242 285 337
#     4  10  22  41  60  84 117 149 188 240 296 350
#     4  10  22  37  58  85 116 155 193 237 291 340
#     4  10  22  39  61  86 116 154 195 239 288 346
#     4  10  21  39  57  84 117 151 194 240 283 341
#     4  10  21  39  60  85 119 151 190 242 289 348
#     4  10  20  37  60  84 115 153 190 237 289 341
#     4  10  21  37  58  85 116 152 195 237 284 344
#
# _framework density 18.984286999999998
#
# number of rings (size 3 to 8) (size 9 to 14) (size 15 to 20)
#    0.000    2.000    1.250    1.500    1.750    4.500 
#    2.250    0.000    0.000    0.000    0.000    0.000 
#    0.000    0.000    0.000    0.000    0.000    0.000 
#
# Total GULP energy -396893.771742 kJ/mol
# GULP energy per Si atom -12402.930367 kJ/mol
# Density = 1.894108 g / cm^3
# Si number density = 18.984287 Si / 1000 Ang^3
#
#
#
# Elastic Constant Matrix: (Units=GPa)
#
#
# Indices 1 2 3 4 5 6 
#
# 1 122.0569 54.0754 43.2389 0.0000 -5.1732 0.0000
# 2 54.0754 70.8828 51.3766 0.0000 -8.8091 0.0000
# 3 43.2389 51.3766 116.9371 0.0000 2.5341 0.0000
# 4 0.0000 0.0000 0.0000 63.7012 0.0000 -21.4441
# 5 -5.1732 -8.8091 2.5341 0.0000 29.5566 0.0000
# 6 0.0000 0.0000 0.0000 -21.4441 0.0000 43.8400
#
#
#
# Elastic Compliance Matrix: (Units=1/GPa)
#
#
# Indices 1 2 3 4 5 6 
#
# 1 0.012414 -0.009115 -0.000575 0.000000 -0.000495 0.000000
# 2 -0.009115 0.028929 -0.009509 0.000000 0.007842 0.000000
# 3 -0.000575 -0.009509 0.013030 0.000000 -0.004052 0.000000
# 4 0.000000 0.000000 0.000000 0.018793 0.000000 0.009192
# 5 -0.000495 0.007842 -0.004052 0.000000 0.036431 0.000000
# 6 0.000000 0.000000 0.000000 0.009192 0.000000 0.027307
#
#
# Mechanical properties :
#
#
# Convention : Reuss Voigt Hill
#
# Bulk Modulus (GPa) = 62.60224 67.47319 65.03772
# Shear Modulus (GPa) = 27.68137 38.16527 32.92332
#
# Velocity S-wave (km/s) = 3.82268 4.48857 4.16894
# Velocity P-wave (km/s) = 7.24784 7.90454 7.58330
#
# Compressibility (1/GPa) = 0.01597387
#
# Stress axis : x y z
#
# Youngs Moduli (GPa) = 80.55471 34.56755 76.74680
#
# Poissons Ratio (x) = 0.31510 0.04410
# Poissons Ratio (y) = 0.73429 0.72981
# Poissons Ratio (z) = 0.04629 0.32872
#
# Static dielectric constant tensor:
#      x y z
#    x 3.598880 0.000000 0.381900 
#    y 0.000000 3.435720 0.000000 
#    z 0.381900 0.000000 3.906470 
# 
# 
# High freq. dielectric constant tensor:
#      x y z
#    x 1.743180 0.000000 0.008770 
#    y 0.000000 1.731930 0.000000 
#    z 0.008770 0.000000 1.747370 
# 
# From -- ./inp_files/99104.got.cif
#   From: 2010.06.25/outbox.cif.g09.slc.cpg/sg12_50_cif.got.tgz:99104.got - 2010.06.28 00:19:55.
