data_PCOD8102135
_publ_section_title
;
Structure prediction by ZEFSAII (Michael W. Deem and Ramdas Pophale) SiO2 
 PCOD8102135
Probable space group: C 2/M
;
_chemical_formula_sum "Si O2"
_cell_formula_units_Z 64
_cell_length_a 12.415625
_cell_length_b 16.057397
_cell_length_c 15.511448
_cell_angle_alpha 90.000000
_cell_angle_beta 85.372652
_cell_angle_gamma 90.000000
_cell_volume 3082.323174
_symmetry_space_group_name_H-M "C 2/M"
_symmetry_group_IT_number 12
_symmetry_cell_setting 'monoclinic'
loop_
_space_group_symop_operation_xyz
x,y,z
-x,y,-z
-x,-y,-z
x,-y,z
1/2+x,1/2+y,z
1/2-x,1/2+y,-z
1/2-x,1/2-y,-z
1/2+x,1/2-y,z
loop_
_atom_site_type_symbol
_atom_site_label
_atom_site_fract_x
_atom_site_fract_y
_atom_site_fract_z
Si Si1 0.952651 0.830264 0.410170
Si Si2 0.978866 0.737222 0.875178
Si Si3 0.147049 0.093592 0.111561
Si Si4 0.712984 0.901038 0.409425
Si Si5 0.856138 0.906507 0.691072
Si Si6 0.971804 0.674727 0.681786
Si Si7 0.165660 0.315478 0.974327
Si Si8 0.338459 0.905089 0.399552
O O1 0.834049 0.866269 0.404583
O O2 0.000000 0.855810 0.500000
O O3 0.028739 0.864133 0.329324
O O4 0.961520 0.732038 0.391788
O O5 0.940532 0.832379 0.900836
O O6 0.962608 0.714719 0.776599
O O7 0.102955 0.723801 0.895451
O O8 0.913393 0.670176 0.938665
O O9 0.179377 0.099508 0.208550
O O10 0.262314 0.104112 0.055102
O O11 0.101251 0.000000 0.092368
O O12 0.648301 0.852329 0.338551
O O13 0.651857 0.875740 0.501706
O O14 0.714255 0.000000 0.391017
O O15 0.763017 0.859541 0.641142
O O16 0.871521 0.000000 0.658758
O O17 0.053190 0.597119 0.666643
O O18 0.250000 0.250000 0.000000
O O19 0.303465 0.000000 0.406129
#
# Coordination Sequence:
#
# PCOD8102135 Si02
#       8
#     8   8   8   8   8   8   8   8
#     4  12  24  37  61  89 125 167 218 265 313 365
#     4  10  21  41  63  94 126 164 198 250 312 382
#     4  10  20  39  65  96 125 157 204 253 302 366
#     4  11  25  43  61  86 125 171 217 266 318 372
#     4  10  20  36  60  90 122 164 211 257 311 367
#     4  12  25  38  62  92 128 162 208 260 319 374
#     4   9  20  40  68  91 122 160 201 245 309 375
#     4  10  21  39  62  84 119 168 218 263 312 371
#
# _framework density 20.763559000000001
#
# number of rings (size 3 to 8) (size 9 to 14) (size 15 to 20)
#    0.000    1.500    2.500    2.625    1.750    4.500 
#    0.000    8.125    0.000    0.000    0.000    0.000 
#    0.000    0.000    0.000    0.000    0.000    0.000 
#
# Total GULP energy -396418.864981 kJ/mol
# GULP energy per Si atom -12388.089531 kJ/mol
# Density = 2.071630 g / cm^3
# Si number density = 20.763559 Si / 1000 Ang^3
#
#
#
# Elastic Constant Matrix: (Units=GPa)
#
#
# Indices 1 2 3 4 5 6 
#
# 1 133.1528 29.7389 49.3125 0.0000 7.8959 0.0000
# 2 29.7389 57.5771 41.8181 0.0000 -1.5339 0.0000
# 3 49.3125 41.8181 93.8572 0.0000 -6.9714 0.0000
# 4 0.0000 0.0000 0.0000 -391.6061 0.0000 157.0149
# 5 7.8959 -1.5339 -6.9714 0.0000 34.1324 0.0000
# 6 0.0000 0.0000 0.0000 157.0149 0.0000 -30.3886
#
#
#
# Elastic Compliance Matrix: (Units=1/GPa)
#
#
# Indices 1 2 3 4 5 6 
#
# 1 0.009811 -0.001824 -0.004586 0.000000 -0.003288 0.000000
# 2 -0.001824 0.026065 -0.010699 0.000000 -0.000592 0.000000
# 3 -0.004586 -0.010699 0.018149 0.000000 0.004287 0.000000
# 4 0.000000 0.000000 0.000000 0.002383 0.000000 0.012312
# 5 -0.003288 -0.000592 0.004287 0.000000 0.030907 0.000000
# 6 0.000000 0.000000 0.000000 0.012312 0.000000 0.030706
#
#
# Mechanical properties :
#
#
# Convention : Reuss Voigt Hill
#
# Bulk Modulus (GPa) = 50.48705 58.48068 54.48386
# Shear Modulus (GPa) = 31.47777 -66.65794 -17.59008
#
# Velocity S-wave (km/s) = 3.89782 -5.67213 -2.91376
# Velocity P-wave (km/s) = 6.68022 3.83030 3.87003
#
# Compressibility (1/GPa) = 0.01980706
#
# Stress axis : x y z
#
# Youngs Moduli (GPa) = 101.92587 38.36574 55.09837
#
# Poissons Ratio (x) = 0.06998 0.25269
# Poissons Ratio (y) = 0.18592 0.58949
# Poissons Ratio (z) = 0.46746 0.41047
#
# Static dielectric constant tensor:
#      x y z
#    x 4.504190 0.000000 -0.348850 
#    y 0.000000 4.216530 0.000000 
#    z -0.348850 0.000000 4.128900 
# 
# 
# High freq. dielectric constant tensor:
#      x y z
#    x 1.820430 0.000000 -0.000910 
#    y 0.000000 1.802550 0.000000 
#    z -0.000910 0.000000 1.810170 
# 
# From -- ./inp_files/206675.got.cif
#   From: 2010.06.25/outbox.cif.g09.slc.cpg/sg12_104_cif.got.tgz:206675.got - 2010.06.28 00:19:55.
