data_PCOD8102306
_publ_section_title
;
Structure prediction by ZEFSAII (Michael W. Deem and Ramdas Pophale) SiO2 
 PCOD8102306
Probable space group: C 2/M
;
_chemical_formula_sum "Si O2"
_cell_formula_units_Z 64
_cell_length_a 24.114572
_cell_length_b 18.382370
_cell_length_c 18.818816
_cell_angle_alpha 90.000000
_cell_angle_beta 21.313326
_cell_angle_gamma 90.000000
_cell_volume 3032.071499
_symmetry_space_group_name_H-M "C 2/M"
_symmetry_group_IT_number 12
_symmetry_cell_setting 'monoclinic'
loop_
_space_group_symop_operation_xyz
x,y,z
-x,y,-z
-x,-y,-z
x,-y,z
1/2+x,1/2+y,z
1/2-x,1/2+y,-z
1/2-x,1/2-y,-z
1/2+x,1/2-y,z
loop_
_atom_site_type_symbol
_atom_site_label
_atom_site_fract_x
_atom_site_fract_y
_atom_site_fract_z
Si Si1 0.071486 0.804107 0.232223
Si Si2 0.837321 0.415629 0.395942
Si Si3 0.919057 0.285507 0.527681
Si Si4 0.846889 0.683676 0.139817
Si Si5 0.810018 0.917104 0.573500
Si Si6 0.929921 0.918325 0.190926
Si Si7 0.886770 0.688073 0.924095
Si Si8 0.231548 0.917975 0.766505
O O1 0.074453 0.770640 0.148755
O O2 0.026545 0.733111 0.333055
O O3 0.955549 0.870204 0.376975
O O4 0.233771 0.835553 0.064832
O O5 0.862106 0.500000 0.389118
O O6 0.820599 0.409252 0.330799
O O7 0.681090 0.382380 0.617357
O O8 0.979346 0.368786 0.254468
O O9 0.754851 0.250009 0.711327
O O10 0.886818 0.370894 0.579767
O O11 0.000000 0.251152 0.500000
O O12 0.762945 0.609102 0.264891
O O13 0.864863 0.686178 0.034400
O O14 0.000000 0.694296 0.000000
O O15 0.863990 0.000000 0.517744
O O16 0.838837 0.917903 0.226969
O O17 0.960982 0.000000 0.179540
O O18 0.100522 0.884366 0.976663
O O19 0.275987 0.000000 0.735865
#
# Coordination Sequence:
#
# PCOD8102306 Si02
#       8
#     8   8   8   8   8   8   8   8
#     4  10  24  43  62  90 132 171 214 259 322 399
#     4  10  20  36  61  95 129 164 212 270 325 376
#     4  11  22  39  59  85 125 164 205 264 319 383
#     4  11  23  41  64  95 123 164 218 266 322 390
#     4  10  23  42  65  95 130 167 214 276 327 381
#     4   8  16  32  52  81 120 154 196 254 312 371
#     4  11  22  42  65  91 127 172 213 263 323 383
#     4   9  18  33  56  85 116 161 211 259 317 376
#
# _framework density 21.107682
#
# number of rings (size 3 to 8) (size 9 to 14) (size 15 to 20)
#    0.000    2.000    2.500    1.500    1.750    3.000 
#    0.000    0.625    0.000    0.750    0.000    0.000 
#    0.000    0.000    0.000    0.000    0.000    0.000 
#
# Total GULP energy -396553.233734 kJ/mol
# GULP energy per Si atom -12392.288554 kJ/mol
# Density = 2.105964 g / cm^3
# Si number density = 21.107682 Si / 1000 Ang^3
#
#
#
# Elastic Constant Matrix: (Units=GPa)
#
#
# Indices 1 2 3 4 5 6 
#
# 1 91.0523 47.0363 41.9980 -0.0019 9.4188 0.0030
# 2 47.0363 99.6573 55.5602 0.0042 -6.0070 -0.0029
# 3 41.9980 55.5602 106.4747 0.0043 3.0842 -0.0005
# 4 -0.0019 0.0042 0.0043 32.0379 0.0005 -2.1858
# 5 9.4188 -6.0070 3.0842 0.0005 38.4438 -0.0009
# 6 0.0030 -0.0029 -0.0005 -2.1858 -0.0009 21.9011
#
#
#
# Elastic Compliance Matrix: (Units=1/GPa)
#
#
# Indices 1 2 3 4 5 6 
#
# 1 0.016029 -0.006201 -0.002952 0.000002 -0.004659 -0.000003
# 2 -0.006201 0.016859 -0.006487 -0.000002 0.004674 0.000003
# 3 -0.002952 -0.006487 0.013982 -0.000001 -0.001412 0.000000
# 4 0.000002 -0.000002 -0.000001 0.031427 -0.000001 0.003137
# 5 -0.004659 0.004674 -0.001412 -0.000001 0.027997 0.000002
# 6 -0.000003 0.000003 0.000000 0.003137 0.000002 0.045973
#
#
# Mechanical properties :
#
#
# Convention : Reuss Voigt Hill
#
# Bulk Modulus (GPa) = 64.13767 65.15261 64.64514
# Shear Modulus (GPa) = 26.49079 28.64922 27.57000
#
# Velocity S-wave (km/s) = 3.54648 3.68814 3.61800
# Velocity P-wave (km/s) = 6.87182 7.00502 6.93874
#
# Compressibility (1/GPa) = 0.01559146
#
# Stress axis : x y z
#
# Youngs Moduli (GPa) = 62.38499 59.31444 71.51891
#
# Poissons Ratio (x) = 0.36778 0.21114
# Poissons Ratio (y) = 0.38682 0.46395
# Poissons Ratio (z) = 0.18417 0.38478
#
# Static dielectric constant tensor:
#      x y z
#    x 3.725520 -0.000020 0.146060 
#    y -0.000020 3.726750 0.000040 
#    z 0.146060 0.000040 4.175680 
# 
# 
# High freq. dielectric constant tensor:
#      x y z
#    x 1.815450 0.000000 0.009120 
#    y 0.000000 1.808260 0.000000 
#    z 0.009120 0.000000 1.842530 
# 
# From -- ./inp_files/328636.got.cif
#   From: 2010.06.25/outbox.cif.g09.slc.cpg/sg12_165_cif.got.tgz:328636.got - 2010.06.28 00:19:55.
