data_PCOD8102750
_publ_section_title
;
Structure prediction by ZEFSAII (Michael W. Deem and Ramdas Pophale) SiO2 
 PCOD8102750
Probable space group: C 2/M
;
_chemical_formula_sum "Si O2"
_cell_formula_units_Z 48
_cell_length_a 15.997640
_cell_length_b 9.086488
_cell_length_c 16.802030
_cell_angle_alpha 90.000000
_cell_angle_beta 90.038264
_cell_angle_gamma 90.000000
_cell_volume 2442.382254
_symmetry_space_group_name_H-M "C 2/M"
_symmetry_group_IT_number 12
_symmetry_cell_setting 'monoclinic'
loop_
_space_group_symop_operation_xyz
x,y,z
-x,y,-z
-x,-y,-z
x,-y,z
1/2+x,1/2+y,z
1/2-x,1/2+y,-z
1/2-x,1/2-y,-z
1/2+x,1/2-y,z
loop_
_atom_site_type_symbol
_atom_site_label
_atom_site_fract_x
_atom_site_fract_y
_atom_site_fract_z
Si Si1 0.498025 0.173815 0.091806
Si Si2 0.421693 0.830927 0.659078
Si Si3 0.337404 0.172277 0.493708
Si Si4 0.155043 0.170155 0.824101
Si Si5 0.413720 0.331633 0.345668
Si Si6 0.339155 0.829276 0.819334
O O1 0.414614 0.238604 0.130154
O O2 0.582422 0.240583 0.132345
O O3 0.493836 0.000000 0.105023
O O4 0.500000 0.218455 0.000000
O O5 0.389151 0.788736 0.572296
O O6 0.495880 0.721996 0.682789
O O7 0.350004 0.804410 0.724700
O O8 0.452925 0.000000 0.661761
O O9 0.250000 0.250000 0.500000
O O10 0.386842 0.228711 0.417797
O O11 0.322399 0.000000 0.485656
O O12 0.147682 0.186157 0.728892
O O13 0.248046 0.233526 0.845330
O O14 0.145284 0.000000 0.848873
O O15 0.416862 0.500000 0.374932
O O16 0.337457 0.000000 0.840048
#
# Coordination Sequence:
#
# PCOD8102750 Si02
#       6
#     8   8   8   8   8   8
#     4  10  21  38  61  88 116 148 190 240 292 349
#     4  10  20  37  59  80 109 155 199 232 286 354
#     4  11  23  37  55  81 113 152 199 242 288 346
#     4  10  21  38  60  85 115 156 196 233 285 352
#     4  11  22  36  56  83 115 149 195 245 291 340
#     4   9  18  36  60  82 114 155 190 230 288 347
#
# _framework density 19.652944000000002
#
# number of rings (size 3 to 8) (size 9 to 14) (size 15 to 20)
#    0.000    1.833    1.667    2.500    0.000    7.667 
#    0.000    1.667    0.000    0.000    0.000    0.000 
#    0.000    0.000    0.000    0.000    0.000    0.000 
#
# Total GULP energy -297578.689062 kJ/mol
# GULP energy per Si atom -12399.112044 kJ/mol
# Density = 1.960821 g / cm^3
# Si number density = 19.652944 Si / 1000 Ang^3
#
#
#
# Elastic Constant Matrix: (Units=GPa)
#
#
# Indices 1 2 3 4 5 6 
#
# 1 165.2442 39.2030 54.8563 0.0000 -2.3301 0.0000
# 2 39.2030 47.7860 30.9284 0.0000 3.9643 0.0000
# 3 54.8563 30.9284 110.2228 0.0000 -2.0630 0.0000
# 4 0.0000 0.0000 0.0000 24.2784 0.0000 -6.1453
# 5 -2.3301 3.9643 -2.0630 0.0000 20.6402 0.0000
# 6 0.0000 0.0000 0.0000 -6.1453 0.0000 35.3709
#
#
#
# Elastic Compliance Matrix: (Units=1/GPa)
#
#
# Indices 1 2 3 4 5 6 
#
# 1 0.008155 -0.005157 -0.002581 0.000000 0.001653 0.000000
# 2 -0.005157 0.029504 -0.005840 0.000000 -0.006833 0.000000
# 3 -0.002581 -0.005840 0.012034 0.000000 0.002033 0.000000
# 4 0.000000 0.000000 0.000000 0.043084 0.000000 0.007485
# 5 0.001653 -0.006833 0.002033 0.000000 0.050151 0.000000
# 6 0.000000 0.000000 0.000000 0.007485 0.000000 0.029572
#
#
# Mechanical properties :
#
#
# Convention : Reuss Voigt Hill
#
# Bulk Modulus (GPa) = 44.37114 63.69202 54.03158
# Shear Modulus (GPa) = 24.13489 29.27556 26.70523
#
# Velocity S-wave (km/s) = 3.50816 3.86376 3.69025
# Velocity P-wave (km/s) = 6.24788 7.23765 6.76090
#
# Compressibility (1/GPa) = 0.02253717
#
# Stress axis : x y z
#
# Youngs Moduli (GPa) = 122.62119 33.89335 83.10030
#
# Poissons Ratio (x) = 0.17480 0.21445
# Poissons Ratio (y) = 0.63240 0.48531
# Poissons Ratio (z) = 0.31644 0.19794
#
# Static dielectric constant tensor:
#      x y z
#    x 3.996910 0.000000 0.103620 
#    y 0.000000 3.404050 0.000000 
#    z 0.103620 0.000000 3.533110 
# 
# 
# High freq. dielectric constant tensor:
#      x y z
#    x 1.780790 0.000000 0.000590 
#    y 0.000000 1.743600 0.000000 
#    z 0.000590 0.000000 1.768730 
# 
# From -- ./inp_files/267621.got.cif
#   From: 2010.06.25/outbox.cif.g09.slc.cpg/sg12_134_cif.got.tgz:267621.got - 2010.06.28 00:19:55.
