data_PCOD8102492
_publ_section_title
;
Structure prediction by ZEFSAII (Michael W. Deem and Ramdas Pophale) SiO2 
 PCOD8102492
Probable space group: C 2/M
;
_chemical_formula_sum "Si O2"
_cell_formula_units_Z 56
_cell_length_a 23.188043
_cell_length_b 23.906688
_cell_length_c 10.206477
_cell_angle_alpha 90.000000
_cell_angle_beta 30.922278
_cell_angle_gamma 90.000000
_cell_volume 2907.479993
_symmetry_space_group_name_H-M "C 2/M"
_symmetry_group_IT_number 12
_symmetry_cell_setting 'monoclinic'
loop_
_space_group_symop_operation_xyz
x,y,z
-x,y,-z
-x,-y,-z
x,-y,z
1/2+x,1/2+y,z
1/2-x,1/2+y,-z
1/2-x,1/2-y,-z
1/2+x,1/2-y,z
loop_
_atom_site_type_symbol
_atom_site_label
_atom_site_fract_x
_atom_site_fract_y
_atom_site_fract_z
Si Si1 0.005242 0.062994 0.138762
Si Si2 0.730343 0.751939 0.743032
Si Si3 0.422557 0.664458 0.847148
Si Si4 0.267725 0.561085 0.735502
Si Si5 0.668983 0.668656 0.255650
Si Si6 0.368956 0.940116 0.245913
Si Si7 0.869585 0.319391 0.291188
O O1 0.878558 0.065542 0.432857
O O2 0.085069 0.103763 0.068616
O O3 0.054348 0.000000 0.053993
O O4 0.000000 0.084149 0.000000
O O5 0.757245 0.780415 0.830780
O O6 0.837860 0.716521 0.481385
O O7 0.704118 0.799897 0.688938
O O8 0.621635 0.711918 0.967516
O O9 0.550193 0.674842 0.559023
O O10 0.341621 0.669519 0.879508
O O11 0.263029 0.500000 0.814722
O O12 0.268950 0.609722 0.840266
O O13 0.161621 0.568509 0.847106
O O14 0.333566 0.883978 0.392953
O O15 0.314737 0.000000 0.401647
O O16 0.500000 0.946603 0.000000
O O17 0.000000 0.314016 0.000000
#
# Coordination Sequence:
#
# PCOD8102492 Si02
#       7
#     8   8   8   8   8   8   8
#     4   9  19  33  52  78 108 134 164 212 272 323
#     4  11  21  34  53  75 105 141 173 213 256 313
#     4  10  22  34  54  75 103 140 178 217 255 308
#     4   9  17  31  53  76 100 135 170 212 262 311
#     4  10  20  37  51  73 104 140 181 218 254 303
#     4   9  17  31  51  76 102 129 167 210 258 306
#     4  10  21  34  52  80 105 132 169 215 263 310
#
# _framework density 19.260664999999999
#
# number of rings (size 3 to 8) (size 9 to 14) (size 15 to 20)
#    0.000    2.286    1.429    1.286    2.000    2.286 
#    0.000    2.857    0.000    0.000    0.000    0.000 
#    0.000    6.286    0.000    0.000    0.000    0.000 
#
# Total GULP energy -346983.150926 kJ/mol
# GULP energy per Si atom -12392.255390 kJ/mol
# Density = 1.921683 g / cm^3
# Si number density = 19.260665 Si / 1000 Ang^3
#
#
#
# Elastic Constant Matrix: (Units=GPa)
#
#
# Indices 1 2 3 4 5 6 
#
# 1 86.6807 50.0294 12.0069 -0.0001 -6.1150 0.0000
# 2 50.0294 156.9163 30.8835 0.0000 -3.0108 0.0000
# 3 12.0069 30.8835 36.7830 -0.0004 -3.5835 0.0002
# 4 -0.0001 0.0000 -0.0004 17.2826 0.0002 -5.1861
# 5 -6.1150 -3.0108 -3.5835 0.0002 24.3096 -0.0001
# 6 0.0000 0.0000 0.0002 -5.1861 -0.0001 29.1638
#
#
#
# Elastic Compliance Matrix: (Units=1/GPa)
#
#
# Indices 1 2 3 4 5 6 
#
# 1 0.014377 -0.004385 -0.000723 0.000000 0.002967 0.000000
# 2 -0.004385 0.008972 -0.006190 0.000000 -0.000904 0.000000
# 3 -0.000723 -0.006190 0.033001 0.000001 0.003916 0.000000
# 4 0.000000 0.000000 0.000001 0.061124 0.000000 0.010869
# 5 0.002967 -0.000904 0.003916 0.000000 0.042348 0.000000
# 6 0.000000 0.000000 0.000000 0.010869 0.000000 0.036222
#
#
# Mechanical properties :
#
#
# Convention : Reuss Voigt Hill
#
# Bulk Modulus (GPa) = 29.62467 51.80218 40.71343
# Shear Modulus (GPa) = 21.74982 26.64855 24.19919
#
# Velocity S-wave (km/s) = 3.36406 3.72368 3.54843
# Velocity P-wave (km/s) = 5.52299 6.74102 6.16218
#
# Compressibility (1/GPa) = 0.03375565
#
# Stress axis : x y z
#
# Youngs Moduli (GPa) = 69.55749 111.46301 30.30242
#
# Poissons Ratio (x) = 0.48871 0.02189
# Poissons Ratio (y) = 0.30498 0.18756
# Poissons Ratio (z) = 0.05026 0.68990
#
# Static dielectric constant tensor:
#      x y z
#    x 3.421550 0.000000 -0.125870 
#    y 0.000000 4.101090 0.000000 
#    z -0.125870 0.000000 3.197510 
# 
# 
# High freq. dielectric constant tensor:
#      x y z
#    x 1.735410 0.000000 -0.019190 
#    y 0.000000 1.775150 0.000000 
#    z -0.019190 0.000000 1.716280 
# 
# From -- ./inp_files/178274.got.cif
#   From: 2010.06.25/outbox.cif.g09.slc.cpg/sg12_90_cif.got.tgz:178274.got - 2010.06.28 00:19:55.
