data_PCOD8102381
_publ_section_title
;
Structure prediction by ZEFSAII (Michael W. Deem and Ramdas Pophale) SiO2 
 PCOD8102381
Probable space group: C 2/M
;
_chemical_formula_sum "Si O2"
_cell_formula_units_Z 48
_cell_length_a 26.765062
_cell_length_b 10.396953
_cell_length_c 11.033619
_cell_angle_alpha 90.000000
_cell_angle_beta 48.314347
_cell_angle_gamma 90.000000
_cell_volume 2292.975319
_symmetry_space_group_name_H-M "C 2/M"
_symmetry_group_IT_number 12
_symmetry_cell_setting 'monoclinic'
loop_
_space_group_symop_operation_xyz
x,y,z
-x,y,-z
-x,-y,-z
x,-y,z
1/2+x,1/2+y,z
1/2-x,1/2+y,-z
1/2-x,1/2-y,-z
1/2+x,1/2-y,z
loop_
_atom_site_type_symbol
_atom_site_label
_atom_site_fract_x
_atom_site_fract_y
_atom_site_fract_z
Si Si1 0.567493 0.849582 0.624767
Si Si2 0.762324 0.638863 0.885843
Si Si3 0.805192 0.770046 0.236309
Si Si4 0.823723 0.142831 0.468581
Si Si5 0.411807 0.857108 0.666613
Si Si6 0.922790 0.351386 0.911830
O O1 0.624338 0.754529 0.580809
O O2 0.544271 0.811196 0.521724
O O3 0.501583 0.832546 0.814685
O O4 0.591527 0.000000 0.589854
O O5 0.749244 0.500000 0.970068
O O6 0.715945 0.644316 0.843271
O O7 0.839050 0.647791 0.720551
O O8 0.750000 0.750000 0.000000
O O9 0.812810 0.857488 0.342000
O O10 0.747647 0.663248 0.350744
O O11 0.877577 0.709877 0.089302
O O12 0.849773 0.000000 0.463411
O O13 0.410001 0.783715 0.799234
O O14 0.435390 0.000000 0.663609
O O15 0.902151 0.500000 0.941249
#
# Coordination Sequence:
#
# PCOD8102381 Si02
#       6
#     8   8   8   8   8   8
#     4  10  21  39  64  91 122 158 199 246 297 356
#     4  11  21  36  61  92 123 155 196 246 302 359
#     4  11  23  40  61  88 120 159 203 250 298 353
#     4  11  25  42  62  86 120 162 204 251 301 355
#     4   9  17  33  59  90 121 152 191 241 295 353
#     4  10  20  36  62  94 121 153 200 250 297 353
#
# _framework density 20.933501
#
# number of rings (size 3 to 8) (size 9 to 14) (size 15 to 20)
#    0.000    1.667    3.333    1.500    0.000    6.667 
#    0.000    4.167    0.000    1.000    0.000    0.000 
#    0.000    0.000    0.000    0.000    0.000    0.000 
#
# Total GULP energy -297332.868536 kJ/mol
# GULP energy per Si atom -12388.869522 kJ/mol
# Density = 2.088586 g / cm^3
# Si number density = 20.933501 Si / 1000 Ang^3
#
#
#
# Elastic Constant Matrix: (Units=GPa)
#
#
# Indices 1 2 3 4 5 6 
#
# 1 46.3025 28.4933 22.7547 0.0000 7.0892 0.0000
# 2 28.4933 113.0575 46.9989 0.0000 -4.9136 0.0000
# 3 22.7547 46.9989 133.2848 0.0000 -13.9266 0.0000
# 4 0.0000 0.0000 0.0000 18.4053 0.0000 -5.3104
# 5 7.0892 -4.9136 -13.9266 0.0000 30.7164 0.0000
# 6 0.0000 0.0000 0.0000 -5.3104 0.0000 26.2073
#
#
#
# Elastic Compliance Matrix: (Units=1/GPa)
#
#
# Indices 1 2 3 4 5 6 
#
# 1 0.028562 -0.006060 -0.003705 0.000000 -0.009241 0.000000
# 2 -0.006060 0.011650 -0.002869 0.000000 0.001962 0.000000
# 3 -0.003705 -0.002869 0.009645 0.000000 0.004769 0.000000
# 4 0.000000 0.000000 0.000000 0.057706 0.000000 0.011693
# 5 -0.009241 0.001962 0.004769 0.000000 0.037165 0.000000
# 6 0.000000 0.000000 0.000000 0.011693 0.000000 0.040527
#
#
# Mechanical properties :
#
#
# Convention : Reuss Voigt Hill
#
# Bulk Modulus (GPa) = 40.66624 54.34873 47.50748
# Shear Modulus (GPa) = 22.86059 28.02567 25.44313
#
# Velocity S-wave (km/s) = 3.30821 3.66292 3.49008
# Velocity P-wave (km/s) = 5.83618 6.62633 6.24377
#
# Compressibility (1/GPa) = 0.02459042
#
# Stress axis : x y z
#
# Youngs Moduli (GPa) = 35.01197 85.83703 103.67998
#
# Poissons Ratio (x) = 0.52015 0.38412
# Poissons Ratio (y) = 0.21216 0.29741
# Poissons Ratio (z) = 0.12972 0.24623
#
# Static dielectric constant tensor:
#      x y z
#    x 3.850670 0.000000 -0.019800 
#    y 0.000000 3.444370 0.000000 
#    z -0.019800 0.000000 4.073910 
# 
# 
# High freq. dielectric constant tensor:
#      x y z
#    x 1.820390 0.000000 -0.003460 
#    y 0.000000 1.776190 0.000000 
#    z -0.003460 0.000000 1.838150 
# 
# From -- ./inp_files/181884.got.cif
#   From: 2010.06.25/outbox.cif.g09.slc.cpg/sg12_91_cif.got.tgz:181884.got - 2010.06.28 00:19:55.
