data_PCOD8102327
_publ_section_title
;
Structure prediction by ZEFSAII (Michael W. Deem and Ramdas Pophale) SiO2 
 PCOD8102327
Probable space group: C 2/M
;
_chemical_formula_sum "Si O2"
_cell_formula_units_Z 52
_cell_length_a 20.270672
_cell_length_b 12.506912
_cell_length_c 10.861947
_cell_angle_alpha 90.000000
_cell_angle_beta 103.678551
_cell_angle_gamma 90.000000
_cell_volume 2675.656039
_symmetry_space_group_name_H-M "C 2/M"
_symmetry_group_IT_number 12
_symmetry_cell_setting 'monoclinic'
loop_
_space_group_symop_operation_xyz
x,y,z
-x,y,-z
-x,-y,-z
x,-y,z
1/2+x,1/2+y,z
1/2-x,1/2+y,-z
1/2-x,1/2-y,-z
1/2+x,1/2-y,z
loop_
_atom_site_type_symbol
_atom_site_label
_atom_site_fract_x
_atom_site_fract_y
_atom_site_fract_z
Si Si1 0.933726 0.381375 0.535398
Si Si2 0.162626 0.000000 0.558819
Si Si3 0.885432 0.000000 0.199063
Si Si4 0.261723 0.000000 0.808748
Si Si5 0.672797 0.276077 0.440323
Si Si6 0.063825 0.811600 0.940149
Si Si7 0.007656 0.615678 0.173260
Si Si8 0.642030 0.801244 0.154608
O O1 0.916656 0.500000 0.473279
O O2 0.870221 0.302589 0.489546
O O3 0.949185 0.391270 0.684479
O O4 0.000000 0.332249 0.500000
O O5 0.153917 0.102876 0.467890
O O6 0.107554 0.000000 0.647526
O O7 0.238166 0.000000 0.654227
O O8 0.804481 0.000000 0.132418
O O9 0.922633 0.899318 0.156868
O O10 0.302971 0.891431 0.852297
O O11 0.750000 0.250000 0.500000
O O12 0.655638 0.256483 0.290134
O O13 0.049221 0.706204 0.851085
O O14 0.134304 0.792385 0.048469
O O15 0.000000 0.844770 0.000000
O O16 0.974964 0.500000 0.128860
O O17 0.066934 0.645451 0.102412
#
# Coordination Sequence:
#
# PCOD8102327 Si02
#       8
#     8   4   4   4   8   8   8   8
#     4   9  20  35  58  85 120 154 190 245 304 344
#     4  10  24  38  59  86 115 165 194 244 295 351
#     4  10  23  41  56  79 124 158 198 227 296 356
#     4  10  20  37  59  88 117 156 182 244 307 331
#     4  11  21  37  61  87 119 155 204 238 289 359
#     4  10  22  37  63  85 113 159 194 243 286 351
#     4   9  18  33  59  90 113 142 194 248 294 344
#     4  10  20  36  62  89 115 150 196 245 291 345
#
# _framework density 19.434487000000001
#
# number of rings (size 3 to 8) (size 9 to 14) (size 15 to 20)
#    0.462    1.692    2.308    0.231    5.385    2.154 
#    0.000    5.000    0.000    0.000    0.000    0.000 
#    0.000    0.000    0.000    0.000    0.000    0.000 
#
# Total GULP energy -322134.948035 kJ/mol
# GULP energy per Si atom -12389.805694 kJ/mol
# Density = 1.939025 g / cm^3
# Si number density = 19.434487 Si / 1000 Ang^3
#
#
#
# Elastic Constant Matrix: (Units=GPa)
#
#
# Indices 1 2 3 4 5 6 
#
# 1 105.1254 68.6573 21.6053 0.0000 -0.1200 0.0000
# 2 68.6573 162.2901 50.4441 0.0000 -2.5870 0.0000
# 3 21.6053 50.4441 50.7190 0.0000 3.8621 0.0000
# 4 0.0000 0.0000 0.0000 19.1240 0.0000 1.2815
# 5 -0.1200 -2.5870 3.8621 0.0000 25.0836 0.0000
# 6 0.0000 0.0000 0.0000 1.2815 0.0000 33.4740
#
#
#
# Elastic Compliance Matrix: (Units=1/GPa)
#
#
# Indices 1 2 3 4 5 6 
#
# 1 0.013151 -0.005562 -0.000032 0.000000 -0.000506 0.000000
# 2 -0.005562 0.011406 -0.009170 0.000000 0.002562 0.000000
# 3 -0.000032 -0.009170 0.029265 0.000000 -0.005452 0.000000
# 4 0.000000 0.000000 0.000000 0.052425 0.000000 -0.002007
# 5 -0.000506 0.002562 -0.005452 0.000000 0.040968 0.000000
# 6 0.000000 0.000000 0.000000 -0.002007 0.000000 0.029951
#
#
# Mechanical properties :
#
#
# Convention : Reuss Voigt Hill
#
# Bulk Modulus (GPa) = 41.16075 66.61644 53.88859
# Shear Modulus (GPa) = 23.27853 27.36485 25.32169
#
# Velocity S-wave (km/s) = 3.46467 3.75648 3.61352
# Velocity P-wave (km/s) = 6.10168 7.29155 6.72299
#
# Compressibility (1/GPa) = 0.02429499
#
# Stress axis : x y z
#
# Youngs Moduli (GPa) = 76.04165 87.67548 34.17006
#
# Poissons Ratio (x) = 0.48761 0.00109
# Poissons Ratio (y) = 0.42291 0.31333
# Poissons Ratio (z) = 0.00243 0.80397
#
# Static dielectric constant tensor:
#      x y z
#    x 3.463430 0.000000 -0.050890 
#    y 0.000000 3.737570 0.000000 
#    z -0.050890 0.000000 3.673780 
# 
# 
# High freq. dielectric constant tensor:
#      x y z
#    x 1.739400 0.000000 0.002040 
#    y 0.000000 1.762890 0.000000 
#    z 0.002040 0.000000 1.748990 
# 
# From -- ./inp_files/165157.got.cif
#   From: 2010.06.25/outbox.cif.g09.slc.cpg/sg12_83_cif.got.tgz:165157.got - 2010.06.28 00:19:55.
