data_PCOD8102696
_publ_section_title
;
Structure prediction by ZEFSAII (Michael W. Deem and Ramdas Pophale) SiO2 
 PCOD8102696
Probable space group: C 2/M
;
_chemical_formula_sum "Si O2"
_cell_formula_units_Z 64
_cell_length_a 9.111008
_cell_length_b 22.993114
_cell_length_c 20.041558
_cell_angle_alpha 90.000000
_cell_angle_beta 126.363427
_cell_angle_gamma 90.000000
_cell_volume 3380.948284
_symmetry_space_group_name_H-M "C 2/M"
_symmetry_group_IT_number 12
_symmetry_cell_setting 'monoclinic'
loop_
_space_group_symop_operation_xyz
x,y,z
-x,y,-z
-x,-y,-z
x,-y,z
1/2+x,1/2+y,z
1/2-x,1/2+y,-z
1/2-x,1/2-y,-z
1/2+x,1/2-y,z
loop_
_atom_site_type_symbol
_atom_site_label
_atom_site_fract_x
_atom_site_fract_y
_atom_site_fract_z
Si Si1 0.009478 0.104093 0.154649
Si Si2 0.144745 0.191225 0.090089
Si Si3 0.482744 0.142449 0.819060
Si Si4 0.877676 0.827928 0.695599
Si Si5 0.367139 0.065655 0.908595
Si Si6 0.857374 0.566829 0.403720
Si Si7 0.208285 0.242117 0.743268
Si Si8 0.594208 0.063320 0.730399
O O1 0.023640 0.139940 0.089889
O O2 0.991144 0.149394 0.210527
O O3 0.186148 0.063984 0.210315
O O4 0.831104 0.064658 0.110595
O O5 0.320651 0.163623 0.099853
O O6 0.230375 0.235037 0.167208
O O7 0.000000 0.221942 0.000000
O O8 0.380349 0.103134 0.845248
O O9 0.356977 0.195062 0.762757
O O10 0.508625 0.110246 0.755716
O O11 0.799402 0.883192 0.632700
O O12 0.713435 0.792658 0.688250
O O13 0.005155 0.785375 0.686028
O O14 0.423663 0.000000 0.905391
O O15 0.500000 0.092361 0.000000
O O16 0.778856 0.500000 0.387933
O O17 0.963506 0.574651 0.361916
O O18 0.000000 0.579119 0.500000
O O19 0.528107 0.000000 0.736530
#
# Coordination Sequence:
#
# PCOD8102696 Si02
#       8
#     8   8   8   8   8   8   8   8
#     4   9  18  34  52  74 104 143 191 235 281 340
#     4  10  21  35  52  74 103 147 199 245 296 341
#     4  11  21  35  53  76 111 150 193 244 292 338
#     4  10  20  37  58  84 114 150 188 229 279 339
#     4  11  22  33  48  76 113 150 196 250 297 337
#     4   9  19  38  67  97 120 144 181 231 283 342
#     4  11  21  36  55  80 114 153 193 241 283 341
#     4   9  18  34  58  82 106 143 188 229 276 344
#
# _framework density 18.929601000000002
#
# number of rings (size 3 to 8) (size 9 to 14) (size 15 to 20)
#    0.000    2.000    2.500    2.250    0.000    1.500 
#    0.000    0.625    0.000    6.000    0.000    2.625 
#    0.000    0.000    0.000    0.000    0.000    0.000 
#
# Total GULP energy -396586.427323 kJ/mol
# GULP energy per Si atom -12393.325854 kJ/mol
# Density = 1.888652 g / cm^3
# Si number density = 18.929601 Si / 1000 Ang^3
#
#
#
# Elastic Constant Matrix: (Units=GPa)
#
#
# Indices 1 2 3 4 5 6 
#
# 1 90.6778 37.0152 32.4761 0.0000 3.0228 0.0000
# 2 37.0152 98.0167 35.9819 0.0000 3.9671 0.0000
# 3 32.4761 35.9819 78.3760 0.0000 1.9835 0.0000
# 4 0.0000 0.0000 0.0000 23.2178 0.0000 3.6185
# 5 3.0228 3.9671 1.9835 0.0000 13.2440 0.0000
# 6 0.0000 0.0000 0.0000 3.6185 0.0000 31.2724
#
#
#
# Elastic Compliance Matrix: (Units=1/GPa)
#
#
# Indices 1 2 3 4 5 6 
#
# 1 0.014068 -0.003761 -0.004066 0.000000 -0.001476 0.000000
# 2 -0.003761 0.013383 -0.004523 0.000000 -0.002473 0.000000
# 3 -0.004066 -0.004523 0.016525 0.000000 -0.000192 0.000000
# 4 0.000000 0.000000 0.000000 0.043861 0.000000 -0.005075
# 5 -0.001476 -0.002473 -0.000192 0.000000 0.076612 0.000000
# 6 0.000000 0.000000 0.000000 -0.005075 0.000000 0.032564
#
#
# Mechanical properties :
#
#
# Convention : Reuss Voigt Hill
#
# Bulk Modulus (GPa) = 51.87350 53.11300 52.49325
# Shear Modulus (GPa) = 21.91642 24.31999 23.11821
#
# Velocity S-wave (km/s) = 3.40632 3.58824 3.49846
# Velocity P-wave (km/s) = 6.55237 6.72952 6.64153
#
# Compressibility (1/GPa) = 0.01927767
#
# Stress axis : x y z
#
# Youngs Moduli (GPa) = 71.08108 74.72115 60.51402
#
# Poissons Ratio (x) = 0.28100 0.24603
# Poissons Ratio (y) = 0.26731 0.27372
# Poissons Ratio (z) = 0.28899 0.33798
#
# Static dielectric constant tensor:
#      x y z
#    x 3.417660 0.000000 -0.085220 
#    y 0.000000 3.591560 0.000000 
#    z -0.085220 0.000000 3.171990 
# 
# 
# High freq. dielectric constant tensor:
#      x y z
#    x 1.730080 0.000000 -0.005670 
#    y 0.000000 1.749250 0.000000 
#    z -0.005670 0.000000 1.697140 
# 
# From -- ./inp_files/302138.got.cif
#   From: 2010.06.25/outbox.cif.g09.slc.cpg/sg12_152_cif.got.tgz:302138.got - 2010.06.28 00:19:55.
