data_PCOD8102122
_publ_section_title
;
Structure prediction by ZEFSAII (Michael W. Deem and Ramdas Pophale) SiO2 
 PCOD8102122
Probable space group: C 2/M
;
_chemical_formula_sum "Si O2"
_cell_formula_units_Z 40
_cell_length_a 21.966581
_cell_length_b 20.310390
_cell_length_c 4.820558
_cell_angle_alpha 90.000000
_cell_angle_beta 133.001393
_cell_angle_gamma 90.000000
_cell_volume 1572.880249
_symmetry_space_group_name_H-M "C 2/M"
_symmetry_group_IT_number 12
_symmetry_cell_setting 'monoclinic'
loop_
_space_group_symop_operation_xyz
x,y,z
-x,y,-z
-x,-y,-z
x,-y,z
1/2+x,1/2+y,z
1/2-x,1/2+y,-z
1/2-x,1/2-y,-z
1/2+x,1/2-y,z
loop_
_atom_site_type_symbol
_atom_site_label
_atom_site_fract_x
_atom_site_fract_y
_atom_site_fract_z
Si Si1 0.061505 0.500000 0.445595
Si Si2 0.098426 0.371095 0.338226
Si Si3 0.823496 0.883416 0.101491
Si Si4 0.439788 0.737808 0.564289
Si Si5 0.560214 0.500000 0.433882
Si Si6 0.718986 0.920506 0.268393
O O1 0.119448 0.433658 0.614563
O O2 0.000000 0.500000 0.500000
O O3 0.000000 0.500000 0.000000
O O4 0.118513 0.299509 0.525583
O O5 0.140861 0.384001 0.172773
O O6 0.000000 0.371515 0.000000
O O7 0.872976 0.815256 0.253211
O O8 0.740722 0.883795 0.040913
O O9 0.883279 0.936734 0.418213
O O10 0.798222 0.905262 0.713365
O O11 0.500000 0.758502 0.500000
O O12 0.500000 0.712328 0.000000
O O13 0.500000 0.500000 0.500000
O O14 0.500000 0.500000 0.000000
O O15 0.702440 0.000000 0.193562
#
# Coordination Sequence:
#
# PCOD8102122 Si02
#       6
#     4   8   8   8   4   8
#     4  10  20  36  60  90 120 158 206 262 314 373
#     4  10  24  44  70  99 132 176 227 275 332 397
#     4  12  25  43  66  97 139 176 221 275 339 397
#     4  11  24  45  69  99 135 174 223 280 331 399
#     4  12  22  38  66  94 123 172 223 268 320 379
#     4  12  24  44  66  98 139 176 221 282 329 396
#
# _framework density 25.431054
#
# number of rings (size 3 to 8) (size 9 to 14) (size 15 to 20)
#    0.000    0.800    3.000    4.200    0.000    8.000 
#    0.000    0.000    0.000    0.000    0.000    0.000 
#    0.000    0.000    0.000    0.000    0.000    0.000 
#
# Total GULP energy -248006.168833 kJ/mol
# GULP energy per Si atom -12400.308442 kJ/mol
# Density = 2.537317 g / cm^3
# Si number density = 25.431054 Si / 1000 Ang^3
#
#
#
# Elastic Constant Matrix: (Units=GPa)
#
#
# Indices 1 2 3 4 5 6 
#
# 1 151.2860 28.9165 -6.5712 0.0000 -5.8649 0.0000
# 2 28.9165 175.5574 12.0709 0.0000 15.1387 0.0000
# 3 -6.5712 12.0709 51.2079 0.0000 3.3102 0.0000
# 4 0.0000 0.0000 0.0000 47.9412 0.0000 4.4498
# 5 -5.8649 15.1387 3.3102 0.0000 50.9170 0.0000
# 6 0.0000 0.0000 0.0000 4.4498 0.0000 41.0456
#
#
#
# Elastic Compliance Matrix: (Units=1/GPa)
#
#
# Indices 1 2 3 4 5 6 
#
# 1 0.006955 -0.001320 0.001131 0.000000 0.001120 0.000000
# 2 -0.001320 0.006180 -0.001504 0.000000 -0.001892 0.000000
# 3 0.001131 -0.001504 0.020075 0.000000 -0.000728 0.000000
# 4 0.000000 0.000000 0.000000 0.021071 0.000000 -0.002284
# 5 0.001120 -0.001892 -0.000728 0.000000 0.020379 0.000000
# 6 0.000000 0.000000 0.000000 -0.002284 0.000000 0.024611
#
#
# Mechanical properties :
#
#
# Convention : Reuss Voigt Hill
#
# Bulk Modulus (GPa) = 33.52926 49.65374 41.59150
# Shear Modulus (GPa) = 44.40621 50.88976 47.64799
#
# Velocity S-wave (km/s) = 4.18322 4.47820 4.33322
# Velocity P-wave (km/s) = 6.04528 6.80487 6.43629
#
# Compressibility (1/GPa) = 0.02982469
#
# Stress axis : x y z
#
# Youngs Moduli (GPa) = 143.78487 161.81027 49.81339
#
# Poissons Ratio (x) = 0.21357 -0.05635
# Poissons Ratio (y) = 0.18978 0.07491
# Poissons Ratio (z) = -0.16265 0.24334
#
# Static dielectric constant tensor:
#      x y z
#    x 4.949790 0.000000 0.072270 
#    y 0.000000 4.829310 0.000000 
#    z 0.072270 0.000000 5.159820 
# 
# 
# High freq. dielectric constant tensor:
#      x y z
#    x 2.028790 0.000000 0.004390 
#    y 0.000000 2.018300 0.000000 
#    z 0.004390 0.000000 2.058790 
# 
# From -- ./inp_files/21140.got.cif
#   From: 2010.06.25/outbox.cif.g09.slc.cpg/sg12_11_cif.got.tgz:21140.got - 2010.06.28 00:19:55.
