data_PCOD8102791
_publ_section_title
;
Structure prediction by ZEFSAII (Michael W. Deem and Ramdas Pophale) SiO2 
 PCOD8102791
Probable space group: C 2/M
;
_chemical_formula_sum "Si O2"
_cell_formula_units_Z 64
_cell_length_a 14.706907
_cell_length_b 8.764603
_cell_length_c 25.391886
_cell_angle_alpha 90.000000
_cell_angle_beta 91.601858
_cell_angle_gamma 90.000000
_cell_volume 3271.740148
_symmetry_space_group_name_H-M "C 2/M"
_symmetry_group_IT_number 12
_symmetry_cell_setting 'monoclinic'
loop_
_space_group_symop_operation_xyz
x,y,z
-x,y,-z
-x,-y,-z
x,-y,z
1/2+x,1/2+y,z
1/2-x,1/2+y,-z
1/2-x,1/2-y,-z
1/2+x,1/2-y,z
loop_
_atom_site_type_symbol
_atom_site_label
_atom_site_fract_x
_atom_site_fract_y
_atom_site_fract_z
Si Si1 0.749026 0.323653 0.418941
Si Si2 0.759432 0.179047 0.308682
Si Si3 0.894639 0.823039 0.493727
Si Si4 0.917712 0.319515 0.254200
Si Si5 0.433388 0.325629 0.879568
Si Si6 0.114837 0.678809 0.863121
Si Si7 0.895706 0.176308 0.760197
Si Si8 0.264365 0.679023 0.943797
O O1 0.758765 0.500000 0.403474
O O2 0.732952 0.222373 0.367393
O O3 0.842750 0.273740 0.448518
O O4 0.659235 0.296123 0.452723
O O5 0.862328 0.232030 0.298546
O O6 0.697484 0.269223 0.266588
O O7 0.747990 0.000000 0.300489
O O8 0.000000 0.768461 0.500000
O O9 0.891322 0.000000 0.477046
O O10 0.905691 0.500000 0.260341
O O11 0.883323 0.257549 0.196573
O O12 0.023017 0.276251 0.262841
O O13 0.465853 0.500000 0.884627
O O14 0.519532 0.217890 0.888969
O O15 0.385478 0.298179 0.822525
O O16 0.364796 0.282278 0.925067
O O17 0.127249 0.500000 0.859973
O O18 0.194116 0.750701 0.900270
O O19 0.913175 0.000000 0.746807
O O20 0.247932 0.500000 0.948001
O O21 0.250000 0.750000 0.000000
#
# Coordination Sequence:
#
# PCOD8102791 Si02
#       8
#     8   8   8   8   8   8   8   8
#     4  10  21  37  57  83 114 147 186 232 280 328
#     4  12  24  37  55  82 118 155 189 230 276 325
#     4   9  19  38  62  84 109 144 186 231 279 331
#     4  10  20  37  59  83 110 143 184 229 278 334
#     4   9  19  36  57  78 104 138 177 220 268 324
#     4   9  19  36  57  78 104 137 175 220 270 325
#     4  10  20  37  59  83 111 145 184 227 277 334
#     4  10  21  36  52  75 105 138 175 218 269 322
#
# _framework density 19.561456
#
# number of rings (size 3 to 8) (size 9 to 14) (size 15 to 20)
#    0.000    2.125    0.000    3.000    0.000    6.250 
#    0.000    7.500    0.000    0.000    0.000    0.000 
#    0.000    0.000    0.000    0.000    0.000    0.000 
#
# Total GULP energy -396869.247524 kJ/mol
# GULP energy per Si atom -12402.163985 kJ/mol
# Density = 1.951693 g / cm^3
# Si number density = 19.561456 Si / 1000 Ang^3
#
#
#
# Elastic Constant Matrix: (Units=GPa)
#
#
# Indices 1 2 3 4 5 6 
#
# 1 81.8824 20.3087 23.4477 0.0000 -9.1960 0.0000
# 2 20.3087 55.7004 28.6520 0.0000 -2.9485 0.0000
# 3 23.4477 28.6520 62.3831 0.0000 -16.1984 0.0000
# 4 0.0000 0.0000 0.0000 33.3525 0.0000 -0.0936
# 5 -9.1960 -2.9485 -16.1984 0.0000 23.7055 0.0000
# 6 0.0000 0.0000 0.0000 -0.0936 0.0000 34.3289
#
#
#
# Elastic Compliance Matrix: (Units=1/GPa)
#
#
# Indices 1 2 3 4 5 6 
#
# 1 0.014278 -0.003528 -0.002944 0.000000 0.003088 0.000000
# 2 -0.003528 0.024964 -0.011779 0.000000 -0.006312 0.000000
# 3 -0.002944 -0.011779 0.026587 0.000000 0.015560 0.000000
# 4 0.000000 0.000000 0.000000 0.029983 0.000000 0.000082
# 5 0.003088 -0.006312 0.015560 0.000000 0.053230 0.000000
# 6 0.000000 0.000000 0.000000 0.000082 0.000000 0.029130
#
#
# Mechanical properties :
#
#
# Convention : Reuss Voigt Hill
#
# Bulk Modulus (GPa) = 34.09854 38.30919 36.20386
# Shear Modulus (GPa) = 22.27676 26.78123 24.52900
#
# Velocity S-wave (km/s) = 3.37829 3.70412 3.54495
# Velocity P-wave (km/s) = 5.71720 6.15797 5.94168
#
# Compressibility (1/GPa) = 0.02932677
#
# Stress axis : x y z
#
# Youngs Moduli (GPa) = 70.04025 40.05723 37.61229
#
# Poissons Ratio (x) = 0.14131 0.11075
# Poissons Ratio (y) = 0.24707 0.44304
# Poissons Ratio (z) = 0.20623 0.47183
#
# Static dielectric constant tensor:
#      x y z
#    x 3.659900 0.000000 0.011760 
#    y 0.000000 3.493540 0.000000 
#    z 0.011760 0.000000 3.570510 
# 
# 
# High freq. dielectric constant tensor:
#      x y z
#    x 1.768210 0.000000 -0.005210 
#    y 0.000000 1.758040 0.000000 
#    z -0.005210 0.000000 1.757020 
# 
# From -- ./inp_files/338681.got.cif
#   From: 2010.06.25/outbox.cif.g09.slc.cpg/sg12_170_cif.got.tgz:338681.got - 2010.06.28 00:19:55.
