data_PCOD8102513
_publ_section_title
;
Structure prediction by ZEFSAII (Michael W. Deem and Ramdas Pophale) SiO2 
 PCOD8102513
Probable space group: C 2/M
;
_chemical_formula_sum "Si O2"
_cell_formula_units_Z 56
_cell_length_a 31.478938
_cell_length_b 9.057950
_cell_length_c 11.754890
_cell_angle_alpha 90.000000
_cell_angle_beta 63.205076
_cell_angle_gamma 90.000000
_cell_volume 2991.837327
_symmetry_space_group_name_H-M "C 2/M"
_symmetry_group_IT_number 12
_symmetry_cell_setting 'monoclinic'
loop_
_space_group_symop_operation_xyz
x,y,z
-x,y,-z
-x,-y,-z
x,-y,z
1/2+x,1/2+y,z
1/2-x,1/2+y,-z
1/2-x,1/2-y,-z
1/2+x,1/2-y,z
loop_
_atom_site_type_symbol
_atom_site_label
_atom_site_fract_x
_atom_site_fract_y
_atom_site_fract_z
Si Si1 0.956538 0.329427 0.704347
Si Si2 0.621759 0.675320 0.074510
Si Si3 0.063720 0.329750 0.527911
Si Si4 0.834172 0.173791 0.211058
Si Si5 0.295587 0.830200 0.895134
Si Si6 0.727499 0.831008 0.335390
Si Si7 0.146472 0.826445 0.561883
O O1 0.943932 0.500000 0.740940
O O2 0.931172 0.229245 0.830076
O O3 0.938746 0.282098 0.600651
O O4 0.012785 0.302961 0.648097
O O5 0.625259 0.500000 0.080549
O O6 0.657289 0.748929 0.120888
O O7 0.634386 0.732648 0.932331
O O8 0.078864 0.500000 0.519237
O O9 0.102074 0.232795 0.545803
O O10 0.780575 0.238241 0.269061
O O11 0.859651 0.218004 0.298103
O O12 0.829303 0.000000 0.203859
O O13 0.296230 0.819195 0.759037
O O14 0.295220 0.000000 0.935863
O O15 0.250000 0.750000 0.000000
O O16 0.696463 0.738155 0.460583
O O17 0.728519 0.000000 0.376241
O O18 0.148630 0.000000 0.543085
#
# Coordination Sequence:
#
# PCOD8102513 Si02
#       7
#     8   8   8   8   8   8   8
#     4   9  19  37  60  84 107 139 177 217 269 330
#     4  11  21  36  56  80 112 147 179 219 272 321
#     4   9  19  38  60  80 109 141 173 217 275 329
#     4   9  20  38  53  72 109 151 183 217 265 321
#     4  11  21  34  54  79 109 143 178 220 266 317
#     4  10  20  37  56  74 106 148 182 218 271 321
#     4  11  22  35  55  81 107 138 185 231 264 313
#
# _framework density 18.717596
#
# number of rings (size 3 to 8) (size 9 to 14) (size 15 to 20)
#    0.000    2.000    1.429    3.429    0.000    5.714 
#    0.000    5.714    0.000    4.286    0.000    0.000 
#    0.000    0.000    0.000    0.000    0.000    0.000 
#
# Total GULP energy -347245.953538 kJ/mol
# GULP energy per Si atom -12401.641198 kJ/mol
# Density = 1.867499 g / cm^3
# Si number density = 18.717596 Si / 1000 Ang^3
#
#
#
# Elastic Constant Matrix: (Units=GPa)
#
#
# Indices 1 2 3 4 5 6 
#
# 1 69.7532 30.8135 48.7578 0.0000 -1.4484 0.0000
# 2 30.8135 78.6616 51.5102 0.0000 -2.5764 0.0000
# 3 48.7578 51.5102 124.6092 0.0000 -10.4184 0.0000
# 4 0.0000 0.0000 0.0000 31.8579 0.0000 -6.3138
# 5 -1.4484 -2.5764 -10.4184 0.0000 25.9429 0.0000
# 6 0.0000 0.0000 0.0000 -6.3138 0.0000 28.2517
#
#
#
# Elastic Compliance Matrix: (Units=1/GPa)
#
#
# Indices 1 2 3 4 5 6 
#
# 1 0.020626 -0.003775 -0.006669 0.000000 -0.001902 0.000000
# 2 -0.003775 0.018158 -0.006101 0.000000 -0.000858 0.000000
# 3 -0.006669 -0.006101 0.013529 0.000000 0.004455 0.000000
# 4 0.000000 0.000000 0.000000 0.032844 0.000000 0.007340
# 5 -0.001902 -0.000858 0.004455 0.000000 0.040144 0.000000
# 6 0.000000 0.000000 0.000000 0.007340 0.000000 0.037036
#
#
# Mechanical properties :
#
#
# Convention : Reuss Voigt Hill
#
# Bulk Modulus (GPa) = 52.01904 59.46521 55.74213
# Shear Modulus (GPa) = 24.77260 26.67333 25.72296
#
# Velocity S-wave (km/s) = 3.64193 3.77907 3.71113
# Velocity P-wave (km/s) = 6.74809 7.13305 6.94324
#
# Compressibility (1/GPa) = 0.01922373
#
# Stress axis : x y z
#
# Youngs Moduli (GPa) = 48.48214 55.07127 73.91458
#
# Poissons Ratio (x) = 0.20788 0.49296
# Poissons Ratio (y) = 0.18300 0.45094
# Poissons Ratio (z) = 0.32334 0.33598
#
# Static dielectric constant tensor:
#      x y z
#    x 3.560370 0.000000 -0.078470 
#    y 0.000000 3.329660 0.000000 
#    z -0.078470 0.000000 3.640550 
# 
# 
# High freq. dielectric constant tensor:
#      x y z
#    x 1.722060 0.000000 -0.005340 
#    y 0.000000 1.716550 0.000000 
#    z -0.005340 0.000000 1.733710 
# 
# From -- ./inp_files/186811.got.cif
#   From: 2010.06.25/outbox.cif.g09.slc.cpg/sg12_94_cif.got.tgz:186811.got - 2010.06.28 00:19:55.
