data_PCOD8102698
_publ_section_title
;
Structure prediction by ZEFSAII (Michael W. Deem and Ramdas Pophale) SiO2 
 PCOD8102698
Probable space group: C 2/M
;
_chemical_formula_sum "Si O2"
_cell_formula_units_Z 56
_cell_length_a 14.921073
_cell_length_b 8.661474
_cell_length_c 24.457902
_cell_angle_alpha 90.000000
_cell_angle_beta 116.920488
_cell_angle_gamma 90.000000
_cell_volume 2818.373232
_symmetry_space_group_name_H-M "C 2/M"
_symmetry_group_IT_number 12
_symmetry_cell_setting 'monoclinic'
loop_
_space_group_symop_operation_xyz
x,y,z
-x,y,-z
-x,-y,-z
x,-y,z
1/2+x,1/2+y,z
1/2-x,1/2+y,-z
1/2-x,1/2-y,-z
1/2+x,1/2-y,z
loop_
_atom_site_type_symbol
_atom_site_label
_atom_site_fract_x
_atom_site_fract_y
_atom_site_fract_z
Si Si1 0.855091 0.819045 0.511713
Si Si2 0.567303 0.817694 0.365317
Si Si3 0.361613 0.317405 0.287324
Si Si4 0.720874 0.318709 0.621594
Si Si5 0.757492 0.182697 0.845062
Si Si6 0.180210 0.818317 0.933792
Si Si7 0.475989 0.319684 0.934318
O O1 0.750000 0.750000 0.500000
O O2 0.939270 0.739025 0.572955
O O3 0.863491 0.784449 0.448832
O O4 0.858837 0.000000 0.524165
O O5 0.471659 0.752419 0.306505
O O6 0.669046 0.752155 0.364739
O O7 0.564825 0.000000 0.363500
O O8 0.371244 0.500000 0.292610
O O9 0.316746 0.247729 0.331588
O O10 0.288369 0.269510 0.218908
O O11 0.734287 0.500000 0.632151
O O12 0.697653 0.228642 0.882725
O O13 0.871684 0.245243 0.881678
O O14 0.750592 0.000000 0.834251
O O15 0.064636 0.784778 0.916601
O O16 0.201467 0.000000 0.933387
O O17 0.250000 0.750000 0.000000
O O18 0.460411 0.500000 0.939829
O O19 0.500000 0.242602 0.000000
#
# Coordination Sequence:
#
# PCOD8102698 Si02
#       7
#     8   8   8   8   8   8   8
#     4   9  16  31  55  84 113 149 193 242 294 344
#     4  10  20  37  58  84 116 152 191 239 294 347
#     4  11  23  40  58  81 112 152 196 238 284 343
#     4   8  18  36  58  80 112 152 192 237 288 343
#     4  11  23  41  60  83 116 152 191 236 285 340
#     4  11  21  37  62  91 119 150 186 228 279 335
#     4   9  18  36  61  86 115 150 183 225 281 336
#
# _framework density 19.869619
#
# number of rings (size 3 to 8) (size 9 to 14) (size 15 to 20)
#    0.000    2.143    1.429    3.000    0.000    1.714 
#    0.000   17.857    0.000    0.000    0.000    0.000 
#    0.000    0.000    0.000    0.000    0.000    0.000 
#
# Total GULP energy -347108.129971 kJ/mol
# GULP energy per Si atom -12396.718928 kJ/mol
# Density = 1.982440 g / cm^3
# Si number density = 19.869619 Si / 1000 Ang^3
#
#
#
# Elastic Constant Matrix: (Units=GPa)
#
#
# Indices 1 2 3 4 5 6 
#
# 1 78.2861 17.9830 34.9823 0.0000 6.4468 0.0000
# 2 17.9830 57.1573 19.0556 0.0000 2.4346 0.0000
# 3 34.9823 19.0556 121.6301 0.0000 6.1037 0.0000
# 4 0.0000 0.0000 0.0000 36.7181 0.0000 1.6857
# 5 6.4468 2.4346 6.1037 0.0000 37.1355 0.0000
# 6 0.0000 0.0000 0.0000 1.6857 0.0000 21.8246
#
#
#
# Elastic Compliance Matrix: (Units=1/GPa)
#
#
# Indices 1 2 3 4 5 6 
#
# 1 0.015426 -0.003510 -0.003795 0.000000 -0.001824 0.000000
# 2 -0.003510 0.019279 -0.001994 0.000000 -0.000327 0.000000
# 3 -0.003795 -0.001994 0.009666 0.000000 -0.000799 0.000000
# 4 0.000000 0.000000 0.000000 0.027331 0.000000 -0.002111
# 5 -0.001824 -0.000327 -0.000799 0.000000 0.027398 0.000000
# 6 0.000000 0.000000 0.000000 -0.002111 0.000000 0.045983
#
#
# Mechanical properties :
#
#
# Convention : Reuss Voigt Hill
#
# Bulk Modulus (GPa) = 38.80373 44.56837 41.68605
# Shear Modulus (GPa) = 29.02368 31.47250 30.24809
#
# Velocity S-wave (km/s) = 3.82607 3.98421 3.90594
# Velocity P-wave (km/s) = 6.25219 6.60638 6.43173
#
# Compressibility (1/GPa) = 0.02577072
#
# Stress axis : x y z
#
# Youngs Moduli (GPa) = 64.82495 51.87030 103.45803
#
# Poissons Ratio (x) = 0.18209 0.39265
# Poissons Ratio (y) = 0.22756 0.20633
# Poissons Ratio (z) = 0.24603 0.10345
#
# Static dielectric constant tensor:
#      x y z
#    x 3.783290 0.000000 0.019510 
#    y 0.000000 3.471630 0.000000 
#    z 0.019510 0.000000 3.848370 
# 
# 
# High freq. dielectric constant tensor:
#      x y z
#    x 1.774840 0.000000 0.003310 
#    y 0.000000 1.757690 0.000000 
#    z 0.003310 0.000000 1.781520 
# 
# From -- ./inp_files/339030.got.cif
#   From: 2010.06.25/outbox.cif.g09.slc.cpg/sg12_170_cif.got.tgz:339030.got - 2010.06.28 00:19:55.
