data_PCOD8102880
_publ_section_title
;
Structure prediction by ZEFSAII (Michael W. Deem and Ramdas Pophale) SiO2 
 PCOD8102880
Probable space group: C 2/M
;
_chemical_formula_sum "Si O2"
_cell_formula_units_Z 64
_cell_length_a 29.817676
_cell_length_b 8.973908
_cell_length_c 22.894388
_cell_angle_alpha 90.000000
_cell_angle_beta 149.040151
_cell_angle_gamma 90.000000
_cell_volume 3151.496804
_symmetry_space_group_name_H-M "C 2/M"
_symmetry_group_IT_number 12
_symmetry_cell_setting 'monoclinic'
loop_
_space_group_symop_operation_xyz
x,y,z
-x,y,-z
-x,-y,-z
x,-y,z
1/2+x,1/2+y,z
1/2-x,1/2+y,-z
1/2-x,1/2-y,-z
1/2+x,1/2-y,z
loop_
_atom_site_type_symbol
_atom_site_label
_atom_site_fract_x
_atom_site_fract_y
_atom_site_fract_z
Si Si1 0.339873 0.176238 0.580697
Si Si2 0.048389 0.674659 0.995078
Si Si3 0.010803 0.829771 0.576720
Si Si4 0.341520 0.331403 0.464334
Si Si5 0.491987 0.322040 0.172041
Si Si6 0.175927 0.672336 0.767371
Si Si7 0.193950 0.173735 0.988016
Si Si8 0.242969 0.671070 0.244027
O O1 0.250000 0.250000 0.500000
O O2 0.347062 0.208215 0.520214
O O3 0.422144 0.247996 0.705224
O O4 0.338362 0.000000 0.591033
O O5 0.034520 0.500000 0.966434
O O6 0.015502 0.768148 0.903071
O O7 0.147307 0.717188 0.118265
O O8 0.000000 0.723511 0.000000
O O9 0.089276 0.746130 0.697761
O O10 0.000000 0.760598 0.500000
O O11 0.924446 0.808782 0.516709
O O12 0.039064 0.000000 0.603111
O O13 0.338450 0.500000 0.487029
O O14 0.256940 0.301653 0.329034
O O15 0.501487 0.500000 0.183041
O O16 0.406910 0.273739 0.115909
O O17 0.158776 0.500000 0.746224
O O18 0.189395 0.731292 0.716956
O O19 0.259546 0.713986 0.899358
O O20 0.196363 0.000000 0.976805
O O21 0.250000 0.250000 0.000000
O O22 0.263677 0.500000 0.252604
#
# Coordination Sequence:
#
# PCOD8102880 Si02
#       8
#     8   8   8   8   8   8   8   8
#     4  12  28  49  71  96 127 169 220 272 328 388
#     4  10  22  39  65 100 129 163 208 259 320 384
#     4  10  20  37  59  87 123 167 210 248 306 378
#     4  10  22  41  65  93 128 170 217 265 316 383
#     4  11  24  46  69  97 133 171 217 270 326 384
#     4  11  22  37  57  88 127 162 207 264 319 373
#     4  10  24  42  62  90 126 168 214 263 318 381
#     4  10  20  38  63  91 126 167 210 256 317 388
#
# _framework density 20.307811000000001
#
# number of rings (size 3 to 8) (size 9 to 14) (size 15 to 20)
#    0.000    1.500    2.500    1.875    3.500    3.500 
#    0.000    0.000    0.000    0.000    0.000    0.000 
#    0.000    0.000    0.000    0.000    0.000    0.000 
#
# Total GULP energy -396757.568546 kJ/mol
# GULP energy per Si atom -12398.674017 kJ/mol
# Density = 2.026159 g / cm^3
# Si number density = 20.307811 Si / 1000 Ang^3
#
#
#
# Elastic Constant Matrix: (Units=GPa)
#
#
# Indices 1 2 3 4 5 6 
#
# 1 113.8079 52.0483 57.9529 0.0000 -3.2121 0.0000
# 2 52.0483 89.0242 69.4998 0.0000 -0.4542 0.0000
# 3 57.9529 69.4998 146.5620 0.0000 3.7296 0.0000
# 4 0.0000 0.0000 0.0000 34.9047 0.0000 -3.2434
# 5 -3.2121 -0.4542 3.7296 0.0000 25.0766 0.0000
# 6 0.0000 0.0000 0.0000 -3.2434 0.0000 28.9036
#
#
#
# Elastic Compliance Matrix: (Units=1/GPa)
#
#
# Indices 1 2 3 4 5 6 
#
# 1 0.012567 -0.005432 -0.002441 0.000000 0.001874 0.000000
# 2 -0.005432 0.020247 -0.007473 0.000000 0.000782 0.000000
# 3 -0.002441 -0.007473 0.011386 0.000000 -0.002142 0.000000
# 4 0.000000 0.000000 0.000000 0.028951 0.000000 0.003249
# 5 0.001874 0.000782 -0.002142 0.000000 0.040451 0.000000
# 6 0.000000 0.000000 0.000000 0.003249 0.000000 0.034962
#
#
# Mechanical properties :
#
#
# Convention : Reuss Voigt Hill
#
# Bulk Modulus (GPa) = 74.02999 78.71068 76.37034
# Shear Modulus (GPa) = 27.20948 29.10317 28.15632
#
# Velocity S-wave (km/s) = 3.66437 3.78974 3.72758
# Velocity P-wave (km/s) = 7.37811 7.61528 7.49763
#
# Compressibility (1/GPa) = 0.01350804
#
# Stress axis : x y z
#
# Youngs Moduli (GPa) = 79.57413 49.39022 87.82354
#
# Poissons Ratio (x) = 0.26829 0.21437
# Poissons Ratio (y) = 0.43226 0.65631
# Poissons Ratio (z) = 0.19423 0.36910
#
# Static dielectric constant tensor:
#      x y z
#    x 5.766140 0.000000 -0.682940 
#    y 0.000000 3.646130 0.000000 
#    z -0.682940 0.000000 4.275360 
# 
# 
# High freq. dielectric constant tensor:
#      x y z
#    x 1.794380 0.000000 0.004900 
#    y 0.000000 1.783990 0.000000 
#    z 0.004900 0.000000 1.811630 
# 
# From -- ./inp_files/353587.got.cif
#   From: 2010.06.25/outbox.cif.g09.slc.cpg/sg12_177_cif.got.tgz:353587.got - 2010.06.28 00:19:55.
