data_PCOD8102497
_publ_section_title
;
Structure prediction by ZEFSAII (Michael W. Deem and Ramdas Pophale) SiO2 
 PCOD8102497
Probable space group: C 2/M
;
_chemical_formula_sum "Si O2"
_cell_formula_units_Z 64
_cell_length_a 12.752168
_cell_length_b 24.920365
_cell_length_c 26.074275
_cell_angle_alpha 90.000000
_cell_angle_beta 153.781936
_cell_angle_gamma 90.000000
_cell_volume 3660.709653
_symmetry_space_group_name_H-M "C 2/M"
_symmetry_group_IT_number 12
_symmetry_cell_setting 'monoclinic'
loop_
_space_group_symop_operation_xyz
x,y,z
-x,y,-z
-x,-y,-z
x,-y,z
1/2+x,1/2+y,z
1/2-x,1/2+y,-z
1/2-x,1/2-y,-z
1/2+x,1/2-y,z
loop_
_atom_site_type_symbol
_atom_site_label
_atom_site_fract_x
_atom_site_fract_y
_atom_site_fract_z
Si Si1 0.917142 0.726159 0.296471
Si Si2 0.858387 0.170382 0.648957
Si Si3 0.220607 0.140032 0.882271
Si Si4 0.921982 0.751807 0.123030
Si Si5 0.789520 0.057092 0.867766
Si Si6 0.477297 0.854391 0.408292
Si Si7 0.274777 0.166913 0.133589
Si Si8 0.380314 0.437485 0.790066
O O1 0.695911 0.749390 0.229858
O O2 0.044969 0.682878 0.389348
O O3 0.802414 0.698947 0.197419
O O4 0.101144 0.771737 0.359579
O O5 0.702607 0.177321 0.632559
O O6 0.719081 0.133616 0.546159
O O7 0.103891 0.141240 0.773737
O O8 0.160309 0.197858 0.879441
O O9 0.111564 0.092041 0.868321
O O10 0.500000 0.130695 0.000000
O O11 0.908508 0.695825 0.146832
O O12 0.750000 0.750000 0.000000
O O13 0.622952 0.106318 0.813056
O O14 0.893600 0.070073 0.856978
O O15 0.648093 0.000000 0.803716
O O16 0.000000 0.050338 0.000000
O O17 0.358530 0.909873 0.337237
O O18 0.000000 0.162310 0.000000
O O19 0.381355 0.500000 0.774458
#
# Coordination Sequence:
#
# PCOD8102497 Si02
#       8
#     8   8   8   8   8   8   8   8
#     4  12  18  33  49  76 108 143 177 219 271 324
#     4  10  21  35  52  76 108 142 176 221 270 325
#     4  11  21  37  51  77 113 144 174 223 276 328
#     4  12  21  30  49  77 113 148 181 214 266 334
#     4   9  18  32  50  75 106 135 174 227 267 308
#     4  10  20  37  54  76 106 140 182 226 271 319
#     4  11  19  29  48  77 107 142 181 215 264 329
#     4  10  20  37  59  81 104 140 185 226 273 323
#
# _framework density 17.482949000000001
#
# number of rings (size 3 to 8) (size 9 to 14) (size 15 to 20)
#    0.000    1.375    6.250    1.500    1.750    0.250 
#    0.000    5.000    0.000    0.000    0.000    0.875 
#    0.000    2.000    0.000    0.000    0.000    0.000 
#
# Total GULP energy -396536.693050 kJ/mol
# GULP energy per Si atom -12391.771658 kJ/mol
# Density = 1.744316 g / cm^3
# Si number density = 17.482949 Si / 1000 Ang^3
#
#
#
# Elastic Constant Matrix: (Units=GPa)
#
#
# Indices 1 2 3 4 5 6 
#
# 1 74.3535 56.4882 38.9809 0.0043 -16.1866 0.0021
# 2 56.4882 137.2384 32.9121 -0.0012 -0.0940 -0.0012
# 3 38.9809 32.9121 115.2838 0.0185 -12.1428 -0.0002
# 4 0.0043 -0.0012 0.0185 16.5542 -0.0019 0.8191
# 5 -16.1866 -0.0940 -12.1428 -0.0019 21.8562 -0.0031
# 6 0.0021 -0.0012 -0.0002 0.8191 -0.0031 27.2367
#
#
#
# Elastic Compliance Matrix: (Units=1/GPa)
#
#
# Indices 1 2 3 4 5 6 
#
# 1 0.027416 -0.010196 -0.004488 -0.000001 0.017767 -0.000001
# 2 -0.010196 0.011648 -0.000709 0.000003 -0.007895 0.000000
# 3 -0.004488 -0.000709 0.010668 -0.000011 0.002600 0.000001
# 4 -0.000001 0.000003 -0.000011 0.060498 -0.000001 -0.001819
# 5 0.017767 -0.007895 0.002600 -0.000001 0.060323 0.000005
# 6 -0.000001 0.000000 0.000001 -0.001819 0.000005 0.036770
#
#
# Mechanical properties :
#
#
# Convention : Reuss Voigt Hill
#
# Bulk Modulus (GPa) = 52.78303 64.84869 58.81586
# Shear Modulus (GPa) = 20.45614 26.36238 23.40926
#
# Velocity S-wave (km/s) = 3.42433 3.88737 3.66317
# Velocity P-wave (km/s) = 6.77432 7.57112 7.18378
#
# Compressibility (1/GPa) = 0.01894548
#
# Stress axis : x y z
#
# Youngs Moduli (GPa) = 36.47439 85.85034 93.73694
#
# Poissons Ratio (x) = 0.87536 0.42069
# Poissons Ratio (y) = 0.37191 0.06649
# Poissons Ratio (z) = 0.16370 0.06090
#
# Static dielectric constant tensor:
#      x y z
#    x 3.304230 -0.000060 -0.350410 
#    y -0.000060 3.621180 -0.000010 
#    z -0.350410 -0.000010 3.437390 
# 
# 
# High freq. dielectric constant tensor:
#      x y z
#    x 1.667470 0.000000 -0.032980 
#    y 0.000000 1.669290 0.000000 
#    z -0.032980 0.000000 1.671280 
# 
# From -- ./inp_files/337078.got.cif
#   From: 2010.06.25/outbox.cif.g09.slc.cpg/sg12_169_cif.got.tgz:337078.got - 2010.06.28 00:19:55.
