data_PCOD8102487
_publ_section_title
;
Structure prediction by ZEFSAII (Michael W. Deem and Ramdas Pophale) SiO2 
 PCOD8102487
Probable space group: C 2/M
;
_chemical_formula_sum "Si O2"
_cell_formula_units_Z 48
_cell_length_a 13.641284
_cell_length_b 23.327953
_cell_length_c 7.580905
_cell_angle_alpha 90.000000
_cell_angle_beta 72.202702
_cell_angle_gamma 90.000000
_cell_volume 2296.970851
_symmetry_space_group_name_H-M "C 2/M"
_symmetry_group_IT_number 12
_symmetry_cell_setting 'monoclinic'
loop_
_space_group_symop_operation_xyz
x,y,z
-x,y,-z
-x,-y,-z
x,-y,z
1/2+x,1/2+y,z
1/2-x,1/2+y,-z
1/2-x,1/2-y,-z
1/2+x,1/2-y,z
loop_
_atom_site_type_symbol
_atom_site_label
_atom_site_fract_x
_atom_site_fract_y
_atom_site_fract_z
Si Si1 0.302947 0.233240 0.189303
Si Si2 0.121275 0.152094 0.958125
Si Si3 0.884026 0.273831 0.513246
Si Si4 0.880655 0.500000 0.109233
Si Si5 0.234553 0.388964 0.421733
Si Si6 0.619446 0.000000 0.479077
Si Si7 0.757096 0.389926 0.174959
O O1 0.333868 0.282768 0.031864
O O2 0.183732 0.235772 0.315977
O O3 0.372256 0.249205 0.321091
O O4 0.324038 0.168722 0.108412
O O5 0.168771 0.125820 0.753447
O O6 0.154872 0.114299 0.109216
O O7 0.000000 0.151527 0.000000
O O8 0.850863 0.339782 0.539920
O O9 0.000000 0.265347 0.500000
O O10 0.866912 0.500000 0.322315
O O11 0.825923 0.442683 0.064956
O O12 0.000000 0.500000 0.000000
O O13 0.177595 0.444401 0.372218
O O14 0.273477 0.397416 0.602362
O O15 0.500000 0.000000 0.500000
#
# Coordination Sequence:
#
# PCOD8102487 Si02
#       7
#     8   8   8   4   8   4   8
#     4   9  20  37  55  93 121 158 208 241 302 372
#     4  11  24  39  62  92 120 165 207 246 309 358
#     4   9  17  33  60  85 124 162 193 254 304 355
#     4  10  24  42  64  97 119 160 204 242 323 354
#     4   9  21  40  56  91 124 156 211 244 302 366
#     4  10  20  36  68  89 117 166 200 248 301 360
#     4  10  22  43  62  85 132 156 196 268 290 361
#
# _framework density 20.897086999999999
#
# number of rings (size 3 to 8) (size 9 to 14) (size 15 to 20)
#    0.000    2.333    0.000    2.000    4.667    1.333 
#    6.000    1.667    0.000    3.000    0.000    0.000 
#    0.000    0.000    0.000    0.000    0.000    0.000 
#
# Total GULP energy -297538.516496 kJ/mol
# GULP energy per Si atom -12397.438187 kJ/mol
# Density = 2.084952 g / cm^3
# Si number density = 20.897087 Si / 1000 Ang^3
#
#
#
# Elastic Constant Matrix: (Units=GPa)
#
#
# Indices 1 2 3 4 5 6 
#
# 1 148.2925 47.8482 35.8683 0.0000 -14.5860 0.0000
# 2 47.8482 152.1682 30.9116 0.0000 -11.2856 0.0000
# 3 35.8683 30.9116 63.2243 0.0000 1.8175 0.0000
# 4 0.0000 0.0000 0.0000 20.3282 0.0000 0.2201
# 5 -14.5860 -11.2856 1.8175 0.0000 29.0266 0.0000
# 6 0.0000 0.0000 0.0000 0.2201 0.0000 27.1641
#
#
#
# Elastic Compliance Matrix: (Units=1/GPa)
#
#
# Indices 1 2 3 4 5 6 
#
# 1 0.008677 -0.001562 -0.004274 0.000000 0.004020 0.000000
# 2 -0.001562 0.007860 -0.003028 0.000000 0.002461 0.000000
# 3 -0.004274 -0.003028 0.019853 0.000000 -0.004568 0.000000
# 4 0.000000 0.000000 0.000000 0.049197 0.000000 -0.000399
# 5 0.004020 0.002461 -0.004568 0.000000 0.037714 0.000000
# 6 0.000000 0.000000 0.000000 -0.000399 0.000000 0.036816
#
#
# Mechanical properties :
#
#
# Convention : Reuss Voigt Hill
#
# Bulk Modulus (GPa) = 53.58385 65.88235 59.73310
# Shear Modulus (GPa) = 27.16400 31.90757 29.53578
#
# Velocity S-wave (km/s) = 3.60932 3.91178 3.76359
# Velocity P-wave (km/s) = 6.56254 7.21098 6.89439
#
# Compressibility (1/GPa) = 0.01866234
#
# Stress axis : x y z
#
# Youngs Moduli (GPa) = 115.25112 127.22065 50.36937
#
# Poissons Ratio (x) = 0.19870 0.21530
# Poissons Ratio (y) = 0.18000 0.15251
# Poissons Ratio (z) = 0.49263 0.38520
#
# Static dielectric constant tensor:
#      x y z
#    x 3.500330 0.000000 0.275700 
#    y 0.000000 4.273380 0.000000 
#    z 0.275700 0.000000 3.775320 
# 
# 
# High freq. dielectric constant tensor:
#      x y z
#    x 1.805670 0.000000 0.023480 
#    y 0.000000 1.823830 0.000000 
#    z 0.023480 0.000000 1.813900 
# 
# From -- ./inp_files/51364.got.cif
#   From: 2010.06.25/outbox.cif.g09.slc.cpg/sg12_26_cif.got.tgz:51364.got - 2010.06.28 00:19:55.
