data_PCOD8102820
_publ_section_title
;
Structure prediction by ZEFSAII (Michael W. Deem and Ramdas Pophale) SiO2 
 PCOD8102820
Probable space group: C 2/M
;
_chemical_formula_sum "Si O2"
_cell_formula_units_Z 56
_cell_length_a 8.862917
_cell_length_b 21.144773
_cell_length_c 14.044056
_cell_angle_alpha 90.000000
_cell_angle_beta 93.124654
_cell_angle_gamma 90.000000
_cell_volume 2628.004590
_symmetry_space_group_name_H-M "C 2/M"
_symmetry_group_IT_number 12
_symmetry_cell_setting 'monoclinic'
loop_
_space_group_symop_operation_xyz
x,y,z
-x,y,-z
-x,-y,-z
x,-y,z
1/2+x,1/2+y,z
1/2-x,1/2+y,-z
1/2-x,1/2-y,-z
1/2+x,1/2-y,z
loop_
_atom_site_type_symbol
_atom_site_label
_atom_site_fract_x
_atom_site_fract_y
_atom_site_fract_z
Si Si1 0.887870 0.569725 0.582488
Si Si2 0.955739 0.184868 0.099514
Si Si3 0.056676 0.261276 0.721608
Si Si4 0.057351 0.601372 0.776280
Si Si5 0.142881 0.366065 0.061294
Si Si6 0.716510 0.794625 0.409176
Si Si7 0.825587 0.930919 0.904866
O O1 0.806415 0.500000 0.575407
O O2 0.772090 0.629447 0.570340
O O3 0.000000 0.577504 0.500000
O O4 0.989043 0.570664 0.680285
O O5 0.017698 0.225603 0.190361
O O6 0.772049 0.183292 0.099855
O O7 0.034351 0.116039 0.107050
O O8 0.000000 0.217003 0.000000
O O9 0.117207 0.327253 0.763568
O O10 0.183549 0.217479 0.680224
O O11 0.949670 0.276089 0.629038
O O12 0.208761 0.565575 0.812672
O O13 0.922967 0.597861 0.849425
O O14 0.228102 0.414411 0.994660
O O15 0.000000 0.334190 0.000000
O O16 0.750000 0.750000 0.500000
O O17 0.898423 0.000000 0.919314
#
# Coordination Sequence:
#
# PCOD8102820 Si02
#       7
#     8   8   8   8   8   8   8
#     4  10  21  37  59  88 119 153 196 244 296 354
#     4  10  21  36  54  82 119 157 190 238 296 349
#     4  11  22  38  62  90 118 152 201 243 296 365
#     4  10  20  37  59  84 112 148 194 246 292 343
#     4   9  20  36  54  79 110 153 201 238 284 342
#     4  11  22  40  65  91 120 156 198 251 305 359
#     4  10  21  36  55  82 116 154 195 239 295 356
#
# _framework density 21.308941999999998
#
# number of rings (size 3 to 8) (size 9 to 14) (size 15 to 20)
#    0.000    1.857    0.000    5.143    0.000    7.429 
#    0.000    7.857    0.000    1.714    0.000    0.000 
#    0.000    0.000    0.000    0.000    0.000    0.000 
#
# Total GULP energy -346964.941852 kJ/mol
# GULP energy per Si atom -12391.605066 kJ/mol
# Density = 2.126044 g / cm^3
# Si number density = 21.308942 Si / 1000 Ang^3
#
#
#
# Elastic Constant Matrix: (Units=GPa)
#
#
# Indices 1 2 3 4 5 6 
#
# 1 80.2941 22.5099 15.7883 0.0000 0.3624 0.0000
# 2 22.5099 165.1000 34.5545 0.0000 -8.2409 0.0000
# 3 15.7883 34.5545 117.3700 0.0000 -0.5838 0.0000
# 4 0.0000 0.0000 0.0000 99.6274 0.0000 1.3367
# 5 0.3624 -8.2409 -0.5838 0.0000 32.0351 0.0000
# 6 0.0000 0.0000 0.0000 1.3367 0.0000 23.2464
#
#
#
# Elastic Compliance Matrix: (Units=1/GPa)
#
#
# Indices 1 2 3 4 5 6 
#
# 1 0.013149 -0.001546 -0.001317 0.000000 -0.000570 0.000000
# 2 -0.001546 0.006722 -0.001763 0.000000 0.001715 0.000000
# 3 -0.001317 -0.001763 0.009215 0.000000 -0.000271 0.000000
# 4 0.000000 0.000000 0.000000 0.010045 0.000000 -0.000578
# 5 -0.000570 0.001715 -0.000271 0.000000 0.031658 0.000000
# 6 0.000000 0.000000 0.000000 -0.000578 0.000000 0.043051
#
#
# Mechanical properties :
#
#
# Convention : Reuss Voigt Hill
#
# Bulk Modulus (GPa) = 50.41280 56.49664 53.45472
# Shear Modulus (GPa) = 38.54999 50.30921 44.42960
#
# Velocity S-wave (km/s) = 4.25797 4.86423 4.57116
# Velocity P-wave (km/s) = 6.91976 7.62353 7.28016
#
# Compressibility (1/GPa) = 0.01983623
#
# Stress axis : x y z
#
# Youngs Moduli (GPa) = 76.05153 148.76167 108.52179
#
# Poissons Ratio (x) = 0.22994 0.14287
# Poissons Ratio (y) = 0.11755 0.19128
# Poissons Ratio (z) = 0.10013 0.26221
#
# Static dielectric constant tensor:
#      x y z
#    x 3.866530 0.000000 0.155490 
#    y 0.000000 3.923720 0.000000 
#    z 0.155490 0.000000 4.131860 
# 
# 
# High freq. dielectric constant tensor:
#      x y z
#    x 1.818130 0.000000 0.004770 
#    y 0.000000 1.832420 0.000000 
#    z 0.004770 0.000000 1.852630 
# 
# From -- ./inp_files/197511.got.cif
#   From: 2010.06.25/outbox.cif.g09.slc.cpg/sg12_99_cif.got.tgz:197511.got - 2010.06.28 00:19:55.
