data_PCOD8102719
_publ_section_title
;
Structure prediction by ZEFSAII (Michael W. Deem and Ramdas Pophale) SiO2 
 PCOD8102719
Probable space group: C 2/M
;
_chemical_formula_sum "Si O2"
_cell_formula_units_Z 52
_cell_length_a 13.817172
_cell_length_b 18.914334
_cell_length_c 10.905580
_cell_angle_alpha 90.000000
_cell_angle_beta 117.079416
_cell_angle_gamma 90.000000
_cell_volume 2537.655293
_symmetry_space_group_name_H-M "C 2/M"
_symmetry_group_IT_number 12
_symmetry_cell_setting 'monoclinic'
loop_
_space_group_symop_operation_xyz
x,y,z
-x,y,-z
-x,-y,-z
x,-y,z
1/2+x,1/2+y,z
1/2-x,1/2+y,-z
1/2-x,1/2-y,-z
1/2+x,1/2-y,z
loop_
_atom_site_type_symbol
_atom_site_label
_atom_site_fract_x
_atom_site_fract_y
_atom_site_fract_z
Si Si1 0.184767 0.000000 0.909051
Si Si2 0.062692 0.349975 0.166856
Si Si3 0.528586 0.500000 0.376905
Si Si4 0.029997 0.717130 0.645314
Si Si5 0.783789 0.224769 0.779215
Si Si6 0.575127 0.651764 0.326451
Si Si7 0.403793 0.368993 0.030109
Si Si8 0.892647 0.500000 0.860296
O O1 0.182671 0.930837 0.993269
O O2 0.292049 0.000000 0.893011
O O3 0.079469 0.000000 0.763918
O O4 0.168828 0.301698 0.221191
O O5 0.106863 0.428970 0.220438
O O6 0.991856 0.328010 0.244146
O O7 0.000000 0.345177 0.000000
O O8 0.500000 0.500000 0.500000
O O9 0.595174 0.572292 0.388209
O O10 0.156889 0.734072 0.719818
O O11 0.000000 0.676404 0.500000
O O12 0.951700 0.787330 0.589815
O O13 0.817176 0.170741 0.689155
O O14 0.838076 0.196109 0.935334
O O15 0.463528 0.659509 0.184675
O O16 0.500000 0.399799 0.000000
O O17 0.000000 0.500000 0.000000
#
# Coordination Sequence:
#
# PCOD8102719 Si02
#       8
#     4   8   4   8   8   8   8   4
#     4  10  21  34  58  87 120 162 193 240 316 346
#     4  10  23  42  63  90 122 154 201 253 297 353
#     4  10  20  37  58  85 122 155 198 244 298 366
#     4  11  24  41  61  87 121 163 204 243 295 361
#     4  10  21  36  63  87 118 157 196 246 305 349
#     4   9  20  37  57  91 121 149 195 251 297 352
#     4   9  18  34  58  93 119 147 194 252 302 353
#     4  10  24  41  57  86 122 158 199 249 295 361
#
# _framework density 20.491357000000001
#
# number of rings (size 3 to 8) (size 9 to 14) (size 15 to 20)
#    0.000    2.154    0.000    3.000    8.615    5.538 
#    2.769    1.154    0.000    0.000    0.000    0.000 
#    0.000    0.000    0.000    0.000    0.000    0.000 
#
# Total GULP energy -322224.371989 kJ/mol
# GULP energy per Si atom -12393.245077 kJ/mol
# Density = 2.044472 g / cm^3
# Si number density = 20.491357 Si / 1000 Ang^3
#
#
#
# Elastic Constant Matrix: (Units=GPa)
#
#
# Indices 1 2 3 4 5 6 
#
# 1 121.9496 56.4241 17.5556 0.0000 -10.4646 0.0000
# 2 56.4241 157.2929 22.0306 0.0000 -19.1352 0.0000
# 3 17.5556 22.0306 65.3275 0.0000 -27.3525 0.0000
# 4 0.0000 0.0000 0.0000 12.3498 0.0000 -5.7857
# 5 -10.4646 -19.1352 -27.3525 0.0000 24.6788 0.0000
# 6 0.0000 0.0000 0.0000 -5.7857 0.0000 17.8707
#
#
#
# Elastic Compliance Matrix: (Units=1/GPa)
#
#
# Indices 1 2 3 4 5 6 
#
# 1 0.009979 -0.003375 -0.001619 0.000000 -0.000179 0.000000
# 2 -0.003375 0.008162 0.000383 0.000000 0.005322 0.000000
# 3 -0.001619 0.000383 0.028828 0.000000 0.031562 0.000000
# 4 0.000000 0.000000 0.000000 0.095451 0.000000 0.030903
# 5 -0.000179 0.005322 0.031562 0.000000 0.079552 0.000000
# 6 0.000000 0.000000 0.000000 0.030903 0.000000 0.065962
#
#
# Mechanical properties :
#
#
# Convention : Reuss Voigt Hill
#
# Bulk Modulus (GPa) = 26.49174 59.62120 43.05647
# Shear Modulus (GPa) = 16.14261 27.55051 21.84656
#
# Velocity S-wave (km/s) = 2.80978 3.67071 3.26872
# Velocity P-wave (km/s) = 4.84591 6.86472 5.94169
#
# Compressibility (1/GPa) = 0.03774762
#
# Stress axis : x y z
#
# Youngs Moduli (GPa) = 100.20812 122.51910 34.68800
#
# Poissons Ratio (x) = 0.41348 0.05615
# Poissons Ratio (y) = 0.33819 -0.01327
# Poissons Ratio (z) = 0.16221 -0.04687
#
# Static dielectric constant tensor:
#      x y z
#    x 3.629560 0.000000 -0.268120 
#    y 0.000000 4.291490 0.000000 
#    z -0.268120 0.000000 3.681400 
# 
# 
# High freq. dielectric constant tensor:
#      x y z
#    x 1.802400 0.000000 -0.016500 
#    y 0.000000 1.803070 0.000000 
#    z -0.016500 0.000000 1.784750 
# 
# From -- ./inp_files/133390.got.cif
#   From: 2010.06.25/outbox.cif.g09.slc.cpg/sg12_67_cif.got.tgz:133390.got - 2010.06.28 00:19:55.
