data_PCOD8102923
_publ_section_title
;
Structure prediction by ZEFSAII (Michael W. Deem and Ramdas Pophale) SiO2 
 PCOD8102923
Probable space group: C 2/M
;
_chemical_formula_sum "Si O2"
_cell_formula_units_Z 48
_cell_length_a 25.999687
_cell_length_b 10.748601
_cell_length_c 9.424277
_cell_angle_alpha 90.000000
_cell_angle_beta 112.454413
_cell_angle_gamma 90.000000
_cell_volume 2434.032751
_symmetry_space_group_name_H-M "C 2/M"
_symmetry_group_IT_number 12
_symmetry_cell_setting 'monoclinic'
loop_
_space_group_symop_operation_xyz
x,y,z
-x,y,-z
-x,-y,-z
x,-y,z
1/2+x,1/2+y,z
1/2-x,1/2+y,-z
1/2-x,1/2-y,-z
1/2+x,1/2-y,z
loop_
_atom_site_type_symbol
_atom_site_label
_atom_site_fract_x
_atom_site_fract_y
_atom_site_fract_z
Si Si1 0.004104 0.756016 0.168040
Si Si2 0.280198 0.359555 0.116728
Si Si3 0.407475 0.360678 0.546882
Si Si4 0.028921 0.500000 0.318414
Si Si5 0.398720 0.740770 0.246968
Si Si6 0.410830 0.000000 0.341296
Si Si7 0.282505 0.644033 0.448640
O O1 0.046970 0.852486 0.282235
O O2 0.030281 0.619721 0.218586
O O3 0.942995 0.774294 0.168688
O O4 0.000000 0.787834 0.000000
O O5 0.263652 0.500000 0.048430
O O6 0.346469 0.347178 0.161919
O O7 0.265314 0.344184 0.266104
O O8 0.250000 0.250000 0.000000
O O9 0.401277 0.500000 0.486320
O O10 0.428026 0.285887 0.429794
O O11 0.346951 0.318076 0.538084
O O12 0.082985 0.500000 0.479842
O O13 0.973311 0.500000 0.350058
O O14 0.377648 0.882928 0.242082
O O15 0.271095 0.500000 0.488101
O O16 0.250000 0.750000 0.500000
#
# Coordination Sequence:
#
# PCOD8102923 Si02
#       7
#     8   8   8   4   8   4   8
#     4  11  22  35  54  85 120 153 185 235 295 346
#     4  10  23  41  63  89 119 154 199 246 294 353
#     4  10  21  38  59  81 112 152 194 238 284 344
#     4   9  17  34  52  80 116 148 190 234 277 336
#     4  10  20  37  60  82 115 151 197 240 285 343
#     4   9  16  30  60  84 104 150 198 240 271 337
#     4   9  20  41  62  87 118 151 195 246 294 348
#
# _framework density 19.720359999999999
#
# number of rings (size 3 to 8) (size 9 to 14) (size 15 to 20)
#    0.000    2.167    1.667    2.250    1.167    4.333 
#    6.000    1.667    0.000    0.000    0.000    0.000 
#    0.000    0.000    0.000    0.000    0.000    0.000 
#
# Total GULP energy -297490.544892 kJ/mol
# GULP energy per Si atom -12395.439371 kJ/mol
# Density = 1.967548 g / cm^3
# Si number density = 19.720360 Si / 1000 Ang^3
#
#
#
# Elastic Constant Matrix: (Units=GPa)
#
#
# Indices 1 2 3 4 5 6 
#
# 1 82.8669 53.0237 48.7072 0.0000 -16.6396 0.0000
# 2 53.0237 116.8980 39.9332 0.0000 -8.3635 0.0000
# 3 48.7072 39.9332 110.4148 0.0000 -8.6587 0.0000
# 4 0.0000 0.0000 0.0000 30.6248 0.0000 2.8761
# 5 -16.6396 -8.3635 -8.6587 0.0000 26.8508 0.0000
# 6 0.0000 0.0000 0.0000 2.8761 0.0000 29.2819
#
#
#
# Elastic Compliance Matrix: (Units=1/GPa)
#
#
# Indices 1 2 3 4 5 6 
#
# 1 0.022491 -0.007284 -0.006537 0.000000 0.009561 0.000000
# 2 -0.007284 0.012220 -0.001295 0.000000 -0.001125 0.000000
# 3 -0.006537 -0.001295 0.012372 0.000000 -0.000465 0.000000
# 4 0.000000 0.000000 0.000000 0.032957 0.000000 -0.003237
# 5 0.009561 -0.001125 -0.000465 0.000000 0.042667 0.000000
# 6 0.000000 0.000000 0.000000 -0.003237 0.000000 0.034469
#
#
# Mechanical properties :
#
#
# Convention : Reuss Voigt Hill
#
# Bulk Modulus (GPa) = 59.34294 65.94532 62.64413
# Shear Modulus (GPa) = 25.90332 28.58588 27.24460
#
# Velocity S-wave (km/s) = 3.62820 3.81144 3.72095
# Velocity P-wave (km/s) = 6.90719 7.27202 7.09195
#
# Compressibility (1/GPa) = 0.01685120
#
# Stress axis : x y z
#
# Youngs Moduli (GPa) = 44.46297 81.83096 80.82642
#
# Poissons Ratio (x) = 0.59609 0.52836
# Poissons Ratio (y) = 0.32389 0.10463
# Poissons Ratio (z) = 0.29066 0.10593
#
# Static dielectric constant tensor:
#      x y z
#    x 3.349790 0.000000 0.054340 
#    y 0.000000 3.880650 0.000000 
#    z 0.054340 0.000000 3.413940 
# 
# 
# High freq. dielectric constant tensor:
#      x y z
#    x 1.747720 0.000000 0.003830 
#    y 0.000000 1.787150 0.000000 
#    z 0.003830 0.000000 1.753710 
# 
# From -- ./inp_files/95017.got.cif
#   From: 2010.06.25/outbox.cif.g09.slc.cpg/sg12_48_cif.got.tgz:95017.got - 2010.06.28 00:19:55.
