data_PCOD8102409
_publ_section_title
;
Structure prediction by ZEFSAII (Michael W. Deem and Ramdas Pophale) SiO2 
 PCOD8102409
Probable space group: C 2/M
;
_chemical_formula_sum "Si O2"
_cell_formula_units_Z 52
_cell_length_a 13.382335
_cell_length_b 13.360216
_cell_length_c 32.196331
_cell_angle_alpha 90.000000
_cell_angle_beta 25.913641
_cell_angle_gamma 90.000000
_cell_volume 2515.643186
_symmetry_space_group_name_H-M "C 2/M"
_symmetry_group_IT_number 12
_symmetry_cell_setting 'monoclinic'
loop_
_space_group_symop_operation_xyz
x,y,z
-x,y,-z
-x,-y,-z
x,-y,z
1/2+x,1/2+y,z
1/2-x,1/2+y,-z
1/2-x,1/2-y,-z
1/2+x,1/2-y,z
loop_
_atom_site_type_symbol
_atom_site_label
_atom_site_fract_x
_atom_site_fract_y
_atom_site_fract_z
Si Si1 0.804661 0.116381 0.499025
Si Si2 0.789426 0.384302 0.697078
Si Si3 0.137517 0.111420 0.616350
Si Si4 0.890746 0.112936 0.787492
Si Si5 0.000000 0.234413 0.500000
Si Si6 0.974812 0.752557 0.964066
Si Si7 0.449353 0.383083 0.896230
O O1 0.545864 0.163008 0.598425
O O2 0.907379 0.139106 0.414880
O O3 0.973461 0.167240 0.468885
O O4 0.804188 0.000000 0.510014
O O5 0.827387 0.500000 0.673602
O O6 0.617524 0.342959 0.725839
O O7 0.681599 0.365829 0.783032
O O8 0.287068 0.192487 0.584460
O O9 0.910393 0.111964 0.729739
O O10 0.250180 0.000000 0.575795
O O11 0.675735 0.177426 0.878945
O O12 0.849818 0.000000 0.819494
O O13 0.985294 0.847610 0.929879
O O14 0.000000 0.800090 0.000000
O O15 0.744707 0.687457 0.050176
O O16 0.378025 0.500000 0.922215
#
# Coordination Sequence:
#
# PCOD8102409 Si02
#       7
#     8   8   8   8   4   8   8
#     4  10  22  40  60  85 120 157 196 240 291 346
#     4   9  18  35  60  86 114 153 193 238 288 339
#     4  10  22  39  57  85 121 154 194 241 292 344
#     4  10  20  36  63  90 116 152 197 246 289 339
#     4  12  22  36  60  88 112 158 202 242 282 344
#     4  11  22  38  63  92 116 151 197 242 286 349
#     4  10  22  39  60  90 123 153 189 238 294 347
#
# _framework density 20.670658
#
# number of rings (size 3 to 8) (size 9 to 14) (size 15 to 20)
#    0.000    1.846    1.538    2.308    2.154    3.385 
#    0.000    0.000    0.000    0.000    0.000    1.077 
#    0.000    0.000    0.000    0.000    0.000    0.000 
#
# Total GULP energy -322227.218766 kJ/mol
# GULP energy per Si atom -12393.354568 kJ/mol
# Density = 2.062361 g / cm^3
# Si number density = 20.670658 Si / 1000 Ang^3
#
#
#
# Elastic Constant Matrix: (Units=GPa)
#
#
# Indices 1 2 3 4 5 6 
#
# 1 127.8802 27.6734 51.9143 0.0235 17.3262 0.0043
# 2 27.6734 57.5334 6.7705 0.0094 9.9632 0.0032
# 3 51.9143 6.7705 54.2471 -0.0178 27.3500 0.0074
# 4 0.0235 0.0094 -0.0178 33.4795 0.0100 8.2667
# 5 17.3262 9.9632 27.3500 0.0100 31.4963 0.0009
# 6 0.0043 0.0032 0.0074 8.2667 0.0009 42.5787
#
#
#
# Elastic Compliance Matrix: (Units=1/GPa)
#
#
# Indices 1 2 3 4 5 6 
#
# 1 0.015937 -0.007186 -0.019710 -0.000024 0.010621 0.000007
# 2 -0.007186 0.021668 0.010023 0.000009 -0.011605 -0.000004
# 3 -0.019710 0.010023 0.057236 0.000059 -0.042029 -0.000019
# 4 -0.000024 0.000009 0.000059 0.031373 -0.000050 -0.006091
# 5 0.010621 -0.011605 -0.042029 -0.000050 0.066074 0.000015
# 6 0.000007 -0.000004 -0.000019 -0.006091 0.000015 0.024669
#
#
# Mechanical properties :
#
#
# Convention : Reuss Voigt Hill
#
# Bulk Modulus (GPa) = 16.36775 45.81969 31.09372
# Shear Modulus (GPa) = 18.44567 31.73107 25.08837
#
# Velocity S-wave (km/s) = 2.99048 3.92226 3.48763
# Velocity P-wave (km/s) = 4.45640 6.53657 5.59403
#
# Compressibility (1/GPa) = 0.06109575
#
# Stress axis : x y z
#
# Youngs Moduli (GPa) = 62.74603 46.15182 17.47163
#
# Poissons Ratio (x) = 0.33163 0.34437
# Poissons Ratio (y) = 0.45087 -0.17512
# Poissons Ratio (z) = 1.23673 -0.46259
#
# Static dielectric constant tensor:
#      x y z
#    x 3.973510 -0.000030 0.150220 
#    y -0.000030 3.729520 0.000000 
#    z 0.150220 0.000000 3.747990 
# 
# 
# High freq. dielectric constant tensor:
#      x y z
#    x 1.808230 0.000000 0.020310 
#    y 0.000000 1.804680 0.000000 
#    z 0.020310 0.000000 1.803070 
# 
# From -- ./inp_files/374180.got.cif
#   From: 2010.06.25/outbox.cif.g09.slc.cpg/sg12_188_cif.got.tgz:374180.got - 2010.06.28 00:19:55.
