data_PCOD8102941
_publ_section_title
;
Structure prediction by ZEFSAII (Michael W. Deem and Ramdas Pophale) SiO2 
 PCOD8102941
Probable space group: C 2/M
;
_chemical_formula_sum "Si O2"
_cell_formula_units_Z 56
_cell_length_a 19.139450
_cell_length_b 9.179184
_cell_length_c 29.283173
_cell_angle_alpha 90.000000
_cell_angle_beta 146.492972
_cell_angle_gamma 90.000000
_cell_volume 2840.021533
_symmetry_space_group_name_H-M "C 2/M"
_symmetry_group_IT_number 12
_symmetry_cell_setting 'monoclinic'
loop_
_space_group_symop_operation_xyz
x,y,z
-x,y,-z
-x,-y,-z
x,-y,z
1/2+x,1/2+y,z
1/2-x,1/2+y,-z
1/2-x,1/2-y,-z
1/2+x,1/2-y,z
loop_
_atom_site_type_symbol
_atom_site_label
_atom_site_fract_x
_atom_site_fract_y
_atom_site_fract_z
Si Si1 0.847780 0.672778 0.140511
Si Si2 0.687214 0.165321 0.568785
Si Si3 0.030532 0.165954 0.305089
Si Si4 0.022674 0.672299 0.153418
Si Si5 0.962188 0.165749 0.587658
Si Si6 0.707990 0.666556 0.667997
Si Si7 0.419104 0.172023 0.000393
O O1 0.833316 0.500000 0.134545
O O2 0.932314 0.724884 0.228695
O O3 0.913003 0.724200 0.128524
O O4 0.712664 0.745585 0.072216
O O5 0.626645 0.233927 0.491034
O O6 0.644893 0.248132 0.591419
O O7 0.838064 0.177131 0.649661
O O8 0.640532 0.000000 0.546486
O O9 0.051943 0.218783 0.368336
O O10 0.978000 0.000000 0.275329
O O11 0.033025 0.500000 0.159502
O O12 0.992630 0.725841 0.085828
O O13 0.158691 0.736389 0.243040
O O14 0.109976 0.179683 0.655953
O O15 0.915108 0.000000 0.556074
O O16 0.727320 0.500000 0.662880
O O17 0.392882 0.000000 0.987326
O O18 0.500000 0.215798 0.000000
#
# Coordination Sequence:
#
# PCOD8102941 Si02
#       7
#     8   8   8   8   8   8   8
#     4  11  22  38  61  86 118 154 189 235 286 342
#     4  11  22  37  57  84 119 152 190 241 292 345
#     4  10  22  39  59  85 114 151 199 241 283 340
#     4   9  19  37  60  87 114 150 195 234 280 336
#     4  10  22  37  59  84 112 153 197 243 287 336
#     4  10  20  37  60  83 113 151 197 240 279 339
#     4  10  22  39  64  91 118 151 188 235 284 337
#
# _framework density 19.718159
#
# number of rings (size 3 to 8) (size 9 to 14) (size 15 to 20)
#    0.000    1.857    1.429    2.143    2.000    3.714 
#    0.000    1.429    0.000    0.000    0.000    0.000 
#    0.000    0.000    0.000    0.000    0.000    0.000 
#
# Total GULP energy -347290.452008 kJ/mol
# GULP energy per Si atom -12403.230429 kJ/mol
# Density = 1.967328 g / cm^3
# Si number density = 19.718159 Si / 1000 Ang^3
#
#
#
# Elastic Constant Matrix: (Units=GPa)
#
#
# Indices 1 2 3 4 5 6 
#
# 1 75.3484 29.5115 30.8774 0.0000 -11.7499 0.0000
# 2 29.5115 67.9776 41.7637 0.0000 -4.1104 0.0000
# 3 30.8774 41.7637 109.9729 0.0000 -9.3958 0.0000
# 4 0.0000 0.0000 0.0000 31.8818 0.0000 3.0966
# 5 -11.7499 -4.1104 -9.3958 0.0000 33.3807 0.0000
# 6 0.0000 0.0000 0.0000 3.0966 0.0000 21.1427
#
#
#
# Elastic Compliance Matrix: (Units=1/GPa)
#
#
# Indices 1 2 3 4 5 6 
#
# 1 0.017193 -0.005818 -0.002215 0.000000 0.004712 0.000000
# 2 -0.005818 0.021160 -0.006511 0.000000 -0.001275 0.000000
# 3 -0.002215 -0.006511 0.012350 0.000000 0.001895 0.000000
# 4 0.000000 0.000000 0.000000 0.031818 0.000000 -0.004660
# 5 0.004712 -0.001275 0.001895 0.000000 0.031992 0.000000
# 6 0.000000 0.000000 0.000000 -0.004660 0.000000 0.047980
#
#
# Mechanical properties :
#
#
# Convention : Reuss Voigt Hill
#
# Bulk Modulus (GPa) = 46.26744 50.84491 48.55618
# Shear Modulus (GPa) = 25.15256 27.35746 26.25501
#
# Velocity S-wave (km/s) = 3.57543 3.72886 3.65295
# Velocity P-wave (km/s) = 6.36870 6.66190 6.51695
#
# Compressibility (1/GPa) = 0.02161347
#
# Stress axis : x y z
#
# Youngs Moduli (GPa) = 58.16294 47.25949 80.97399
#
# Poissons Ratio (x) = 0.27497 0.17937
# Poissons Ratio (y) = 0.33841 0.52723
# Poissons Ratio (z) = 0.12884 0.30771
#
# Static dielectric constant tensor:
#      x y z
#    x 3.713690 0.000000 -0.050070 
#    y 0.000000 3.435800 0.000000 
#    z -0.050070 0.000000 3.683690 
# 
# 
# High freq. dielectric constant tensor:
#      x y z
#    x 1.780510 0.000000 -0.000500 
#    y 0.000000 1.748770 0.000000 
#    z -0.000500 0.000000 1.775810 
# 
# From -- ./inp_files/275252.got.cif
#   From: 2010.06.25/outbox.cif.g09.slc.cpg/sg12_138_cif.got.tgz:275252.got - 2010.06.28 00:19:55.
