data_PCOD8102096
_publ_section_title
;
Structure prediction by ZEFSAII (Michael W. Deem and Ramdas Pophale) SiO2 
 PCOD8102096
Probable space group: C 2/M
;
_chemical_formula_sum "Si O2"
_cell_formula_units_Z 64
_cell_length_a 28.256114
_cell_length_b 8.621663
_cell_length_c 14.342450
_cell_angle_alpha 90.000000
_cell_angle_beta 107.297909
_cell_angle_gamma 90.000000
_cell_volume 3336.002271
_symmetry_space_group_name_H-M "C 2/M"
_symmetry_group_IT_number 12
_symmetry_cell_setting 'monoclinic'
loop_
_space_group_symop_operation_xyz
x,y,z
-x,y,-z
-x,-y,-z
x,-y,z
1/2+x,1/2+y,z
1/2-x,1/2+y,-z
1/2-x,1/2-y,-z
1/2+x,1/2-y,z
loop_
_atom_site_type_symbol
_atom_site_label
_atom_site_fract_x
_atom_site_fract_y
_atom_site_fract_z
Si Si1 0.409254 0.677866 0.641395
Si Si2 0.685884 0.178836 0.870991
Si Si3 0.351403 0.820461 0.449767
Si Si4 0.495544 0.818834 0.389435
Si Si5 0.201754 0.821681 0.072867
Si Si6 0.246866 0.179818 0.599597
Si Si7 0.335726 0.677003 0.751227
Si Si8 0.603338 0.680197 0.695511
O O1 0.425009 0.500000 0.635828
O O2 0.362616 0.720188 0.548433
O O3 0.454545 0.787460 0.639744
O O4 0.389998 0.706615 0.736717
O O5 0.741231 0.221399 0.866721
O O6 0.644080 0.281001 0.796900
O O7 0.673528 0.000000 0.844331
O O8 0.682667 0.212342 0.979274
O O9 0.298540 0.768213 0.376342
O O10 0.391100 0.785060 0.393508
O O11 0.352228 0.000000 0.477346
O O12 0.500000 0.762811 0.500000
O O13 0.452733 0.724518 0.308396
O O14 0.483911 0.000000 0.378435
O O15 0.164517 0.794308 0.137787
O O16 0.200407 0.000000 0.038167
O O17 0.250000 0.250000 0.500000
O O18 0.296807 0.204484 0.685306
O O19 0.234733 0.000000 0.587108
O O20 0.319140 0.500000 0.720106
O O21 0.607647 0.500000 0.673543
#
# Coordination Sequence:
#
# PCOD8102096 Si02
#       8
#     8   8   8   8   8   8   8   8
#     4  11  22  36  56  81 111 149 194 236 283 339
#     4  10  20  36  60  89 120 152 190 237 287 342
#     4  12  23  36  53  77 112 151 190 233 284 339
#     4  11  23  39  59  82 113 152 194 240 294 347
#     4   9  19  37  60  86 118 155 191 233 284 342
#     4  12  23  34  50  75 110 151 193 233 277 334
#     4  10  21  37  57  81 114 154 194 236 286 344
#     4  12  24  38  60  86 114 148 191 241 292 348
#
# _framework density 19.184640000000002
#
# number of rings (size 3 to 8) (size 9 to 14) (size 15 to 20)
#    0.000    1.125    2.500    5.250    0.000    3.000 
#    0.000    0.000    0.000    0.750    0.000    5.250 
#    0.000    0.000    0.000    0.000    0.000    0.000 
#
# Total GULP energy -396832.144505 kJ/mol
# GULP energy per Si atom -12401.004516 kJ/mol
# Density = 1.914097 g / cm^3
# Si number density = 19.184640 Si / 1000 Ang^3
#
#
#
# Elastic Constant Matrix: (Units=GPa)
#
#
# Indices 1 2 3 4 5 6 
#
# 1 106.3726 27.9302 36.9663 0.0000 -9.4964 0.0000
# 2 27.9302 82.5122 20.4533 0.0000 1.0617 0.0000
# 3 36.9663 20.4533 64.9951 0.0000 -7.7446 0.0000
# 4 0.0000 0.0000 0.0000 28.3250 0.0000 2.1468
# 5 -9.4964 1.0617 -7.7446 0.0000 31.2373 0.0000
# 6 0.0000 0.0000 0.0000 2.1468 0.0000 30.2825
#
#
#
# Elastic Compliance Matrix: (Units=1/GPa)
#
#
# Indices 1 2 3 4 5 6 
#
# 1 0.012388 -0.002764 -0.005890 0.000000 0.002400 0.000000
# 2 -0.002764 0.013832 -0.003026 0.000000 -0.002061 0.000000
# 3 -0.005890 -0.003026 0.020080 0.000000 0.003291 0.000000
# 4 0.000000 0.000000 0.000000 0.035495 0.000000 -0.002516
# 5 0.002400 -0.002061 0.003291 0.000000 0.033628 0.000000
# 6 0.000000 0.000000 0.000000 -0.002516 0.000000 0.033201
#
#
# Mechanical properties :
#
#
# Convention : Reuss Voigt Hill
#
# Bulk Modulus (GPa) = 43.59323 47.17551 45.38437
# Shear Modulus (GPa) = 27.83493 29.20431 28.51962
#
# Velocity S-wave (km/s) = 3.81320 3.90587 3.85981
# Velocity P-wave (km/s) = 6.49304 6.70706 6.60092
#
# Compressibility (1/GPa) = 0.02293934
#
# Stress axis : x y z
#
# Youngs Moduli (GPa) = 80.72502 72.29772 49.80070
#
# Poissons Ratio (x) = 0.19984 0.29332
# Poissons Ratio (y) = 0.22313 0.15070
# Poissons Ratio (z) = 0.47546 0.21878
#
# Static dielectric constant tensor:
#      x y z
#    x 3.703910 0.000000 -0.054660 
#    y 0.000000 3.483280 0.000000 
#    z -0.054660 0.000000 3.302810 
# 
# 
# High freq. dielectric constant tensor:
#      x y z
#    x 1.747030 0.000000 -0.009440 
#    y 0.000000 1.755380 0.000000 
#    z -0.009440 0.000000 1.715820 
# 
# From -- ./inp_files/244171.got.cif
#   From: 2010.06.25/outbox.cif.g09.slc.cpg/sg12_123_cif.got.tgz:244171.got - 2010.06.28 00:19:55.
