data_PCOD8102802
_publ_section_title
;
Structure prediction by ZEFSAII (Michael W. Deem and Ramdas Pophale) SiO2 
 PCOD8102802
Probable space group: C 2/M
;
_chemical_formula_sum "Si O2"
_cell_formula_units_Z 44
_cell_length_a 16.883801
_cell_length_b 29.268403
_cell_length_c 5.036011
_cell_angle_alpha 90.000000
_cell_angle_beta 113.374302
_cell_angle_gamma 90.000000
_cell_volume 2284.371553
_symmetry_space_group_name_H-M "C 2/M"
_symmetry_group_IT_number 12
_symmetry_cell_setting 'monoclinic'
loop_
_space_group_symop_operation_xyz
x,y,z
-x,y,-z
-x,-y,-z
x,-y,z
1/2+x,1/2+y,z
1/2-x,1/2+y,-z
1/2-x,1/2-y,-z
1/2+x,1/2-y,z
loop_
_atom_site_type_symbol
_atom_site_label
_atom_site_fract_x
_atom_site_fract_y
_atom_site_fract_z
Si Si1 0.558150 0.551372 0.833030
Si Si2 0.094852 0.317816 0.217660
Si Si3 0.560777 0.000000 0.323152
Si Si4 0.727291 0.607315 0.050742
Si Si5 0.703781 0.796342 0.860536
Si Si6 0.332556 0.912438 0.673848
O O1 0.500000 0.549757 0.500000
O O2 0.594666 0.500000 0.940540
O O3 0.633279 0.587453 0.868339
O O4 0.500000 0.568799 0.000000
O O5 0.139139 0.290153 0.521334
O O6 0.098986 0.371630 0.291349
O O7 0.148966 0.310579 0.033042
O O8 0.000000 0.301604 0.000000
O O9 0.500000 0.000000 0.500000
O O10 0.620786 0.043305 0.371235
O O11 0.500000 0.000000 0.000000
O O12 0.796950 0.587674 0.928777
O O13 0.726131 0.662787 0.071726
O O14 0.749919 0.591261 0.375889
O O15 0.750000 0.750000 0.000000
#
# Coordination Sequence:
#
# PCOD8102802 Si02
#       6
#     8   8   4   8   8   8
#     4  10  21  36  56  82 110 145 185 236 287 333
#     4  10  20  37  59  83 112 149 191 229 281 343
#     4  12  24  36  52  82 118 148 184 230 276 314
#     4  10  21  38  58  81 110 150 190 228 287 345
#     4  10  21  38  59  84 114 147 189 241 287 340
#     4  10  22  35  56  82 111 153 187 228 272 332
#
# _framework density 19.261315
#
# number of rings (size 3 to 8) (size 9 to 14) (size 15 to 20)
#    0.000    1.818    0.000    3.818    2.545    2.909 
#    0.000    2.727    0.000    0.000    0.000    0.000 
#    0.000    0.000    0.000    0.000    0.000    0.000 
#
# Total GULP energy -272586.370141 kJ/mol
# GULP energy per Si atom -12390.289552 kJ/mol
# Density = 1.921748 g / cm^3
# Si number density = 19.261315 Si / 1000 Ang^3
#
#
#
# Elastic Constant Matrix: (Units=GPa)
#
#
# Indices 1 2 3 4 5 6 
#
# 1 74.8003 42.8472 31.1103 0.0000 2.4568 0.0000
# 2 42.8472 139.3073 50.1753 0.0000 15.7107 0.0000
# 3 31.1103 50.1753 124.9397 0.0000 -1.5283 0.0000
# 4 0.0000 0.0000 0.0000 27.2847 0.0000 -0.2907
# 5 2.4568 15.7107 -1.5283 0.0000 41.5192 0.0000
# 6 0.0000 0.0000 0.0000 -0.2907 0.0000 6.8562
#
#
#
# Elastic Compliance Matrix: (Units=1/GPa)
#
#
# Indices 1 2 3 4 5 6 
#
# 1 0.016870 -0.004375 -0.002437 0.000000 0.000568 0.000000
# 2 -0.004375 0.010005 -0.002973 0.000000 -0.003636 0.000000
# 3 -0.002437 -0.002973 0.009825 0.000000 0.001631 0.000000
# 4 0.000000 0.000000 0.000000 0.036667 0.000000 0.001555
# 5 0.000568 -0.003636 0.001631 0.000000 0.025488 0.000000
# 6 0.000000 0.000000 0.000000 0.001555 0.000000 0.145919
#
#
# Mechanical properties :
#
#
# Convention : Reuss Voigt Hill
#
# Bulk Modulus (GPa) = 58.37802 65.25701 61.81752
# Shear Modulus (GPa) = 18.51491 29.45964 23.98728
#
# Velocity S-wave (km/s) = 3.10376 3.91509 3.53279
# Velocity P-wave (km/s) = 6.57409 7.37500 6.98603
#
# Compressibility (1/GPa) = 0.01712973
#
# Stress axis : x y z
#
# Youngs Moduli (GPa) = 59.27725 99.95055 101.78634
#
# Poissons Ratio (x) = 0.43729 0.24802
# Poissons Ratio (y) = 0.25934 0.30261
# Poissons Ratio (z) = 0.14444 0.29715
#
# Static dielectric constant tensor:
#      x y z
#    x 3.393200 0.000000 -0.066830 
#    y 0.000000 -7.486970 0.000000 
#    z -0.066830 0.000000 4.022780 
# 
# 
# High freq. dielectric constant tensor:
#      x y z
#    x 1.745100 0.000000 -0.016120 
#    y 0.000000 1.740370 0.000000 
#    z -0.016120 0.000000 1.768920 
# 
# From -- ./inp_files/12111.got.cif
#   From: 2010.06.25/outbox.cif.g09.slc.cpg/sg12_7_cif.got.tgz:12111.got - 2010.06.28 00:19:55.
