data_PCOD8102525
_publ_section_title
;
Structure prediction by ZEFSAII (Michael W. Deem and Ramdas Pophale) SiO2 
 PCOD8102525
Probable space group: C 2/M
;
_chemical_formula_sum "Si O2"
_cell_formula_units_Z 56
_cell_length_a 14.847610
_cell_length_b 22.757421
_cell_length_c 9.412509
_cell_angle_alpha 90.000000
_cell_angle_beta 67.107301
_cell_angle_gamma 90.000000
_cell_volume 2929.917698
_symmetry_space_group_name_H-M "C 2/M"
_symmetry_group_IT_number 12
_symmetry_cell_setting 'monoclinic'
loop_
_space_group_symop_operation_xyz
x,y,z
-x,y,-z
-x,-y,-z
x,-y,z
1/2+x,1/2+y,z
1/2-x,1/2+y,-z
1/2-x,1/2-y,-z
1/2+x,1/2-y,z
loop_
_atom_site_type_symbol
_atom_site_label
_atom_site_fract_x
_atom_site_fract_y
_atom_site_fract_z
Si Si1 0.998247 0.566008 0.342016
Si Si2 0.632625 0.237041 0.199455
Si Si3 0.345296 0.851252 0.291304
Si Si4 0.240271 0.652777 0.936758
Si Si5 0.221130 0.433647 0.178860
Si Si6 0.056035 0.764860 0.821595
Si Si7 0.251094 0.331022 0.357643
O O1 0.954731 0.500000 0.375126
O O2 0.106157 0.565774 0.210636
O O3 0.000000 0.592934 0.500000
O O4 0.929484 0.604798 0.286212
O O5 0.674585 0.300131 0.132053
O O6 0.516227 0.250267 0.267612
O O7 0.676504 0.213253 0.321293
O O8 0.651515 0.187125 0.069398
O O9 0.284177 0.878953 0.198410
O O10 0.385799 0.794512 0.184795
O O11 0.275556 0.829706 0.460718
O O12 0.276559 0.599935 0.017076
O O13 0.261070 0.500000 0.172093
O O14 0.238394 0.398249 0.314158
O O15 0.135376 0.814245 0.731495
O O16 0.000000 0.784294 0.000000
#
# Coordination Sequence:
#
# PCOD8102525 Si02
#       7
#     8   8   8   8   8   8   8
#     4  10  21  36  55  81 114 155 192 229 282 342
#     4  10  20  38  55  77 115 157 185 234 279 344
#     4  12  22  35  55  87 119 147 188 239 280 341
#     4  10  20  37  56  78 117 148 189 233 286 331
#     4  10  21  38  59  81 112 154 194 231 281 344
#     4  12  22  35  59  82 114 156 194 231 285 342
#     4  11  23  38  57  87 118 151 192 234 287 347
#
# _framework density 19.113166
#
# number of rings (size 3 to 8) (size 9 to 14) (size 15 to 20)
#    0.000    1.286    4.286    3.857    0.000    0.571 
#    0.000    1.429    0.000    3.857    0.000    0.000 
#    0.000    6.857    0.000    0.000    0.000    0.000 
#
# Total GULP energy -347061.961230 kJ/mol
# GULP energy per Si atom -12395.070044 kJ/mol
# Density = 1.906966 g / cm^3
# Si number density = 19.113166 Si / 1000 Ang^3
#
#
#
# Elastic Constant Matrix: (Units=GPa)
#
#
# Indices 1 2 3 4 5 6 
#
# 1 64.6505 20.1230 17.8902 0.0000 3.3683 0.0000
# 2 20.1230 98.3677 11.4173 0.0000 -3.4965 0.0000
# 3 17.8902 11.4173 79.8619 0.0000 14.0846 0.0000
# 4 0.0000 0.0000 0.0000 18.0132 0.0000 -5.4392
# 5 3.3683 -3.4965 14.0846 0.0000 25.1623 0.0000
# 6 0.0000 0.0000 0.0000 -5.4392 0.0000 19.7596
#
#
#
# Elastic Compliance Matrix: (Units=1/GPa)
#
#
# Indices 1 2 3 4 5 6 
#
# 1 0.017425 -0.003218 -0.003277 0.000000 -0.000946 0.000000
# 2 -0.003218 0.011077 -0.001343 0.000000 0.002722 0.000000
# 3 -0.003277 -0.001343 0.014871 0.000000 -0.008072 0.000000
# 4 0.000000 0.000000 0.000000 0.060548 0.000000 0.016667
# 5 -0.000946 0.002722 -0.008072 0.000000 0.044765 0.000000
# 6 0.000000 0.000000 0.000000 0.016667 0.000000 0.055196
#
#
# Mechanical properties :
#
#
# Convention : Reuss Voigt Hill
#
# Bulk Modulus (GPa) = 36.10280 37.97122 37.03701
# Shear Modulus (GPa) = 21.85410 25.48366 23.66888
#
# Velocity S-wave (km/s) = 3.38510 3.65541 3.52284
# Velocity P-wave (km/s) = 5.84880 6.14212 5.99725
#
# Compressibility (1/GPa) = 0.02769868
#
# Stress axis : x y z
#
# Youngs Moduli (GPa) = 57.38746 90.27863 67.24407
#
# Poissons Ratio (x) = 0.29052 0.22034
# Poissons Ratio (y) = 0.18467 0.09029
# Poissons Ratio (z) = 0.18804 0.12121
#
# Static dielectric constant tensor:
#      x y z
#    x 3.422220 0.000000 0.072770 
#    y 0.000000 3.549760 0.000000 
#    z 0.072770 0.000000 3.436650 
# 
# 
# High freq. dielectric constant tensor:
#      x y z
#    x 1.723770 0.000000 0.011300 
#    y 0.000000 1.730200 0.000000 
#    z 0.011300 0.000000 1.739880 
# 
# From -- ./inp_files/65292.got.cif
#   From: 2010.06.25/outbox.cif.g09.slc.cpg/sg12_33_cif.got.tgz:65292.got - 2010.06.28 00:19:55.
