data_PCOD8102547
_publ_section_title
;
Structure prediction by ZEFSAII (Michael W. Deem and Ramdas Pophale) SiO2 
 PCOD8102547
Probable space group: C 2/M
;
_chemical_formula_sum "Si O2"
_cell_formula_units_Z 56
_cell_length_a 25.550845
_cell_length_b 8.554638
_cell_length_c 19.169330
_cell_angle_alpha 90.000000
_cell_angle_beta 48.696179
_cell_angle_gamma 90.000000
_cell_volume 3147.610948
_symmetry_space_group_name_H-M "C 2/M"
_symmetry_group_IT_number 12
_symmetry_cell_setting 'monoclinic'
loop_
_space_group_symop_operation_xyz
x,y,z
-x,y,-z
-x,-y,-z
x,-y,z
1/2+x,1/2+y,z
1/2-x,1/2+y,-z
1/2-x,1/2-y,-z
1/2+x,1/2-y,z
loop_
_atom_site_type_symbol
_atom_site_label
_atom_site_fract_x
_atom_site_fract_y
_atom_site_fract_z
Si Si1 0.018538 0.184754 0.587555
Si Si2 0.107854 0.684956 0.899032
Si Si3 0.103057 0.683503 0.389072
Si Si4 0.748977 0.314445 0.288177
Si Si5 0.508879 0.815259 0.102898
Si Si6 0.791705 0.813884 0.397917
Si Si7 0.947958 0.816027 0.288120
O O1 0.075367 0.269524 0.489543
O O2 0.030610 0.248219 0.654923
O O3 0.940770 0.228542 0.632080
O O4 0.030037 0.000000 0.571090
O O5 0.105129 0.500000 0.896534
O O6 0.185671 0.745161 0.815804
O O7 0.056364 0.749986 0.884534
O O8 0.079994 0.736765 0.000164
O O9 0.094868 0.500000 0.385391
O O10 0.182727 0.734230 0.311181
O O11 0.740519 0.500000 0.294040
O O12 0.757464 0.260015 0.359866
O O13 0.505824 0.741062 0.182153
O O14 0.505528 0.000000 0.113708
O O15 0.750000 0.750000 0.500000
O O16 0.871382 0.754916 0.334312
O O17 0.786491 0.000000 0.399128
O O18 0.948343 0.000000 0.289950
#
# Coordination Sequence:
#
# PCOD8102547 Si02
#       7
#     8   8   8   8   8   8   8
#     4  10  20  37  57  76 102 140 179 215 258 312
#     4   8  16  30  51  77 103 134 174 213 252 306
#     4  11  22  36  54  79 105 133 176 224 262 306
#     4  11  20  34  54  76 104 140 175 212 258 310
#     4   9  16  31  53  76 102 135 174 212 252 308
#     4  11  22  34  48  73 108 141 172 208 256 312
#     4  10  21  34  50  76 107 135 168 211 260 309
#
# _framework density 17.791270999999998
#
# number of rings (size 3 to 8) (size 9 to 14) (size 15 to 20)
#    0.000    2.000    1.429    5.143    0.000    2.857 
#    0.000    2.857    0.000    0.857    0.000    0.000 
#    0.000    0.000    0.000    0.000    0.000    0.000 
#
# Total GULP energy -347186.412268 kJ/mol
# GULP energy per Si atom -12399.514724 kJ/mol
# Density = 1.775078 g / cm^3
# Si number density = 17.791271 Si / 1000 Ang^3
#
#
#
# Elastic Constant Matrix: (Units=GPa)
#
#
# Indices 1 2 3 4 5 6 
#
# 1 75.6233 6.1657 35.6202 0.0060 -10.2752 -0.0007
# 2 6.1657 37.5586 10.5065 0.0241 -1.3470 -0.0020
# 3 35.6202 10.5065 108.9316 0.0068 -10.4148 -0.0041
# 4 0.0060 0.0241 0.0068 26.0234 -0.0066 2.6283
# 5 -10.2752 -1.3470 -10.4148 -0.0066 28.7905 0.0030
# 6 -0.0007 -0.0020 -0.0041 2.6283 0.0030 24.0461
#
#
#
# Elastic Compliance Matrix: (Units=1/GPa)
#
#
# Indices 1 2 3 4 5 6 
#
# 1 0.016107 -0.001166 -0.004775 0.000000 0.003966 -0.000001
# 2 -0.001166 0.027451 -0.002262 -0.000025 0.000050 0.000005
# 3 -0.004775 -0.002262 0.011173 0.000001 0.002232 0.000001
# 4 0.000000 -0.000025 0.000001 0.038856 0.000008 -0.004247
# 5 0.003966 0.000050 0.002232 0.000008 0.036959 -0.000005
# 6 -0.000001 0.000005 0.000001 -0.004247 -0.000005 0.042051
#
#
# Mechanical properties :
#
#
# Convention : Reuss Voigt Hill
#
# Bulk Modulus (GPa) = 26.09255 36.29979 31.19617
# Shear Modulus (GPa) = 24.77984 27.09342 25.93663
#
# Velocity S-wave (km/s) = 3.73608 3.90660 3.82229
# Velocity P-wave (km/s) = 5.77138 6.38719 6.08708
#
# Compressibility (1/GPa) = 0.03832512
#
# Stress axis : x y z
#
# Youngs Moduli (GPa) = 62.08628 36.42860 89.50134
#
# Poissons Ratio (x) = 0.04248 0.42738
# Poissons Ratio (y) = 0.07240 0.20241
# Poissons Ratio (z) = 0.29647 0.08239
#
# Static dielectric constant tensor:
#      x y z
#    x 3.350460 -0.000010 -0.081470 
#    y -0.000010 3.179590 0.000000 
#    z -0.081470 0.000000 3.579560 
# 
# 
# High freq. dielectric constant tensor:
#      x y z
#    x 1.672300 0.000000 -0.004270 
#    y 0.000000 1.682670 0.000000 
#    z -0.004270 0.000000 1.691840 
# 
# From -- ./inp_files/291844.got.cif
#   From: 2010.06.25/outbox.cif.g09.slc.cpg/sg12_146_cif.got.tgz:291844.got - 2010.06.28 00:19:55.
