data_PCOD8102592
_publ_section_title
;
Structure prediction by ZEFSAII (Michael W. Deem and Ramdas Pophale) SiO2 
 PCOD8102592
Probable space group: C 2/M
;
_chemical_formula_sum "Si O2"
_cell_formula_units_Z 64
_cell_length_a 25.047367
_cell_length_b 17.341693
_cell_length_c 22.339800
_cell_angle_alpha 90.000000
_cell_angle_beta 19.770593
_cell_angle_gamma 90.000000
_cell_volume 3282.290679
_symmetry_space_group_name_H-M "C 2/M"
_symmetry_group_IT_number 12
_symmetry_cell_setting 'monoclinic'
loop_
_space_group_symop_operation_xyz
x,y,z
-x,y,-z
-x,-y,-z
x,-y,z
1/2+x,1/2+y,z
1/2-x,1/2+y,-z
1/2-x,1/2-y,-z
1/2+x,1/2-y,z
loop_
_atom_site_type_symbol
_atom_site_label
_atom_site_fract_x
_atom_site_fract_y
_atom_site_fract_z
Si Si1 0.571409 0.088631 0.103967
Si Si2 0.368226 0.584765 0.182228
Si Si3 0.394440 0.413700 0.828960
Si Si4 0.162349 0.676684 0.567051
Si Si5 0.520626 0.366239 0.817960
Si Si6 0.670461 0.772281 0.929676
Si Si7 0.840055 0.720615 0.634903
Si Si8 0.496827 0.725577 0.647676
O O1 0.419078 0.125114 0.296212
O O2 0.539544 0.000000 0.118186
O O3 0.712726 0.093538 0.002514
O O4 0.614928 0.139080 0.998876
O O5 0.305601 0.500000 0.229922
O O6 0.466137 0.576365 0.140580
O O7 0.224037 0.644481 0.330872
O O8 0.500000 0.618102 0.000000
O O9 0.457542 0.500000 0.750326
O O10 0.402174 0.394097 0.891373
O O11 0.503877 0.355974 0.675010
O O12 0.250000 0.750000 0.500000
O O13 0.299888 0.627007 0.393474
O O14 0.036538 0.704749 0.650595
O O15 0.468591 0.282591 0.898722
O O16 0.713119 0.758913 0.814499
O O17 0.822747 0.754524 0.808878
O O18 0.882703 0.779955 0.536010
O O19 0.000000 0.696562 0.500000
#
# Coordination Sequence:
#
# PCOD8102592 Si02
#       8
#     8   8   8   8   8   8   8   8
#     4  10  22  39  57  83 118 151 186 232 287 337
#     4  11  23  38  56  81 113 147 187 237 284 333
#     4  10  21  37  57  83 118 153 184 231 286 338
#     4  12  21  34  56  86 110 147 185 230 284 334
#     4  12  21  35  60  84 111 149 191 229 280 343
#     4  10  20  37  61  82 109 152 194 232 272 336
#     4  10  21  38  60  83 110 151 195 234 277 331
#     4  10  20  37  57  84 115 147 193 231 275 338
#
# _framework density 19.498577999999998
#
# number of rings (size 3 to 8) (size 9 to 14) (size 15 to 20)
#    0.000    1.375    5.000    1.125    0.000    3.250 
#    0.000    0.625    0.000    3.750    0.000    1.750 
#    0.000    0.000    0.000    0.000    0.000    0.000 
#
# Total GULP energy -396573.953613 kJ/mol
# GULP energy per Si atom -12392.936050 kJ/mol
# Density = 1.945420 g / cm^3
# Si number density = 19.498578 Si / 1000 Ang^3
#
#
#
# Elastic Constant Matrix: (Units=GPa)
#
#
# Indices 1 2 3 4 5 6 
#
# 1 80.9401 30.8683 26.9510 -0.0006 14.8671 0.0039
# 2 30.8683 108.3870 51.0322 0.0127 8.3516 -0.0043
# 3 26.9510 51.0322 99.3828 -0.0025 18.0782 0.0103
# 4 -0.0006 0.0127 -0.0025 23.7649 0.0055 -4.0023
# 5 14.8671 8.3516 18.0782 0.0055 24.6595 -0.0026
# 6 0.0039 -0.0043 0.0103 -4.0023 -0.0026 21.2796
#
#
#
# Elastic Compliance Matrix: (Units=1/GPa)
#
#
# Indices 1 2 3 4 5 6 
#
# 1 0.015320 -0.003257 -0.001157 0.000003 -0.007285 -0.000003
# 2 -0.003257 0.012867 -0.006102 -0.000007 0.002079 0.000005
# 3 -0.001157 -0.006102 0.015008 0.000005 -0.008238 -0.000008
# 4 0.000003 -0.000007 0.000005 0.043455 -0.000012 0.008173
# 5 -0.007285 0.002079 -0.008238 -0.000012 0.050280 0.000010
# 6 -0.000003 0.000005 -0.000008 0.008173 0.000010 0.048531
#
#
# Mechanical properties :
#
#
# Convention : Reuss Voigt Hill
#
# Bulk Modulus (GPa) = 45.12053 56.26810 50.69432
# Shear Modulus (GPa) = 23.37760 25.93135 24.65448
#
# Velocity S-wave (km/s) = 3.46633 3.65075 3.55973
# Velocity P-wave (km/s) = 6.26189 6.83307 6.55370
#
# Compressibility (1/GPa) = 0.02216286
#
# Stress axis : x y z
#
# Youngs Moduli (GPa) = 65.27247 77.72096 66.63270
#
# Poissons Ratio (x) = 0.25315 0.07709
# Poissons Ratio (y) = 0.21260 0.40658
# Poissons Ratio (z) = 0.07551 0.47424
#
# Static dielectric constant tensor:
#      x y z
#    x 3.733170 0.000000 -0.006460 
#    y 0.000000 3.482740 0.000070 
#    z -0.006460 0.000070 3.497070 
# 
# 
# High freq. dielectric constant tensor:
#      x y z
#    x 1.761740 0.000000 0.002280 
#    y 0.000000 1.745190 0.000000 
#    z 0.002280 0.000000 1.760970 
# 
# From -- ./inp_files/326090.got.cif
#   From: 2010.06.25/outbox.cif.g09.slc.cpg/sg12_164_cif.got.tgz:326090.got - 2010.06.28 00:19:55.
