data_PCOD8102471
_publ_section_title
;
Structure prediction by ZEFSAII (Michael W. Deem and Ramdas Pophale) SiO2 
 PCOD8102471
Probable space group: C 2/M
;
_chemical_formula_sum "Si O2"
_cell_formula_units_Z 56
_cell_length_a 17.948200
_cell_length_b 13.587472
_cell_length_c 21.361116
_cell_angle_alpha 90.000000
_cell_angle_beta 31.864529
_cell_angle_gamma 90.000000
_cell_volume 2750.081518
_symmetry_space_group_name_H-M "C 2/M"
_symmetry_group_IT_number 12
_symmetry_cell_setting 'monoclinic'
loop_
_space_group_symop_operation_xyz
x,y,z
-x,y,-z
-x,-y,-z
x,-y,z
1/2+x,1/2+y,z
1/2-x,1/2+y,-z
1/2-x,1/2-y,-z
1/2+x,1/2-y,z
loop_
_atom_site_type_symbol
_atom_site_label
_atom_site_fract_x
_atom_site_fract_y
_atom_site_fract_z
Si Si1 0.167841 0.883658 0.153914
Si Si2 0.871270 0.885467 0.136310
Si Si3 0.576231 0.385340 0.760188
Si Si4 0.700679 0.243716 0.464317
Si Si5 0.616784 0.737640 0.312027
Si Si6 0.021301 0.615879 0.054696
Si Si7 0.753025 0.116646 0.675467
O O1 0.118892 0.837981 0.253659
O O2 0.066827 0.845265 0.170393
O O3 0.158555 0.000000 0.169174
O O4 0.328386 0.851105 0.024187
O O5 0.930130 0.858947 0.162584
O O6 0.731810 0.823205 0.220630
O O7 0.830441 0.000000 0.158442
O O8 0.000000 0.855816 0.000000
O O9 0.588182 0.500000 0.740053
O O10 0.715854 0.341132 0.630500
O O11 0.750000 0.250000 0.500000
O O12 0.537107 0.213088 0.576629
O O13 0.731842 0.347749 0.407030
O O14 0.633533 0.673626 0.363070
O O15 0.012466 0.500000 0.054277
O O16 0.899588 0.650808 0.188791
O O17 0.000000 0.661828 0.000000
O O18 0.777152 0.000000 0.661535
#
# Coordination Sequence:
#
# PCOD8102471 Si02
#       7
#     8   8   8   8   8   8   8
#     4  10  20  36  64  99 129 165 205 254 329 393
#     4  10  24  46  69  95 126 167 220 269 314 372
#     4  10  22  44  68  88 124 172 216 265 318 374
#     4  12  26  44  58  91 131 168 222 260 308 383
#     4  12  23  38  69  93 127 166 212 268 314 386
#     4   9  17  33  58  92 131 160 196 246 310 394
#     4  11  24  41  65  98 133 167 206 264 328 381
#
# _framework density 20.363033000000001
#
# number of rings (size 3 to 8) (size 9 to 14) (size 15 to 20)
#    0.000    1.429    4.286    0.857    2.000    2.857 
#    2.571    2.857    0.000    0.000    0.000    0.000 
#    0.000    0.000    0.000    0.000    0.000    0.000 
#
# Total GULP energy -347219.004668 kJ/mol
# GULP energy per Si atom -12400.678738 kJ/mol
# Density = 2.031669 g / cm^3
# Si number density = 20.363033 Si / 1000 Ang^3
#
#
#
# Elastic Constant Matrix: (Units=GPa)
#
#
# Indices 1 2 3 4 5 6 
#
# 1 152.2274 49.9157 95.2758 -0.0004 -9.5299 0.0004
# 2 49.9157 48.8107 40.6634 -0.0018 -6.1308 -0.0001
# 3 95.2758 40.6634 145.9505 -0.0027 -11.5677 -0.0002
# 4 -0.0004 -0.0018 -0.0027 36.0665 0.0006 1.4673
# 5 -9.5299 -6.1308 -11.5677 0.0006 47.0499 0.0000
# 6 0.0004 -0.0001 -0.0002 1.4673 0.0000 19.6600
#
#
#
# Elastic Compliance Matrix: (Units=1/GPa)
#
#
# Indices 1 2 3 4 5 6 
#
# 1 0.013252 -0.008259 -0.006346 -0.000001 0.000048 0.000000
# 2 -0.008259 0.031959 -0.003381 0.000001 0.001660 0.000000
# 3 -0.006346 -0.003381 0.012034 0.000001 0.001233 0.000000
# 4 -0.000001 0.000001 0.000001 0.027811 0.000000 -0.002076
# 5 0.000048 0.001660 0.001233 0.000000 0.021783 0.000000
# 6 0.000000 0.000000 0.000000 -0.002076 0.000000 0.051020
#
#
# Mechanical properties :
#
#
# Convention : Reuss Voigt Hill
#
# Bulk Modulus (GPa) = 47.00925 79.85540 63.43232
# Shear Modulus (GPa) = 24.88528 31.29752 28.09140
#
# Velocity S-wave (km/s) = 3.49962 3.92468 3.71823
# Velocity P-wave (km/s) = 6.28216 7.73554 7.04642
#
# Compressibility (1/GPa) = 0.02127241
#
# Stress axis : x y z
#
# Youngs Moduli (GPa) = 75.45883 31.29035 83.09847
#
# Poissons Ratio (x) = 0.25844 0.52735
# Poissons Ratio (y) = 0.62325 0.28093
# Poissons Ratio (z) = 0.47886 0.10578
#
# Static dielectric constant tensor:
#      x y z
#    x 3.916670 0.000000 -0.209990 
#    y 0.000000 3.640870 0.000010 
#    z -0.209990 0.000010 3.835810 
# 
# 
# High freq. dielectric constant tensor:
#      x y z
#    x 1.797710 0.000000 -0.004020 
#    y 0.000000 1.793300 0.000000 
#    z -0.004020 0.000000 1.805930 
# 
# From -- ./inp_files/316719.got.cif
#   From: 2010.06.25/outbox.cif.g09.slc.cpg/sg12_159_cif.got.tgz:316719.got - 2010.06.28 00:19:55.
