data_PCOD8102385
_publ_section_title
;
Structure prediction by ZEFSAII (Michael W. Deem and Ramdas Pophale) SiO2 
 PCOD8102385
Probable space group: C 2/M
;
_chemical_formula_sum "Si O2"
_cell_formula_units_Z 56
_cell_length_a 11.252275
_cell_length_b 26.277277
_cell_length_c 8.287665
_cell_angle_alpha 90.000000
_cell_angle_beta 76.072113
_cell_angle_gamma 90.000000
_cell_volume 2378.443955
_symmetry_space_group_name_H-M "C 2/M"
_symmetry_group_IT_number 12
_symmetry_cell_setting 'monoclinic'
loop_
_space_group_symop_operation_xyz
x,y,z
-x,y,-z
-x,-y,-z
x,-y,z
1/2+x,1/2+y,z
1/2-x,1/2+y,-z
1/2-x,1/2-y,-z
1/2+x,1/2-y,z
loop_
_atom_site_type_symbol
_atom_site_label
_atom_site_fract_x
_atom_site_fract_y
_atom_site_fract_z
Si Si1 0.418451 0.943649 0.798911
Si Si2 0.602308 0.443388 0.349489
Si Si3 0.395941 0.743546 0.404861
Si Si4 0.255474 0.584992 0.412114
Si Si5 0.390391 0.345681 0.156874
Si Si6 0.743216 0.116953 0.930704
Si Si7 0.604766 0.852981 0.677938
O O1 0.322854 0.949113 0.683252
O O2 0.512581 0.899797 0.722462
O O3 0.477352 0.000000 0.803202
O O4 0.350130 0.928109 0.987134
O O5 0.500000 0.418716 0.500000
O O6 0.564505 0.500000 0.303332
O O7 0.718904 0.446965 0.433227
O O8 0.633769 0.408696 0.184934
O O9 0.500000 0.723707 0.500000
O O10 0.250000 0.750000 0.500000
O O11 0.400708 0.706528 0.250024
O O12 0.453183 0.797663 0.330294
O O13 0.378335 0.605622 0.281072
O O14 0.186224 0.636410 0.492430
O O15 0.500000 0.353555 0.000000
O O16 0.270864 0.348033 0.077826
O O17 0.683742 0.152385 0.814925
#
# Coordination Sequence:
#
# PCOD8102385 Si02
#       7
#     8   8   8   8   8   8   8
#     4  11  23  40  65 102 144 191 238 299 377 445
#     4  10  20  36  62  94 132 182 237 294 352 425
#     4  12  28  50  78 110 145 193 249 313 379 446
#     4  10  21  40  63  93 136 182 242 294 355 428
#     4  11  25  43  70 101 136 186 240 304 372 442
#     4  10  24  41  64  98 143 182 236 295 369 434
#     4  11  24  43  69  97 141 185 236 300 356 447
#
# _framework density 23.544805
#
# number of rings (size 3 to 8) (size 9 to 14) (size 15 to 20)
#    0.000    1.286    1.429    3.429    4.000    6.857 
#    0.000    0.000    0.000    6.857    0.000    0.000 
#    0.000    0.000    0.000    0.000    0.000    0.000 
#
# Total GULP energy -346892.499200 kJ/mol
# GULP energy per Si atom -12389.017829 kJ/mol
# Density = 2.349122 g / cm^3
# Si number density = 23.544805 Si / 1000 Ang^3
#
#
#
# Elastic Constant Matrix: (Units=GPa)
#
#
# Indices 1 2 3 4 5 6 
#
# 1 74.0595 28.1030 32.5233 0.0000 -9.1272 0.0000
# 2 28.1030 130.9972 42.6906 0.0000 2.3281 0.0000
# 3 32.5233 42.6906 130.5155 0.0000 2.0153 0.0000
# 4 0.0000 0.0000 0.0000 22.0519 0.0000 0.5280
# 5 -9.1272 2.3281 2.0153 0.0000 34.3190 0.0000
# 6 0.0000 0.0000 0.0000 0.5280 0.0000 20.2016
#
#
#
# Elastic Compliance Matrix: (Units=1/GPa)
#
#
# Indices 1 2 3 4 5 6 
#
# 1 0.016529 -0.002535 -0.003363 0.000000 0.004765 0.000000
# 2 -0.002535 0.008939 -0.002275 0.000000 -0.001147 0.000000
# 3 -0.003363 -0.002275 0.009264 0.000000 -0.001284 0.000000
# 4 0.000000 0.000000 0.000000 0.045376 0.000000 -0.001186
# 5 0.004765 -0.001147 -0.001284 0.000000 0.030559 0.000000
# 6 0.000000 0.000000 0.000000 -0.001186 0.000000 0.049532
#
#
# Mechanical properties :
#
#
# Convention : Reuss Voigt Hill
#
# Bulk Modulus (GPa) = 54.38711 60.24510 57.31611
# Shear Modulus (GPa) = 27.37134 30.79817 29.08476
#
# Velocity S-wave (km/s) = 3.41328 3.62064 3.51849
# Velocity P-wave (km/s) = 6.21961 6.56671 6.39551
#
# Compressibility (1/GPa) = 0.01838671
#
# Stress axis : x y z
#
# Youngs Moduli (GPa) = 60.50071 111.86747 107.94603
#
# Poissons Ratio (x) = 0.28353 0.36306
# Poissons Ratio (y) = 0.15334 0.24554
# Poissons Ratio (z) = 0.20349 0.25446
#
# Static dielectric constant tensor:
#      x y z
#    x 4.566490 0.000000 0.105020 
#    y 0.000000 3.908110 0.000000 
#    z 0.105020 0.000000 4.503300 
# 
# 
# High freq. dielectric constant tensor:
#      x y z
#    x 1.935350 0.000000 0.007290 
#    y 0.000000 1.913620 0.000000 
#    z 0.007290 0.000000 1.948250 
# 
# From -- ./inp_files/53207.got.cif
#   From: 2010.06.25/outbox.cif.g09.slc.cpg/sg12_27_cif.got.tgz:53207.got - 2010.06.28 00:19:55.
