data_PCOD8102110
_publ_section_title
;
Structure prediction by ZEFSAII (Michael W. Deem and Ramdas Pophale) SiO2 
 PCOD8102110
Probable space group: C 2/M
;
_chemical_formula_sum "Si O2"
_cell_formula_units_Z 64
_cell_length_a 17.253391
_cell_length_b 24.538016
_cell_length_c 14.369619
_cell_angle_alpha 90.000000
_cell_angle_beta 148.097465
_cell_angle_gamma 90.000000
_cell_volume 3215.024946
_symmetry_space_group_name_H-M "C 2/M"
_symmetry_group_IT_number 12
_symmetry_cell_setting 'monoclinic'
loop_
_space_group_symop_operation_xyz
x,y,z
-x,y,-z
-x,-y,-z
x,-y,z
1/2+x,1/2+y,z
1/2-x,1/2+y,-z
1/2-x,1/2-y,-z
1/2+x,1/2-y,z
loop_
_atom_site_type_symbol
_atom_site_label
_atom_site_fract_x
_atom_site_fract_y
_atom_site_fract_z
Si Si1 0.860352 0.357898 0.742463
Si Si2 0.158287 0.061153 0.205357
Si Si3 0.816851 0.938258 0.554330
Si Si4 0.071172 0.062573 0.669458
Si Si5 0.686041 0.857653 0.099961
Si Si6 0.168541 0.752262 0.819217
Si Si7 0.670149 0.835000 0.671291
Si Si8 0.320303 0.253330 0.471244
O O1 0.809917 0.398456 0.610292
O O2 0.846675 0.382569 0.831376
O O3 0.758833 0.305259 0.652487
O O4 0.030547 0.346225 0.890214
O O5 0.146989 0.075326 0.302620
O O6 0.254698 0.106133 0.251583
O O7 0.224064 0.000000 0.257988
O O8 0.000000 0.064173 0.000000
O O9 0.960984 0.927776 0.641364
O O10 0.760814 0.000000 0.484827
O O11 0.216098 0.095514 0.847790
O O12 0.000000 0.084389 0.500000
O O13 0.116198 0.000000 0.703289
O O14 0.776257 0.801688 0.188408
O O15 0.210249 0.697327 0.806389
O O16 0.994991 0.760525 0.655870
O O17 0.250000 0.750000 0.000000
O O18 0.500000 0.847028 0.500000
O O19 0.717176 0.799771 0.628774
O O20 0.250000 0.250000 0.500000
#
# Coordination Sequence:
#
# PCOD8102110 Si02
#       8
#     8   8   8   8   8   8   8   8
#     4  11  22  36  57  88 123 165 208 255 310 370
#     4  10  23  43  66  92 121 157 207 261 308 363
#     4  10  21  39  63  90 123 166 213 260 318 381
#     4  10  20  36  60  89 123 167 213 256 315 379
#     4  11  23  36  57  87 128 164 209 255 304 373
#     4  11  24  41  61  91 126 162 205 257 308 367
#     4  10  23  41  63  90 121 157 201 249 304 366
#     4  11  22  39  62  87 123 163 205 252 311 372
#
# _framework density 19.906533
#
# number of rings (size 3 to 8) (size 9 to 14) (size 15 to 20)
#    0.000    1.500    2.500    2.250    0.000    5.750 
#    0.000    1.250    0.000    3.000    0.000    0.000 
#    0.000    0.000    0.000    0.000    0.000    0.000 
#
# Total GULP energy -396714.015164 kJ/mol
# GULP energy per Si atom -12397.312974 kJ/mol
# Density = 1.986122 g / cm^3
# Si number density = 19.906533 Si / 1000 Ang^3
#
#
#
# Elastic Constant Matrix: (Units=GPa)
#
#
# Indices 1 2 3 4 5 6 
#
# 1 111.3325 57.7435 54.4516 0.0000 -0.6052 0.0000
# 2 57.7435 132.0726 68.2988 0.0000 11.5176 0.0000
# 3 54.4516 68.2988 121.8551 0.0000 2.6010 0.0000
# 4 0.0000 0.0000 0.0000 20.5977 0.0000 5.1037
# 5 -0.6052 11.5176 2.6010 0.0000 33.1578 0.0000
# 6 0.0000 0.0000 0.0000 5.1037 0.0000 34.0483
#
#
#
# Elastic Compliance Matrix: (Units=1/GPa)
#
#
# Indices 1 2 3 4 5 6 
#
# 1 0.012753 -0.003902 -0.003552 0.000000 0.001867 0.000000
# 2 -0.003902 0.012215 -0.005019 0.000000 -0.003920 0.000000
# 3 -0.003552 -0.005019 0.012592 0.000000 0.000691 0.000000
# 4 0.000000 0.000000 0.000000 0.050422 0.000000 -0.007558
# 5 0.001867 -0.003920 0.000691 0.000000 0.031501 0.000000
# 6 0.000000 0.000000 0.000000 -0.007558 0.000000 0.030503
#
#
# Mechanical properties :
#
#
# Convention : Reuss Voigt Hill
#
# Bulk Modulus (GPa) = 79.27268 80.69420 79.98344
# Shear Modulus (GPa) = 27.91180 29.87850 28.89515
#
# Velocity S-wave (km/s) = 3.74858 3.87840 3.81404
# Velocity P-wave (km/s) = 7.65798 7.78977 7.72416
#
# Compressibility (1/GPa) = 0.01261469
#
# Stress axis : x y z
#
# Youngs Moduli (GPa) = 78.41253 81.86672 79.41573
#
# Poissons Ratio (x) = 0.31944 0.28206
# Poissons Ratio (y) = 0.30596 0.39860
# Poissons Ratio (z) = 0.27849 0.41090
#
# Static dielectric constant tensor:
#      x y z
#    x 3.584050 0.000000 0.173950 
#    y 0.000000 4.048310 0.000000 
#    z 0.173950 0.000000 3.329020 
# 
# 
# High freq. dielectric constant tensor:
#      x y z
#    x 1.781980 0.000000 -0.000490 
#    y 0.000000 1.779140 0.000000 
#    z -0.000490 0.000000 1.774620 
# 
# From -- ./inp_files/113624.got.cif
#   From: 2010.06.25/outbox.cif.g09.slc.cpg/sg12_57_cif.got.tgz:113624.got - 2010.06.28 00:19:55.
