data_PCOD8102237
_publ_section_title
;
Structure prediction by ZEFSAII (Michael W. Deem and Ramdas Pophale) SiO2 
 PCOD8102237
Probable space group: C 2/M
;
_chemical_formula_sum "Si O2"
_cell_formula_units_Z 56
_cell_length_a 19.348444
_cell_length_b 8.872942
_cell_length_c 20.869134
_cell_angle_alpha 90.000000
_cell_angle_beta 125.791367
_cell_angle_gamma 90.000000
_cell_volume 2906.165418
_symmetry_space_group_name_H-M "C 2/M"
_symmetry_group_IT_number 12
_symmetry_cell_setting 'monoclinic'
loop_
_space_group_symop_operation_xyz
x,y,z
-x,y,-z
-x,-y,-z
x,-y,z
1/2+x,1/2+y,z
1/2-x,1/2+y,-z
1/2-x,1/2-y,-z
1/2+x,1/2-y,z
loop_
_atom_site_type_symbol
_atom_site_label
_atom_site_fract_x
_atom_site_fract_y
_atom_site_fract_z
Si Si1 0.160228 0.674879 0.638167
Si Si2 0.992149 0.178476 0.376451
Si Si3 0.598861 0.332420 0.043081
Si Si4 0.658556 0.823850 0.951697
Si Si5 0.772987 0.327305 0.803370
Si Si6 0.887293 0.170207 0.196632
Si Si7 0.672757 0.824466 0.496289
O O1 0.153282 0.500000 0.652573
O O2 0.068150 0.750150 0.601461
O O3 0.234561 0.751449 0.719395
O O4 0.186636 0.699136 0.579198
O O5 0.954582 0.221410 0.286678
O O6 0.086014 0.244210 0.428935
O O7 0.992903 0.000000 0.387803
O O8 0.637554 0.500000 0.052600
O O9 0.642097 0.259629 0.129392
O O10 0.500000 0.345737 0.000000
O O11 0.609891 0.226369 0.988306
O O12 0.603505 0.776994 0.859736
O O13 0.670650 0.000000 0.959307
O O14 0.750000 0.750000 0.000000
O O15 0.794452 0.500000 0.798520
O O16 0.707641 0.316494 0.826879
O O17 0.905913 0.000000 0.184618
O O18 0.750000 0.750000 0.500000
O O19 0.667339 0.000000 0.475627
#
# Coordination Sequence:
#
# PCOD8102237 Si02
#       7
#     8   8   8   8   8   8   8
#     4  10  21  38  62  90 119 154 196 242 291 349
#     4  10  21  38  63  91 120 154 195 245 293 347
#     4  11  24  41  60  84 117 159 200 243 296 352
#     4  12  23  36  60  88 118 156 198 245 295 347
#     4  10  20  36  61  89 118 153 195 244 292 346
#     4   9  19  36  58  88 119 150 192 244 294 344
#     4  11  24  41  61  87 121 159 197 241 295 353
#
# _framework density 19.269376999999999
#
# number of rings (size 3 to 8) (size 9 to 14) (size 15 to 20)
#    0.000    1.571    1.429    4.714    0.000    8.000 
#    2.571    0.000    0.000    0.000    0.000    0.000 
#    0.000    0.000    0.000    0.000    0.000    0.000 
#
# Total GULP energy -347308.498540 kJ/mol
# GULP energy per Si atom -12403.874948 kJ/mol
# Density = 1.922552 g / cm^3
# Si number density = 19.269377 Si / 1000 Ang^3
#
#
#
# Elastic Constant Matrix: (Units=GPa)
#
#
# Indices 1 2 3 4 5 6 
#
# 1 88.1188 53.1795 49.6581 0.0000 1.9329 0.0000
# 2 53.1795 158.8341 68.0530 0.0000 -1.9232 0.0000
# 3 49.6581 68.0530 108.8525 0.0000 4.7999 0.0000
# 4 0.0000 0.0000 0.0000 37.1469 0.0000 0.6046
# 5 1.9329 -1.9232 4.7999 0.0000 28.5856 0.0000
# 6 0.0000 0.0000 0.0000 0.6046 0.0000 31.1358
#
#
#
# Elastic Compliance Matrix: (Units=1/GPa)
#
#
# Indices 1 2 3 4 5 6 
#
# 1 0.016330 -0.003125 -0.005479 0.000000 -0.000395 0.000000
# 2 -0.003125 0.009261 -0.004434 0.000000 0.001579 0.000000
# 3 -0.005479 -0.004434 0.014563 0.000000 -0.002373 0.000000
# 4 0.000000 0.000000 0.000000 0.026929 0.000000 -0.000523
# 5 -0.000395 0.001579 -0.002373 0.000000 0.035514 0.000000
# 6 0.000000 0.000000 0.000000 -0.000523 0.000000 0.032128
#
#
# Mechanical properties :
#
#
# Convention : Reuss Voigt Hill
#
# Bulk Modulus (GPa) = 71.02820 77.50963 74.26892
# Shear Modulus (GPa) = 30.21288 31.70133 30.95710
#
# Velocity S-wave (km/s) = 3.96399 4.06047 4.01252
# Velocity P-wave (km/s) = 7.60866 7.89270 7.75198
#
# Compressibility (1/GPa) = 0.01407892
#
# Stress axis : x y z
#
# Youngs Moduli (GPa) = 61.23563 107.98014 68.66835
#
# Poissons Ratio (x) = 0.33743 0.37622
# Poissons Ratio (y) = 0.19136 0.30446
# Poissons Ratio (z) = 0.33550 0.47877
#
# Static dielectric constant tensor:
#      x y z
#    x 3.222260 0.000000 -0.035860 
#    y 0.000000 3.856500 0.000000 
#    z -0.035860 0.000000 3.698700 
# 
# 
# High freq. dielectric constant tensor:
#      x y z
#    x 1.727480 0.000000 -0.000700 
#    y 0.000000 1.767940 0.000000 
#    z -0.000700 0.000000 1.764150 
# 
# From -- ./inp_files/314404.got.cif
#   From: 2010.06.25/outbox.cif.g09.slc.cpg/sg12_158_cif.got.tgz:314404.got - 2010.06.28 00:19:55.
