data_PCOD8102929
_publ_section_title
;
Structure prediction by ZEFSAII (Michael W. Deem and Ramdas Pophale) SiO2 
 PCOD8102929
Probable space group: C 2/M
;
_chemical_formula_sum "Si O2"
_cell_formula_units_Z 48
_cell_length_a 20.500010
_cell_length_b 8.366707
_cell_length_c 15.291269
_cell_angle_alpha 90.000000
_cell_angle_beta 111.642993
_cell_angle_gamma 90.000000
_cell_volume 2437.819537
_symmetry_space_group_name_H-M "C 2/M"
_symmetry_group_IT_number 12
_symmetry_cell_setting 'monoclinic'
loop_
_space_group_symop_operation_xyz
x,y,z
-x,y,-z
-x,-y,-z
x,-y,z
1/2+x,1/2+y,z
1/2-x,1/2+y,-z
1/2-x,1/2-y,-z
1/2+x,1/2-y,z
loop_
_atom_site_type_symbol
_atom_site_label
_atom_site_fract_x
_atom_site_fract_y
_atom_site_fract_z
Si Si1 0.401240 0.683967 0.087264
Si Si2 0.653735 0.815211 0.114116
Si Si3 0.947260 0.689028 0.592253
Si Si4 0.950245 0.311269 0.786048
Si Si5 0.598649 0.189662 0.610809
Si Si6 0.806158 0.685947 0.189389
O O1 0.397135 0.500000 0.057534
O O2 0.476769 0.722539 0.163713
O O3 0.340527 0.717794 0.127172
O O4 0.389636 0.791166 0.995911
O O5 0.606411 0.755042 0.171317
O O6 0.723335 0.709857 0.147805
O O7 0.673922 0.000000 0.134921
O O8 0.949879 0.500000 0.587452
O O9 0.920950 0.740609 0.675590
O O10 0.896724 0.752479 0.488207
O O11 0.026175 0.753970 0.616704
O O12 0.964281 0.500000 0.798829
O O13 0.662733 0.251371 0.702716
O O14 0.599526 0.000000 0.611138
O O15 0.823948 0.500000 0.184914
#
# Coordination Sequence:
#
# PCOD8102929 Si02
#       6
#     8   8   8   8   8   8
#     4  12  24  38  58  82 109 143 186 234 277 325
#     4  11  24  39  55  79 113 150 185 226 275 327
#     4   8  13  27  53  85 109 134 178 224 266 317
#     4  10  20  37  60  83 111 146 185 225 270 326
#     4   8  14  26  53  85 109 135 177 226 265 317
#     4  11  21  37  59  83 112 146 185 227 272 325
#
# _framework density 19.689727999999999
#
# number of rings (size 3 to 8) (size 9 to 14) (size 15 to 20)
#    0.000    2.000    1.667    4.500    0.000    3.333 
#    0.000    0.833    0.000    3.000    0.000    0.000 
#    0.000    0.000    0.000    0.000    0.000    0.000 
#
# Total GULP energy -297522.851469 kJ/mol
# GULP energy per Si atom -12396.785478 kJ/mol
# Density = 1.964491 g / cm^3
# Si number density = 19.689728 Si / 1000 Ang^3
#
#
#
# Elastic Constant Matrix: (Units=GPa)
#
#
# Indices 1 2 3 4 5 6 
#
# 1 93.6331 14.7389 44.2824 0.0000 -25.5000 0.0000
# 2 14.7389 32.8999 10.7258 0.0000 1.0024 0.0000
# 3 44.2824 10.7258 155.3530 0.0000 -30.9658 0.0000
# 4 0.0000 0.0000 0.0000 4.7187 0.0000 3.5631
# 5 -25.5000 1.0024 -30.9658 0.0000 20.6114 0.0000
# 6 0.0000 0.0000 0.0000 3.5631 0.0000 22.5513
#
#
#
# Elastic Compliance Matrix: (Units=1/GPa)
#
#
# Indices 1 2 3 4 5 6 
#
# 1 0.018412 -0.008954 -0.000004 0.000000 0.023208 0.000000
# 2 -0.008954 0.036124 -0.003569 0.000000 -0.018196 0.000000
# 3 -0.000004 -0.003569 0.009590 0.000000 0.014576 0.000000
# 4 0.000000 0.000000 0.000000 0.240631 0.000000 -0.038020
# 5 0.023208 -0.018196 0.014576 0.000000 0.100013 0.000000
# 6 0.000000 0.000000 0.000000 -0.038020 0.000000 0.050351
#
#
# Mechanical properties :
#
#
# Convention : Reuss Voigt Hill
#
# Bulk Modulus (GPa) = 25.59352 46.82002 36.20677
# Shear Modulus (GPa) = 10.13789 23.71889 16.92839
#
# Velocity S-wave (km/s) = 2.27156 3.47455 2.93534
# Velocity P-wave (km/s) = 4.46169 6.31880 5.46963
#
# Compressibility (1/GPa) = 0.03907239
#
# Stress axis : x y z
#
# Youngs Moduli (GPa) = 54.31269 27.68205 104.27672
#
# Poissons Ratio (x) = 0.24787 0.00041
# Poissons Ratio (y) = 0.48633 0.37214
# Poissons Ratio (z) = 0.00022 0.09879
#
# Static dielectric constant tensor:
#      x y z
#    x 3.409170 0.000000 -0.121630 
#    y 0.000000 3.199120 0.000000 
#    z -0.121630 0.000000 4.192040 
# 
# 
# High freq. dielectric constant tensor:
#      x y z
#    x 1.743610 0.000000 -0.005740 
#    y 0.000000 1.735740 0.000000 
#    z -0.005740 0.000000 1.791770 
# 
# From -- ./inp_files/230335.got.cif
#   From: 2010.06.25/outbox.cif.g09.slc.cpg/sg12_116_cif.got.tgz:230335.got - 2010.06.28 00:19:55.
