data_PCOD8102330
_publ_section_title
;
Structure prediction by ZEFSAII (Michael W. Deem and Ramdas Pophale) SiO2 
 PCOD8102330
Probable space group: C 2/M
;
_chemical_formula_sum "Si O2"
_cell_formula_units_Z 44
_cell_length_a 17.963076
_cell_length_b 11.482733
_cell_length_c 11.087761
_cell_angle_alpha 90.000000
_cell_angle_beta 112.731740
_cell_angle_gamma 90.000000
_cell_volume 2109.373176
_symmetry_space_group_name_H-M "C 2/M"
_symmetry_group_IT_number 12
_symmetry_cell_setting 'monoclinic'
loop_
_space_group_symop_operation_xyz
x,y,z
-x,y,-z
-x,-y,-z
x,-y,z
1/2+x,1/2+y,z
1/2-x,1/2+y,-z
1/2-x,1/2-y,-z
1/2+x,1/2-y,z
loop_
_atom_site_type_symbol
_atom_site_label
_atom_site_fract_x
_atom_site_fract_y
_atom_site_fract_z
Si Si1 0.046939 0.128142 0.725965
Si Si2 0.433414 0.366615 0.868385
Si Si3 0.160640 0.627330 0.496432
Si Si4 0.779513 0.131590 0.084410
Si Si5 0.000000 0.701189 0.500000
Si Si6 0.785216 0.719190 0.716681
O O1 0.123831 0.141034 0.861758
O O2 0.051519 0.220653 0.623225
O O3 0.965657 0.145483 0.752243
O O4 0.046610 0.000000 0.666613
O O5 0.418940 0.500000 0.896862
O O6 0.347338 0.304291 0.824186
O O7 0.500000 0.310347 0.000000
O O8 0.196373 0.500000 0.544629
O O9 0.167708 0.651065 0.358367
O O10 0.210177 0.715104 0.609815
O O11 0.065690 0.625493 0.470030
O O12 0.749852 0.132589 0.204701
O O13 0.754069 0.000000 0.018007
O O14 0.750000 0.250000 0.000000
#
# Coordination Sequence:
#
# PCOD8102330 Si02
#       6
#     8   8   8   8   4   8
#     4  10  21  38  61  90 120 157 210 258 310 373
#     4  10  20  36  62  89 118 158 207 264 312 366
#     4  11  24  39  62  91 123 165 208 262 319 378
#     4  11  24  43  67  94 128 168 211 263 314 377
#     4  12  20  42  60  86 122 166 204 254 316 380
#     4  11  22  41  63  90 127 158 209 261 315 380
#
# _framework density 20.859278
#
# number of rings (size 3 to 8) (size 9 to 14) (size 15 to 20)
#    0.000    1.273    3.636    2.727    0.000    2.909 
#    0.000    0.000    0.000    2.182    0.000    0.000 
#    0.000    0.000    0.000    0.000    0.000    0.000 
#
# Total GULP energy -272707.967944 kJ/mol
# GULP energy per Si atom -12395.816725 kJ/mol
# Density = 2.081180 g / cm^3
# Si number density = 20.859278 Si / 1000 Ang^3
#
#
#
# Elastic Constant Matrix: (Units=GPa)
#
#
# Indices 1 2 3 4 5 6 
#
# 1 96.0080 18.8713 3.5746 0.0000 1.9848 0.0000
# 2 18.8713 114.2354 24.4426 0.0000 -2.9429 0.0000
# 3 3.5746 24.4426 61.7246 0.0000 0.9896 0.0000
# 4 0.0000 0.0000 0.0000 28.2175 0.0000 3.5371
# 5 1.9848 -2.9429 0.9896 0.0000 29.5146 0.0000
# 6 0.0000 0.0000 0.0000 3.5371 0.0000 3.4575
#
#
#
# Elastic Compliance Matrix: (Units=1/GPa)
#
#
# Indices 1 2 3 4 5 6 
#
# 1 0.010790 -0.001831 0.000115 0.000000 -0.000912 0.000000
# 2 -0.001831 0.009909 -0.003838 0.000000 0.001240 0.000000
# 3 0.000115 -0.003838 0.017730 0.000000 -0.000985 0.000000
# 4 0.000000 0.000000 0.000000 0.040652 0.000000 -0.041589
# 5 -0.000912 0.001240 -0.000985 0.000000 0.034100 0.000000
# 6 0.000000 0.000000 0.000000 -0.041589 0.000000 0.331777
#
#
# Mechanical properties :
#
#
# Convention : Reuss Voigt Hill
#
# Bulk Modulus (GPa) = 36.60076 40.63835 38.61955
# Shear Modulus (GPa) = 10.74869 27.24322 18.99595
#
# Velocity S-wave (km/s) = 2.27247 3.61785 3.02101
# Velocity P-wave (km/s) = 4.94673 6.08081 5.54285
#
# Compressibility (1/GPa) = 0.02732184
#
# Stress axis : x y z
#
# Youngs Moduli (GPa) = 92.67678 100.91449 56.40179
#
# Poissons Ratio (x) = 0.18473 -0.00646
# Poissons Ratio (y) = 0.16965 0.21647
# Poissons Ratio (z) = -0.01062 0.38730
#
# Static dielectric constant tensor:
#      x y z
#    x 3.856060 0.000000 -0.078030 
#    y 0.000000 3.685060 0.000000 
#    z -0.078030 0.000000 3.557540 
# 
# 
# High freq. dielectric constant tensor:
#      x y z
#    x 1.835260 0.000000 -0.007910 
#    y 0.000000 1.806790 0.000000 
#    z -0.007910 0.000000 1.804120 
# 
# From -- ./inp_files/153775.got.cif
#   From: 2010.06.25/outbox.cif.g09.slc.cpg/sg12_77_cif.got.tgz:153775.got - 2010.06.28 00:19:55.
