data_PCOD8102175
_publ_section_title
;
Structure prediction by ZEFSAII (Michael W. Deem and Ramdas Pophale) SiO2 
 PCOD8102175
Probable space group: C 2/M
;
_chemical_formula_sum "Si O2"
_cell_formula_units_Z 56
_cell_length_a 21.401508
_cell_length_b 16.742599
_cell_length_c 17.786189
_cell_angle_alpha 90.000000
_cell_angle_beta 24.503868
_cell_angle_gamma 90.000000
_cell_volume 2643.269482
_symmetry_space_group_name_H-M "C 2/M"
_symmetry_group_IT_number 12
_symmetry_cell_setting 'monoclinic'
loop_
_space_group_symop_operation_xyz
x,y,z
-x,y,-z
-x,-y,-z
x,-y,z
1/2+x,1/2+y,z
1/2-x,1/2+y,-z
1/2-x,1/2-y,-z
1/2+x,1/2-y,z
loop_
_atom_site_type_symbol
_atom_site_label
_atom_site_fract_x
_atom_site_fract_y
_atom_site_fract_z
Si Si1 0.628875 0.784949 0.687229
Si Si2 0.862370 0.675334 0.869598
Si Si3 0.152012 0.825223 0.800872
Si Si4 0.460365 0.907464 0.456402
Si Si5 0.332543 0.303907 0.687931
Si Si6 0.684897 0.409766 0.433224
Si Si7 0.848517 0.088730 0.808588
O O1 0.750000 0.750000 0.500000
O O2 0.484137 0.808576 0.799549
O O3 0.598025 0.720576 0.785663
O O4 0.690821 0.866038 0.654405
O O5 0.939804 0.654759 0.703801
O O6 0.750000 0.750000 0.000000
O O7 0.763563 0.597178 0.998073
O O8 0.282667 0.888815 0.638750
O O9 0.212455 0.763287 0.797682
O O10 0.000000 0.866997 0.000000
O O11 0.500000 0.894462 0.500000
O O12 0.488002 0.000000 0.402459
O O13 0.500000 0.265511 0.500000
O O14 0.324067 0.378502 0.641421
O O15 0.299136 0.341001 0.805683
O O16 0.738227 0.500000 0.372348
O O17 0.519018 0.398088 0.651127
O O18 0.833893 0.000000 0.789230
#
# Coordination Sequence:
#
# PCOD8102175 Si02
#       7
#     8   8   8   8   8   8   8
#     4  11  22  41  60  95 125 164 214 270 335 395
#     4  12  26  42  71  96 129 170 221 275 335 393
#     4  11  23  40  68  96 131 168 222 272 325 391
#     4  11  27  49  70  95 133 179 226 277 330 391
#     4   9  18  33  62  94 134 174 213 255 313 386
#     4   9  19  35  58  89 132 174 206 251 320 393
#     4  10  20  36  60  97 133 168 213 264 322 389
#
# _framework density 21.185884000000001
#
# number of rings (size 3 to 8) (size 9 to 14) (size 15 to 20)
#    0.000    1.571    1.429    3.000    8.000    3.143 
#    0.000    0.000    0.000    4.714    0.000    0.000 
#    0.000    0.000    0.000    0.000    0.000    0.000 
#
# Total GULP energy -347055.235546 kJ/mol
# GULP energy per Si atom -12394.829841 kJ/mol
# Density = 2.113766 g / cm^3
# Si number density = 21.185884 Si / 1000 Ang^3
#
#
#
# Elastic Constant Matrix: (Units=GPa)
#
#
# Indices 1 2 3 4 5 6 
#
# 1 97.1236 26.7630 41.4699 -0.0090 -8.4416 0.0028
# 2 26.7630 83.0394 38.4874 -0.0093 3.2698 0.0038
# 3 41.4699 38.4874 139.5812 -0.0154 5.0020 0.0080
# 4 -0.0090 -0.0093 -0.0154 13.3090 0.0097 2.0383
# 5 -8.4416 3.2698 5.0020 0.0097 27.1880 -0.0038
# 6 0.0028 0.0038 0.0080 2.0383 -0.0038 18.6674
#
#
#
# Elastic Compliance Matrix: (Units=1/GPa)
#
#
# Indices 1 2 3 4 5 6 
#
# 1 0.012886 -0.002856 -0.003218 -0.000001 0.004937 0.000001
# 2 -0.002856 0.014465 -0.003066 0.000006 -0.002062 -0.000002
# 3 -0.003218 -0.003066 0.009048 0.000008 -0.002295 -0.000004
# 4 -0.000001 0.000006 0.000008 0.076415 -0.000031 -0.008344
# 5 0.004937 -0.002062 -0.002295 -0.000031 0.038984 0.000012
# 6 0.000001 -0.000002 -0.000004 -0.008344 0.000012 0.054480
#
#
# Mechanical properties :
#
#
# Convention : Reuss Voigt Hill
#
# Bulk Modulus (GPa) = 55.18979 59.24276 57.21628
# Shear Modulus (GPa) = 21.68266 26.03447 23.85857
#
# Velocity S-wave (km/s) = 3.20261 3.50931 3.35946
# Velocity P-wave (km/s) = 6.30733 6.66666 6.48948
#
# Compressibility (1/GPa) = 0.01811929
#
# Stress axis : x y z
#
# Youngs Moduli (GPa) = 77.60232 69.13111 110.52140
#
# Poissons Ratio (x) = 0.19744 0.35565
# Poissons Ratio (y) = 0.22164 0.33887
# Poissons Ratio (z) = 0.24972 0.21197
#
# Static dielectric constant tensor:
#      x y z
#    x 3.716120 -0.000010 0.112200 
#    y -0.000010 3.794240 0.000010 
#    z 0.112200 0.000010 3.966890 
# 
# 
# High freq. dielectric constant tensor:
#      x y z
#    x 1.827670 0.000000 -0.000340 
#    y 0.000000 1.826040 0.000000 
#    z -0.000340 0.000000 1.840400 
# 
# From -- ./inp_files/325983.got.cif
#   From: 2010.06.25/outbox.cif.g09.slc.cpg/sg12_163_cif.got.tgz:325983.got - 2010.06.28 00:19:55.
