data_PCOD8102217
_publ_section_title
;
Structure prediction by ZEFSAII (Michael W. Deem and Ramdas Pophale) SiO2 
 PCOD8102217
Probable space group: C 2/M
;
_chemical_formula_sum "Si O2"
_cell_formula_units_Z 40
_cell_length_a 25.419352
_cell_length_b 9.251045
_cell_length_c 10.518376
_cell_angle_alpha 90.000000
_cell_angle_beta 127.771042
_cell_angle_gamma 90.000000
_cell_volume 1955.178580
_symmetry_space_group_name_H-M "C 2/M"
_symmetry_group_IT_number 12
_symmetry_cell_setting 'monoclinic'
loop_
_space_group_symop_operation_xyz
x,y,z
-x,y,-z
-x,-y,-z
x,-y,z
1/2+x,1/2+y,z
1/2-x,1/2+y,-z
1/2-x,1/2-y,-z
1/2+x,1/2-y,z
loop_
_atom_site_type_symbol
_atom_site_label
_atom_site_fract_x
_atom_site_fract_y
_atom_site_fract_z
Si Si1 0.458706 0.828660 0.312755
Si Si2 0.973012 0.170185 0.819336
Si Si3 0.247733 0.843049 0.315283
Si Si4 0.654074 0.159192 0.311877
Si Si5 0.810002 0.667657 0.153327
O O1 0.500000 0.784466 0.500000
O O2 0.482929 0.744985 0.223722
O O3 0.382615 0.777790 0.219442
O O4 0.465371 0.000000 0.299230
O O5 0.900116 0.238552 0.703935
O O6 0.969391 0.000000 0.787093
O O7 0.000000 0.204443 0.000000
O O8 0.285201 0.856977 0.502854
O O9 0.185473 0.732007 0.231312
O O10 0.302100 0.798601 0.291096
O O11 0.216727 0.000000 0.234397
O O12 0.624993 0.000000 0.234797
O O13 0.803195 0.500000 0.110235
O O14 0.750000 0.750000 0.000000
#
# Coordination Sequence:
#
# PCOD8102217 Si02
#       5
#     8   8   8   8   8
#     4  10  22  43  68  92 121 161 211 259 306 367
#     4  11  25  41  59  87 125 163 202 253 309 362
#     4   9  19  37  59  85 119 155 191 240 299 356
#     4  10  20  36  61  88 115 152 200 247 295 356
#     4  10  22  38  59  87 121 157 195 244 300 359
#
# _framework density 20.458489
#
# number of rings (size 3 to 8) (size 9 to 14) (size 15 to 20)
#    0.000    2.000    0.000    2.400    2.800    7.600 
#    0.000    2.000    0.000    0.000    0.000    0.000 
#    0.000    0.000    0.000    0.000    0.000    0.000 
#
# Total GULP energy -247914.331145 kJ/mol
# GULP energy per Si atom -12395.716557 kJ/mol
# Density = 2.041192 g / cm^3
# Si number density = 20.458489 Si / 1000 Ang^3
#
#
#
# Elastic Constant Matrix: (Units=GPa)
#
#
# Indices 1 2 3 4 5 6 
#
# 1 201.6643 90.2303 50.1017 0.0000 2.7293 0.0000
# 2 90.2303 108.7587 45.0024 0.0000 -2.3802 0.0000
# 3 50.1017 45.0024 73.4966 0.0000 3.5725 0.0000
# 4 0.0000 0.0000 0.0000 26.8762 0.0000 2.2680
# 5 2.7293 -2.3802 3.5725 0.0000 36.0261 0.0000
# 6 0.0000 0.0000 0.0000 2.2680 0.0000 41.1079
#
#
#
# Elastic Compliance Matrix: (Units=1/GPa)
#
#
# Indices 1 2 3 4 5 6 
#
# 1 0.008100 -0.005987 -0.001815 0.000000 -0.000829 0.000000
# 2 -0.005987 0.016829 -0.006330 0.000000 0.002193 0.000000
# 3 -0.001815 -0.006330 0.018824 0.000000 -0.002147 0.000000
# 4 0.000000 0.000000 0.000000 0.037382 0.000000 -0.002062
# 5 -0.000829 0.002193 -0.002147 0.000000 0.028178 0.000000
# 6 0.000000 0.000000 0.000000 -0.002062 0.000000 0.024440
#
#
# Mechanical properties :
#
#
# Convention : Reuss Voigt Hill
#
# Bulk Modulus (GPa) = 64.56542 83.84315 74.20429
# Shear Modulus (GPa) = 29.90817 34.04106 31.97461
#
# Velocity S-wave (km/s) = 3.82762 4.08353 3.95764
# Velocity P-wave (km/s) = 7.15276 7.95642 7.56527
#
# Compressibility (1/GPa) = 0.01548817
#
# Stress axis : x y z
#
# Youngs Moduli (GPa) = 123.46294 59.42265 53.12442
#
# Poissons Ratio (x) = 0.35575 0.09644
# Poissons Ratio (y) = 0.73913 0.33627
# Poissons Ratio (z) = 0.22414 0.37613
#
# Static dielectric constant tensor:
#      x y z
#    x 4.207610 0.000000 -0.198340 
#    y 0.000000 4.147130 0.000000 
#    z -0.198340 0.000000 3.594330 
# 
# 
# High freq. dielectric constant tensor:
#      x y z
#    x 1.818150 0.000000 -0.001950 
#    y 0.000000 1.801540 0.000000 
#    z -0.001950 0.000000 1.783710 
# 
# From -- ./inp_files/180300.got.cif
#   From: 2010.06.25/outbox.cif.g09.slc.cpg/sg12_91_cif.got.tgz:180300.got - 2010.06.28 00:19:55.
