data_PCOD8102517
_publ_section_title
;
Structure prediction by ZEFSAII (Michael W. Deem and Ramdas Pophale) SiO2 
 PCOD8102517
Probable space group: C 2/M
;
_chemical_formula_sum "Si O2"
_cell_formula_units_Z 48
_cell_length_a 18.517450
_cell_length_b 9.015110
_cell_length_c 16.718183
_cell_angle_alpha 90.000000
_cell_angle_beta 88.053513
_cell_angle_gamma 90.000000
_cell_volume 2789.270410
_symmetry_space_group_name_H-M "C 2/M"
_symmetry_group_IT_number 12
_symmetry_cell_setting 'monoclinic'
loop_
_space_group_symop_operation_xyz
x,y,z
-x,y,-z
-x,-y,-z
x,-y,z
1/2+x,1/2+y,z
1/2-x,1/2+y,-z
1/2-x,1/2-y,-z
1/2+x,1/2-y,z
loop_
_atom_site_type_symbol
_atom_site_label
_atom_site_fract_x
_atom_site_fract_y
_atom_site_fract_z
Si Si1 0.584747 0.173009 0.870388
Si Si2 0.802223 0.333636 0.260456
Si Si3 0.919860 0.672126 0.857380
Si Si4 0.831372 0.669681 0.711937
Si Si5 0.171890 0.823795 0.006878
Si Si6 0.733674 0.333191 0.419721
O O1 0.621547 0.206995 0.782798
O O2 0.501928 0.222306 0.867873
O O3 0.590969 0.000000 0.893436
O O4 0.623597 0.271486 0.934711
O O5 0.779745 0.500000 0.234945
O O6 0.738731 0.222705 0.233155
O O7 0.804495 0.325366 0.358176
O O8 0.908134 0.500000 0.881714
O O9 0.901789 0.695483 0.763998
O O10 0.867987 0.775190 0.910956
O O11 0.821743 0.500000 0.688488
O O12 0.833552 0.761168 0.627936
O O13 0.180536 0.000000 0.004932
O O14 0.250000 0.750000 0.000000
O O15 0.712229 0.500000 0.442521
O O16 0.750000 0.250000 0.500000
#
# Coordination Sequence:
#
# PCOD8102517 Si02
#       6
#     8   8   8   8   8   8
#     4  10  20  37  56  76 106 141 176 216 264 312
#     4   8  17  31  50  74 100 132 170 211 255 303
#     4  10  21  36  55  78 106 141 177 214 261 315
#     4   9  17  30  50  76 103 131 169 211 254 303
#     4  12  25  38  54  76 104 138 180 224 265 307
#     4   9  17  30  51  79 104 131 169 211 258 307
#
# _framework density 17.208801000000001
#
# number of rings (size 3 to 8) (size 9 to 14) (size 15 to 20)
#    1.000    1.333    0.000    3.500    0.000    7.333 
#    0.000    0.000    0.000    1.000    0.000    7.000 
#    0.000    0.000    0.000    0.000    0.000    0.000 
#
# Total GULP energy -297343.348663 kJ/mol
# GULP energy per Si atom -12389.306194 kJ/mol
# Density = 1.716963 g / cm^3
# Si number density = 17.208801 Si / 1000 Ang^3
#
#
#
# Elastic Constant Matrix: (Units=GPa)
#
#
# Indices 1 2 3 4 5 6 
#
# 1 104.4662 51.7711 46.1745 0.0000 18.8692 0.0000
# 2 51.7711 117.9060 56.5417 0.0000 15.7726 0.0000
# 3 46.1745 56.5417 105.4359 0.0000 19.2531 0.0000
# 4 0.0000 0.0000 0.0000 31.3019 0.0000 2.1023
# 5 18.8692 15.7726 19.2531 0.0000 18.7676 0.0000
# 6 0.0000 0.0000 0.0000 2.1023 0.0000 21.6057
#
#
#
# Elastic Compliance Matrix: (Units=1/GPa)
#
#
# Indices 1 2 3 4 5 6 
#
# 1 0.014130 -0.003841 -0.002613 0.000000 -0.008297 0.000000
# 2 -0.003841 0.012721 -0.004790 0.000000 -0.001915 0.000000
# 3 -0.002613 -0.004790 0.014745 0.000000 -0.008473 0.000000
# 4 0.000000 0.000000 0.000000 0.032157 0.000000 -0.003129
# 5 -0.008297 -0.001915 -0.008473 0.000000 0.071928 0.000000
# 6 0.000000 0.000000 0.000000 -0.003129 0.000000 0.046589
#
#
# Mechanical properties :
#
#
# Convention : Reuss Voigt Hill
#
# Bulk Modulus (GPa) = 52.33560 70.75362 61.54461
# Shear Modulus (GPa) = 22.61148 25.88975 24.25062
#
# Velocity S-wave (km/s) = 3.62878 3.88293 3.75800
# Velocity P-wave (km/s) = 6.93076 7.82987 7.39400
#
# Compressibility (1/GPa) = 0.01910745
#
# Stress axis : x y z
#
# Youngs Moduli (GPa) = 70.77277 78.60883 67.82076
#
# Poissons Ratio (x) = 0.30195 0.17721
# Poissons Ratio (y) = 0.27185 0.32486
# Poissons Ratio (z) = 0.18492 0.37654
#
# Static dielectric constant tensor:
#      x y z
#    x 3.099560 0.000000 -0.030150 
#    y 0.000000 3.299080 0.000000 
#    z -0.030150 0.000000 3.149630 
# 
# 
# High freq. dielectric constant tensor:
#      x y z
#    x 1.639080 0.000000 0.004570 
#    y 0.000000 1.671710 0.000000 
#    z 0.004570 0.000000 1.659410 
# 
# From -- ./inp_files/273664.got.cif
#   From: 2010.06.25/outbox.cif.g09.slc.cpg/sg12_137_cif.got.tgz:273664.got - 2010.06.28 00:19:55.
