data_PCOD8102059
_publ_section_title
;
Structure prediction by ZEFSAII (Michael W. Deem and Ramdas Pophale) SiO2 
 PCOD8102059
Probable space group: C 2/M
;
_chemical_formula_sum "Si O2"
_cell_formula_units_Z 48
_cell_length_a 23.176672
_cell_length_b 8.768822
_cell_length_c 17.160844
_cell_angle_alpha 90.000000
_cell_angle_beta 46.865879
_cell_angle_gamma 90.000000
_cell_volume 2545.119599
_symmetry_space_group_name_H-M "C 2/M"
_symmetry_group_IT_number 12
_symmetry_cell_setting 'monoclinic'
loop_
_space_group_symop_operation_xyz
x,y,z
-x,y,-z
-x,-y,-z
x,-y,z
1/2+x,1/2+y,z
1/2-x,1/2+y,-z
1/2-x,1/2-y,-z
1/2+x,1/2-y,z
loop_
_atom_site_type_symbol
_atom_site_label
_atom_site_fract_x
_atom_site_fract_y
_atom_site_fract_z
Si Si1 0.228839 0.177478 0.897267
Si Si2 0.954560 0.321574 0.321302
Si Si3 0.568451 0.324724 0.494433
Si Si4 0.808348 0.820910 0.382951
Si Si5 0.868499 0.321949 0.882483
Si Si6 0.255182 0.324932 0.711680
O O1 0.311522 0.217898 0.862816
O O2 0.221197 0.272388 0.825468
O O3 0.222754 0.000000 0.883036
O O4 0.156299 0.225352 0.019326
O O5 0.942765 0.500000 0.319888
O O6 0.931571 0.280920 0.430306
O O7 0.897634 0.234552 0.314222
O O8 0.043920 0.270509 0.221777
O O9 0.500000 0.268355 0.500000
O O10 0.555345 0.500000 0.532005
O O11 0.650702 0.302359 0.374013
O O12 0.750000 0.750000 0.500000
O O13 0.783738 0.776368 0.319114
O O14 0.804007 0.000000 0.397559
O O15 0.862971 0.500000 0.908403
O O16 0.232083 0.500000 0.718171
#
# Coordination Sequence:
#
# PCOD8102059 Si02
#       6
#     8   8   8   8   8   8
#     4  10  20  36  60  88 118 154 194 238 287 342
#     4  11  22  37  59  85 115 152 193 239 289 344
#     4  10  21  35  54  83 117 151 188 234 287 345
#     4  12  24  40  60  83 114 153 196 240 287 345
#     4   9  20  38  59  86 119 155 193 235 289 346
#     4  11  22  37  58  84 117 154 192 237 288 344
#
# _framework density 18.859624
#
# number of rings (size 3 to 8) (size 9 to 14) (size 15 to 20)
#    0.000    1.500    1.667    4.000    0.000    3.000 
#    0.000    0.833    0.000    5.000    0.000    0.000 
#    0.000    0.000    0.000    0.000    0.000    0.000 
#
# Total GULP energy -297756.586714 kJ/mol
# GULP energy per Si atom -12406.524446 kJ/mol
# Density = 1.881670 g / cm^3
# Si number density = 18.859624 Si / 1000 Ang^3
#
#
#
# Elastic Constant Matrix: (Units=GPa)
#
#
# Indices 1 2 3 4 5 6 
#
# 1 84.6015 28.7606 21.1323 0.0007 12.1457 -0.0017
# 2 28.7606 88.4747 32.2164 -0.0002 2.9480 0.0032
# 3 21.1323 32.2164 83.2701 0.0002 10.4814 0.0003
# 4 0.0007 -0.0002 0.0002 24.9723 -0.0011 3.5276
# 5 12.1457 2.9480 10.4814 -0.0011 26.5312 0.0012
# 6 -0.0017 0.0032 0.0003 3.5276 0.0012 33.1909
#
#
#
# Elastic Compliance Matrix: (Units=1/GPa)
#
#
# Indices 1 2 3 4 5 6 
#
# 1 0.014314 -0.003957 -0.001402 -0.000001 -0.005559 0.000001
# 2 -0.003957 0.014259 -0.004778 0.000001 0.002115 -0.000002
# 3 -0.001402 -0.004778 0.014802 0.000000 -0.004675 0.000000
# 4 -0.000001 0.000001 0.000000 0.040655 0.000002 -0.004321
# 5 -0.005559 0.002115 -0.004675 0.000002 0.041848 -0.000002
# 6 0.000001 -0.000002 0.000000 -0.004321 -0.000002 0.030588
#
#
# Mechanical properties :
#
#
# Convention : Reuss Voigt Hill
#
# Bulk Modulus (GPa) = 43.29139 46.72944 45.01041
# Shear Modulus (GPa) = 27.10908 28.55468 27.83188
#
# Velocity S-wave (km/s) = 3.79544 3.89532 3.84570
# Velocity P-wave (km/s) = 6.49704 6.71287 6.60584
#
# Compressibility (1/GPa) = 0.02309928
#
# Stress axis : x y z
#
# Youngs Moduli (GPa) = 69.86340 70.13319 67.55822
#
# Poissons Ratio (x) = 0.27754 0.09470
# Poissons Ratio (y) = 0.27647 0.32282
# Poissons Ratio (z) = 0.09793 0.33513
#
# Static dielectric constant tensor:
#      x y z
#    x 3.624040 -0.000010 -0.087700 
#    y -0.000010 3.488270 0.000000 
#    z -0.087700 0.000000 3.405370 
# 
# 
# High freq. dielectric constant tensor:
#      x y z
#    x 1.734780 0.000000 -0.000040 
#    y 0.000000 1.741400 0.000000 
#    z -0.000040 0.000000 1.729740 
# 
# From -- ./inp_files/281815.got.cif
#   From: 2010.06.25/outbox.cif.g09.slc.cpg/sg12_141_cif.got.tgz:281815.got - 2010.06.28 00:19:55.
