data_PCOD8102018
_publ_section_title
;
Structure prediction by ZEFSAII (Michael W. Deem and Ramdas Pophale) SiO2 
 PCOD8102018
Probable space group: C 2/M
;
_chemical_formula_sum "Si O2"
_cell_formula_units_Z 64
_cell_length_a 14.776689
_cell_length_b 23.973835
_cell_length_c 9.020322
_cell_angle_alpha 90.000000
_cell_angle_beta 92.311470
_cell_angle_gamma 90.000000
_cell_volume 3192.884249
_symmetry_space_group_name_H-M "C 2/M"
_symmetry_group_IT_number 12
_symmetry_cell_setting 'monoclinic'
loop_
_space_group_symop_operation_xyz
x,y,z
-x,y,-z
-x,-y,-z
x,-y,z
1/2+x,1/2+y,z
1/2-x,1/2+y,-z
1/2-x,1/2-y,-z
1/2+x,1/2-y,z
loop_
_atom_site_type_symbol
_atom_site_label
_atom_site_fract_x
_atom_site_fract_y
_atom_site_fract_z
Si Si1 0.836696 0.061786 0.674152
Si Si2 0.012322 0.127150 0.166793
Si Si3 0.485816 0.131267 0.829116
Si Si4 0.683639 0.935336 0.153521
Si Si5 0.348125 0.724802 0.472525
Si Si6 0.849232 0.898156 0.357710
Si Si7 0.347085 0.063626 0.187909
Si Si8 0.996485 0.245613 0.727171
O O1 0.889767 0.109317 0.767250
O O2 0.853405 0.061348 0.498972
O O3 0.731312 0.073406 0.697938
O O4 0.863159 0.000000 0.735135
O O5 0.997164 0.194008 0.158962
O O6 0.943931 0.099113 0.278393
O O7 0.000000 0.103887 0.000000
O O8 0.394883 0.100318 0.770650
O O9 0.572572 0.104763 0.752367
O O10 0.474071 0.197137 0.807504
O O11 0.500000 0.116298 0.000000
O O12 0.776545 0.917142 0.233426
O O13 0.663795 0.000000 0.181059
O O14 0.689793 0.921658 0.979005
O O15 0.250000 0.750000 0.500000
O O16 0.328336 0.662305 0.422056
O O17 0.412938 0.728085 0.618182
O O18 0.406305 0.754966 0.346883
O O19 0.382921 0.000000 0.192613
#
# Coordination Sequence:
#
# PCOD8102018 Si02
#       8
#     8   8   8   8   8   8   8   8
#     4  11  23  39  61  86 116 154 194 240 292 346
#     4  11  23  40  60  85 118 152 192 244 293 343
#     4  10  20  36  60  87 118 157 195 237 289 342
#     4  10  20  37  60  87 120 155 195 240 286 343
#     4  10  21  37  57  81 115 155 187 233 292 345
#     4  11  22  38  59  85 116 151 194 239 290 346
#     4   9  20  38  59  87 120 155 195 238 288 343
#     4  10  21  37  57  87 116 150 197 237 283 348
#
# _framework density 20.044571999999999
#
# number of rings (size 3 to 8) (size 9 to 14) (size 15 to 20)
#    0.000    1.750    1.250    3.000    1.750    3.250 
#    0.000    0.000    0.000   10.500    0.000    0.000 
#    0.000    0.000    0.000    0.000    0.000    0.000 
#
# Total GULP energy -396744.150806 kJ/mol
# GULP energy per Si atom -12398.254713 kJ/mol
# Density = 1.999895 g / cm^3
# Si number density = 20.044572 Si / 1000 Ang^3
#
#
#
# Elastic Constant Matrix: (Units=GPa)
#
#
# Indices 1 2 3 4 5 6 
#
# 1 78.4554 42.5807 13.4148 0.0000 -22.0828 0.0000
# 2 42.5807 90.1455 14.6354 0.0000 -10.4524 0.0000
# 3 13.4148 14.6354 63.5076 0.0000 -13.5434 0.0000
# 4 0.0000 0.0000 0.0000 27.4480 0.0000 5.1800
# 5 -22.0828 -10.4524 -13.5434 0.0000 26.2448 0.0000
# 6 0.0000 0.0000 0.0000 5.1800 0.0000 27.5788
#
#
#
# Elastic Compliance Matrix: (Units=1/GPa)
#
#
# Indices 1 2 3 4 5 6 
#
# 1 0.021481 -0.008508 0.000624 0.000000 0.015008 0.000000
# 2 -0.008508 0.015208 -0.002183 0.000000 -0.002228 0.000000
# 3 0.000624 -0.002183 0.018028 0.000000 0.008959 0.000000
# 4 0.000000 0.000000 0.000000 0.037771 0.000000 -0.007094
# 5 0.015008 -0.002228 0.008959 0.000000 0.054466 0.000000
# 6 0.000000 0.000000 0.000000 -0.007094 0.000000 0.037592
#
#
# Mechanical properties :
#
#
# Convention : Reuss Voigt Hill
#
# Bulk Modulus (GPa) = 28.91565 41.48559 35.20062
# Shear Modulus (GPa) = 23.12580 27.01950 25.07265
#
# Velocity S-wave (km/s) = 3.40033 3.67546 3.54057
# Velocity P-wave (km/s) = 5.46565 6.22524 5.85777
#
# Compressibility (1/GPa) = 0.03458335
#
# Stress axis : x y z
#
# Youngs Moduli (GPa) = 46.55207 65.75511 55.46956
#
# Poissons Ratio (x) = 0.55944 -0.03460
# Poissons Ratio (y) = 0.39606 0.12108
# Poissons Ratio (z) = -0.02904 0.14353
#
# Static dielectric constant tensor:
#      x y z
#    x 3.709660 0.000000 -0.130130 
#    y 0.000000 3.648920 0.000000 
#    z -0.130130 0.000000 3.614320 
# 
# 
# High freq. dielectric constant tensor:
#      x y z
#    x 1.788270 0.000000 -0.006390 
#    y 0.000000 1.786810 0.000000 
#    z -0.006390 0.000000 1.772020 
# 
# From -- ./inp_files/65880.got.cif
#   From: 2010.06.25/outbox.cif.g09.slc.cpg/sg12_33_cif.got.tgz:65880.got - 2010.06.28 00:19:55.
