data_PCOD8102961
_publ_section_title
;
Structure prediction by ZEFSAII (Michael W. Deem and Ramdas Pophale) SiO2 
 PCOD8102961
Probable space group: C 2/M
;
_chemical_formula_sum "Si O2"
_cell_formula_units_Z 56
_cell_length_a 19.493504
_cell_length_b 8.989492
_cell_length_c 29.310489
_cell_angle_alpha 90.000000
_cell_angle_beta 34.057887
_cell_angle_gamma 90.000000
_cell_volume 2876.468225
_symmetry_space_group_name_H-M "C 2/M"
_symmetry_group_IT_number 12
_symmetry_cell_setting 'monoclinic'
loop_
_space_group_symop_operation_xyz
x,y,z
-x,y,-z
-x,-y,-z
x,-y,z
1/2+x,1/2+y,z
1/2-x,1/2+y,-z
1/2-x,1/2-y,-z
1/2+x,1/2-y,z
loop_
_atom_site_type_symbol
_atom_site_label
_atom_site_fract_x
_atom_site_fract_y
_atom_site_fract_z
Si Si1 0.251631 0.823424 0.138559
Si Si2 0.537219 0.174083 0.573216
Si Si3 0.007583 0.169888 0.682513
Si Si4 0.294850 0.324675 0.674557
Si Si5 0.327863 0.177378 0.997281
Si Si6 0.259056 0.668271 0.386388
Si Si7 0.103805 0.323434 0.854802
O O1 0.354643 0.767057 0.117796
O O2 0.119711 0.765594 0.228044
O O3 0.252591 0.000000 0.136166
O O4 0.277911 0.762822 0.073413
O O5 0.552741 0.232312 0.615679
O O6 0.426163 0.251362 0.608520
O O7 0.661075 0.214916 0.478479
O O8 0.512578 0.000000 0.587919
O O9 0.105526 0.181055 0.668466
O O10 0.990639 0.000000 0.674987
O O11 0.309518 0.500000 0.670546
O O12 0.244702 0.282590 0.652869
O O13 0.200367 0.262982 0.764469
O O14 0.468370 0.233656 0.916677
O O15 0.318042 0.000000 0.998689
O O16 0.250000 0.250000 0.000000
O O17 0.232688 0.500000 0.383960
O O18 0.103492 0.500000 0.854746
#
# Coordination Sequence:
#
# PCOD8102961 Si02
#       7
#     8   8   8   8   8   8   8
#     4   9  17  34  60  84 107 143 189 227 267 324
#     4  11  22  38  57  82 115 150 189 238 292 339
#     4  10  20  37  60  84 112 148 193 235 276 341
#     4  11  22  37  59  84 112 151 196 238 280 334
#     4  10  21  36  59  88 116 146 178 224 279 333
#     4  10  23  38  55  82 118 152 186 237 293 339
#     4   9  18  35  58  84 111 142 189 235 269 320
#
# _framework density 19.468319000000001
#
# number of rings (size 3 to 8) (size 9 to 14) (size 15 to 20)
#    0.000    2.000    1.429    2.143    2.000    5.143 
#    0.000    1.429    0.000    0.857    0.000    0.000 
#    0.000    0.000    0.000    0.000    0.000    0.000 
#
# Total GULP energy -347245.160241 kJ/mol
# GULP energy per Si atom -12401.612866 kJ/mol
# Density = 1.942401 g / cm^3
# Si number density = 19.468319 Si / 1000 Ang^3
#
#
#
# Elastic Constant Matrix: (Units=GPa)
#
#
# Indices 1 2 3 4 5 6 
#
# 1 122.7482 32.3655 50.0680 0.0006 -6.7237 -0.0015
# 2 32.3655 43.5700 27.5556 0.0039 5.0060 0.0027
# 3 50.0680 27.5556 105.2545 -0.0012 -7.3226 0.0008
# 4 0.0006 0.0039 -0.0012 17.6435 0.0000 -0.6055
# 5 -6.7237 5.0060 -7.3226 0.0000 37.7958 0.0003
# 6 -0.0015 0.0027 0.0008 -0.6055 0.0003 32.0753
#
#
#
# Elastic Compliance Matrix: (Units=1/GPa)
#
#
# Indices 1 2 3 4 5 6 
#
# 1 0.011441 -0.006479 -0.003593 0.000001 0.002197 0.000001
# 2 -0.006479 0.032183 -0.005798 -0.000007 -0.006538 -0.000003
# 3 -0.003593 -0.005798 0.012911 0.000002 0.002630 0.000000
# 4 0.000001 -0.000007 0.000002 0.056715 0.000002 0.001071
# 5 0.002197 -0.006538 0.002630 0.000002 0.028224 0.000000
# 6 0.000001 -0.000003 0.000000 0.001071 0.000000 0.031197
#
#
# Mechanical properties :
#
#
# Convention : Reuss Voigt Hill
#
# Bulk Modulus (GPa) = 40.33274 54.61678 47.47476
# Shear Modulus (GPa) = 23.50985 28.27516 25.89250
#
# Velocity S-wave (km/s) = 3.47882 3.81513 3.65085
# Velocity P-wave (km/s) = 6.07440 6.89362 6.49694
#
# Compressibility (1/GPa) = 0.02479375
#
# Stress axis : x y z
#
# Youngs Moduli (GPa) = 87.40424 31.07258 77.45261
#
# Poissons Ratio (x) = 0.20131 0.27832
# Poissons Ratio (y) = 0.56627 0.44911
# Poissons Ratio (z) = 0.31408 0.18017
#
# Static dielectric constant tensor:
#      x y z
#    x 3.622470 0.000000 -0.023190 
#    y 0.000000 3.261050 0.000000 
#    z -0.023190 0.000000 3.839430 
# 
# 
# High freq. dielectric constant tensor:
#      x y z
#    x 1.772270 0.000000 -0.002880 
#    y 0.000000 1.721840 0.000000 
#    z -0.002880 0.000000 1.772190 
# 
# From -- ./inp_files/275588.got.cif
#   From: 2010.06.25/outbox.cif.g09.slc.cpg/sg12_138_cif.got.tgz:275588.got - 2010.06.28 00:19:55.
