data_PCOD8102001
_publ_section_title
;
Structure prediction by ZEFSAII (Michael W. Deem and Ramdas Pophale) SiO2 
 PCOD8102001
Probable space group: C 2/M
;
_chemical_formula_sum "Si O2"
_cell_formula_units_Z 56
_cell_length_a 18.633628
_cell_length_b 8.926368
_cell_length_c 18.403801
_cell_angle_alpha 90.000000
_cell_angle_beta 68.613162
_cell_angle_gamma 90.000000
_cell_volume 2850.326029
_symmetry_space_group_name_H-M "C 2/M"
_symmetry_group_IT_number 12
_symmetry_cell_setting 'monoclinic'
loop_
_space_group_symop_operation_xyz
x,y,z
-x,y,-z
-x,-y,-z
x,-y,z
1/2+x,1/2+y,z
1/2-x,1/2+y,-z
1/2-x,1/2-y,-z
1/2+x,1/2-y,z
loop_
_atom_site_type_symbol
_atom_site_label
_atom_site_fract_x
_atom_site_fract_y
_atom_site_fract_z
Si Si1 0.431361 0.166634 0.969945
Si Si2 0.920037 0.677857 0.495689
Si Si3 0.283631 0.324513 0.058629
Si Si4 0.783773 0.173225 0.632894
Si Si5 0.968159 0.323333 0.793254
Si Si6 0.320565 0.326982 0.786541
Si Si7 0.115236 0.677476 0.652434
O O1 0.459386 0.222395 0.880651
O O2 0.394129 0.000000 0.976032
O O3 0.500000 0.158133 0.000000
O O4 0.373423 0.284911 0.026755
O O5 0.920253 0.500000 0.497811
O O6 0.847963 0.733799 0.567858
O O7 0.910887 0.737813 0.416805
O O8 0.000000 0.740555 0.500000
O O9 0.270222 0.500000 0.061205
O O10 0.242796 0.260212 0.144184
O O11 0.250000 0.250000 0.000000
O O12 0.796248 0.195546 0.713128
O O13 0.699686 0.239371 0.642611
O O14 0.791005 0.000000 0.607661
O O15 0.957743 0.500000 0.785332
O O16 0.904869 0.240243 0.768163
O O17 0.052189 0.269304 0.734958
O O18 0.320601 0.500000 0.809731
O O19 0.119362 0.500000 0.650522
#
# Coordination Sequence:
#
# PCOD8102001 Si02
#       7
#     8   8   8   8   8   8   8
#     4  10  22  38  61  90 119 156 200 244 297 356
#     4  10  20  36  60  87 116 151 191 237 287 343
#     4  12  24  40  62  87 118 157 200 249 300 351
#     4  10  22  38  59  86 116 152 192 236 288 345
#     4  10  20  37  61  84 114 155 197 241 288 349
#     4  11  23  38  59  85 117 153 195 246 295 351
#     4   9  19  36  58  85 116 153 194 235 287 350
#
# _framework density 19.646875000000001
#
# number of rings (size 3 to 8) (size 9 to 14) (size 15 to 20)
#    0.000    1.714    1.429    3.000    2.000    2.857 
#    0.000    1.429    0.000    0.000    0.000    0.000 
#    0.000    0.000    0.000    0.000    0.000    0.000 
#
# Total GULP energy -347247.394774 kJ/mol
# GULP energy per Si atom -12401.692671 kJ/mol
# Density = 1.960216 g / cm^3
# Si number density = 19.646875 Si / 1000 Ang^3
#
#
#
# Elastic Constant Matrix: (Units=GPa)
#
#
# Indices 1 2 3 4 5 6 
#
# 1 157.0951 34.7907 63.9541 0.0000 -9.4242 0.0000
# 2 34.7907 64.2362 37.0915 0.0001 -6.3761 0.0001
# 3 63.9541 37.0915 102.6087 0.0000 -19.0649 0.0000
# 4 0.0000 0.0001 0.0000 0.3864 0.0000 5.4969
# 5 -9.4242 -6.3761 -19.0649 0.0000 40.7468 0.0000
# 6 0.0000 0.0001 0.0000 5.4969 0.0000 24.3535
#
#
#
# Elastic Compliance Matrix: (Units=1/GPa)
#
#
# Indices 1 2 3 4 5 6 
#
# 1 0.008741 -0.002002 -0.004827 0.000000 -0.000550 0.000000
# 2 -0.002002 0.020135 -0.006058 0.000003 -0.000147 -0.000001
# 3 -0.004827 -0.006058 0.015947 -0.000001 0.005397 0.000000
# 4 0.000000 0.000003 -0.000001 -1.170529 0.000000 0.264204
# 5 -0.000550 -0.000147 0.005397 0.000000 0.026917 0.000000
# 6 0.000000 -0.000001 0.000000 0.264204 0.000000 -0.018573
#
#
# Mechanical properties :
#
#
# Convention : Reuss Voigt Hill
#
# Bulk Modulus (GPa) = 52.49373 66.17917 59.33645
# Shear Modulus (GPa) = -4.60728 25.63760 10.51516
#
# Velocity S-wave (km/s) = -1.53302 3.61629 2.31597
# Velocity P-wave (km/s) = 4.86242 7.15501 6.11708
#
# Compressibility (1/GPa) = 0.01904990
#
# Stress axis : x y z
#
# Youngs Moduli (GPa) = 114.40602 49.66405 62.70848
#
# Poissons Ratio (x) = 0.09941 0.30267
# Poissons Ratio (y) = 0.22900 0.37990
# Poissons Ratio (z) = 0.55219 0.30088
#
# Static dielectric constant tensor:
#      x y z
#    x 3.819370 0.000000 -0.001040 
#    y 0.000000 3.446320 0.000000 
#    z -0.001040 0.000000 3.728420 
# 
# 
# High freq. dielectric constant tensor:
#      x y z
#    x 1.779450 0.000000 -0.001680 
#    y 0.000000 1.744390 0.000000 
#    z -0.001680 0.000000 1.779960 
# 
# From -- ./inp_files/275305.got.cif
#   From: 2010.06.25/outbox.cif.g09.slc.cpg/sg12_138_cif.got.tgz:275305.got - 2010.06.28 00:19:55.
