data_PCOD8102456
_publ_section_title
;
Structure prediction by ZEFSAII (Michael W. Deem and Ramdas Pophale) SiO2 
 PCOD8102456
Probable space group: C 2/M
;
_chemical_formula_sum "Si O2"
_cell_formula_units_Z 40
_cell_length_a 9.536084
_cell_length_b 25.493498
_cell_length_c 15.649298
_cell_angle_alpha 90.000000
_cell_angle_beta 32.704013
_cell_angle_gamma 90.000000
_cell_volume 2055.553241
_symmetry_space_group_name_H-M "C 2/M"
_symmetry_group_IT_number 12
_symmetry_cell_setting 'monoclinic'
loop_
_space_group_symop_operation_xyz
x,y,z
-x,y,-z
-x,-y,-z
x,-y,z
1/2+x,1/2+y,z
1/2-x,1/2+y,-z
1/2-x,1/2-y,-z
1/2+x,1/2-y,z
loop_
_atom_site_type_symbol
_atom_site_label
_atom_site_fract_x
_atom_site_fract_y
_atom_site_fract_z
Si Si1 0.233494 0.593077 0.186639
Si Si2 0.745363 0.000000 0.313418
Si Si3 0.485663 0.811914 0.607973
Si Si4 0.250956 0.907028 0.311227
Si Si5 0.542154 0.302730 0.382688
Si Si6 0.734686 0.500000 0.186710
O O1 0.233368 0.550399 0.260284
O O2 0.210816 0.648736 0.245322
O O3 0.006411 0.581716 0.235012
O O4 0.500000 0.591075 0.000000
O O5 0.500000 0.000000 0.500000
O O6 0.003503 0.000000 0.237608
O O7 0.500000 0.819381 0.500000
O O8 0.396327 0.754244 0.690534
O O9 0.775473 0.827296 0.486532
O O10 0.261935 0.848232 0.262810
O O11 0.220272 0.948624 0.252176
O O12 0.000000 0.909651 0.500000
O O13 0.500000 0.284629 0.500000
O O14 0.000000 0.500000 0.000000
#
# Coordination Sequence:
#
# PCOD8102456 Si02
#       6
#     8   4   8   8   8   4
#     4  12  24  41  61  91 128 161 193 249 315 361
#     4  12  26  42  64  94 118 154 212 256 294 354
#     4  10  20  36  64  93 120 155 205 253 290 345
#     4  11  21  42  65  85 114 167 207 233 292 375
#     4   9  18  37  64  90 116 156 209 245 286 353
#     4  12  26  42  60  90 124 154 194 258 310 346
#
# _framework density 19.459481
#
# number of rings (size 3 to 8) (size 9 to 14) (size 15 to 20)
#    0.000    1.200    4.000    4.200    2.800    0.000 
#    0.000    2.000    0.000    0.000    0.000    0.000 
#    0.000    0.000    0.000    0.000    0.000    0.000 
#
# Total GULP energy -247879.636054 kJ/mol
# GULP energy per Si atom -12393.981803 kJ/mol
# Density = 1.941519 g / cm^3
# Si number density = 19.459481 Si / 1000 Ang^3
#
#
#
# Elastic Constant Matrix: (Units=GPa)
#
#
# Indices 1 2 3 4 5 6 
#
# 1 153.2827 58.2966 55.3497 -0.0001 -24.1067 -0.0001
# 2 58.2966 173.4425 58.0105 0.0000 5.2826 0.0000
# 3 55.3497 58.0105 125.3376 0.0000 -8.5270 -0.0003
# 4 -0.0001 0.0000 0.0000 -5.9417 0.0001 -6.6246
# 5 -24.1067 5.2826 -8.5270 0.0001 30.0790 0.0001
# 6 -0.0001 0.0000 -0.0003 -6.6246 0.0001 34.7439
#
#
#
# Elastic Compliance Matrix: (Units=1/GPa)
#
#
# Indices 1 2 3 4 5 6 
#
# 1 0.009596 -0.002607 -0.002525 0.000000 0.007433 0.000000
# 2 -0.002607 0.007667 -0.002683 0.000000 -0.004197 0.000000
# 3 -0.002525 -0.002683 0.010431 0.000000 0.001404 0.000000
# 4 0.000000 0.000000 0.000000 -0.138796 0.000001 -0.026464
# 5 0.007433 -0.004197 0.001404 0.000001 0.040338 0.000000
# 6 0.000000 0.000000 0.000000 -0.026464 0.000000 0.023736
#
#
# Mechanical properties :
#
#
# Convention : Reuss Voigt Hill
#
# Bulk Modulus (GPa) = 82.89406 88.37514 85.63460
# Shear Modulus (GPa) = -182.64162 30.46998 -76.08582
#
# Velocity S-wave (km/s) = -9.69851 3.96133 -6.25975
# Velocity P-wave (km/s) = 9.09528 8.15085 2.85374
#
# Compressibility (1/GPa) = 0.01206359
#
# Stress axis : x y z
#
# Youngs Moduli (GPa) = 104.20619 130.42905 95.86940
#
# Poissons Ratio (x) = 0.34005 0.24211
# Poissons Ratio (y) = 0.27169 0.25719
# Poissons Ratio (z) = 0.26316 0.34990
#
# Static dielectric constant tensor:
#      x y z
#    x 3.736000 0.000000 -0.081350 
#    y 0.000000 3.881160 0.000000 
#    z -0.081350 0.000000 3.288940 
# 
# 
# High freq. dielectric constant tensor:
#      x y z
#    x 1.783510 0.000000 -0.006310 
#    y 0.000000 1.784650 0.000000 
#    z -0.006310 0.000000 1.720980 
# 
# From -- ./inp_files/201136.got.cif
#   From: 2010.06.25/outbox.cif.g09.slc.cpg/sg12_101_cif.got.tgz:201136.got - 2010.06.28 00:19:55.
