data_PCOD8102221
_publ_section_title
;
Structure prediction by ZEFSAII (Michael W. Deem and Ramdas Pophale) SiO2 
 PCOD8102221
Probable space group: C 2/M
;
_chemical_formula_sum "Si O2"
_cell_formula_units_Z 64
_cell_length_a 19.761795
_cell_length_b 8.811602
_cell_length_c 30.886659
_cell_angle_alpha 90.000000
_cell_angle_beta 142.574339
_cell_angle_gamma 90.000000
_cell_volume 3268.616698
_symmetry_space_group_name_H-M "C 2/M"
_symmetry_group_IT_number 12
_symmetry_cell_setting 'monoclinic'
loop_
_space_group_symop_operation_xyz
x,y,z
-x,y,-z
-x,-y,-z
x,-y,z
1/2+x,1/2+y,z
1/2-x,1/2+y,-z
1/2-x,1/2-y,-z
1/2+x,1/2-y,z
loop_
_atom_site_type_symbol
_atom_site_label
_atom_site_fract_x
_atom_site_fract_y
_atom_site_fract_z
Si Si1 0.474603 0.323210 0.536623
Si Si2 0.241669 0.321608 0.949876
Si Si3 0.763791 0.330352 0.462145
Si Si4 0.371863 0.679504 0.808993
Si Si5 0.004432 0.678976 0.798313
Si Si6 0.525076 0.319945 0.965582
Si Si7 0.017366 0.170726 0.303841
Si Si8 0.613874 0.820276 0.683607
O O1 0.500000 0.287953 0.500000
O O2 0.484262 0.500000 0.553058
O O3 0.348627 0.268129 0.477349
O O4 0.558300 0.234141 0.610699
O O5 0.241447 0.500000 0.954849
O O6 0.129240 0.263376 0.870822
O O7 0.250000 0.250000 0.000000
O O8 0.348610 0.267116 0.977570
O O9 0.811895 0.500000 0.493087
O O10 0.750000 0.250000 0.500000
O O11 0.646149 0.336454 0.379873
O O12 0.384155 0.500000 0.811901
O O13 0.417757 0.747153 0.787569
O O14 0.442712 0.743114 0.886116
O O15 0.243471 0.727919 0.749582
O O16 0.991818 0.500000 0.796379
O O17 0.984630 0.726834 0.739408
O O18 0.512026 0.500000 0.959716
O O19 0.500000 0.250302 0.000000
O O20 0.945856 0.244419 0.305836
O O21 0.972480 0.000000 0.272681
O O22 0.600744 0.000000 0.680999
#
# Coordination Sequence:
#
# PCOD8102221 Si02
#       8
#     8   8   8   8   8   8   8   8
#     4  11  25  43  64  92 126 164 204 249 308 367
#     4  10  20  36  61  88 118 155 202 255 305 361
#     4  11  23  41  67  93 121 158 206 258 307 365
#     4  10  22  40  62  89 123 164 206 249 303 366
#     4  11  24  39  61  92 125 162 207 256 306 363
#     4   9  18  34  60  87 116 156 200 248 300 356
#     4  11  25  43  64  91 124 163 205 250 308 369
#     4  11  24  41  64  92 124 161 206 255 303 363
#
# _framework density 19.580148999999999
#
# number of rings (size 3 to 8) (size 9 to 14) (size 15 to 20)
#    0.000    1.500    2.500    1.875    3.500    4.000 
#    0.000    0.000    0.000    0.750    0.000    0.000 
#    0.000    0.000    0.000    0.000    0.000    0.000 
#
# Total GULP energy -396784.930262 kJ/mol
# GULP energy per Si atom -12399.529071 kJ/mol
# Density = 1.953558 g / cm^3
# Si number density = 19.580149 Si / 1000 Ang^3
#
#
#
# Elastic Constant Matrix: (Units=GPa)
#
#
# Indices 1 2 3 4 5 6 
#
# 1 159.8895 41.4443 61.0065 -0.0002 4.9441 0.0003
# 2 41.4443 36.3586 27.4584 -0.0004 4.4960 0.0004
# 3 61.0065 27.4584 105.0336 -0.0001 5.0726 0.0004
# 4 -0.0002 -0.0004 -0.0001 23.0083 0.0000 1.0915
# 5 4.9441 4.4960 5.0726 0.0000 39.9612 -0.0001
# 6 0.0003 0.0004 0.0004 1.0915 -0.0001 24.6061
#
#
#
# Elastic Compliance Matrix: (Units=1/GPa)
#
#
# Indices 1 2 3 4 5 6 
#
# 1 0.009788 -0.008573 -0.003453 0.000000 0.000192 0.000000
# 2 -0.008573 0.042078 -0.005879 0.000001 -0.002927 -0.000001
# 3 -0.003453 -0.005879 0.013091 0.000000 -0.000573 0.000000
# 4 0.000000 0.000001 0.000000 0.043554 0.000000 -0.001932
# 5 0.000192 -0.002927 -0.000573 0.000000 0.025403 0.000000
# 6 0.000000 -0.000001 0.000000 -0.001932 0.000000 0.040726
#
#
# Mechanical properties :
#
#
# Convention : Reuss Voigt Hill
#
# Bulk Modulus (GPa) = 34.31001 62.34445 48.32723
# Shear Modulus (GPa) = 22.70996 28.93995 25.82496
#
# Velocity S-wave (km/s) = 3.40935 3.84868 3.63566
# Velocity P-wave (km/s) = 5.74970 7.18746 6.50840
#
# Compressibility (1/GPa) = 0.02914602
#
# Stress axis : x y z
#
# Youngs Moduli (GPa) = 102.16370 23.76525 76.38687
#
# Poissons Ratio (x) = 0.20374 0.26379
# Poissons Ratio (y) = 0.87586 0.44911
# Poissons Ratio (z) = 0.35280 0.13973
#
# Static dielectric constant tensor:
#      x y z
#    x 3.695720 0.000000 0.093680 
#    y 0.000000 3.615130 0.000000 
#    z 0.093680 0.000000 3.747560 
# 
# 
# High freq. dielectric constant tensor:
#      x y z
#    x 1.778790 0.000000 0.003240 
#    y 0.000000 1.757510 0.000000 
#    z 0.003240 0.000000 1.775110 
# 
# From -- ./inp_files/378536.got.cif
#   From: 2010.06.25/outbox.cif.g09.slc.cpg/sg12_190_cif.got.tgz:378536.got - 2010.06.28 00:19:55.
