data_PCOD8102792
_publ_section_title
;
Structure prediction by ZEFSAII (Michael W. Deem and Ramdas Pophale) SiO2 
 PCOD8102792
Probable space group: C 2/M
;
_chemical_formula_sum "Si O2"
_cell_formula_units_Z 64
_cell_length_a 12.097350
_cell_length_b 24.309044
_cell_length_c 11.794521
_cell_angle_alpha 90.000000
_cell_angle_beta 111.430498
_cell_angle_gamma 90.000000
_cell_volume 3228.668711
_symmetry_space_group_name_H-M "C 2/M"
_symmetry_group_IT_number 12
_symmetry_cell_setting 'monoclinic'
loop_
_space_group_symop_operation_xyz
x,y,z
-x,y,-z
-x,-y,-z
x,-y,z
1/2+x,1/2+y,z
1/2-x,1/2+y,-z
1/2-x,1/2-y,-z
1/2+x,1/2-y,z
loop_
_atom_site_type_symbol
_atom_site_label
_atom_site_fract_x
_atom_site_fract_y
_atom_site_fract_z
Si Si1 0.551186 0.636888 0.348803
Si Si2 0.724763 0.794200 0.587007
Si Si3 0.924441 0.387688 0.571581
Si Si4 0.185307 0.060690 0.557298
Si Si5 0.697073 0.154617 0.077667
Si Si6 0.863756 0.937762 0.198802
Si Si7 0.508157 0.168554 0.818639
Si Si8 0.883780 0.230711 0.248161
O O1 0.664327 0.667149 0.337383
O O2 0.591370 0.604681 0.476127
O O3 0.492119 0.592931 0.238699
O O4 0.452080 0.682589 0.342179
O O5 0.750000 0.750000 0.500000
O O6 0.619036 0.830384 0.497856
O O7 0.689350 0.765747 0.689833
O O8 0.818206 0.427538 0.566150
O O9 0.000000 0.417384 0.500000
O O10 0.004372 0.373556 0.711539
O O11 0.180234 0.063337 0.689145
O O12 0.149167 0.000000 0.499787
O O13 0.762646 0.095667 0.094289
O O14 0.610858 0.160411 0.153680
O O15 0.793812 0.203405 0.123512
O O16 0.626004 0.156965 0.934488
O O17 0.873696 0.000000 0.155010
O O18 0.519667 0.231671 0.780821
#
# Coordination Sequence:
#
# PCOD8102792 Si02
#       8
#     8   8   8   8   8   8   8   8
#     4  10  22  32  54  84 116 150 182 228 287 339
#     4  11  23  31  51  84 119 153 188 227 273 342
#     4  11  21  37  55  81 113 151 187 230 280 344
#     4  10  21  36  56  83 114 146 189 237 289 337
#     4  10  22  37  59  83 114 149 192 243 275 338
#     4  10  20  37  59  83 110 143 191 248 293 328
#     4  11  21  39  55  81 119 153 188 231 284 332
#     4  11  21  36  56  82 118 153 191 225 281 342
#
# _framework density 19.822412
#
# number of rings (size 3 to 8) (size 9 to 14) (size 15 to 20)
#    0.000    1.500    2.500    3.375    7.000    1.250 
#    0.000    1.875    0.000    0.000    0.000    0.875 
#    0.000    0.000    0.000    0.000    0.000    0.000 
#
# Total GULP energy -396733.183759 kJ/mol
# GULP energy per Si atom -12397.911992 kJ/mol
# Density = 1.977730 g / cm^3
# Si number density = 19.822412 Si / 1000 Ang^3
#
#
#
# Elastic Constant Matrix: (Units=GPa)
#
#
# Indices 1 2 3 4 5 6 
#
# 1 85.6872 37.8825 33.0538 0.0000 12.9892 0.0000
# 2 37.8825 121.5781 34.4303 0.0000 10.6850 0.0000
# 3 33.0538 34.4303 83.3526 0.0000 10.7073 0.0000
# 4 0.0000 0.0000 0.0000 19.4957 0.0000 1.5029
# 5 12.9892 10.6850 10.7073 0.0000 25.5019 0.0000
# 6 0.0000 0.0000 0.0000 1.5029 0.0000 24.4023
#
#
#
# Elastic Compliance Matrix: (Units=1/GPa)
#
#
# Indices 1 2 3 4 5 6 
#
# 1 0.015420 -0.003203 -0.004181 0.000000 -0.004757 0.000000
# 2 -0.003203 0.010123 -0.002723 0.000000 -0.001467 0.000000
# 3 -0.004181 -0.002723 0.015179 0.000000 -0.003102 0.000000
# 4 0.000000 0.000000 0.000000 0.051538 0.000000 -0.003174
# 5 -0.004757 -0.001467 -0.003102 0.000000 0.043553 0.000000
# 6 0.000000 0.000000 0.000000 -0.003174 0.000000 0.041175
#
#
# Mechanical properties :
#
#
# Convention : Reuss Voigt Hill
#
# Bulk Modulus (GPa) = 48.76041 55.70568 52.23305
# Shear Modulus (GPa) = 24.50527 26.23005 25.36766
#
# Velocity S-wave (km/s) = 3.51984 3.64160 3.58124
# Velocity P-wave (km/s) = 6.41647 6.77090 6.59606
#
# Compressibility (1/GPa) = 0.02050844
#
# Stress axis : x y z
#
# Youngs Moduli (GPa) = 64.85022 98.78322 65.88251
#
# Poissons Ratio (x) = 0.31637 0.27545
# Poissons Ratio (y) = 0.20769 0.17940
# Poissons Ratio (z) = 0.27113 0.26900
#
# Static dielectric constant tensor:
#      x y z
#    x 3.768020 0.000000 0.217180 
#    y 0.000000 3.882660 0.000000 
#    z 0.217180 0.000000 3.504900 
# 
# 
# High freq. dielectric constant tensor:
#      x y z
#    x 1.776630 0.000000 0.023000 
#    y 0.000000 1.773720 0.000000 
#    z 0.023000 0.000000 1.753030 
# 
# From -- ./inp_files/135962.got.cif
#   From: 2010.06.25/outbox.cif.g09.slc.cpg/sg12_68_cif.got.tgz:135962.got - 2010.06.28 00:19:55.
