data_PCOD8102604
_publ_section_title
;
Structure prediction by ZEFSAII (Michael W. Deem and Ramdas Pophale) SiO2 
 PCOD8102604
Probable space group: C 2/M
;
_chemical_formula_sum "Si O2"
_cell_formula_units_Z 48
_cell_length_a 8.885581
_cell_length_b 13.168446
_cell_length_c 20.562287
_cell_angle_alpha 90.000000
_cell_angle_beta 86.514671
_cell_angle_gamma 90.000000
_cell_volume 2401.528572
_symmetry_space_group_name_H-M "C 2/M"
_symmetry_group_IT_number 12
_symmetry_cell_setting 'monoclinic'
loop_
_space_group_symop_operation_xyz
x,y,z
-x,y,-z
-x,-y,-z
x,-y,z
1/2+x,1/2+y,z
1/2-x,1/2+y,-z
1/2-x,1/2-y,-z
1/2+x,1/2-y,z
loop_
_atom_site_type_symbol
_atom_site_label
_atom_site_fract_x
_atom_site_fract_y
_atom_site_fract_z
Si Si1 0.517425 0.617742 0.923093
Si Si2 0.615745 0.719730 0.549201
Si Si3 0.040768 0.701118 0.763553
Si Si4 0.221783 0.742391 0.144744
Si Si5 0.505606 0.382689 0.669377
Si Si6 0.331408 0.112321 0.360113
O O1 0.508613 0.500000 0.900846
O O2 0.681624 0.663675 0.900977
O O3 0.382149 0.681879 0.894518
O O4 0.500000 0.626876 0.000000
O O5 0.500000 0.678547 0.500000
O O6 0.750000 0.750000 0.500000
O O7 0.625816 0.635149 0.606660
O O8 0.577097 0.822543 0.589372
O O9 0.166222 0.689434 0.815760
O O10 0.046526 0.814158 0.730733
O O11 0.073436 0.616008 0.709026
O O12 0.881287 0.679186 0.801921
O O13 0.508735 0.500000 0.691040
O O14 0.339782 0.348883 0.647728
O O15 0.327268 0.000000 0.388139
#
# Coordination Sequence:
#
# PCOD8102604 Si02
#       6
#     8   8   8   8   8   8
#     4  10  22  41  64  92 127 167 209 251 298 352
#     4  11  22  38  56  79 109 142 187 240 287 349
#     4  10  20  37  57  88 120 150 190 246 299 351
#     4  10  21  37  63  91 124 161 203 249 300 358
#     4  10  21  37  60  82 109 152 192 237 298 358
#     4  10  21  36  56  81 112 148 185 238 298 349
#
# _framework density 19.987269999999999
#
# number of rings (size 3 to 8) (size 9 to 14) (size 15 to 20)
#    0.000    1.833    3.333    0.500    0.000    5.333 
#    0.000    4.167    0.000    9.000    0.000    0.000 
#    0.000    0.000    0.000    0.000    0.000    0.000 
#
# Total GULP energy -297335.669147 kJ/mol
# GULP energy per Si atom -12388.986214 kJ/mol
# Density = 1.994178 g / cm^3
# Si number density = 19.987270 Si / 1000 Ang^3
#
#
#
# Elastic Constant Matrix: (Units=GPa)
#
#
# Indices 1 2 3 4 5 6 
#
# 1 71.6495 26.2613 32.5616 0.0000 -14.5293 0.0000
# 2 26.2613 96.2617 30.5126 0.0000 2.6832 0.0000
# 3 32.5616 30.5126 118.0119 0.0000 -19.1073 0.0000
# 4 0.0000 0.0000 0.0000 18.9236 0.0000 -1.5571
# 5 -14.5293 2.6832 -19.1073 0.0000 39.4788 0.0000
# 6 0.0000 0.0000 0.0000 -1.5571 0.0000 25.6663
#
#
#
# Elastic Compliance Matrix: (Units=1/GPa)
#
#
# Indices 1 2 3 4 5 6 
#
# 1 0.017921 -0.004085 -0.003012 0.000000 0.005416 0.000000
# 2 -0.004085 0.012455 -0.002684 0.000000 -0.003649 0.000000
# 3 -0.003012 -0.002684 0.010686 0.000000 0.004246 0.000000
# 4 0.000000 0.000000 0.000000 0.053109 0.000000 0.003222
# 5 0.005416 -0.003649 0.004246 0.000000 0.029626 0.000000
# 6 0.000000 0.000000 0.000000 0.003222 0.000000 0.039157
#
#
# Mechanical properties :
#
#
# Convention : Reuss Voigt Hill
#
# Bulk Modulus (GPa) = 46.51053 51.62157 49.06605
# Shear Modulus (GPa) = 26.35967 29.91958 28.13963
#
# Velocity S-wave (km/s) = 3.63550 3.87322 3.75624
# Velocity P-wave (km/s) = 6.39868 6.77390 6.58896
#
# Compressibility (1/GPa) = 0.02150051
#
# Stress axis : x y z
#
# Youngs Moduli (GPa) = 55.80023 80.28656 93.57930
#
# Poissons Ratio (x) = 0.32801 0.28182
# Poissons Ratio (y) = 0.22797 0.25117
# Poissons Ratio (z) = 0.16805 0.21549
#
# Static dielectric constant tensor:
#      x y z
#    x 3.710840 0.000000 -0.234870 
#    y 0.000000 3.353310 0.000000 
#    z -0.234870 0.000000 4.022440 
# 
# 
# High freq. dielectric constant tensor:
#      x y z
#    x 1.775350 0.000000 -0.006890 
#    y 0.000000 1.758140 0.000000 
#    z -0.006890 0.000000 1.799990 
# 
# From -- ./inp_files/255795.got.cif
#   From: 2010.06.25/outbox.cif.g09.slc.cpg/sg12_128_cif.got.tgz:255795.got - 2010.06.28 00:19:55.
