data_PCOD8102253
_publ_section_title
;
Structure prediction by ZEFSAII (Michael W. Deem and Ramdas Pophale) SiO2 
 PCOD8102253
Probable space group: C 2/M
;
_chemical_formula_sum "Si O2"
_cell_formula_units_Z 40
_cell_length_a 24.162697
_cell_length_b 8.741775
_cell_length_c 9.603432
_cell_angle_alpha 90.000000
_cell_angle_beta 103.127609
_cell_angle_gamma 90.000000
_cell_volume 1975.472490
_symmetry_space_group_name_H-M "C 2/M"
_symmetry_group_IT_number 12
_symmetry_cell_setting 'monoclinic'
loop_
_space_group_symop_operation_xyz
x,y,z
-x,y,-z
-x,-y,-z
x,-y,z
1/2+x,1/2+y,z
1/2-x,1/2+y,-z
1/2-x,1/2-y,-z
1/2+x,1/2-y,z
loop_
_atom_site_type_symbol
_atom_site_label
_atom_site_fract_x
_atom_site_fract_y
_atom_site_fract_z
Si Si1 0.233845 0.680306 0.345554
Si Si2 0.510742 0.681350 0.350699
Si Si3 0.886280 0.823228 0.774090
Si Si4 0.592718 0.676647 0.899586
Si Si5 0.206268 0.679480 0.868526
O O1 0.238004 0.500000 0.352863
O O2 0.250000 0.750000 0.500000
O O3 0.170970 0.725898 0.260607
O O4 0.282318 0.744609 0.272936
O O5 0.500000 0.749653 0.500000
O O6 0.511490 0.500000 0.358657
O O7 0.571112 0.737273 0.322324
O O8 0.462123 0.734734 0.216109
O O9 0.870188 0.000000 0.739766
O O10 0.917262 0.803315 0.940946
O O11 0.607036 0.500000 0.872718
O O12 0.642915 0.785391 0.878999
O O13 0.216531 0.500000 0.865836
O O14 0.250000 0.750000 0.000000
#
# Coordination Sequence:
#
# PCOD8102253 Si02
#       5
#     8   8   8   8   8
#     4  12  26  43  64  92 128 167 208 258 316 375
#     4   9  19  35  58  90 122 161 209 256 307 368
#     4  10  20  37  61  89 124 164 209 254 306 370
#     4  10  20  36  61  90 124 165 208 254 306 367
#     4  12  24  41  64  94 128 165 209 257 312 373
#
# _framework density 20.248322000000002
#
# number of rings (size 3 to 8) (size 9 to 14) (size 15 to 20)
#    0.000    1.400    2.000    4.200    2.800    2.400 
#    0.000    1.000    0.000    3.600    0.000    0.000 
#    0.000    0.000    0.000    0.000    0.000    0.000 
#
# Total GULP energy -248043.703040 kJ/mol
# GULP energy per Si atom -12402.185152 kJ/mol
# Density = 2.020224 g / cm^3
# Si number density = 20.248322 Si / 1000 Ang^3
#
#
#
# Elastic Constant Matrix: (Units=GPa)
#
#
# Indices 1 2 3 4 5 6 
#
# 1 92.3313 27.2605 27.1863 0.0000 -17.2352 0.0000
# 2 27.2605 115.5351 34.5948 0.0000 -6.4236 0.0000
# 3 27.1863 34.5948 124.3478 0.0000 -14.9180 0.0000
# 4 0.0000 0.0000 0.0000 23.1834 0.0000 -1.2680
# 5 -17.2352 -6.4236 -14.9180 0.0000 42.7794 0.0000
# 6 0.0000 0.0000 0.0000 -1.2680 0.0000 29.4754
#
#
#
# Elastic Compliance Matrix: (Units=1/GPa)
#
#
# Indices 1 2 3 4 5 6 
#
# 1 0.012781 -0.002286 -0.001651 0.000000 0.004230 0.000000
# 2 -0.002286 0.009862 -0.002272 0.000000 -0.000232 0.000000
# 3 -0.001651 -0.002272 0.009303 0.000000 0.002238 0.000000
# 4 0.000000 0.000000 0.000000 0.043236 0.000000 0.001860
# 5 0.004230 -0.000232 0.002238 0.000000 0.025826 0.000000
# 6 0.000000 0.000000 0.000000 0.001860 0.000000 0.034007
#
#
# Mechanical properties :
#
#
# Convention : Reuss Voigt Hill
#
# Bulk Modulus (GPa) = 51.20541 56.69972 53.95257
# Shear Modulus (GPa) = 32.47966 35.29916 33.88941
#
# Velocity S-wave (km/s) = 4.00943 4.17983 4.09551
# Velocity P-wave (km/s) = 6.83942 7.16642 7.00483
#
# Compressibility (1/GPa) = 0.01952919
#
# Stress axis : x y z
#
# Youngs Moduli (GPa) = 78.23919 101.39785 107.48739
#
# Poissons Ratio (x) = 0.23182 0.17744
# Poissons Ratio (y) = 0.17887 0.24419
# Poissons Ratio (z) = 0.12916 0.23035
#
# Static dielectric constant tensor:
#      x y z
#    x 3.071200 0.000000 -0.120440 
#    y 0.000000 3.467770 0.000000 
#    z -0.120440 0.000000 4.025690 
# 
# 
# High freq. dielectric constant tensor:
#      x y z
#    x 1.798850 0.000000 -0.007190 
#    y 0.000000 1.765210 0.000000 
#    z -0.007190 0.000000 1.807370 
# 
# From -- ./inp_files/92728.got.cif
#   From: 2010.06.25/outbox.cif.g09.slc.cpg/sg12_47_cif.got.tgz:92728.got - 2010.06.28 00:19:55.
