data_PCOD8102679
_publ_section_title
;
Structure prediction by ZEFSAII (Michael W. Deem and Ramdas Pophale) SiO2 
 PCOD8102679
Probable space group: C 2/M
;
_chemical_formula_sum "Si O2"
_cell_formula_units_Z 64
_cell_length_a 29.451099
_cell_length_b 22.545375
_cell_length_c 9.709820
_cell_angle_alpha 90.000000
_cell_angle_beta 29.052839
_cell_angle_gamma 90.000000
_cell_volume 3130.856310
_symmetry_space_group_name_H-M "C 2/M"
_symmetry_group_IT_number 12
_symmetry_cell_setting 'monoclinic'
loop_
_space_group_symop_operation_xyz
x,y,z
-x,y,-z
-x,-y,-z
x,-y,z
1/2+x,1/2+y,z
1/2-x,1/2+y,-z
1/2-x,1/2-y,-z
1/2+x,1/2-y,z
loop_
_atom_site_type_symbol
_atom_site_label
_atom_site_fract_x
_atom_site_fract_y
_atom_site_fract_z
Si Si1 0.538259 0.565448 0.256319
Si Si2 0.100466 0.657094 0.275824
Si Si3 0.302888 0.821066 0.499995
Si Si4 0.759048 0.064718 0.192574
Si Si5 0.733926 0.431094 0.143676
Si Si6 0.362532 0.767983 0.078565
Si Si7 0.569561 0.235437 0.621303
Si Si8 0.438842 0.363747 0.300815
O O1 0.500000 0.591709 0.500000
O O2 0.492450 0.500000 0.350962
O O3 0.515629 0.612005 0.200418
O O4 0.648633 0.559316 0.962819
O O5 0.105646 0.689992 0.409451
O O6 0.000000 0.630268 0.500000
O O7 0.170542 0.602721 0.076674
O O8 0.122930 0.708549 0.110954
O O9 0.303780 0.886579 0.563595
O O10 0.317318 0.818818 0.296454
O O11 0.202965 0.788510 0.780199
O O12 0.391727 0.789316 0.336547
O O13 0.707412 0.000000 0.330607
O O14 0.787992 0.081293 0.959316
O O15 0.750037 0.500000 0.132416
O O16 0.649503 0.408809 0.466349
O O17 0.458803 0.752606 0.901232
O O18 0.608046 0.302846 0.518213
O O19 0.500000 0.356603 0.000000
#
# Coordination Sequence:
#
# PCOD8102679 Si02
#       8
#     8   8   8   8   8   8   8   8
#     4  10  20  37  58  82 119 163 203 248 299 363
#     4  10  23  42  63  93 121 158 212 263 311 373
#     4  11  21  39  63  87 126 165 199 264 316 368
#     4  10  21  37  62  90 116 162 219 256 300 370
#     4  11  23  41  64  90 123 166 214 259 308 374
#     4  10  23  38  60  95 124 157 208 254 318 384
#     4  11  23  40  63  88 125 168 204 252 314 374
#     4  12  25  38  60  97 133 166 205 251 318 385
#
# _framework density 20.441690999999999
#
# number of rings (size 3 to 8) (size 9 to 14) (size 15 to 20)
#    0.000    1.375    2.500    3.000    1.750    6.750 
#    0.000    1.875    0.000    2.250    0.000    0.000 
#    0.000    0.000    0.000    0.000    0.000    0.000 
#
# Total GULP energy -396465.712277 kJ/mol
# GULP energy per Si atom -12389.553509 kJ/mol
# Density = 2.039516 g / cm^3
# Si number density = 20.441691 Si / 1000 Ang^3
#
#
#
# Elastic Constant Matrix: (Units=GPa)
#
#
# Indices 1 2 3 4 5 6 
#
# 1 87.1344 30.5849 23.4081 0.0000 -6.4765 0.0000
# 2 30.5849 101.6153 27.6515 0.0000 -5.1520 0.0000
# 3 23.4081 27.6515 69.1708 0.0000 -5.2020 0.0000
# 4 0.0000 0.0000 0.0000 29.0107 0.0000 -11.3536
# 5 -6.4765 -5.1520 -5.2020 0.0000 30.1522 0.0000
# 6 0.0000 0.0000 0.0000 -11.3536 0.0000 17.4277
#
#
#
# Elastic Compliance Matrix: (Units=1/GPa)
#
#
# Indices 1 2 3 4 5 6 
#
# 1 0.013569 -0.003118 -0.003208 0.000000 0.001828 0.000000
# 2 -0.003118 0.011798 -0.003606 0.000000 0.000724 0.000000
# 3 -0.003208 -0.003606 0.017108 0.000000 0.001646 0.000000
# 4 0.000000 0.000000 0.000000 0.046266 0.000000 0.030141
# 5 0.001828 0.000724 0.001646 0.000000 0.033966 0.000000
# 6 0.000000 0.000000 0.000000 0.030141 0.000000 0.077016
#
#
# Mechanical properties :
#
#
# Convention : Reuss Voigt Hill
#
# Bulk Modulus (GPa) = 44.22964 46.80104 45.51534
# Shear Modulus (GPa) = 22.01449 27.06986 24.54218
#
# Velocity S-wave (km/s) = 3.28524 3.64297 3.46872
# Velocity P-wave (km/s) = 6.00619 6.37492 6.19330
#
# Compressibility (1/GPa) = 0.02260928
#
# Stress axis : x y z
#
# Youngs Moduli (GPa) = 73.69882 84.76194 58.45219
#
# Poissons Ratio (x) = 0.26433 0.18750
# Poissons Ratio (y) = 0.22983 0.21081
# Poissons Ratio (z) = 0.23640 0.30569
#
# Static dielectric constant tensor:
#      x y z
#    x 4.258670 0.000000 -0.288760 
#    y 0.000000 3.817800 0.000000 
#    z -0.288760 0.000000 3.779150 
# 
# 
# High freq. dielectric constant tensor:
#      x y z
#    x 1.807750 0.000000 -0.003170 
#    y 0.000000 1.795270 0.000000 
#    z -0.003170 0.000000 1.788790 
# 
# From -- ./inp_files/113616.got.cif
#   From: 2010.06.25/outbox.cif.g09.slc.cpg/sg12_57_cif.got.tgz:113616.got - 2010.06.28 00:19:55.
