data_PCOD8102131
_publ_section_title
;
Structure prediction by ZEFSAII (Michael W. Deem and Ramdas Pophale) SiO2 
 PCOD8102131
Probable space group: C 2/M
;
_chemical_formula_sum "Si O2"
_cell_formula_units_Z 52
_cell_length_a 14.958072
_cell_length_b 10.848819
_cell_length_c 19.472355
_cell_angle_alpha 90.000000
_cell_angle_beta 53.944398
_cell_angle_gamma 90.000000
_cell_volume 2554.628117
_symmetry_space_group_name_H-M "C 2/M"
_symmetry_group_IT_number 12
_symmetry_cell_setting 'monoclinic'
loop_
_space_group_symop_operation_xyz
x,y,z
-x,y,-z
-x,-y,-z
x,-y,z
1/2+x,1/2+y,z
1/2-x,1/2+y,-z
1/2-x,1/2-y,-z
1/2+x,1/2-y,z
loop_
_atom_site_type_symbol
_atom_site_label
_atom_site_fract_x
_atom_site_fract_y
_atom_site_fract_z
Si Si1 0.194891 0.138257 0.484416
Si Si2 0.888340 0.500000 0.176444
Si Si3 0.251721 0.794274 0.307125
Si Si4 0.791301 0.500000 0.081890
Si Si5 0.467175 0.640813 0.650690
Si Si6 0.824872 0.761996 0.899798
Si Si7 0.044262 0.141968 0.767007
Si Si8 0.865831 0.500000 0.890470
O O1 0.250000 0.250000 0.500000
O O2 0.229539 0.143107 0.390076
O O3 0.063239 0.154635 0.550789
O O4 0.227536 0.000000 0.497870
O O5 0.822632 0.380410 0.227024
O O6 0.892305 0.500000 0.090654
O O7 0.002692 0.500000 0.164837
O O8 0.133615 0.768435 0.324392
O O9 0.326792 0.672180 0.279050
O O10 0.718994 0.374051 0.128465
O O11 0.828700 0.500000 0.986809
O O12 0.422700 0.500000 0.672351
O O13 0.514258 0.681439 0.702960
O O14 0.821986 0.621985 0.869905
O O15 0.955023 0.789680 0.857282
O O16 0.750000 0.750000 0.000000
O O17 0.029119 0.000000 0.788200
#
# Coordination Sequence:
#
# PCOD8102131 Si02
#       8
#     8   4   8   4   8   8   8   4
#     4  11  22  39  61  92 124 163 206 258 314 370
#     4  12  21  36  59  90 116 154 209 255 307 356
#     4  12  22  36  62  92 121 155 212 262 304 361
#     4  10  21  38  62  84 123 163 205 249 310 383
#     4  10  21  38  63  89 117 162 211 252 304 373
#     4  10  20  36  60  90 121 159 203 249 307 366
#     4  11  22  39  63  88 125 168 207 253 317 381
#     4  10  21  36  60  94 119 156 202 262 308 362
#
# _framework density 20.355212999999999
#
# number of rings (size 3 to 8) (size 9 to 14) (size 15 to 20)
#    0.000    1.231    5.385    1.615    0.000    1.231 
#    0.000    0.769    8.462    1.846    0.000   10.769 
#    0.000    0.000    0.000    0.000    0.000    0.000 
#
# Total GULP energy -322113.268602 kJ/mol
# GULP energy per Si atom -12388.971869 kJ/mol
# Density = 2.030888 g / cm^3
# Si number density = 20.355213 Si / 1000 Ang^3
#
#
#
# Elastic Constant Matrix: (Units=GPa)
#
#
# Indices 1 2 3 4 5 6 
#
# 1 88.1704 40.0099 29.7570 0.0000 -13.4947 0.0000
# 2 40.0099 139.0220 32.9811 0.0000 -8.5294 0.0000
# 3 29.7570 32.9811 88.3903 0.0000 -19.3702 0.0000
# 4 0.0000 0.0000 0.0000 26.0894 0.0000 -8.8280
# 5 -13.4947 -8.5294 -19.3702 0.0000 32.0340 0.0000
# 6 0.0000 0.0000 0.0000 -8.8280 0.0000 26.7131
#
#
#
# Elastic Compliance Matrix: (Units=1/GPa)
#
#
# Indices 1 2 3 4 5 6 
#
# 1 0.014295 -0.003226 -0.002856 0.000000 0.003436 0.000000
# 2 -0.003226 0.008623 -0.002221 0.000000 -0.000406 0.000000
# 3 -0.002856 -0.002221 0.014652 0.000000 0.007065 0.000000
# 4 0.000000 0.000000 0.000000 0.043156 0.000000 0.014262
# 5 0.003436 -0.000406 0.007065 0.000000 0.036829 0.000000
# 6 0.000000 0.000000 0.000000 0.014262 0.000000 0.042148
#
#
# Mechanical properties :
#
#
# Convention : Reuss Voigt Hill
#
# Bulk Modulus (GPa) = 47.69631 57.89761 52.79696
# Shear Modulus (GPa) = 27.27833 31.15628 29.21731
#
# Velocity S-wave (km/s) = 3.66473 3.91657 3.79274
# Velocity P-wave (km/s) = 6.43349 6.99700 6.72116
#
# Compressibility (1/GPa) = 0.02096598
#
# Stress axis : x y z
#
# Youngs Moduli (GPa) = 69.95343 115.96386 68.25120
#
# Poissons Ratio (x) = 0.37407 0.19492
# Poissons Ratio (y) = 0.22565 0.15156
# Poissons Ratio (z) = 0.19978 0.25750
#
# Static dielectric constant tensor:
#      x y z
#    x 3.639700 0.000000 -0.293500 
#    y 0.000000 4.014700 0.000000 
#    z -0.293500 0.000000 3.929840 
# 
# 
# High freq. dielectric constant tensor:
#      x y z
#    x 1.763800 0.000000 -0.022340 
#    y 0.000000 1.792970 0.000000 
#    z -0.022340 0.000000 1.813830 
# 
# From -- ./inp_files/268137.got.cif
#   From: 2010.06.25/outbox.cif.g09.slc.cpg/sg12_135_cif.got.tgz:268137.got - 2010.06.28 00:19:55.
