data_PCOD8102077
_publ_section_title
;
Structure prediction by ZEFSAII (Michael W. Deem and Ramdas Pophale) SiO2 
 PCOD8102077
Probable space group: C 2/M
;
_chemical_formula_sum "Si O2"
_cell_formula_units_Z 56
_cell_length_a 18.081557
_cell_length_b 20.742362
_cell_length_c 14.324001
_cell_angle_alpha 90.000000
_cell_angle_beta 147.459395
_cell_angle_gamma 90.000000
_cell_volume 2889.732498
_symmetry_space_group_name_H-M "C 2/M"
_symmetry_group_IT_number 12
_symmetry_cell_setting 'monoclinic'
loop_
_space_group_symop_operation_xyz
x,y,z
-x,y,-z
-x,-y,-z
x,-y,z
1/2+x,1/2+y,z
1/2-x,1/2+y,-z
1/2-x,1/2-y,-z
1/2+x,1/2-y,z
loop_
_atom_site_type_symbol
_atom_site_label
_atom_site_fract_x
_atom_site_fract_y
_atom_site_fract_z
Si Si1 0.379945 0.739527 0.302436
Si Si2 0.115357 0.391026 0.697274
Si Si3 0.153602 0.072712 0.178453
Si Si4 0.958955 0.234396 0.701151
Si Si5 0.413010 0.814933 0.001019
Si Si6 0.731803 0.149199 0.530469
Si Si7 0.989464 0.574150 0.210585
O O1 0.500000 0.718197 0.500000
O O2 0.357845 0.815430 0.275978
O O3 0.418681 0.715893 0.238990
O O4 0.241662 0.704813 0.189017
O O5 0.259752 0.425370 0.825244
O O6 0.072902 0.415377 0.753506
O O7 0.000000 0.412383 0.500000
O O8 0.232755 0.119354 0.332686
O O9 0.146615 0.000000 0.210837
O O10 0.000000 0.099280 0.000000
O O11 0.868963 0.170445 0.622429
O O12 0.865283 0.289160 0.551752
O O13 0.018570 0.259990 0.861951
O O14 0.500000 0.821484 0.000000
O O15 0.407227 0.883602 0.047545
O O16 0.648879 0.097352 0.379996
O O17 0.980652 0.500000 0.171093
#
# Coordination Sequence:
#
# PCOD8102077 Si02
#       7
#     8   8   8   8   8   8   8
#     4  11  23  39  65  95 127 155 193 247 319 371
#     4  11  21  37  62  93 120 159 198 242 302 370
#     4  11  24  36  52  89 129 163 198 235 295 370
#     4  10  22  39  60  93 124 149 204 252 299 371
#     4  11  26  40  64  94 120 162 204 255 306 349
#     4  10  20  36  60  88 122 160 197 248 302 351
#     4  11  23  41  64  87 119 164 214 254 295 356
#
# _framework density 19.378955999999999
#
# number of rings (size 3 to 8) (size 9 to 14) (size 15 to 20)
#    0.000    1.286    4.286    2.143   10.000    0.857 
#    0.000    0.000    0.000    1.286    0.000    0.000 
#    0.000    0.000    0.000    0.000    0.000    0.000 
#
# Total GULP energy -347299.235131 kJ/mol
# GULP energy per Si atom -12403.544112 kJ/mol
# Density = 1.933485 g / cm^3
# Si number density = 19.378956 Si / 1000 Ang^3
#
#
#
# Elastic Constant Matrix: (Units=GPa)
#
#
# Indices 1 2 3 4 5 6 
#
# 1 117.8270 29.5457 36.8430 0.0000 9.5474 0.0000
# 2 29.5457 85.8113 39.9249 0.0000 6.2328 0.0000
# 3 36.8430 39.9249 101.2318 0.0000 12.7344 0.0000
# 4 0.0000 0.0000 0.0000 13.5925 0.0000 4.5347
# 5 9.5474 6.2328 12.7344 0.0000 34.5404 0.0000
# 6 0.0000 0.0000 0.0000 4.5347 0.0000 18.0373
#
#
#
# Elastic Compliance Matrix: (Units=1/GPa)
#
#
# Indices 1 2 3 4 5 6 
#
# 1 0.009946 -0.002107 -0.002612 0.000000 -0.001406 0.000000
# 2 -0.002107 0.014728 -0.005013 0.000000 -0.000227 0.000000
# 3 -0.002612 -0.005013 0.013214 0.000000 -0.003245 0.000000
# 4 0.000000 0.000000 0.000000 0.080306 0.000000 -0.020189
# 5 -0.001406 -0.000227 -0.003245 0.000000 0.030578 0.000000
# 6 0.000000 0.000000 0.000000 -0.020189 0.000000 0.060516
#
#
# Mechanical properties :
#
#
# Convention : Reuss Voigt Hill
#
# Bulk Modulus (GPa) = 54.27747 57.49969 55.88858
# Shear Modulus (GPa) = 21.28625 26.47114 23.87870
#
# Velocity S-wave (km/s) = 3.31784 3.69992 3.51407
# Velocity P-wave (km/s) = 6.53809 6.92735 6.73553
#
# Compressibility (1/GPa) = 0.01842385
#
# Stress axis : x y z
#
# Youngs Moduli (GPa) = 100.54253 67.89837 75.67577
#
# Poissons Ratio (x) = 0.14307 0.19766
# Poissons Ratio (y) = 0.21186 0.37937
# Poissons Ratio (z) = 0.26261 0.34038
#
# Static dielectric constant tensor:
#      x y z
#    x 3.620790 0.000000 0.161310 
#    y 0.000000 3.471740 0.000000 
#    z 0.161310 0.000000 3.600840 
# 
# 
# High freq. dielectric constant tensor:
#      x y z
#    x 1.756060 0.000000 0.010810 
#    y 0.000000 1.737260 0.000000 
#    z 0.010810 0.000000 1.753250 
# 
# From -- ./inp_files/227659.got.cif
#   From: 2010.06.25/outbox.cif.g09.slc.cpg/sg12_114_cif.got.tgz:227659.got - 2010.06.28 00:19:55.
