data_PCOD8102922
_publ_section_title
;
Structure prediction by ZEFSAII (Michael W. Deem and Ramdas Pophale) SiO2 
 PCOD8102922
Probable space group: C 2/M
;
_chemical_formula_sum "Si O2"
_cell_formula_units_Z 64
_cell_length_a 23.659187
_cell_length_b 8.994325
_cell_length_c 28.608347
_cell_angle_alpha 90.000000
_cell_angle_beta 31.484406
_cell_angle_gamma 90.000000
_cell_volume 3179.459631
_symmetry_space_group_name_H-M "C 2/M"
_symmetry_group_IT_number 12
_symmetry_cell_setting 'monoclinic'
loop_
_space_group_symop_operation_xyz
x,y,z
-x,y,-z
-x,-y,-z
x,-y,z
1/2+x,1/2+y,z
1/2-x,1/2+y,-z
1/2-x,1/2-y,-z
1/2+x,1/2-y,z
loop_
_atom_site_type_symbol
_atom_site_label
_atom_site_fract_x
_atom_site_fract_y
_atom_site_fract_z
Si Si1 0.828370 0.675950 0.834967
Si Si2 0.305514 0.324535 0.505551
Si Si3 0.619297 0.171491 0.013739
Si Si4 0.061544 0.174219 0.908963
Si Si5 0.690293 0.823162 0.680431
Si Si6 0.260402 0.328163 0.731919
Si Si7 0.444818 0.670583 0.669586
Si Si8 0.950571 0.672270 0.838017
O O1 0.817594 0.500000 0.844668
O O2 0.887336 0.722568 0.746628
O O3 0.895513 0.743960 0.831228
O O4 0.707922 0.740586 0.921655
O O5 0.289707 0.500000 0.511559
O O6 0.250000 0.250000 0.500000
O O7 0.251852 0.263564 0.591075
O O8 0.431065 0.280104 0.421395
O O9 0.501227 0.237609 0.087034
O O10 0.631929 0.193901 0.060566
O O11 0.624642 0.000000 0.995412
O O12 0.183985 0.235423 0.821409
O O13 0.061774 0.000000 0.898634
O O14 0.000000 0.212984 0.000000
O O15 0.749267 0.767537 0.686511
O O16 0.568572 0.756721 0.764259
O O17 0.691111 0.000000 0.679875
O O18 0.224562 0.500000 0.759754
O O19 0.384228 0.308745 0.662348
O O20 0.435311 0.500000 0.693134
O O21 0.970171 0.500000 0.813896
#
# Coordination Sequence:
#
# PCOD8102922 Si02
#       8
#     8   8   8   8   8   8   8   8
#     4  11  22  36  56  82 115 155 192 236 292 346
#     4  10  21  38  62  90 121 151 190 238 288 348
#     4  11  21  36  57  81 112 149 193 242 287 342
#     4  11  23  37  54  80 115 153 196 241 287 344
#     4   9  17  34  60  86 112 148 192 239 288 341
#     4  10  20  37  60  82 112 152 195 240 290 341
#     4  10  22  38  57  87 118 149 192 239 285 341
#     4   9  18  33  55  82 111 146 191 234 283 342
#
# _framework density 20.129206
#
# number of rings (size 3 to 8) (size 9 to 14) (size 15 to 20)
#    0.000    1.875    1.250    3.000    0.000    5.500 
#    0.000    5.000    0.000    0.000    0.000    2.625 
#    0.000    0.000    0.000    0.000    0.000    0.000 
#
# Total GULP energy -396782.782595 kJ/mol
# GULP energy per Si atom -12399.461956 kJ/mol
# Density = 2.008339 g / cm^3
# Si number density = 20.129206 Si / 1000 Ang^3
#
#
#
# Elastic Constant Matrix: (Units=GPa)
#
#
# Indices 1 2 3 4 5 6 
#
# 1 106.1857 32.9166 41.9267 -0.0046 -4.8413 0.0171
# 2 32.9166 57.7438 36.1523 -0.0141 1.2264 0.0326
# 3 41.9267 36.1523 126.4099 -0.0025 -1.9627 0.0047
# 4 -0.0046 -0.0141 -0.0025 15.3529 -0.0018 0.5275
# 5 -4.8413 1.2264 -1.9627 -0.0018 37.3490 -0.0043
# 6 0.0171 0.0326 0.0047 0.5275 -0.0043 27.1220
#
#
#
# Elastic Compliance Matrix: (Units=1/GPa)
#
#
# Indices 1 2 3 4 5 6 
#
# 1 0.012139 -0.005420 -0.002451 -0.000002 0.001623 0.000000
# 2 -0.005420 0.023553 -0.004965 0.000020 -0.001737 -0.000025
# 3 -0.002451 -0.004965 0.010150 -0.000004 0.000379 0.000006
# 4 -0.000002 0.000020 -0.000004 0.065178 0.000002 -0.001268
# 5 0.001623 -0.001737 0.000379 0.000002 0.027062 0.000005
# 6 0.000000 -0.000025 0.000006 -0.001268 0.000005 0.036895
#
#
# Mechanical properties :
#
#
# Convention : Reuss Voigt Hill
#
# Bulk Modulus (GPa) = 49.57978 56.92562 53.25270
# Shear Modulus (GPa) = 24.11118 27.92103 26.01611
#
# Velocity S-wave (km/s) = 3.46471 3.72841 3.59897
# Velocity P-wave (km/s) = 6.37886 6.84662 6.61687
#
# Compressibility (1/GPa) = 0.02016951
#
# Stress axis : x y z
#
# Youngs Moduli (GPa) = 82.37682 42.45727 98.52560
#
# Poissons Ratio (x) = 0.23011 0.24149
# Poissons Ratio (y) = 0.44647 0.48921
# Poissons Ratio (z) = 0.20191 0.21082
#
# Static dielectric constant tensor:
#      x y z
#    x 3.907440 -0.000030 -0.069600 
#    y -0.000030 3.324250 0.000010 
#    z -0.069600 0.000010 3.675170 
# 
# 
# High freq. dielectric constant tensor:
#      x y z
#    x 1.801820 0.000000 -0.002850 
#    y 0.000000 1.754690 0.000000 
#    z -0.002850 0.000000 1.785120 
# 
# From -- ./inp_files/382360.got.cif
#   From: 2010.06.25/outbox.cif.g09.slc.cpg/sg12_192_cif.got.tgz:382360.got - 2010.06.28 00:19:55.
