data_PCOD8102640
_publ_section_title
;
Structure prediction by ZEFSAII (Michael W. Deem and Ramdas Pophale) SiO2 
 PCOD8102640
Probable space group: C 2/M
;
_chemical_formula_sum "Si O2"
_cell_formula_units_Z 48
_cell_length_a 18.656631
_cell_length_b 9.215698
_cell_length_c 25.683560
_cell_angle_alpha 90.000000
_cell_angle_beta 35.028573
_cell_angle_gamma 90.000000
_cell_volume 2534.644892
_symmetry_space_group_name_H-M "C 2/M"
_symmetry_group_IT_number 12
_symmetry_cell_setting 'monoclinic'
loop_
_space_group_symop_operation_xyz
x,y,z
-x,y,-z
-x,-y,-z
x,-y,z
1/2+x,1/2+y,z
1/2-x,1/2+y,-z
1/2-x,1/2-y,-z
1/2+x,1/2-y,z
loop_
_atom_site_type_symbol
_atom_site_label
_atom_site_fract_x
_atom_site_fract_y
_atom_site_fract_z
Si Si1 0.380712 0.671583 0.421117
Si Si2 0.525009 0.339928 0.045296
Si Si3 0.679688 0.329161 0.749450
Si Si4 0.982123 0.828695 0.251182
Si Si5 0.558841 0.329116 0.409965
Si Si6 0.247520 0.829092 0.055451
O O1 0.359167 0.500000 0.433555
O O2 0.250000 0.750000 0.500000
O O3 0.445035 0.728121 0.330027
O O4 0.464019 0.718688 0.420814
O O5 0.566366 0.500000 0.042072
O O6 0.404242 0.290036 0.150199
O O7 0.500000 0.353582 0.000000
O O8 0.632345 0.220589 0.984331
O O9 0.705591 0.500000 0.730332
O O10 0.609590 0.268769 0.739446
O O11 0.810741 0.249316 0.677289
O O12 0.123235 0.775993 0.158644
O O13 0.975664 0.000000 0.252446
O O14 0.500000 0.280521 0.500000
O O15 0.583776 0.500000 0.393827
O O16 0.250084 0.000000 0.045918
O O17 0.250000 0.750000 0.000000
#
# Coordination Sequence:
#
# PCOD8102640 Si02
#       6
#     8   8   8   8   8   8
#     4  10  21  38  59  82 110 143 181 229 278 330
#     4  10  22  39  57  82 120 156 191 240 287 333
#     4  10  20  37  58  80 110 148 188 228 277 335
#     4   9  19  36  57  80 110 146 185 232 278 326
#     4  10  22  38  56  82 116 145 177 229 285 333
#     4  11  21  37  60  85 116 154 196 237 284 340
#
# _framework density 18.937563000000001
#
# number of rings (size 3 to 8) (size 9 to 14) (size 15 to 20)
#    0.000    2.000    1.667    1.500    2.333    2.000 
#    0.000    1.667    0.000    0.000    0.000    0.000 
#    0.000    0.000    0.000    0.000    0.000    0.000 
#
# Total GULP energy -297584.776416 kJ/mol
# GULP energy per Si atom -12399.365684 kJ/mol
# Density = 1.889446 g / cm^3
# Si number density = 18.937563 Si / 1000 Ang^3
#
#
#
# Elastic Constant Matrix: (Units=GPa)
#
#
# Indices 1 2 3 4 5 6 
#
# 1 144.3542 44.2112 98.1710 0.0000 0.3164 0.0000
# 2 44.2112 52.4911 53.9410 -0.0001 -11.0875 0.0000
# 3 98.1710 53.9410 190.9017 -0.0001 -3.6582 0.0000
# 4 0.0000 -0.0001 -0.0001 29.9964 0.0000 -13.8417
# 5 0.3164 -11.0875 -3.6582 0.0000 43.8428 0.0000
# 6 0.0000 0.0000 0.0000 -13.8417 0.0000 19.7874
#
#
#
# Elastic Compliance Matrix: (Units=1/GPa)
#
#
# Indices 1 2 3 4 5 6 
#
# 1 0.011694 -0.005682 -0.004445 0.000000 -0.001892 0.000000
# 2 -0.005682 0.031381 -0.005801 0.000000 0.007493 0.000000
# 3 -0.004445 -0.005801 0.009150 0.000000 -0.000672 0.000000
# 4 0.000000 0.000000 0.000000 0.049228 0.000000 0.034436
# 5 -0.001892 0.007493 -0.000672 0.000000 0.024661 0.000000
# 6 0.000000 0.000000 0.000000 0.034436 0.000000 0.074626
#
#
# Mechanical properties :
#
#
# Convention : Reuss Voigt Hill
#
# Bulk Modulus (GPa) = 49.09280 86.71036 67.90158
# Shear Modulus (GPa) = 20.88672 31.48690 26.18681
#
# Velocity S-wave (km/s) = 3.32464 4.08201 3.72263
# Velocity P-wave (km/s) = 6.38102 8.25251 7.37636
#
# Compressibility (1/GPa) = 0.02036958
#
# Stress axis : x y z
#
# Youngs Moduli (GPa) = 85.51081 31.86643 109.28620
#
# Poissons Ratio (x) = 0.18107 0.48573
# Poissons Ratio (y) = 0.48588 0.63401
# Poissons Ratio (z) = 0.38006 0.18487
#
# Static dielectric constant tensor:
#      x y z
#    x 9.986830 -0.000030 3.951670 
#    y -0.000030 3.483490 -0.000020 
#    z 3.951670 -0.000020 6.064680 
# 
# 
# High freq. dielectric constant tensor:
#      x y z
#    x 1.746390 0.000000 0.004510 
#    y 0.000000 1.715680 0.000000 
#    z 0.004510 0.000000 1.752150 
# 
# From -- ./inp_files/365384.got.cif
#   From: 2010.06.25/outbox.cif.g09.slc.cpg/sg12_183_cif.got.tgz:365384.got - 2010.06.28 00:19:55.
