data_PCOD8102260
_publ_section_title
;
Structure prediction by ZEFSAII (Michael W. Deem and Ramdas Pophale) SiO2 
 PCOD8102260
Probable space group: C 2/M
;
_chemical_formula_sum "Si O2"
_cell_formula_units_Z 56
_cell_length_a 25.172591
_cell_length_b 16.170221
_cell_length_c 14.293582
_cell_angle_alpha 90.000000
_cell_angle_beta 26.868279
_cell_angle_gamma 90.000000
_cell_volume 2629.460234
_symmetry_space_group_name_H-M "C 2/M"
_symmetry_group_IT_number 12
_symmetry_cell_setting 'monoclinic'
loop_
_space_group_symop_operation_xyz
x,y,z
-x,y,-z
-x,-y,-z
x,-y,z
1/2+x,1/2+y,z
1/2-x,1/2+y,-z
1/2-x,1/2-y,-z
1/2+x,1/2-y,z
loop_
_atom_site_type_symbol
_atom_site_label
_atom_site_fract_x
_atom_site_fract_y
_atom_site_fract_z
Si Si1 0.203251 0.660162 0.547809
Si Si2 0.756160 0.094642 0.077459
Si Si3 0.954345 0.333574 0.675747
Si Si4 0.758773 0.904254 0.647628
Si Si5 0.512206 0.325594 0.262205
Si Si6 0.958653 0.714390 0.963603
Si Si7 0.170818 0.594580 0.408425
O O1 0.250000 0.750000 0.500000
O O2 0.252066 0.593940 0.545130
O O3 0.239457 0.641562 0.384274
O O4 0.062215 0.652487 0.770743
O O5 0.684221 0.141866 0.107921
O O6 0.721749 0.131909 0.232772
O O7 0.718331 0.000000 0.130030
O O8 0.895781 0.104079 0.851560
O O9 0.972251 0.241224 0.681427
O O10 0.000000 0.347576 0.500000
O O11 0.029474 0.391587 0.628389
O O12 0.884828 0.865857 0.473881
O O13 0.746062 0.000000 0.703039
O O14 0.659870 0.841607 0.845188
O O15 0.543537 0.288035 0.110178
O O16 0.000000 0.751528 0.000000
O O17 0.202252 0.500000 0.372610
#
# Coordination Sequence:
#
# PCOD8102260 Si02
#       7
#     8   8   8   8   8   8   8
#     4  11  20  39  62  94 128 169 212 258 308 382
#     4  10  23  39  61  91 126 161 207 271 325 372
#     4  10  21  39  64  90 119 158 216 265 313 373
#     4  11  25  42  63  95 136 168 206 265 320 376
#     4  12  23  41  67  91 125 172 212 253 323 388
#     4  10  24  38  65  92 128 168 217 252 308 382
#     4  10  20  36  61  91 123 157 207 266 318 369
#
# _framework density 21.297146999999999
#
# number of rings (size 3 to 8) (size 9 to 14) (size 15 to 20)
#    0.000    1.429    2.857    1.714    8.000    4.857 
#    0.000    0.000    0.000    4.286    0.000    0.000 
#    0.000    0.000    0.000    0.000    0.000    0.000 
#
# Total GULP energy -346911.586639 kJ/mol
# GULP energy per Si atom -12389.699523 kJ/mol
# Density = 2.124867 g / cm^3
# Si number density = 21.297147 Si / 1000 Ang^3
#
#
#
# Elastic Constant Matrix: (Units=GPa)
#
#
# Indices 1 2 3 4 5 6 
#
# 1 80.4926 30.7153 22.1476 0.0000 -21.8662 0.0000
# 2 30.7153 88.9209 29.5112 0.0000 -12.3898 0.0000
# 3 22.1476 29.5112 99.4628 0.0000 -38.0302 0.0000
# 4 0.0000 0.0000 0.0000 32.0575 0.0000 -2.5374
# 5 -21.8662 -12.3898 -38.0302 0.0000 35.2967 0.0000
# 6 0.0000 0.0000 0.0000 -2.5374 0.0000 30.6986
#
#
#
# Elastic Compliance Matrix: (Units=1/GPa)
#
#
# Indices 1 2 3 4 5 6 
#
# 1 0.016650 -0.004870 0.001748 0.000000 0.010488 0.000000
# 2 -0.004870 0.013908 -0.003961 0.000000 -0.002403 0.000000
# 3 0.001748 -0.003961 0.018234 0.000000 0.019339 0.000000
# 4 0.000000 0.000000 0.000000 0.031399 0.000000 0.002595
# 5 0.010488 -0.002403 0.019339 0.000000 0.054822 0.000000
# 6 0.000000 0.000000 0.000000 0.002595 0.000000 0.032789
#
#
# Mechanical properties :
#
#
# Convention : Reuss Voigt Hill
#
# Bulk Modulus (GPa) = 28.87974 48.18050 38.53012
# Shear Modulus (GPa) = 25.83827 32.04403 28.94115
#
# Velocity S-wave (km/s) = 3.48692 3.88315 3.69035
# Velocity P-wave (km/s) = 5.45906 6.54043 6.02406
#
# Compressibility (1/GPa) = 0.03462635
#
# Stress axis : x y z
#
# Youngs Moduli (GPa) = 60.05945 71.90162 54.84150
#
# Poissons Ratio (x) = 0.35016 -0.09585
# Poissons Ratio (y) = 0.29249 0.21721
# Poissons Ratio (z) = -0.10497 0.28479
#
# Static dielectric constant tensor:
#      x y z
#    x 4.200070 0.000000 -0.098440 
#    y 0.000000 3.583110 0.000000 
#    z -0.098440 0.000000 4.076830 
# 
# 
# High freq. dielectric constant tensor:
#      x y z
#    x 1.846490 0.000000 -0.017650 
#    y 0.000000 1.817590 0.000000 
#    z -0.017650 0.000000 1.828610 
# 
# From -- ./inp_files/240884.got.cif
#   From: 2010.06.25/outbox.cif.g09.slc.cpg/sg12_121_cif.got.tgz:240884.got - 2010.06.28 00:19:55.
