data_PCOD8102886
_publ_section_title
;
Structure prediction by ZEFSAII (Michael W. Deem and Ramdas Pophale) SiO2 
 PCOD8102886
Probable space group: C 2/M
;
_chemical_formula_sum "Si O2"
_cell_formula_units_Z 56
_cell_length_a 9.259458
_cell_length_b 17.693198
_cell_length_c 29.691198
_cell_angle_alpha 90.000000
_cell_angle_beta 146.886743
_cell_angle_gamma 90.000000
_cell_volume 2657.342098
_symmetry_space_group_name_H-M "C 2/M"
_symmetry_group_IT_number 12
_symmetry_cell_setting 'monoclinic'
loop_
_space_group_symop_operation_xyz
x,y,z
-x,y,-z
-x,-y,-z
x,-y,z
1/2+x,1/2+y,z
1/2-x,1/2+y,-z
1/2-x,1/2-y,-z
1/2+x,1/2-y,z
loop_
_atom_site_type_symbol
_atom_site_label
_atom_site_fract_x
_atom_site_fract_y
_atom_site_fract_z
Si Si1 0.949811 0.088484 0.703227
Si Si2 0.440344 0.846828 0.881878
Si Si3 0.686744 0.329126 0.421695
Si Si4 0.446185 0.710348 0.145905
Si Si5 0.240048 0.082361 0.961874
Si Si6 0.069490 0.676211 0.668852
Si Si7 0.100175 0.914592 0.576769
O O1 0.956191 0.126897 0.656188
O O2 0.710157 0.124221 0.668724
O O3 0.229015 0.100621 0.801073
O O4 0.894399 0.000000 0.683685
O O5 0.590171 0.790284 0.887738
O O6 0.295237 0.798552 0.882812
O O7 0.671933 0.896794 0.964399
O O8 0.593723 0.242155 0.398681
O O9 0.606858 0.368951 0.447167
O O10 0.000000 0.332768 0.500000
O O11 0.723004 0.714404 0.243662
O O12 0.457330 0.642878 0.111980
O O13 0.099653 0.000000 0.926065
O O14 0.500000 0.077850 0.000000
O O15 0.884215 0.625527 0.652309
O O16 0.000000 0.913432 0.500000
O O17 0.126958 0.000000 0.601962
#
# Coordination Sequence:
#
# PCOD8102886 Si02
#       7
#     8   8   8   8   8   8   8
#     4  11  23  39  62  91 122 161 208 256 306 359
#     4  10  20  37  59  89 121 162 201 254 299 361
#     4  12  25  42  64  89 122 161 204 253 307 371
#     4  10  21  35  61  86 120 159 204 248 301 362
#     4   9  18  34  58  89 122 158 204 251 301 353
#     4  11  23  40  62  89 121 160 206 253 303 366
#     4  11  25  43  63  89 122 160 201 253 313 367
#
# _framework density 21.073689000000002
#
# number of rings (size 3 to 8) (size 9 to 14) (size 15 to 20)
#    0.000    1.429    1.429    3.857    2.000    8.000 
#    0.000    0.000    0.000    2.571    0.000    0.000 
#    0.000    0.000    0.000    0.000    0.000    0.000 
#
# Total GULP energy -347311.881463 kJ/mol
# GULP energy per Si atom -12403.995767 kJ/mol
# Density = 2.102572 g / cm^3
# Si number density = 21.073689 Si / 1000 Ang^3
#
#
#
# Elastic Constant Matrix: (Units=GPa)
#
#
# Indices 1 2 3 4 5 6 
#
# 1 65.0155 29.0634 18.7622 -0.0011 -1.0301 -0.0003
# 2 29.0634 126.3814 7.1647 -0.0004 -0.5045 -0.0005
# 3 18.7622 7.1647 42.0190 -0.0036 -11.7832 -0.0024
# 4 -0.0011 -0.0004 -0.0036 22.2192 -0.0024 -1.7597
# 5 -1.0301 -0.5045 -11.7832 -0.0024 17.4347 -0.0015
# 6 -0.0003 -0.0005 -0.0024 -1.7597 -0.0015 26.0305
#
#
#
# Elastic Compliance Matrix: (Units=1/GPa)
#
#
# Indices 1 2 3 4 5 6 
#
# 1 0.019919 -0.004050 -0.009755 -0.000001 -0.005533 -0.000001
# 2 -0.004050 0.008823 0.000380 0.000000 0.000273 0.000000
# 3 -0.009755 0.000380 0.034463 0.000008 0.022726 0.000005
# 4 -0.000001 0.000000 0.000008 0.045248 0.000012 0.003059
# 5 -0.005533 0.000273 0.022726 0.000012 0.072397 0.000007
# 6 -0.000001 0.000000 0.000005 0.003059 0.000007 0.038623
#
#
# Mechanical properties :
#
#
# Convention : Reuss Voigt Hill
#
# Bulk Modulus (GPa) = 27.50592 38.15516 32.83054
# Shear Modulus (GPa) = 19.34670 25.03190 22.18930
#
# Velocity S-wave (km/s) = 3.03322 3.45023 3.24842
# Velocity P-wave (km/s) = 5.03466 5.83241 5.44816
#
# Compressibility (1/GPa) = 0.03635581
#
# Stress axis : x y z
#
# Youngs Moduli (GPa) = 50.20393 113.33535 29.01674
#
# Poissons Ratio (x) = 0.45897 0.28307
# Poissons Ratio (y) = 0.20331 -0.01104
# Poissons Ratio (z) = 0.48975 -0.04311
#
# Static dielectric constant tensor:
#      x y z
#    x 3.725600 0.000000 -0.177010 
#    y 0.000000 4.035580 0.000000 
#    z -0.177010 0.000000 3.923320 
# 
# 
# High freq. dielectric constant tensor:
#      x y z
#    x 1.810120 0.000000 -0.012590 
#    y 0.000000 1.836210 0.000000 
#    z -0.012590 0.000000 1.832450 
# 
# From -- ./inp_files/356739.got.cif
#   From: 2010.06.25/outbox.cif.g09.slc.cpg/sg12_179_cif.got.tgz:356739.got - 2010.06.28 00:19:55.
