data_PCOD8102269
_publ_section_title
;
Structure prediction by ZEFSAII (Michael W. Deem and Ramdas Pophale) SiO2 
 PCOD8102269
Probable space group: C 2/M
;
_chemical_formula_sum "Si O2"
_cell_formula_units_Z 48
_cell_length_a 16.340311
_cell_length_b 20.929758
_cell_length_c 8.742403
_cell_angle_alpha 90.000000
_cell_angle_beta 50.699352
_cell_angle_gamma 90.000000
_cell_volume 2313.676415
_symmetry_space_group_name_H-M "C 2/M"
_symmetry_group_IT_number 12
_symmetry_cell_setting 'monoclinic'
loop_
_space_group_symop_operation_xyz
x,y,z
-x,y,-z
-x,-y,-z
x,-y,z
1/2+x,1/2+y,z
1/2-x,1/2+y,-z
1/2-x,1/2-y,-z
1/2+x,1/2-y,z
loop_
_atom_site_type_symbol
_atom_site_label
_atom_site_fract_x
_atom_site_fract_y
_atom_site_fract_z
Si Si1 0.112306 0.160915 0.282347
Si Si2 0.497089 0.735481 0.824842
Si Si3 0.698810 0.928313 0.458636
Si Si4 0.734816 0.074074 0.069014
Si Si5 0.296719 0.313787 0.519671
Si Si6 0.012507 0.364996 0.314932
O O1 0.104921 0.213633 0.153701
O O2 0.200172 0.188121 0.298609
O O3 0.000000 0.145916 0.500000
O O4 0.162078 0.097890 0.145052
O O5 0.582394 0.683580 0.672243
O O6 0.522397 0.809079 0.758988
O O7 0.500000 0.727917 0.000000
O O8 0.750589 0.914467 0.231828
O O9 0.740964 0.878339 0.532118
O O10 0.571396 0.922693 0.600334
O O11 0.726516 0.000000 0.480472
O O12 0.629403 0.110604 0.137528
O O13 0.719336 0.000000 0.050940
O O14 0.250000 0.250000 0.500000
O O15 0.000000 0.335732 0.500000
#
# Coordination Sequence:
#
# PCOD8102269 Si02
#       6
#     8   8   8   8   8   8
#     4  10  24  42  62  88 121 163 208 264 316 359
#     4  11  23  39  61  92 124 160 209 259 315 364
#     4  10  21  39  63  93 129 168 205 252 311 376
#     4  10  22  39  62  92 126 168 211 252 310 377
#     4  11  22  39  63  90 125 164 208 257 305 367
#     4  10  20  36  61  91 129 166 201 251 309 376
#
# _framework density 20.746200999999999
#
# number of rings (size 3 to 8) (size 9 to 14) (size 15 to 20)
#    0.000    1.667    1.667    3.000    4.667    3.667 
#    0.000    2.500    0.000   12.000    0.000    0.000 
#    0.000    0.000    0.000    0.000    0.000    0.000 
#
# Total GULP energy -297417.447345 kJ/mol
# GULP energy per Si atom -12392.393639 kJ/mol
# Density = 2.069898 g / cm^3
# Si number density = 20.746201 Si / 1000 Ang^3
#
#
#
# Elastic Constant Matrix: (Units=GPa)
#
#
# Indices 1 2 3 4 5 6 
#
# 1 120.7063 62.1239 50.0675 0.0000 29.9321 0.0000
# 2 62.1239 114.7356 47.7919 0.0000 10.4863 0.0000
# 3 50.0675 47.7919 101.9572 0.0000 11.6834 0.0000
# 4 0.0000 0.0000 0.0000 29.9032 0.0000 1.0059
# 5 29.9321 10.4863 11.6834 0.0000 35.8296 0.0000
# 6 0.0000 0.0000 0.0000 1.0059 0.0000 31.7299
#
#
#
# Elastic Compliance Matrix: (Units=1/GPa)
#
#
# Indices 1 2 3 4 5 6 
#
# 1 0.015228 -0.005842 -0.003613 0.000000 -0.009834 0.000000
# 2 -0.005842 0.013157 -0.003549 0.000000 0.002187 0.000000
# 3 -0.003613 -0.003549 0.013277 0.000000 -0.000272 0.000000
# 4 0.000000 0.000000 0.000000 0.033477 0.000000 -0.001061
# 5 -0.009834 0.002187 -0.000272 0.000000 0.035574 0.000000
# 6 0.000000 0.000000 0.000000 -0.001061 0.000000 0.031550
#
#
# Mechanical properties :
#
#
# Convention : Reuss Voigt Hill
#
# Bulk Modulus (GPa) = 63.87810 73.04064 68.45937
# Shear Modulus (GPa) = 28.82019 31.32026 30.07023
#
# Velocity S-wave (km/s) = 3.73121 3.88968 3.81127
# Velocity P-wave (km/s) = 7.02992 7.44688 7.24140
#
# Compressibility (1/GPa) = 0.01565482
#
# Stress axis : x y z
#
# Youngs Moduli (GPa) = 65.66736 76.00354 75.31734
#
# Poissons Ratio (x) = 0.44399 0.27211
# Poissons Ratio (y) = 0.38361 0.26733
# Poissons Ratio (z) = 0.23725 0.26976
#
# Static dielectric constant tensor:
#      x y z
#    x 4.291670 0.000000 0.217740 
#    y 0.000000 3.607720 0.000000 
#    z 0.217740 0.000000 3.883140 
# 
# 
# High freq. dielectric constant tensor:
#      x y z
#    x 1.820400 0.000000 0.006610 
#    y 0.000000 1.801680 0.000000 
#    z 0.006610 0.000000 1.805320 
# 
# From -- ./inp_files/77286.got.cif
#   From: 2010.06.25/outbox.cif.g09.slc.cpg/sg12_39_cif.got.tgz:77286.got - 2010.06.28 00:19:55.
