data_PCOD8102477
_publ_section_title
;
Structure prediction by ZEFSAII (Michael W. Deem and Ramdas Pophale) SiO2 
 PCOD8102477
Probable space group: C 2/M
;
_chemical_formula_sum "Si O2"
_cell_formula_units_Z 56
_cell_length_a 17.051802
_cell_length_b 31.829871
_cell_length_c 5.160234
_cell_angle_alpha 90.000000
_cell_angle_beta 102.351863
_cell_angle_gamma 90.000000
_cell_volume 2735.920529
_symmetry_space_group_name_H-M "C 2/M"
_symmetry_group_IT_number 12
_symmetry_cell_setting 'monoclinic'
loop_
_space_group_symop_operation_xyz
x,y,z
-x,y,-z
-x,-y,-z
x,-y,z
1/2+x,1/2+y,z
1/2-x,1/2+y,-z
1/2-x,1/2-y,-z
1/2+x,1/2-y,z
loop_
_atom_site_type_symbol
_atom_site_label
_atom_site_fract_x
_atom_site_fract_y
_atom_site_fract_z
Si Si1 0.735737 0.046728 0.312580
Si Si2 0.049254 0.370005 0.772889
Si Si3 0.869502 0.452895 0.271856
Si Si4 0.312320 0.735171 0.755714
Si Si5 0.801763 0.318214 0.960858
Si Si6 0.589194 0.657799 0.167679
Si Si7 0.831547 0.874510 0.290154
O O1 0.684237 0.061963 0.523193
O O2 0.810951 0.076747 0.313764
O O3 0.769689 0.000000 0.389418
O O4 0.681341 0.047320 0.023022
O O5 0.059281 0.419552 0.719078
O O6 0.000000 0.349638 0.500000
O O7 0.136590 0.348097 0.843986
O O8 0.000000 0.363122 0.000000
O O9 0.904425 0.500000 0.346066
O O10 0.250000 0.750000 0.500000
O O11 0.351805 0.779403 0.874830
O O12 0.386567 0.705478 0.733655
O O13 0.264381 0.706352 0.921140
O O14 0.749952 0.346591 0.720355
O O15 0.599705 0.633929 0.448143
O O16 0.500000 0.657735 0.000000
O O17 0.641372 0.634587 0.984382
#
# Coordination Sequence:
#
# PCOD8102477 Si02
#       7
#     8   8   8   8   8   8   8
#     4  10  20  36  65  97 118 153 210 265 301 350
#     4  12  27  40  59  89 129 172 206 256 314 362
#     4  10  21  38  60  89 125 161 210 260 302 361
#     4  10  21  40  66  88 117 163 203 257 311 361
#     4  10  23  40  60  91 116 159 219 247 304 369
#     4  11  24  40  62  96 126 159 202 250 310 371
#     4  11  21  39  69  87 123 164 198 259 298 371
#
# _framework density 20.468429
#
# number of rings (size 3 to 8) (size 9 to 14) (size 15 to 20)
#    0.000    1.429    2.857    2.143    4.000    1.143 
#    0.000    0.000    0.000    2.571    0.000    0.000 
#    0.000    0.000    0.000    0.000    0.000    0.000 
#
# Total GULP energy -346940.887827 kJ/mol
# GULP energy per Si atom -12390.745994 kJ/mol
# Density = 2.042184 g / cm^3
# Si number density = 20.468429 Si / 1000 Ang^3
#
#
#
# Elastic Constant Matrix: (Units=GPa)
#
#
# Indices 1 2 3 4 5 6 
#
# 1 54.2651 35.0209 25.0001 0.0000 14.4196 0.0000
# 2 35.0209 107.8840 24.8449 0.0000 8.2416 0.0000
# 3 25.0001 24.8449 123.5182 0.0000 8.6459 0.0000
# 4 0.0000 0.0000 0.0000 26.5013 0.0000 2.4095
# 5 14.4196 8.2416 8.6459 0.0000 42.5662 0.0000
# 6 0.0000 0.0000 0.0000 2.4095 0.0000 25.4938
#
#
#
# Elastic Compliance Matrix: (Units=1/GPa)
#
#
# Indices 1 2 3 4 5 6 
#
# 1 0.026548 -0.007304 -0.003422 0.000000 -0.006884 0.000000
# 2 -0.007304 0.011825 -0.000926 0.000000 0.000373 0.000000
# 3 -0.003422 -0.000926 0.009009 0.000000 -0.000491 0.000000
# 4 0.000000 0.000000 0.000000 0.038061 0.000000 -0.003597
# 5 -0.006884 0.000373 -0.000491 0.000000 0.025852 0.000000
# 6 0.000000 0.000000 0.000000 -0.003597 0.000000 0.039565
#
#
# Mechanical properties :
#
#
# Convention : Reuss Voigt Hill
#
# Bulk Modulus (GPa) = 41.53316 50.59992 46.06654
# Shear Modulus (GPa) = 27.44373 32.29902 29.87138
#
# Velocity S-wave (km/s) = 3.66564 3.97670 3.82434
# Velocity P-wave (km/s) = 6.18476 6.77202 6.48504
#
# Compressibility (1/GPa) = 0.02407714
#
# Stress axis : x y z
#
# Youngs Moduli (GPa) = 37.66829 84.56676 110.99574
#
# Poissons Ratio (x) = 0.61765 0.37986
# Poissons Ratio (y) = 0.27512 0.10282
# Poissons Ratio (z) = 0.12891 0.07834
#
# Static dielectric constant tensor:
#      x y z
#    x 3.377850 0.000000 -0.036440 
#    y 0.000000 4.149560 0.000000 
#    z -0.036440 0.000000 3.674850 
# 
# 
# High freq. dielectric constant tensor:
#      x y z
#    x 1.763680 0.000000 -0.002320 
#    y 0.000000 1.813970 0.000000 
#    z -0.002320 0.000000 1.813690 
# 
# From -- ./inp_files/18151.got.cif
#   From: 2010.06.25/outbox.cif.g09.slc.cpg/sg12_10_cif.got.tgz:18151.got - 2010.06.28 00:19:55.
