data_PCOD8102629
_publ_section_title
;
Structure prediction by ZEFSAII (Michael W. Deem and Ramdas Pophale) SiO2 
 PCOD8102629
Probable space group: C 2/M
;
_chemical_formula_sum "Si O2"
_cell_formula_units_Z 56
_cell_length_a 18.820734
_cell_length_b 8.883363
_cell_length_c 18.591509
_cell_angle_alpha 90.000000
_cell_angle_beta 115.946458
_cell_angle_gamma 90.000000
_cell_volume 2795.030177
_symmetry_space_group_name_H-M "C 2/M"
_symmetry_group_IT_number 12
_symmetry_cell_setting 'monoclinic'
loop_
_space_group_symop_operation_xyz
x,y,z
-x,y,-z
-x,-y,-z
x,-y,z
1/2+x,1/2+y,z
1/2-x,1/2+y,-z
1/2-x,1/2-y,-z
1/2+x,1/2-y,z
loop_
_atom_site_type_symbol
_atom_site_label
_atom_site_fract_x
_atom_site_fract_y
_atom_site_fract_z
Si Si1 0.660899 0.325694 0.750888
Si Si2 0.056724 0.677790 0.813791
Si Si3 0.680973 0.327967 0.227787
Si Si4 0.589617 0.673306 0.327410
Si Si5 0.670185 0.824078 0.488419
Si Si6 0.513773 0.675992 0.088366
Si Si7 0.416109 0.673796 0.430707
O O1 0.664023 0.500000 0.773618
O O2 0.638205 0.229029 0.811596
O O3 0.747284 0.278960 0.761959
O O4 0.594689 0.297640 0.659308
O O5 0.046447 0.500000 0.803245
O O6 0.988502 0.766857 0.743466
O O7 0.051029 0.729864 0.894416
O O8 0.703377 0.500000 0.219669
O O9 0.663203 0.309820 0.305024
O O10 0.603096 0.278488 0.148924
O O11 0.576866 0.500000 0.343657
O O12 0.601797 0.768920 0.404574
O O13 0.750000 0.750000 0.500000
O O14 0.650214 0.774266 0.560267
O O15 0.680241 0.000000 0.489274
O O16 0.499900 0.500000 0.097768
O O17 0.500000 0.718869 0.000000
O O18 0.500000 0.726778 0.500000
O O19 0.401038 0.500000 0.442949
#
# Coordination Sequence:
#
# PCOD8102629 Si02
#       7
#     8   8   8   8   8   8   8
#     4  11  22  36  56  81 112 150 191 233 279 335
#     4  11  22  36  58  86 115 146 183 226 273 331
#     4   9  19  35  57  84 112 144 182 229 282 332
#     4  10  20  37  58  79 108 145 188 235 282 336
#     4  12  24  36  53  78 109 145 188 238 289 339
#     4   9  19  39  65  89 115 148 185 225 273 332
#     4  10  22  39  57  77 106 147 193 241 289 336
#
# _framework density 20.035561999999999
#
# number of rings (size 3 to 8) (size 9 to 14) (size 15 to 20)
#    0.000    1.714    0.000    6.000    0.000    8.000 
#    0.000    0.714    0.000    0.000    0.000    0.000 
#    0.000    0.000    0.000    0.000    0.000    0.000 
#
# Total GULP energy -347262.663189 kJ/mol
# GULP energy per Si atom -12402.237971 kJ/mol
# Density = 1.998996 g / cm^3
# Si number density = 20.035562 Si / 1000 Ang^3
#
#
#
# Elastic Constant Matrix: (Units=GPa)
#
#
# Indices 1 2 3 4 5 6 
#
# 1 84.4400 47.4551 17.7915 0.0000 -18.2000 0.0000
# 2 47.4551 108.0183 24.3356 0.0000 -16.1162 0.0000
# 3 17.7915 24.3356 71.5749 0.0000 -15.7348 0.0000
# 4 0.0000 0.0000 0.0000 26.2815 0.0000 -4.6848
# 5 -18.2000 -16.1162 -15.7348 0.0000 26.9973 0.0000
# 6 0.0000 0.0000 0.0000 -4.6848 0.0000 37.6179
#
#
#
# Elastic Compliance Matrix: (Units=1/GPa)
#
#
# Indices 1 2 3 4 5 6 
#
# 1 0.017088 -0.006284 -0.000462 0.000000 0.007499 0.000000
# 2 -0.006284 0.012857 -0.002355 0.000000 0.002066 0.000000
# 3 -0.000462 -0.002355 0.016642 0.000000 0.007982 0.000000
# 4 0.000000 0.000000 0.000000 0.038913 0.000000 0.004846
# 5 0.007499 0.002066 0.007982 0.000000 0.047981 0.000000
# 6 0.000000 0.000000 0.000000 0.004846 0.000000 0.027187
#
#
# Mechanical properties :
#
#
# Convention : Reuss Voigt Hill
#
# Bulk Modulus (GPa) = 35.23179 49.24419 42.23799
# Shear Modulus (GPa) = 26.54861 29.80940 28.17900
#
# Velocity S-wave (km/s) = 3.64411 3.86142 3.75433
# Velocity P-wave (km/s) = 5.94380 6.67177 6.31828
#
# Compressibility (1/GPa) = 0.02838346
#
# Stress axis : x y z
#
# Youngs Moduli (GPa) = 58.51991 77.77621 60.08977
#
# Poissons Ratio (x) = 0.48877 0.02779
# Poissons Ratio (y) = 0.36775 0.14153
# Poissons Ratio (z) = 0.02706 0.18318
#
# Static dielectric constant tensor:
#      x y z
#    x 3.738040 0.000000 -0.262560 
#    y 0.000000 3.899350 0.000000 
#    z -0.262560 0.000000 3.772160 
# 
# 
# High freq. dielectric constant tensor:
#      x y z
#    x 1.785740 0.000000 -0.013320 
#    y 0.000000 1.781300 0.000000 
#    z -0.013320 0.000000 1.769380 
# 
# From -- ./inp_files/275540.got.cif
#   From: 2010.06.25/outbox.cif.g09.slc.cpg/sg12_138_cif.got.tgz:275540.got - 2010.06.28 00:19:55.
