data_PCOD8102519
_publ_section_title
;
Structure prediction by ZEFSAII (Michael W. Deem and Ramdas Pophale) SiO2 
 PCOD8102519
Probable space group: C 2/M
;
_chemical_formula_sum "Si O2"
_cell_formula_units_Z 64
_cell_length_a 19.854937
_cell_length_b 9.153359
_cell_length_c 21.662143
_cell_angle_alpha 90.000000
_cell_angle_beta 63.590576
_cell_angle_gamma 90.000000
_cell_volume 3526.007545
_symmetry_space_group_name_H-M "C 2/M"
_symmetry_group_IT_number 12
_symmetry_cell_setting 'monoclinic'
loop_
_space_group_symop_operation_xyz
x,y,z
-x,y,-z
-x,-y,-z
x,-y,z
1/2+x,1/2+y,z
1/2-x,1/2+y,-z
1/2-x,1/2-y,-z
1/2+x,1/2-y,z
loop_
_atom_site_type_symbol
_atom_site_label
_atom_site_fract_x
_atom_site_fract_y
_atom_site_fract_z
Si Si1 0.026266 0.669819 0.791930
Si Si2 0.799021 0.825503 0.428052
Si Si3 0.677088 0.167205 0.796917
Si Si4 0.541685 0.665835 0.076633
Si Si5 0.544435 0.827231 0.644416
Si Si6 0.455094 0.331517 0.580087
Si Si7 0.116757 0.165312 0.926689
Si Si8 0.280383 0.667560 0.646936
O O1 0.016006 0.500000 0.806099
O O2 0.108562 0.721852 0.781267
O O3 0.017239 0.713019 0.724262
O O4 0.959766 0.744622 0.858956
O O5 0.750000 0.750000 0.500000
O O6 0.882730 0.766169 0.402394
O O7 0.766088 0.779642 0.375616
O O8 0.798377 0.000000 0.435749
O O9 0.679639 0.248200 0.862061
O O10 0.754618 0.194451 0.728253
O O11 0.665191 0.000000 0.818506
O O12 0.561161 0.500000 0.085425
O O13 0.461046 0.677496 0.077737
O O14 0.603751 0.726153 0.001965
O O15 0.479477 0.776967 0.624436
O O16 0.560838 0.000000 0.631229
O O17 0.500000 0.291556 0.500000
O O18 0.468829 0.500000 0.593580
O O19 0.367855 0.300769 0.603300
O O20 0.144618 0.000000 0.919628
O O21 0.260736 0.500000 0.635876
#
# Coordination Sequence:
#
# PCOD8102519 Si02
#       8
#     8   8   8   8   8   8   8   8
#     4   9  17  29  46  70 101 135 170 209 255 307
#     4  12  24  37  57  82 107 136 175 216 264 322
#     4   9  16  28  46  69 100 137 171 207 258 310
#     4   8  14  24  39  62  96 134 168 206 253 301
#     4  11  22  38  57  79 110 141 175 220 267 315
#     4  10  22  39  58  79 104 138 179 221 267 321
#     4   8  14  24  38  62  97 133 168 208 252 299
#     4  10  20  37  56  77 110 141 173 221 270 316
#
# _framework density 18.150839999999999
#
# number of rings (size 3 to 8) (size 9 to 14) (size 15 to 20)
#    0.000    2.375    1.250    3.000    0.000    3.750 
#    0.000    2.500    0.000    0.000    0.000    0.875 
#    0.000    0.000    0.000    0.000    0.000    0.000 
#
# Total GULP energy -396681.341225 kJ/mol
# GULP energy per Si atom -12396.291913 kJ/mol
# Density = 1.810953 g / cm^3
# Si number density = 18.150840 Si / 1000 Ang^3
#
#
#
# Elastic Constant Matrix: (Units=GPa)
#
#
# Indices 1 2 3 4 5 6 
#
# 1 30.8105 14.6352 10.9831 0.0000 0.0825 -0.0002
# 2 14.6352 72.1564 41.7094 0.0000 4.2360 -0.0008
# 3 10.9831 41.7094 128.1700 0.0000 -0.1988 0.0000
# 4 0.0000 0.0000 0.0000 35.8564 0.0000 3.7060
# 5 0.0825 4.2360 -0.1988 0.0000 18.5510 -0.0001
# 6 -0.0002 -0.0008 0.0000 3.7060 -0.0001 20.8932
#
#
#
# Elastic Compliance Matrix: (Units=1/GPa)
#
#
# Indices 1 2 3 4 5 6 
#
# 1 0.036032 -0.006907 -0.000838 0.000000 0.001408 0.000000
# 2 -0.006907 0.018689 -0.005497 0.000000 -0.004296 0.000001
# 3 -0.000838 -0.005497 0.009665 0.000000 0.001362 0.000000
# 4 0.000000 0.000000 0.000000 0.028410 0.000000 -0.005039
# 5 0.001408 -0.004296 0.001362 0.000000 0.054895 0.000000
# 6 0.000000 0.000001 0.000000 -0.005039 0.000000 0.048756
#
#
# Mechanical properties :
#
#
# Convention : Reuss Voigt Hill
#
# Bulk Modulus (GPa) = 26.38270 40.64359 33.51315
# Shear Modulus (GPa) = 21.22567 25.98072 23.60320
#
# Velocity S-wave (km/s) = 3.42337 3.78746 3.61001
# Velocity P-wave (km/s) = 5.49479 6.44726 5.98999
#
# Compressibility (1/GPa) = 0.03790363
#
# Stress axis : x y z
#
# Youngs Moduli (GPa) = 27.75309 53.50708 103.46835
#
# Poissons Ratio (x) = 0.36955 0.08670
# Poissons Ratio (y) = 0.19168 0.56873
# Poissons Ratio (z) = 0.02325 0.29411
#
# Static dielectric constant tensor:
#      x y z
#    x 2.923260 0.000000 -0.045800 
#    y 0.000000 3.399680 0.000000 
#    z -0.045800 0.000000 3.848400 
# 
# 
# High freq. dielectric constant tensor:
#      x y z
#    x 1.649190 0.000000 -0.002560 
#    y 0.000000 1.698870 0.000000 
#    z -0.002560 0.000000 1.725930 
# 
# From -- ./inp_files/319857.got.cif
#   From: 2010.06.25/outbox.cif.g09.slc.cpg/sg12_160_cif.got.tgz:319857.got - 2010.06.28 00:19:55.
