data_PCOD8102654
_publ_section_title
;
Structure prediction by ZEFSAII (Michael W. Deem and Ramdas Pophale) SiO2 
 PCOD8102654
Probable space group: C 2/M
;
_chemical_formula_sum "Si O2"
_cell_formula_units_Z 56
_cell_length_a 12.317940
_cell_length_b 16.599006
_cell_length_c 16.697577
_cell_angle_alpha 90.000000
_cell_angle_beta 59.985572
_cell_angle_gamma 90.000000
_cell_volume 2956.249564
_symmetry_space_group_name_H-M "C 2/M"
_symmetry_group_IT_number 12
_symmetry_cell_setting 'monoclinic'
loop_
_space_group_symop_operation_xyz
x,y,z
-x,y,-z
-x,-y,-z
x,-y,z
1/2+x,1/2+y,z
1/2-x,1/2+y,-z
1/2-x,1/2-y,-z
1/2+x,1/2-y,z
loop_
_atom_site_type_symbol
_atom_site_label
_atom_site_fract_x
_atom_site_fract_y
_atom_site_fract_z
Si Si1 0.945736 0.905705 0.895377
Si Si2 0.804374 0.905810 0.104367
Si Si3 0.471854 0.340553 0.717802
Si Si4 0.117852 0.094839 0.407833
Si Si5 0.099326 0.339693 0.283288
Si Si6 0.845434 0.592160 0.421418
Si Si7 0.247470 0.403622 0.375831
O O1 0.914772 0.856079 0.826837
O O2 0.082897 0.881961 0.877495
O O3 0.942155 0.000000 0.876985
O O4 0.841253 0.883257 0.999967
O O5 0.678198 0.858069 0.173807
O O6 0.777317 0.000000 0.122177
O O7 0.385577 0.384439 0.684495
O O8 0.465378 0.246772 0.699081
O O9 0.610417 0.376989 0.661326
O O10 0.243970 0.133664 0.399652
O O11 0.000000 0.131977 0.500000
O O12 0.117321 0.000000 0.417278
O O13 0.193048 0.351824 0.322917
O O14 0.984568 0.400723 0.335839
O O15 0.807141 0.500000 0.439971
O O16 0.833312 0.623633 0.517071
O O17 0.241434 0.500000 0.360092
#
# Coordination Sequence:
#
# PCOD8102654 Si02
#       7
#     8   8   8   8   8   8   8
#     4   9  18  36  64  90 109 148 204 249 285 347
#     4   9  18  36  63  89 113 146 200 251 290 344
#     4  12  24  35  59  87 124 154 193 244 305 353
#     4  10  20  37  58  81 111 156 204 243 281 344
#     4  12  25  35  57  90 127 153 188 246 316 352
#     4  10  22  39  60  83 115 160 208 244 288 350
#     4  11  22  42  64  83 114 164 212 246 283 347
#
# _framework density 18.942919
#
# number of rings (size 3 to 8) (size 9 to 14) (size 15 to 20)
#    0.000    1.571    2.857    3.857    2.000    3.429 
#    0.000    0.000    0.000    0.857    0.000    4.000 
#    0.000    0.000    0.000    0.000    0.000    0.000 
#
# Total GULP energy -347148.107829 kJ/mol
# GULP energy per Si atom -12398.146708 kJ/mol
# Density = 1.889980 g / cm^3
# Si number density = 18.942919 Si / 1000 Ang^3
#
#
#
# Elastic Constant Matrix: (Units=GPa)
#
#
# Indices 1 2 3 4 5 6 
#
# 1 73.4436 19.3041 50.7433 0.0000 7.3531 0.0000
# 2 19.3041 49.1369 26.0177 0.0000 5.7743 0.0000
# 3 50.7433 26.0177 138.1537 0.0000 1.7394 0.0000
# 4 0.0000 0.0000 0.0000 12.1078 0.0000 0.0235
# 5 7.3531 5.7743 1.7394 0.0000 37.2740 0.0000
# 6 0.0000 0.0000 0.0000 0.0235 0.0000 24.4247
#
#
#
# Elastic Compliance Matrix: (Units=1/GPa)
#
#
# Indices 1 2 3 4 5 6 
#
# 1 0.019295 -0.003894 -0.006317 0.000000 -0.002908 0.000000
# 2 -0.003894 0.023806 -0.003018 0.000000 -0.002779 0.000000
# 3 -0.006317 -0.003018 0.010111 0.000000 0.001242 0.000000
# 4 0.000000 0.000000 0.000000 0.082591 0.000000 -0.000080
# 5 -0.002908 -0.002779 0.001242 0.000000 0.027775 0.000000
# 6 0.000000 0.000000 0.000000 -0.000080 0.000000 0.040942
#
#
# Mechanical properties :
#
#
# Convention : Reuss Voigt Hill
#
# Bulk Modulus (GPa) = 37.37717 50.31827 43.84772
# Shear Modulus (GPa) = 20.84235 25.73924 23.29080
#
# Velocity S-wave (km/s) = 3.32063 3.69016 3.51026
# Velocity P-wave (km/s) = 5.87166 6.69157 6.29498
#
# Compressibility (1/GPa) = 0.02675430
#
# Stress axis : x y z
#
# Youngs Moduli (GPa) = 51.82665 42.00694 98.89922
#
# Poissons Ratio (x) = 0.16356 0.62476
# Poissons Ratio (y) = 0.20180 0.29848
# Poissons Ratio (z) = 0.32739 0.12678
#
# Static dielectric constant tensor:
#      x y z
#    x 3.522380 0.000000 0.134490 
#    y 0.000000 3.215200 0.000000 
#    z 0.134490 0.000000 3.642320 
# 
# 
# High freq. dielectric constant tensor:
#      x y z
#    x 1.731600 0.000000 0.004470 
#    y 0.000000 1.714130 0.000000 
#    z 0.004470 0.000000 1.743620 
# 
# From -- ./inp_files/263210.got.cif
#   From: 2010.06.25/outbox.cif.g09.slc.cpg/sg12_132_cif.got.tgz:263210.got - 2010.06.28 00:19:55.
