data_PCOD8102432
_publ_section_title
;
Structure prediction by ZEFSAII (Michael W. Deem and Ramdas Pophale) SiO2 
 PCOD8102432
Probable space group: C 2/M
;
_chemical_formula_sum "Si O2"
_cell_formula_units_Z 56
_cell_length_a 9.171249
_cell_length_b 19.027318
_cell_length_c 27.289785
_cell_angle_alpha 90.000000
_cell_angle_beta 36.471545
_cell_angle_gamma 90.000000
_cell_volume 2830.754064
_symmetry_space_group_name_H-M "C 2/M"
_symmetry_group_IT_number 12
_symmetry_cell_setting 'monoclinic'
loop_
_space_group_symop_operation_xyz
x,y,z
-x,y,-z
-x,-y,-z
x,-y,z
1/2+x,1/2+y,z
1/2-x,1/2+y,-z
1/2-x,1/2-y,-z
1/2+x,1/2-y,z
loop_
_atom_site_type_symbol
_atom_site_label
_atom_site_fract_x
_atom_site_fract_y
_atom_site_fract_z
Si Si1 0.620662 0.332698 0.075507
Si Si2 0.789430 0.581397 0.775757
Si Si3 0.605177 0.193572 0.900581
Si Si4 0.343473 0.416798 0.654784
Si Si5 0.596698 0.319507 0.275306
Si Si6 0.831315 0.680311 0.680139
Si Si7 0.328684 0.678332 0.503322
O O1 0.424662 0.396621 0.128266
O O2 0.486491 0.272943 0.080440
O O3 0.688328 0.307539 0.112680
O O4 0.871721 0.354691 0.979578
O O5 0.773877 0.500000 0.769810
O O6 0.716820 0.621363 0.745788
O O7 0.061516 0.604083 0.719457
O O8 0.707987 0.168326 0.820783
O O9 0.385438 0.500000 0.639438
O O10 0.401666 0.390995 0.693818
O O11 0.535010 0.378557 0.567129
O O12 0.332630 0.305674 0.323099
O O13 0.650189 0.253671 0.295829
O O14 0.084345 0.645777 0.592914
O O15 0.500000 0.703564 0.500000
O O16 0.250000 0.750000 0.500000
#
# Coordination Sequence:
#
# PCOD8102432 Si02
#       7
#     8   8   8   8   8   8   8
#     4  10  21  37  60  98 122 164 209 261 318 371
#     4  11  23  42  62  89 127 169 214 258 315 379
#     4  10  20  36  63  94 128 157 209 264 316 365
#     4  11  27  45  64  91 130 171 210 262 321 379
#     4  12  22  40  66  95 130 162 213 264 313 376
#     4  12  23  38  67  96 121 167 214 261 315 370
#     4  12  24  41  67  97 126 161 212 266 313 372
#
# _framework density 19.782715
#
# number of rings (size 3 to 8) (size 9 to 14) (size 15 to 20)
#    0.000    0.857    5.714    1.714    2.000    1.429 
#    0.000    2.857    0.000    1.714    0.000    0.000 
#    0.000    0.000    0.000    0.000    0.000    0.000 
#
# Total GULP energy -347096.504749 kJ/mol
# GULP energy per Si atom -12396.303741 kJ/mol
# Density = 1.973769 g / cm^3
# Si number density = 19.782715 Si / 1000 Ang^3
#
#
#
# Elastic Constant Matrix: (Units=GPa)
#
#
# Indices 1 2 3 4 5 6 
#
# 1 127.0081 50.1093 47.4027 -0.0001 -1.9326 0.0010
# 2 50.1093 100.4338 50.2461 0.0327 -5.2667 0.0184
# 3 47.4027 50.2461 153.6560 0.0330 -7.0998 0.0463
# 4 -0.0001 0.0327 0.0330 31.6733 0.0097 -2.7418
# 5 -1.9326 -5.2667 -7.0998 0.0097 32.3124 -0.0131
# 6 0.0010 0.0184 0.0463 -2.7418 -0.0131 24.9581
#
#
#
# Elastic Compliance Matrix: (Units=1/GPa)
#
#
# Indices 1 2 3 4 5 6 
#
# 1 0.010198 -0.004218 -0.001789 0.000007 -0.000471 0.000007
# 2 -0.004218 0.013687 -0.003115 -0.000012 0.001294 -0.000005
# 3 -0.001789 -0.003115 0.008133 -0.000007 0.001172 -0.000013
# 4 0.000007 -0.000012 -0.000007 0.031875 -0.000011 0.003502
# 5 -0.000471 0.001294 0.001172 -0.000011 0.031388 0.000012
# 6 0.000007 -0.000005 -0.000013 0.003502 0.000012 0.040452
#
#
# Mechanical properties :
#
#
# Convention : Reuss Voigt Hill
#
# Bulk Modulus (GPa) = 72.59322 75.17933 73.88627
# Shear Modulus (GPa) = 31.53223 33.34477 32.43850
#
# Velocity S-wave (km/s) = 3.99673 4.11000 4.05376
# Velocity P-wave (km/s) = 7.62059 7.78510 7.70329
#
# Compressibility (1/GPa) = 0.01377539
#
# Stress axis : x y z
#
# Youngs Moduli (GPa) = 98.05825 73.05956 122.96308
#
# Poissons Ratio (x) = 0.30816 0.21992
# Poissons Ratio (y) = 0.41361 0.38301
# Poissons Ratio (z) = 0.17538 0.22757
#
# Static dielectric constant tensor:
#      x y z
#    x 3.795520 0.000000 -0.091940 
#    y 0.000000 3.336150 0.000060 
#    z -0.091940 0.000060 4.140170 
# 
# 
# High freq. dielectric constant tensor:
#      x y z
#    x 1.781330 0.000000 -0.006960 
#    y 0.000000 1.737810 0.000000 
#    z -0.006960 0.000000 1.797640 
# 
# From -- ./inp_files/356664.got.cif
#   From: 2010.06.25/outbox.cif.g09.slc.cpg/sg12_179_cif.got.tgz:356664.got - 2010.06.28 00:19:55.
