data_PCOD8102707
_publ_section_title
;
Structure prediction by ZEFSAII (Michael W. Deem and Ramdas Pophale) SiO2 
 PCOD8102707
Probable space group: C 2/M
;
_chemical_formula_sum "Si O2"
_cell_formula_units_Z 36
_cell_length_a 13.977354
_cell_length_b 9.465973
_cell_length_c 28.533097
_cell_angle_alpha 90.000000
_cell_angle_beta 30.088727
_cell_angle_gamma 90.000000
_cell_volume 1892.657088
_symmetry_space_group_name_H-M "C 2/M"
_symmetry_group_IT_number 12
_symmetry_cell_setting 'monoclinic'
loop_
_space_group_symop_operation_xyz
x,y,z
-x,y,-z
-x,-y,-z
x,-y,z
1/2+x,1/2+y,z
1/2-x,1/2+y,-z
1/2-x,1/2-y,-z
1/2+x,1/2-y,z
loop_
_atom_site_type_symbol
_atom_site_label
_atom_site_fract_x
_atom_site_fract_y
_atom_site_fract_z
Si Si1 0.498876 0.500000 0.054784
Si Si2 0.367916 0.839008 0.512316
Si Si3 0.724785 0.000000 0.898319
Si Si4 0.316962 0.215273 0.159749
Si Si5 0.995188 0.335634 0.355588
Si Si6 0.146446 0.500000 0.032846
O O1 0.377854 0.369314 0.121637
O O2 0.500000 0.500000 0.000000
O O3 0.714896 0.500000 0.981890
O O4 0.500000 0.801514 0.500000
O O5 0.198544 0.725952 0.584267
O O6 0.494437 0.822354 0.411949
O O7 0.288649 0.000000 0.549388
O O8 0.781894 0.861960 0.843544
O O9 0.500000 0.000000 0.000000
O O10 0.788852 0.000000 0.925855
O O11 0.164729 0.233477 0.265859
O O12 0.507660 0.134597 0.095208
O O13 0.017249 0.500000 0.330924
#
# Coordination Sequence:
#
# PCOD8102707 Si02
#       6
#     4   8   4   8   8   4
#     4  12  22  38  58  80 120 149 181 239 293 332
#     4   9  20  39  62  83 115 153 189 224 282 345
#     4   8  18  38  58  77 107 148 194 226 271 333
#     4  10  20  37  58  85 112 146 192 237 275 336
#     4  10  20  38  58  88 119 146 182 241 284 328
#     4  10  22  40  58  81 111 157 195 227 282 335
#
# _framework density 19.020876999999999
#
# number of rings (size 3 to 8) (size 9 to 14) (size 15 to 20)
#    0.000    2.444    1.111    2.667    3.111    0.444 
#    8.000    0.000    0.000    0.000    0.000    0.000 
#    0.000    0.000    0.000    0.000    0.000    0.000 
#
# Total GULP energy -223062.153706 kJ/mol
# GULP energy per Si atom -12392.341873 kJ/mol
# Density = 1.897759 g / cm^3
# Si number density = 19.020877 Si / 1000 Ang^3
#
#
#
# Elastic Constant Matrix: (Units=GPa)
#
#
# Indices 1 2 3 4 5 6 
#
# 1 137.0133 44.1179 51.6405 -0.0006 14.7708 0.0003
# 2 44.1179 130.0926 54.9968 -0.0008 6.3818 0.0000
# 3 51.6405 54.9968 113.8592 -0.0049 12.7051 0.0012
# 4 -0.0006 -0.0008 -0.0049 56.2997 0.0002 -21.3106
# 5 14.7708 6.3818 12.7051 0.0002 12.5879 -0.0007
# 6 0.0003 0.0000 0.0012 -21.3106 -0.0007 51.8304
#
#
#
# Elastic Compliance Matrix: (Units=1/GPa)
#
#
# Indices 1 2 3 4 5 6 
#
# 1 0.009723 -0.001782 -0.002678 0.000000 -0.007802 0.000000
# 2 -0.001782 0.009986 -0.004151 0.000000 0.001218 0.000000
# 3 -0.002678 -0.004151 0.012866 0.000001 -0.007739 0.000000
# 4 0.000000 0.000000 0.000001 0.021036 -0.000001 0.008649
# 5 -0.007802 0.001218 -0.007739 -0.000001 0.095790 0.000001
# 6 0.000000 0.000000 0.000000 0.008649 0.000001 0.022850
#
#
# Mechanical properties :
#
#
# Convention : Reuss Voigt Hill
#
# Bulk Modulus (GPa) = 65.13877 75.83061 70.48469
# Shear Modulus (GPa) = 25.69470 39.49092 32.59281
#
# Velocity S-wave (km/s) = 3.67940 4.56146 4.14397
# Velocity P-wave (km/s) = 7.23678 8.22777 7.74813
#
# Compressibility (1/GPa) = 0.01535184
#
# Stress axis : x y z
#
# Youngs Moduli (GPa) = 102.84816 100.13558 77.72293
#
# Poissons Ratio (x) = 0.17848 0.20817
# Poissons Ratio (y) = 0.18331 0.32265
# Poissons Ratio (z) = 0.27546 0.41569
#
# Static dielectric constant tensor:
#      x y z
#    x 3.855030 -0.000030 0.516980 
#    y -0.000030 3.119770 0.000040 
#    z 0.516980 0.000040 3.935620 
# 
# 
# High freq. dielectric constant tensor:
#      x y z
#    x 1.721840 0.000000 0.015570 
#    y 0.000000 1.755100 0.000000 
#    z 0.015570 0.000000 1.737840 
# 
# From -- ./inp_files/266779.got.cif
#   From: 2010.06.25/outbox.cif.g09.slc.cpg/sg12_134_cif.got.tgz:266779.got - 2010.06.28 00:19:55.
