data_PCOD8102399
_publ_section_title
;
Structure prediction by ZEFSAII (Michael W. Deem and Ramdas Pophale) SiO2 
 PCOD8102399
Probable space group: C 2/M
;
_chemical_formula_sum "Si O2"
_cell_formula_units_Z 40
_cell_length_a 22.370239
_cell_length_b 16.704970
_cell_length_c 14.632643
_cell_angle_alpha 90.000000
_cell_angle_beta 21.843437
_cell_angle_gamma 90.000000
_cell_volume 2034.537314
_symmetry_space_group_name_H-M "C 2/M"
_symmetry_group_IT_number 12
_symmetry_cell_setting 'monoclinic'
loop_
_space_group_symop_operation_xyz
x,y,z
-x,y,-z
-x,-y,-z
x,-y,z
1/2+x,1/2+y,z
1/2-x,1/2+y,-z
1/2-x,1/2-y,-z
1/2+x,1/2-y,z
loop_
_atom_site_type_symbol
_atom_site_label
_atom_site_fract_x
_atom_site_fract_y
_atom_site_fract_z
Si Si1 0.593612 0.668473 0.959688
Si Si2 0.443915 0.853712 0.482497
Si Si3 0.695615 0.309599 0.311564
Si Si4 0.758454 0.591692 0.044506
Si Si5 0.479329 0.407500 0.300159
O O1 0.761154 0.617769 0.720679
O O2 0.634666 0.763166 0.914142
O O3 0.500000 0.652214 0.000000
O O4 0.483072 0.639750 0.199718
O O5 0.500000 0.890161 0.500000
O O6 0.447909 0.756474 0.481387
O O7 0.559964 0.884509 0.238126
O O8 0.668342 0.373216 0.431043
O O9 0.692553 0.354566 0.219698
O O10 0.751824 0.500000 0.086297
O O11 0.647033 0.606201 0.114761
O O12 0.445165 0.500000 0.329376
#
# Coordination Sequence:
#
# PCOD8102399 Si02
#       5
#     8   8   8   8   8
#     4  10  24  41  63  84 119 159 204 241 289 346
#     4  10  20  36  63  87 113 155 201 243 286 342
#     4  10  22  37  62  86 119 154 199 236 296 349
#     4  11  21  36  60  94 124 149 189 248 303 348
#     4  11  22  37  61  90 123 155 193 243 297 351
#
# _framework density 19.660489999999999
#
# number of rings (size 3 to 8) (size 9 to 14) (size 15 to 20)
#    1.200    0.400    2.000    3.600    0.000    6.400 
#    0.000    0.000    0.000    1.200    0.000    0.000 
#    0.000    0.000    0.000    0.000    0.000    0.000 
#
# Total GULP energy -247948.583997 kJ/mol
# GULP energy per Si atom -12397.429200 kJ/mol
# Density = 1.961574 g / cm^3
# Si number density = 19.660490 Si / 1000 Ang^3
#
#
#
# Elastic Constant Matrix: (Units=GPa)
#
#
# Indices 1 2 3 4 5 6 
#
# 1 125.0302 42.5417 36.7083 -0.0008 12.9546 0.0003
# 2 42.5417 83.1062 45.0795 0.0000 10.5438 -0.0002
# 3 36.7083 45.0795 83.6855 -0.0006 24.3478 0.0001
# 4 -0.0008 0.0000 -0.0006 16.9162 0.0005 4.1142
# 5 12.9546 10.5438 24.3478 0.0005 29.4767 0.0000
# 6 0.0003 -0.0002 0.0001 4.1142 0.0000 11.9487
#
#
#
# Elastic Compliance Matrix: (Units=1/GPa)
#
#
# Indices 1 2 3 4 5 6 
#
# 1 0.010037 -0.003949 -0.001847 0.000001 -0.001473 -0.000001
# 2 -0.003949 0.018640 -0.009048 -0.000001 0.002542 0.000001
# 3 -0.001847 -0.009048 0.021662 0.000001 -0.013844 -0.000001
# 4 0.000001 -0.000001 0.000001 0.064518 -0.000002 -0.022215
# 5 -0.001473 0.002542 -0.013844 -0.000002 0.045099 0.000001
# 6 -0.000001 0.000001 -0.000001 -0.022215 0.000001 0.091340
#
#
# Mechanical properties :
#
#
# Convention : Reuss Voigt Hill
#
# Bulk Modulus (GPa) = 48.42597 60.05345 54.23971
# Shear Modulus (GPa) = 17.36924 22.83450 20.10187
#
# Velocity S-wave (km/s) = 2.97553 3.41169 3.20105
# Velocity P-wave (km/s) = 6.04066 6.79198 6.42731
#
# Compressibility (1/GPa) = 0.02065008
#
# Stress axis : x y z
#
# Youngs Moduli (GPa) = 99.63598 53.64845 46.16483
#
# Poissons Ratio (x) = 0.21186 0.08525
# Poissons Ratio (y) = 0.39347 0.41771
# Poissons Ratio (z) = 0.18399 0.48542
#
# Static dielectric constant tensor:
#      x y z
#    x 3.207830 0.000000 0.089000 
#    y 0.000000 3.522110 0.000000 
#    z 0.089000 0.000000 3.489530 
# 
# 
# High freq. dielectric constant tensor:
#      x y z
#    x 1.737590 0.000000 0.016410 
#    y 0.000000 1.761310 0.000000 
#    z 0.016410 0.000000 1.766670 
# 
# From -- ./inp_files/168652.got.cif
#   From: 2010.06.25/outbox.cif.g09.slc.cpg/sg12_85_cif.got.tgz:168652.got - 2010.06.28 00:19:55.
