data_PCOD8102013
_publ_section_title
;
Structure prediction by ZEFSAII (Michael W. Deem and Ramdas Pophale) SiO2 
 PCOD8102013
Probable space group: C 2/M
;
_chemical_formula_sum "Si O2"
_cell_formula_units_Z 48
_cell_length_a 23.051615
_cell_length_b 11.316325
_cell_length_c 11.965280
_cell_angle_alpha 90.000000
_cell_angle_beta 49.780525
_cell_angle_gamma 90.000000
_cell_volume 2383.319363
_symmetry_space_group_name_H-M "C 2/M"
_symmetry_group_IT_number 12
_symmetry_cell_setting 'monoclinic'
loop_
_space_group_symop_operation_xyz
x,y,z
-x,y,-z
-x,-y,-z
x,-y,z
1/2+x,1/2+y,z
1/2-x,1/2+y,-z
1/2-x,1/2-y,-z
1/2+x,1/2-y,z
loop_
_atom_site_type_symbol
_atom_site_label
_atom_site_fract_x
_atom_site_fract_y
_atom_site_fract_z
Si Si1 0.691851 0.135611 0.370448
Si Si2 0.183378 0.694928 0.837964
Si Si3 0.877950 0.634712 0.321214
Si Si4 0.214903 0.869337 0.102143
Si Si5 0.456167 0.137650 0.853195
Si Si6 0.575545 0.763478 0.342859
O O1 0.773977 0.180971 0.229380
O O2 0.667615 0.195621 0.519470
O O3 0.626766 0.157663 0.360623
O O4 0.705223 0.000000 0.372273
O O5 0.167701 0.640358 0.736624
O O6 0.240359 0.611603 0.837104
O O7 0.106018 0.714577 0.003127
O O8 0.891646 0.500000 0.339571
O O9 0.962744 0.688617 0.205902
O O10 0.125597 0.847553 0.237140
O O11 0.222859 0.000000 0.030705
O O12 0.250000 0.750000 0.000000
O O13 0.448447 0.153765 0.730222
O O14 0.443743 0.000000 0.899715
O O15 0.500000 0.717357 0.500000
#
# Coordination Sequence:
#
# PCOD8102013 Si02
#       6
#     8   8   8   8   8   8
#     4  10  22  37  59  88 119 162 204 249 303 363
#     4  11  22  37  58  89 123 153 197 254 307 362
#     4  10  20  36  60  87 117 155 203 251 302 358
#     4  11  24  41  64  93 124 162 204 254 310 367
#     4  11  21  35  59  90 119 156 201 254 307 358
#     4  11  22  39  61  88 121 157 200 252 304 361
#
# _framework density 20.139979
#
# number of rings (size 3 to 8) (size 9 to 14) (size 15 to 20)
#    0.000    1.333    3.333    3.000    0.000    5.000 
#    0.000    0.000    0.000    3.000    0.000    0.000 
#    0.000    0.000    0.000    0.000    0.000    0.000 
#
# Total GULP energy -297385.444043 kJ/mol
# GULP energy per Si atom -12391.060168 kJ/mol
# Density = 2.009414 g / cm^3
# Si number density = 20.139979 Si / 1000 Ang^3
#
#
#
# Elastic Constant Matrix: (Units=GPa)
#
#
# Indices 1 2 3 4 5 6 
#
# 1 112.3611 26.6647 44.7694 0.0000 0.7182 0.0000
# 2 26.6647 87.9215 53.8982 0.0000 -16.1661 0.0000
# 3 44.7694 53.8982 139.4034 0.0000 -18.9835 0.0000
# 4 0.0000 0.0000 0.0000 25.7293 0.0000 3.3087
# 5 0.7182 -16.1661 -18.9835 0.0000 43.2212 0.0000
# 6 0.0000 0.0000 0.0000 3.3087 0.0000 9.8988
#
#
#
# Elastic Compliance Matrix: (Units=1/GPa)
#
#
# Indices 1 2 3 4 5 6 
#
# 1 0.010522 -0.001750 -0.002995 0.000000 -0.002145 0.000000
# 2 -0.001750 0.015636 -0.004981 0.000000 0.003690 0.000000
# 3 -0.002995 -0.004981 0.010439 0.000000 0.002771 0.000000
# 4 0.000000 0.000000 0.000000 0.040612 0.000000 -0.013575
# 5 -0.002145 0.003690 0.002771 0.000000 0.025770 0.000000
# 6 0.000000 0.000000 0.000000 -0.013575 0.000000 0.105560
#
#
# Mechanical properties :
#
#
# Convention : Reuss Voigt Hill
#
# Bulk Modulus (GPa) = 58.32316 65.59450 61.95883
# Shear Modulus (GPa) = 21.39448 30.06010 25.72729
#
# Velocity S-wave (km/s) = 3.26281 3.86756 3.57798
# Velocity P-wave (km/s) = 6.57392 7.25148 6.92100
#
# Compressibility (1/GPa) = 0.01714585
#
# Stress axis : x y z
#
# Youngs Moduli (GPa) = 95.03885 63.95306 95.79907
#
# Poissons Ratio (x) = 0.11189 0.28689
# Poissons Ratio (y) = 0.16628 0.47720
# Poissons Ratio (z) = 0.28462 0.31857
#
# Static dielectric constant tensor:
#      x y z
#    x 3.814590 0.000000 -0.067760 
#    y 0.000000 3.325840 0.000000 
#    z -0.067760 0.000000 4.017310 
# 
# 
# High freq. dielectric constant tensor:
#      x y z
#    x 1.797430 0.000000 -0.000010 
#    y 0.000000 1.742000 0.000000 
#    z -0.000010 0.000000 1.803430 
# 
# From -- ./inp_files/165469.got.cif
#   From: 2010.06.25/outbox.cif.g09.slc.cpg/sg12_83_cif.got.tgz:165469.got - 2010.06.28 00:19:55.
