data_PCOD8102728
_publ_section_title
;
Structure prediction by ZEFSAII (Michael W. Deem and Ramdas Pophale) SiO2 
 PCOD8102728
Probable space group: C 2/M
;
_chemical_formula_sum "Si O2"
_cell_formula_units_Z 48
_cell_length_a 24.777967
_cell_length_b 13.173468
_cell_length_c 14.989395
_cell_angle_alpha 90.000000
_cell_angle_beta 152.387948
_cell_angle_gamma 90.000000
_cell_volume 2267.687340
_symmetry_space_group_name_H-M "C 2/M"
_symmetry_group_IT_number 12
_symmetry_cell_setting 'monoclinic'
loop_
_space_group_symop_operation_xyz
x,y,z
-x,y,-z
-x,-y,-z
x,-y,z
1/2+x,1/2+y,z
1/2-x,1/2+y,-z
1/2-x,1/2-y,-z
1/2+x,1/2-y,z
loop_
_atom_site_type_symbol
_atom_site_label
_atom_site_fract_x
_atom_site_fract_y
_atom_site_fract_z
Si Si1 0.111704 0.182525 0.864624
Si Si2 0.756969 0.790182 0.660229
Si Si3 0.215572 0.883453 0.474779
Si Si4 0.733055 0.116994 0.061763
Si Si5 0.043040 0.885897 0.944786
Si Si6 0.913051 0.776776 0.447580
O O1 0.218930 0.136913 0.966904
O O2 0.111684 0.115555 0.952582
O O3 0.992218 0.165937 0.635826
O O4 0.127507 0.302056 0.915551
O O5 0.713054 0.859890 0.512369
O O6 0.763111 0.675203 0.631391
O O7 0.668985 0.801189 0.616461
O O8 0.887729 0.820819 0.880378
O O9 0.085620 0.843215 0.262117
O O10 0.221534 0.000000 0.509521
O O11 0.832118 0.140528 0.280340
O O12 0.691156 0.000000 0.011071
O O13 0.038134 0.000000 0.974585
O O14 0.000000 0.724704 0.500000
#
# Coordination Sequence:
#
# PCOD8102728 Si02
#       6
#     8   8   8   8   8   8
#     4  10  20  37  58  87 125 156 199 248 298 352
#     4  11  21  39  63  90 123 153 195 257 303 346
#     4  10  23  41  65  89 116 157 206 250 297 356
#     4  10  21  37  60  86 119 163 205 244 294 353
#     4  11  21  37  63  91 116 153 202 249 299 354
#     4  10  21  37  61  88 124 157 199 243 297 350
#
# _framework density 21.166938999999999
#
# number of rings (size 3 to 8) (size 9 to 14) (size 15 to 20)
#    0.000    1.667    3.333    1.500    0.000    5.667 
#    0.000    1.667    0.000   13.500    0.000    0.000 
#    0.000    0.000    0.000    0.000    0.000    0.000 
#
# Total GULP energy -297392.242759 kJ/mol
# GULP energy per Si atom -12391.343448 kJ/mol
# Density = 2.111876 g / cm^3
# Si number density = 21.166939 Si / 1000 Ang^3
#
#
#
# Elastic Constant Matrix: (Units=GPa)
#
#
# Indices 1 2 3 4 5 6 
#
# 1 82.5606 25.4328 13.9644 0.0000 -16.5907 0.0000
# 2 25.4328 105.7629 48.3390 0.0000 -3.6414 0.0000
# 3 13.9644 48.3390 84.8029 0.0000 -20.8501 0.0000
# 4 0.0000 0.0000 0.0000 32.9493 0.0000 -2.3420
# 5 -16.5907 -3.6414 -20.8501 0.0000 28.2958 0.0000
# 6 0.0000 0.0000 0.0000 -2.3420 0.0000 14.5586
#
#
#
# Elastic Compliance Matrix: (Units=1/GPa)
#
#
# Indices 1 2 3 4 5 6 
#
# 1 0.015090 -0.004441 0.002542 0.000000 0.010149 0.000000
# 2 -0.004441 0.014592 -0.009483 0.000000 -0.007714 0.000000
# 3 0.002542 -0.009483 0.020572 0.000000 0.015429 0.000000
# 4 0.000000 0.000000 0.000000 0.030701 0.000000 0.004939
# 5 0.010149 -0.007714 0.015429 0.000000 0.051668 0.000000
# 6 0.000000 0.000000 0.000000 0.004939 0.000000 0.069482
#
#
# Mechanical properties :
#
#
# Convention : Reuss Voigt Hill
#
# Bulk Modulus (GPa) = 36.37649 49.84432 43.11040
# Shear Modulus (GPa) = 21.36467 27.52010 24.44239
#
# Velocity S-wave (km/s) = 3.18046 3.60967 3.40184
# Velocity P-wave (km/s) = 5.54165 6.40095 5.98674
#
# Compressibility (1/GPa) = 0.02749029
#
# Stress axis : x y z
#
# Youngs Moduli (GPa) = 66.26930 68.53302 48.60943
#
# Poissons Ratio (x) = 0.30436 -0.12357
# Poissons Ratio (y) = 0.29431 0.46094
# Poissons Ratio (z) = -0.16846 0.64987
#
# Static dielectric constant tensor:
#      x y z
#    x 4.197550 0.000000 -0.130660 
#    y 0.000000 3.513180 0.000000 
#    z -0.130660 0.000000 3.831890 
# 
# 
# High freq. dielectric constant tensor:
#      x y z
#    x 1.847190 0.000000 -0.022090 
#    y 0.000000 1.791620 0.000000 
#    z -0.022090 0.000000 1.826410 
# 
# From -- ./inp_files/213243.got.cif
#   From: 2010.06.25/outbox.cif.g09.slc.cpg/sg12_107_cif.got.tgz:213243.got - 2010.06.28 00:19:55.
