data_PCOD8102169
_publ_section_title
;
Structure prediction by ZEFSAII (Michael W. Deem and Ramdas Pophale) SiO2 
 PCOD8102169
Probable space group: C 2/M
;
_chemical_formula_sum "Si O2"
_cell_formula_units_Z 64
_cell_length_a 17.832738
_cell_length_b 29.051347
_cell_length_c 12.856558
_cell_angle_alpha 90.000000
_cell_angle_beta 27.263129
_cell_angle_gamma 90.000000
_cell_volume 3051.041303
_symmetry_space_group_name_H-M "C 2/M"
_symmetry_group_IT_number 12
_symmetry_cell_setting 'monoclinic'
loop_
_space_group_symop_operation_xyz
x,y,z
-x,y,-z
-x,-y,-z
x,-y,z
1/2+x,1/2+y,z
1/2-x,1/2+y,-z
1/2-x,1/2-y,-z
1/2+x,1/2-y,z
loop_
_atom_site_type_symbol
_atom_site_label
_atom_site_fract_x
_atom_site_fract_y
_atom_site_fract_z
Si Si1 0.547680 0.413723 0.056216
Si Si2 0.003996 0.634380 0.875969
Si Si3 0.910722 0.824801 0.891695
Si Si4 0.819323 0.733273 0.691313
Si Si5 0.838638 0.833641 0.743573
Si Si6 0.760179 0.700438 0.534152
Si Si7 0.295577 0.054482 0.455312
Si Si8 0.633594 0.051235 0.406462
O O1 0.646388 0.374813 0.999212
O O2 0.399030 0.435048 0.307149
O O3 0.500000 0.394985 0.000000
O O4 0.687274 0.452027 0.866721
O O5 0.087420 0.672525 0.700164
O O6 0.098675 0.585086 0.755662
O O7 0.000000 0.650929 0.000000
O O8 0.815135 0.631642 0.069938
O O9 0.885040 0.817316 0.801675
O O10 0.098534 0.826473 0.699038
O O11 0.813167 0.783235 0.062534
O O12 0.806191 0.788896 0.709453
O O13 0.776850 0.707919 0.636366
O O14 0.000000 0.716982 0.500000
O O15 0.000000 0.859633 0.500000
O O16 0.750000 0.750000 0.500000
O O17 0.358504 0.073525 0.489117
O O18 0.323873 0.000000 0.399915
O O19 0.500000 0.077971 0.500000
O O20 0.568493 0.000000 0.505168
#
# Coordination Sequence:
#
# PCOD8102169 Si02
#       8
#     8   8   8   8   8   8   8   8
#     4  10  20  36  60  93 130 164 211 257 324 380
#     4  12  25  43  66  93 123 168 222 268 330 386
#     4  12  23  38  62  94 128 165 209 265 313 377
#     4  11  23  40  61  92 130 169 210 261 316 381
#     4  11  25  44  62  87 128 172 214 259 323 384
#     4  12  23  40  65  92 125 166 215 265 314 381
#     4  10  22  41  65  93 129 169 218 269 323 390
#     4   9  19  35  60  93 130 165 201 255 325 387
#
# _framework density 20.976444000000001
#
# number of rings (size 3 to 8) (size 9 to 14) (size 15 to 20)
#    0.000    1.125    1.250    6.375    3.500    2.250 
#    0.000    0.000    0.000    0.375    0.000    0.000 
#    0.000    0.000    0.000    0.000    0.000    0.000 
#
# Total GULP energy -396626.414406 kJ/mol
# GULP energy per Si atom -12394.575450 kJ/mol
# Density = 2.092870 g / cm^3
# Si number density = 20.976444 Si / 1000 Ang^3
#
#
#
# Elastic Constant Matrix: (Units=GPa)
#
#
# Indices 1 2 3 4 5 6 
#
# 1 102.8190 5.5075 38.1141 0.0030 -2.7572 -0.0111
# 2 5.5075 75.8166 23.9200 0.0048 2.7747 -0.0043
# 3 38.1141 23.9200 127.4055 0.0084 -8.3509 -0.0161
# 4 0.0030 0.0048 0.0084 28.0590 -0.0018 -2.6660
# 5 -2.7572 2.7747 -8.3509 -0.0018 38.7050 0.0099
# 6 -0.0111 -0.0043 -0.0161 -2.6660 0.0099 20.4696
#
#
#
# Elastic Compliance Matrix: (Units=1/GPa)
#
#
# Indices 1 2 3 4 5 6 
#
# 1 0.010944 0.000250 -0.003318 0.000000 0.000046 0.000003
# 2 0.000250 0.014124 -0.002832 -0.000002 -0.001606 0.000001
# 3 -0.003318 -0.002832 0.009505 -0.000001 0.002018 0.000004
# 4 0.000000 -0.000002 -0.000001 0.036086 0.000000 0.004700
# 5 0.000046 -0.001606 0.002018 0.000000 0.026390 -0.000011
# 6 0.000003 0.000001 0.000004 0.004700 -0.000011 0.049465
#
#
# Mechanical properties :
#
#
# Convention : Reuss Voigt Hill
#
# Bulk Modulus (GPa) = 43.91009 49.01379 46.46194
# Shear Modulus (GPa) = 30.13800 33.34671 31.74235
#
# Velocity S-wave (km/s) = 3.79457 3.99146 3.89426
# Velocity P-wave (km/s) = 6.33852 6.68275 6.51291
#
# Compressibility (1/GPa) = 0.02277381
#
# Stress axis : x y z
#
# Youngs Moduli (GPa) = 91.37822 70.80286 105.20361
#
# Poissons Ratio (x) = -0.01771 0.34904
# Poissons Ratio (y) = -0.02285 0.29791
# Poissons Ratio (z) = 0.30317 0.20050
#
# Static dielectric constant tensor:
#      x y z
#    x 3.696970 -0.000310 -0.113450 
#    y -0.000310 3.420120 0.000310 
#    z -0.113450 0.000310 3.925150 
# 
# 
# High freq. dielectric constant tensor:
#      x y z
#    x 1.821870 0.000000 -0.007770 
#    y 0.000000 1.801580 0.000000 
#    z -0.007770 0.000000 1.831840 
# 
# From -- ./inp_files/161201.got.cif
#   From: 2010.06.25/outbox.cif.g09.slc.cpg/sg12_81_cif.got.tgz:161201.got - 2010.06.28 00:19:55.
