data_PCOD8102042
_publ_section_title
;
Structure prediction by ZEFSAII (Michael W. Deem and Ramdas Pophale) SiO2 
 PCOD8102042
Probable space group: C 2/M
;
_chemical_formula_sum "Si O2"
_cell_formula_units_Z 48
_cell_length_a 14.870095
_cell_length_b 9.013948
_cell_length_c 26.540983
_cell_angle_alpha 90.000000
_cell_angle_beta 134.756663
_cell_angle_gamma 90.000000
_cell_volume 2526.198358
_symmetry_space_group_name_H-M "C 2/M"
_symmetry_group_IT_number 12
_symmetry_cell_setting 'monoclinic'
loop_
_space_group_symop_operation_xyz
x,y,z
-x,y,-z
-x,-y,-z
x,-y,z
1/2+x,1/2+y,z
1/2-x,1/2+y,-z
1/2-x,1/2-y,-z
1/2+x,1/2-y,z
loop_
_atom_site_type_symbol
_atom_site_label
_atom_site_fract_x
_atom_site_fract_y
_atom_site_fract_z
Si Si1 0.104108 0.825082 0.677062
Si Si2 0.818509 0.828801 0.572553
Si Si3 0.257989 0.327101 0.082396
Si Si4 0.269913 0.325301 0.826123
Si Si5 0.623396 0.171302 0.580625
Si Si6 0.562443 0.328320 0.937892
O O1 0.199771 0.740215 0.750616
O O2 0.134114 0.779058 0.632034
O O3 0.962238 0.773518 0.635224
O O4 0.122962 0.000000 0.690899
O O5 0.750000 0.750000 0.500000
O O6 0.747855 0.797304 0.596891
O O7 0.815579 0.000000 0.557104
O O8 0.242365 0.500000 0.087094
O O9 0.288003 0.244757 0.146221
O O10 0.375152 0.293444 0.091524
O O11 0.127892 0.267269 0.007290
O O12 0.249444 0.500000 0.819786
O O13 0.416754 0.282390 0.878195
O O14 0.500000 0.214125 0.500000
O O15 0.615966 0.000000 0.595254
O O16 0.580692 0.500000 0.959634
#
# Coordination Sequence:
#
# PCOD8102042 Si02
#       6
#     8   8   8   8   8   8
#     4  11  24  39  56  84 117 148 187 237 287 333
#     4  10  21  37  59  84 111 143 181 229 281 335
#     4  10  20  36  60  88 116 147 189 239 283 328
#     4  11  23  39  58  80 115 157 193 230 279 341
#     4  10  20  37  61  84 109 144 185 227 278 343
#     4   9  20  38  59  84 115 153 192 230 279 338
#
# _framework density 19.000882000000001
#
# number of rings (size 3 to 8) (size 9 to 14) (size 15 to 20)
#    0.000    1.833    1.667    2.000    0.000    7.000 
#    0.000    6.667    0.000    0.000    0.000    0.000 
#    0.000    0.000    0.000    0.000    0.000    0.000 
#
# Total GULP energy -297727.009356 kJ/mol
# GULP energy per Si atom -12405.292056 kJ/mol
# Density = 1.895764 g / cm^3
# Si number density = 19.000882 Si / 1000 Ang^3
#
#
#
# Elastic Constant Matrix: (Units=GPa)
#
#
# Indices 1 2 3 4 5 6 
#
# 1 88.7204 32.8577 41.6310 0.0000 -4.9043 0.0000
# 2 32.8577 67.4486 41.3391 0.0000 -6.1641 0.0000
# 3 41.6310 41.3391 94.8128 0.0000 -11.7425 0.0000
# 4 0.0000 0.0000 0.0000 37.2719 0.0000 -7.2588
# 5 -4.9043 -6.1641 -11.7425 0.0000 27.7761 0.0000
# 6 0.0000 0.0000 0.0000 -7.2588 0.0000 33.1831
#
#
#
# Elastic Compliance Matrix: (Units=1/GPa)
#
#
# Indices 1 2 3 4 5 6 
#
# 1 0.015139 -0.004512 -0.004721 0.000000 -0.000324 0.000000
# 2 -0.004512 0.021594 -0.007323 0.000000 0.000900 0.000000
# 3 -0.004721 -0.007323 0.016365 0.000000 0.004460 0.000000
# 4 0.000000 0.000000 0.000000 0.028024 0.000000 0.006130
# 5 -0.000324 0.000900 0.004460 0.000000 0.038030 0.000000
# 6 0.000000 0.000000 0.000000 0.006130 0.000000 0.031477
#
#
# Mechanical properties :
#
#
# Convention : Reuss Voigt Hill
#
# Bulk Modulus (GPa) = 50.02806 53.62637 51.82722
# Shear Modulus (GPa) = 26.26021 28.65650 27.45835
#
# Velocity S-wave (km/s) = 3.72163 3.88773 3.80558
# Velocity P-wave (km/s) = 6.69730 6.95966 6.82974
#
# Compressibility (1/GPa) = 0.01998878
#
# Stress axis : x y z
#
# Youngs Moduli (GPa) = 66.05297 46.30841 61.10600
#
# Poissons Ratio (x) = 0.20892 0.28845
# Poissons Ratio (y) = 0.29800 0.44747
# Poissons Ratio (z) = 0.31180 0.33911
#
# Static dielectric constant tensor:
#      x y z
#    x 3.686400 0.000000 0.101660 
#    y 0.000000 3.502670 0.000000 
#    z 0.101660 0.000000 3.397100 
# 
# 
# High freq. dielectric constant tensor:
#      x y z
#    x 1.752400 0.000000 0.000380 
#    y 0.000000 1.742560 0.000000 
#    z 0.000380 0.000000 1.735530 
# 
# From -- ./inp_files/360315.got.cif
#   From: 2010.06.25/outbox.cif.g09.slc.cpg/sg12_181_cif.got.tgz:360315.got - 2010.06.28 00:19:55.
