data_PCOD8102537
_publ_section_title
;
Structure prediction by ZEFSAII (Michael W. Deem and Ramdas Pophale) SiO2 
 PCOD8102537
Probable space group: C 2/M
;
_chemical_formula_sum "Si O2"
_cell_formula_units_Z 52
_cell_length_a 14.509037
_cell_length_b 17.191212
_cell_length_c 11.310991
_cell_angle_alpha 90.000000
_cell_angle_beta 97.426740
_cell_angle_gamma 90.000000
_cell_volume 2797.609235
_symmetry_space_group_name_H-M "C 2/M"
_symmetry_group_IT_number 12
_symmetry_cell_setting 'monoclinic'
loop_
_space_group_symop_operation_xyz
x,y,z
-x,y,-z
-x,-y,-z
x,-y,z
1/2+x,1/2+y,z
1/2-x,1/2+y,-z
1/2-x,1/2-y,-z
1/2+x,1/2-y,z
loop_
_atom_site_type_symbol
_atom_site_label
_atom_site_fract_x
_atom_site_fract_y
_atom_site_fract_z
Si Si1 0.690688 0.585049 0.001796
Si Si2 0.469381 0.912186 0.696385
Si Si3 0.894423 0.755653 0.996709
Si Si4 0.808851 0.244521 0.391469
Si Si5 0.500000 0.207813 0.500000
Si Si6 0.202146 0.646952 0.194978
Si Si7 0.661874 0.146747 0.807795
O O1 0.643229 0.500000 0.999056
O O2 0.744804 0.591938 0.887282
O O3 0.612255 0.651015 0.000595
O O4 0.763141 0.590019 0.122046
O O5 0.457042 0.848024 0.592704
O O6 0.384679 0.902055 0.772448
O O7 0.566260 0.900356 0.780441
O O8 0.466452 0.000000 0.644343
O O9 0.834764 0.724863 0.876255
O O10 0.852951 0.722277 0.111364
O O11 0.000000 0.729393 0.000000
O O12 0.750000 0.250000 0.500000
O O13 0.772242 0.170710 0.311791
O O14 0.800685 0.323809 0.313119
O O15 0.918485 0.235351 0.439946
#
# Coordination Sequence:
#
# PCOD8102537 Si02
#       7
#     8   8   8   8   4   8   8
#     4  11  22  36  56  83 114 148 184 235 293 339
#     4  11  21  34  54  85 119 147 180 231 294 348
#     4  11  20  36  58  80 113 146 190 231 276 337
#     4  11  20  37  60  84 111 151 202 235 276 326
#     4  10  23  34  56  82 115 154 192 238 279 330
#     4  11  20  37  57  83 113 149 191 232 278 343
#     4  10  20  37  56  84 115 148 184 234 282 347
#
# _framework density 18.587299000000002
#
# number of rings (size 3 to 8) (size 9 to 14) (size 15 to 20)
#    0.000    1.231    6.154    2.077    0.000    0.308 
#    0.000    2.308    0.000    0.000    0.000    2.154 
#    0.000    0.154    0.000    0.000    0.000    0.000 
#
# Total GULP energy -322426.992674 kJ/mol
# GULP energy per Si atom -12401.038180 kJ/mol
# Density = 1.854499 g / cm^3
# Si number density = 18.587299 Si / 1000 Ang^3
#
#
#
# Elastic Constant Matrix: (Units=GPa)
#
#
# Indices 1 2 3 4 5 6 
#
# 1 71.9266 20.4204 35.9661 0.0000 0.6626 0.0000
# 2 20.4204 96.4610 17.6033 0.0000 4.6710 0.0000
# 3 35.9661 17.6033 100.1081 0.0000 3.1248 0.0000
# 4 0.0000 0.0000 0.0000 -9.9505 0.0000 2.8329
# 5 0.6626 4.6710 3.1248 0.0000 24.3840 0.0000
# 6 0.0000 0.0000 0.0000 2.8329 0.0000 22.2291
#
#
#
# Elastic Compliance Matrix: (Units=1/GPa)
#
#
# Indices 1 2 3 4 5 6 
#
# 1 0.017597 -0.002692 -0.005873 0.000000 0.000790 0.000000
# 2 -0.002692 0.011203 -0.000942 0.000000 -0.001952 0.000000
# 3 -0.005873 -0.000942 0.012304 0.000000 -0.001237 0.000000
# 4 0.000000 0.000000 0.000000 -0.096979 0.000000 0.012359
# 5 0.000790 -0.001952 -0.001237 0.000000 0.041521 0.000000
# 6 0.000000 0.000000 0.000000 0.012359 0.000000 0.043411
#
#
# Mechanical properties :
#
#
# Convention : Reuss Voigt Hill
#
# Bulk Modulus (GPa) = 45.27042 46.27504 45.77273
# Shear Modulus (GPa) = 90.19665 20.29960 55.24812
#
# Velocity S-wave (km/s) = 6.97361 3.30831 5.45785
# Velocity P-wave (km/s) = 9.44723 6.28835 8.02476
#
# Compressibility (1/GPa) = 0.02208948
#
# Stress axis : x y z
#
# Youngs Moduli (GPa) = 56.82822 89.26080 81.27686
#
# Poissons Ratio (x) = 0.24025 0.47738
# Poissons Ratio (y) = 0.15296 0.07657
# Poissons Ratio (z) = 0.33378 0.08409
#
# Static dielectric constant tensor:
#      x y z
#    x 3.392360 0.000000 0.055610 
#    y 0.000000 3.141390 0.000000 
#    z 0.055610 0.000000 3.532870 
# 
# 
# High freq. dielectric constant tensor:
#      x y z
#    x 1.720400 0.000000 0.001260 
#    y 0.000000 1.697400 0.000000 
#    z 0.001260 0.000000 1.728800 
# 
# From -- ./inp_files/144925.got.cif
#   From: 2010.06.25/outbox.cif.g09.slc.cpg/sg12_73_cif.got.tgz:144925.got - 2010.06.28 00:19:55.
