data_PCOD8102715
_publ_section_title
;
Structure prediction by ZEFSAII (Michael W. Deem and Ramdas Pophale) SiO2 
 PCOD8102715
Probable space group: C 2/M
;
_chemical_formula_sum "Si O2"
_cell_formula_units_Z 56
_cell_length_a 20.186248
_cell_length_b 9.117650
_cell_length_c 29.764674
_cell_angle_alpha 90.000000
_cell_angle_beta 146.450306
_cell_angle_gamma 90.000000
_cell_volume 3027.594484
_symmetry_space_group_name_H-M "C 2/M"
_symmetry_group_IT_number 12
_symmetry_cell_setting 'monoclinic'
loop_
_space_group_symop_operation_xyz
x,y,z
-x,y,-z
-x,-y,-z
x,-y,z
1/2+x,1/2+y,z
1/2-x,1/2+y,-z
1/2-x,1/2-y,-z
1/2+x,1/2-y,z
loop_
_atom_site_type_symbol
_atom_site_label
_atom_site_fract_x
_atom_site_fract_y
_atom_site_fract_z
Si Si1 0.681347 0.169013 0.244449
Si Si2 0.925276 0.830265 0.333733
Si Si3 0.678330 0.667996 0.334720
Si Si4 0.942519 0.332772 0.514140
Si Si5 0.282182 0.829089 0.084658
Si Si6 0.036280 0.326551 0.737719
Si Si7 0.418997 0.829604 0.072976
O O1 0.787518 0.194017 0.269304
O O2 0.703745 0.271902 0.299496
O O3 0.558680 0.213408 0.149816
O O4 0.674509 0.000000 0.257014
O O5 0.951004 0.739587 0.303947
O O6 0.012971 0.774123 0.421950
O O7 0.953930 0.000000 0.341033
O O8 0.635055 0.500000 0.306668
O O9 0.799529 0.679181 0.431835
O O10 0.580060 0.764212 0.303832
O O11 0.983450 0.500000 0.547106
O O12 0.000000 0.278428 0.500000
O O13 0.345796 0.783942 0.167011
O O14 0.369274 0.778884 0.093378
O O15 0.257528 0.000000 0.068535
O O16 0.153315 0.750835 0.007687
O O17 0.020653 0.500000 0.725621
O O18 0.398961 0.000000 0.053959
#
# Coordination Sequence:
#
# PCOD8102715 Si02
#       7
#     8   8   8   8   8   8   8
#     4  10  20  37  58  85 118 151 189 235 287 338
#     4  11  24  39  60  87 116 152 196 237 283 345
#     4  11  22  36  61  89 114 147 194 239 279 340
#     4  10  21  39  60  86 118 150 188 236 289 339
#     4   9  18  33  54  82 112 147 188 231 282 337
#     4  11  23  41  60  81 119 158 189 235 293 342
#     4   9  17  32  55  83 113 145 186 233 282 334
#
# _framework density 18.496534
#
# number of rings (size 3 to 8) (size 9 to 14) (size 15 to 20)
#    0.000    1.857    2.857    1.286    0.000    4.286 
#    0.000    0.714    0.000    4.286    0.000    0.000 
#    0.000    0.000    0.000    0.000    0.000    0.000 
#
# Total GULP energy -347294.156316 kJ/mol
# GULP energy per Si atom -12403.362726 kJ/mol
# Density = 1.845443 g / cm^3
# Si number density = 18.496534 Si / 1000 Ang^3
#
#
#
# Elastic Constant Matrix: (Units=GPa)
#
#
# Indices 1 2 3 4 5 6 
#
# 1 51.1799 34.4417 12.1128 0.0000 -9.5294 0.0000
# 2 34.4417 83.0087 45.4992 -0.0001 -5.1619 0.0004
# 3 12.1128 45.4992 89.8991 0.0000 -2.0374 0.0000
# 4 0.0000 -0.0001 0.0000 34.3556 0.0000 -2.0848
# 5 -9.5294 -5.1619 -2.0374 0.0000 25.8946 0.0000
# 6 0.0000 0.0004 0.0000 -2.0848 0.0000 28.1108
#
#
#
# Elastic Compliance Matrix: (Units=1/GPa)
#
#
# Indices 1 2 3 4 5 6 
#
# 1 0.029328 -0.013266 0.002952 0.000000 0.008381 0.000000
# 2 -0.013266 0.022858 -0.009806 0.000000 -0.001097 0.000000
# 3 0.002952 -0.009806 0.015697 0.000000 0.000367 0.000000
# 4 0.000000 0.000000 0.000000 0.029239 0.000000 0.002168
# 5 0.008381 -0.001097 0.000367 0.000000 0.041512 0.000000
# 6 0.000000 0.000000 0.000000 0.002168 0.000000 0.035734
#
#
# Mechanical properties :
#
#
# Convention : Reuss Voigt Hill
#
# Bulk Modulus (GPa) = 36.17448 45.35501 40.76474
# Shear Modulus (GPa) = 22.33913 26.47447 24.40680
#
# Velocity S-wave (km/s) = 3.47904 3.78738 3.63648
# Velocity P-wave (km/s) = 5.97814 6.61058 6.30230
#
# Compressibility (1/GPa) = 0.02764380
#
# Stress axis : x y z
#
# Youngs Moduli (GPa) = 34.09725 43.74842 63.70574
#
# Poissons Ratio (x) = 0.58036 -0.18808
# Poissons Ratio (y) = 0.45233 0.62471
# Poissons Ratio (z) = -0.10067 0.42901
#
# Static dielectric constant tensor:
#      x y z
#    x 3.281620 0.000000 0.094390 
#    y 0.000000 3.465260 0.000000 
#    z 0.094390 0.000000 3.573660 
# 
# 
# High freq. dielectric constant tensor:
#      x y z
#    x 1.698960 0.000000 0.007200 
#    y 0.000000 1.723080 0.000000 
#    z 0.007200 0.000000 1.729670 
# 
# From -- ./inp_files/275549.got.cif
#   From: 2010.06.25/outbox.cif.g09.slc.cpg/sg12_138_cif.got.tgz:275549.got - 2010.06.28 00:19:55.
