data_PCOD8102105
_publ_section_title
;
Structure prediction by ZEFSAII (Michael W. Deem and Ramdas Pophale) SiO2 
 PCOD8102105
Probable space group: C 2/M
;
_chemical_formula_sum "Si O2"
_cell_formula_units_Z 56
_cell_length_a 19.320668
_cell_length_b 18.067887
_cell_length_c 8.598661
_cell_angle_alpha 90.000000
_cell_angle_beta 62.616421
_cell_angle_gamma 90.000000
_cell_volume 2665.308557
_symmetry_space_group_name_H-M "C 2/M"
_symmetry_group_IT_number 12
_symmetry_cell_setting 'monoclinic'
loop_
_space_group_symop_operation_xyz
x,y,z
-x,y,-z
-x,-y,-z
x,-y,z
1/2+x,1/2+y,z
1/2-x,1/2+y,-z
1/2-x,1/2-y,-z
1/2+x,1/2-y,z
loop_
_atom_site_type_symbol
_atom_site_label
_atom_site_fract_x
_atom_site_fract_y
_atom_site_fract_z
Si Si1 0.665836 0.700087 0.257844
Si Si2 0.725140 0.418345 0.976801
Si Si3 0.304897 0.827974 0.316769
Si Si4 0.040690 0.697445 0.293861
Si Si5 0.692591 0.413885 0.661737
Si Si6 0.592836 0.703053 0.644394
Si Si7 0.387339 0.916712 0.982253
O O1 0.667903 0.637477 0.124131
O O2 0.751824 0.713275 0.240899
O O3 0.630333 0.775097 0.220287
O O4 0.605063 0.675856 0.454523
O O5 0.688665 0.500000 0.036430
O O6 0.811312 0.416794 0.954779
O O7 0.730331 0.398995 0.789728
O O8 0.252080 0.884168 0.470241
O O9 0.342914 0.766753 0.387513
O O10 0.371560 0.875493 0.161842
O O11 0.000000 0.677251 0.500000
O O12 0.993203 0.762382 0.251390
O O13 0.043537 0.624879 0.182961
O O14 0.675556 0.500000 0.647819
O O15 0.610512 0.367868 0.735528
O O16 0.415829 0.000000 0.987548
#
# Coordination Sequence:
#
# PCOD8102105 Si02
#       7
#     8   8   8   8   8   8   8
#     4   9  19  37  59  82 112 154 194 239 284 342
#     4   9  20  35  60  93 117 148 195 245 294 340
#     4  10  21  37  62  86 119 148 201 244 293 340
#     4  10  23  39  58  83 120 157 198 236 285 351
#     4  10  20  36  60  89 122 151 191 248 296 339
#     4  10  22  38  56  88 120 156 197 236 292 347
#     4  10  22  39  60  86 116 155 195 237 294 352
#
# _framework density 21.010701000000001
#
# number of rings (size 3 to 8) (size 9 to 14) (size 15 to 20)
#    0.000    2.286    0.000    2.143    8.000    5.429 
#    0.000    2.857    0.000    6.857    0.000    0.000 
#    0.000    0.000    0.000    0.000    0.000    0.000 
#
# Total GULP energy -347097.248461 kJ/mol
# GULP energy per Si atom -12396.330302 kJ/mol
# Density = 2.096288 g / cm^3
# Si number density = 21.010701 Si / 1000 Ang^3
#
#
#
# Elastic Constant Matrix: (Units=GPa)
#
#
# Indices 1 2 3 4 5 6 
#
# 1 53.9080 26.8765 21.2304 0.0000 1.8865 0.0000
# 2 26.8765 127.0782 61.6672 0.0000 -2.3693 0.0000
# 3 21.2304 61.6672 101.3588 0.0000 -1.3499 0.0000
# 4 0.0000 0.0000 0.0000 36.9056 0.0000 -1.5984
# 5 1.8865 -2.3693 -1.3499 0.0000 21.0176 0.0000
# 6 0.0000 0.0000 0.0000 -1.5984 0.0000 28.1702
#
#
#
# Elastic Compliance Matrix: (Units=1/GPa)
#
#
# Indices 1 2 3 4 5 6 
#
# 1 0.021273 -0.003358 -0.002445 0.000000 -0.002445 0.000000
# 2 -0.003358 0.011710 -0.006405 0.000000 0.001210 0.000000
# 3 -0.002445 -0.006405 0.014280 0.000000 0.000415 0.000000
# 4 0.000000 0.000000 0.000000 0.027163 0.000000 0.001541
# 5 -0.002445 0.001210 0.000415 0.000000 0.047962 0.000000
# 6 0.000000 0.000000 0.000000 0.001541 0.000000 0.035586
#
#
# Mechanical properties :
#
#
# Convention : Reuss Voigt Hill
#
# Bulk Modulus (GPa) = 43.76980 55.76591 49.76785
# Shear Modulus (GPa) = 26.31491 28.72340 27.51916
#
# Velocity S-wave (km/s) = 3.54284 3.70142 3.62300
# Velocity P-wave (km/s) = 6.13294 6.69826 6.42182
#
# Compressibility (1/GPa) = 0.02284680
#
# Stress axis : x y z
#
# Youngs Moduli (GPa) = 47.00807 85.39626 70.02572
#
# Poissons Ratio (x) = 0.28677 0.17123
# Poissons Ratio (y) = 0.15786 0.44851
# Poissons Ratio (z) = 0.11495 0.54696
#
# Static dielectric constant tensor:
#      x y z
#    x 3.773190 0.000000 0.215650 
#    y 0.000000 3.976040 0.000000 
#    z 0.215650 0.000000 3.689520 
# 
# 
# High freq. dielectric constant tensor:
#      x y z
#    x 1.810270 0.000000 0.019550 
#    y 0.000000 1.821110 0.000000 
#    z 0.019550 0.000000 1.818610 
# 
# From -- ./inp_files/75836.got.cif
#   From: 2010.06.25/outbox.cif.g09.slc.cpg/sg12_38_cif.got.tgz:75836.got - 2010.06.28 00:19:55.
