data_PCOD8102590
_publ_section_title
;
Structure prediction by ZEFSAII (Michael W. Deem and Ramdas Pophale) SiO2 
 PCOD8102590
Probable space group: C 2/M
;
_chemical_formula_sum "Si O2"
_cell_formula_units_Z 48
_cell_length_a 20.419827
_cell_length_b 11.900084
_cell_length_c 22.076032
_cell_angle_alpha 90.000000
_cell_angle_beta 27.637223
_cell_angle_gamma 90.000000
_cell_volume 2488.404349
_symmetry_space_group_name_H-M "C 2/M"
_symmetry_group_IT_number 12
_symmetry_cell_setting 'monoclinic'
loop_
_space_group_symop_operation_xyz
x,y,z
-x,y,-z
-x,-y,-z
x,-y,z
1/2+x,1/2+y,z
1/2-x,1/2+y,-z
1/2-x,1/2-y,-z
1/2+x,1/2-y,z
loop_
_atom_site_type_symbol
_atom_site_label
_atom_site_fract_x
_atom_site_fract_y
_atom_site_fract_z
Si Si1 0.904510 0.123807 0.373047
Si Si2 0.293681 0.712681 0.897939
Si Si3 0.817142 0.500000 0.207121
Si Si4 0.347836 0.872975 0.747976
Si Si5 0.835301 0.684155 0.515418
Si Si6 0.836068 0.773668 0.640941
Si Si7 0.353441 0.000000 0.038543
O O1 0.847580 0.191318 0.477289
O O2 0.786300 0.114976 0.418122
O O3 0.043512 0.178442 0.231333
O O4 0.940969 0.000000 0.367103
O O5 0.278673 0.817290 0.864141
O O6 0.250000 0.750000 0.000000
O O7 0.196001 0.610335 0.956576
O O8 0.748674 0.389112 0.291105
O O9 0.978991 0.500000 0.093851
O O10 0.788056 0.500000 0.159170
O O11 0.517281 0.880406 0.613107
O O12 0.301077 0.797387 0.729479
O O13 0.289421 0.000000 0.789458
O O14 0.790169 0.696266 0.622174
O O15 0.000000 0.803829 0.500000
#
# Coordination Sequence:
#
# PCOD8102590 Si02
#       7
#     8   8   4   8   8   8   4
#     4  10  20  37  57  83 122 155 193 246 293 354
#     4  11  24  40  61  86 116 157 207 243 298 350
#     4  11  23  40  66  90 121 155 201 260 301 351
#     4  10  21  39  60  85 120 155 195 243 295 365
#     4   9  21  35  56  92 118 154 193 240 299 362
#     4  10  21  37  62  92 120 152 196 245 306 360
#     4  11  24  44  64  86 122 161 201 261 298 343
#
# _framework density 19.289470000000001
#
# number of rings (size 3 to 8) (size 9 to 14) (size 15 to 20)
#    0.000    1.833    2.500    0.750    4.667    3.667 
#    0.000    0.000    0.000    1.000    0.000    0.000 
#    0.000    0.000    0.000    0.000    0.000    0.000 
#
# Total GULP energy -297654.845537 kJ/mol
# GULP energy per Si atom -12402.285231 kJ/mol
# Density = 1.924557 g / cm^3
# Si number density = 19.289470 Si / 1000 Ang^3
#
#
#
# Elastic Constant Matrix: (Units=GPa)
#
#
# Indices 1 2 3 4 5 6 
#
# 1 91.5929 24.4922 36.4375 0.0027 16.6331 -0.0008
# 2 24.4922 126.1123 40.0718 0.0049 11.0967 -0.0017
# 3 36.4375 40.0718 76.3304 0.0048 23.5386 -0.0021
# 4 0.0027 0.0049 0.0048 19.1806 -0.0027 -1.4659
# 5 16.6331 11.0967 23.5386 -0.0027 35.0236 0.0005
# 6 -0.0008 -0.0017 -0.0021 -1.4659 0.0005 8.3564
#
#
#
# Elastic Compliance Matrix: (Units=1/GPa)
#
#
# Indices 1 2 3 4 5 6 
#
# 1 0.013727 -0.000733 -0.005335 -0.000001 -0.002701 0.000000
# 2 -0.000733 0.009561 -0.004847 -0.000001 0.000577 0.000000
# 3 -0.005335 -0.004847 0.021366 -0.000004 -0.010290 0.000004
# 4 -0.000001 -0.000001 -0.000004 0.052844 0.000008 0.009270
# 5 -0.002701 0.000577 -0.010290 0.000008 0.036568 -0.000004
# 6 0.000000 0.000000 0.000004 0.009270 -0.000004 0.121296
#
#
# Mechanical properties :
#
#
# Convention : Reuss Voigt Hill
#
# Bulk Modulus (GPa) = 43.81514 55.11540 49.46527
# Shear Modulus (GPa) = 17.55619 25.38106 21.46863
#
# Velocity S-wave (km/s) = 3.02013 3.63133 3.33974
# Velocity P-wave (km/s) = 5.90978 6.79830 6.36955
#
# Compressibility (1/GPa) = 0.02282316
#
# Stress axis : x y z
#
# Youngs Moduli (GPa) = 72.85056 104.58821 46.80434
#
# Poissons Ratio (x) = 0.07667 0.24969
# Poissons Ratio (y) = 0.05340 0.22688
# Poissons Ratio (z) = 0.38864 0.50698
#
# Static dielectric constant tensor:
#      x y z
#    x 3.654300 0.000000 0.030680 
#    y 0.000000 3.460700 0.000000 
#    z 0.030680 0.000000 3.391400 
# 
# 
# High freq. dielectric constant tensor:
#      x y z
#    x 1.757580 0.000000 0.004900 
#    y 0.000000 1.757280 0.000000 
#    z 0.004900 0.000000 1.737630 
# 
# From -- ./inp_files/321200.got.cif
#   From: 2010.06.25/outbox.cif.g09.slc.cpg/sg12_161_cif.got.tgz:321200.got - 2010.06.28 00:19:55.
