data_PCOD8102874
_publ_section_title
;
Structure prediction by ZEFSAII (Michael W. Deem and Ramdas Pophale) SiO2 
 PCOD8102874
Probable space group: C 2/M
;
_chemical_formula_sum "Si O2"
_cell_formula_units_Z 56
_cell_length_a 11.039551
_cell_length_b 18.837025
_cell_length_c 13.630695
_cell_angle_alpha 90.000000
_cell_angle_beta 94.269254
_cell_angle_gamma 90.000000
_cell_volume 2826.669156
_symmetry_space_group_name_H-M "C 2/M"
_symmetry_group_IT_number 12
_symmetry_cell_setting 'monoclinic'
loop_
_space_group_symop_operation_xyz
x,y,z
-x,y,-z
-x,-y,-z
x,-y,z
1/2+x,1/2+y,z
1/2-x,1/2+y,-z
1/2-x,1/2-y,-z
1/2+x,1/2-y,z
loop_
_atom_site_type_symbol
_atom_site_label
_atom_site_fract_x
_atom_site_fract_y
_atom_site_fract_z
Si Si1 0.813009 0.193135 0.632811
Si Si2 0.386280 0.582946 0.063472
Si Si3 0.557255 0.918743 0.401544
Si Si4 0.553278 0.679104 0.750387
Si Si5 0.791635 0.844352 0.420530
Si Si6 0.602513 0.840124 0.750077
Si Si7 0.874475 0.583645 0.045475
O O1 0.853500 0.159975 0.531384
O O2 0.788264 0.275423 0.610400
O O3 0.698988 0.150020 0.668344
O O4 0.910335 0.183999 0.724934
O O5 0.387740 0.500000 0.088816
O O6 0.408791 0.626586 0.162334
O O7 0.500000 0.601858 0.000000
O O8 0.251750 0.604924 0.016384
O O9 0.500000 0.889962 0.500000
O O10 0.702519 0.911980 0.415191
O O11 0.519016 0.871476 0.305387
O O12 0.519085 0.000000 0.381280
O O13 0.605008 0.646513 0.653319
O O14 0.599039 0.757643 0.779216
O O15 0.636218 0.882961 0.848524
O O16 0.882023 0.500000 0.058322
O O17 0.000000 0.610678 0.000000
#
# Coordination Sequence:
#
# PCOD8102874 Si02
#       7
#     8   8   8   8   8   8   8
#     4  10  20  37  59  86 126 164 198 239 295 368
#     4  10  23  44  63  83 117 162 205 251 316 381
#     4  11  22  38  60  89 124 162 205 250 298 359
#     4  11  23  36  63  93 118 160 204 250 307 359
#     4  10  21  36  58  87 125 162 198 244 295 356
#     4  11  22  37  61  90 123 156 205 249 306 361
#     4  10  23  41  62  87 118 160 206 261 318 363
#
# _framework density 19.811304
#
# number of rings (size 3 to 8) (size 9 to 14) (size 15 to 20)
#    0.000    1.571    2.857    1.714    2.000    1.714 
#    0.000    1.429    0.000    1.714    0.000    0.000 
#    0.000    0.000    0.000    0.000    0.000    0.000 
#
# Total GULP energy -347098.300680 kJ/mol
# GULP energy per Si atom -12396.367881 kJ/mol
# Density = 1.976621 g / cm^3
# Si number density = 19.811304 Si / 1000 Ang^3
#
#
#
# Elastic Constant Matrix: (Units=GPa)
#
#
# Indices 1 2 3 4 5 6 
#
# 1 97.4950 17.3429 37.3656 0.0000 7.8735 0.0000
# 2 17.3429 34.3024 46.8489 0.0000 0.1741 0.0000
# 3 37.3656 46.8489 131.7238 0.0000 12.9484 0.0000
# 4 0.0000 0.0000 0.0000 35.6988 0.0000 0.8374
# 5 7.8735 0.1741 12.9484 0.0000 34.0275 0.0000
# 6 0.0000 0.0000 0.0000 0.8374 0.0000 23.2725
#
#
#
# Elastic Compliance Matrix: (Units=1/GPa)
#
#
# Indices 1 2 3 4 5 6 
#
# 1 0.011750 -0.003187 -0.002009 0.000000 -0.001938 0.000000
# 2 -0.003187 0.059548 -0.021107 0.000000 0.008464 0.000000
# 3 -0.002009 -0.021107 0.016219 0.000000 -0.005599 0.000000
# 4 0.000000 0.000000 0.000000 0.028036 0.000000 -0.001009
# 5 -0.001938 0.008464 -0.005599 0.000000 0.031924 0.000000
# 6 0.000000 0.000000 0.000000 -0.001009 0.000000 0.043005
#
#
# Mechanical properties :
#
#
# Convention : Reuss Voigt Hill
#
# Bulk Modulus (GPa) = 28.64422 51.84845 40.24634
# Shear Modulus (GPa) = 19.62905 29.39736 24.51320
#
# Velocity S-wave (km/s) = 3.15111 3.85628 3.52139
# Velocity P-wave (km/s) = 5.26586 6.78644 6.07392
#
# Compressibility (1/GPa) = 0.03491106
#
# Stress axis : x y z
#
# Youngs Moduli (GPa) = 85.10351 16.79327 61.65684
#
# Poissons Ratio (x) = 0.05352 0.12388
# Poissons Ratio (y) = 0.27121 1.30138
# Poissons Ratio (z) = 0.17099 0.35445
#
# Static dielectric constant tensor:
#      x y z
#    x 3.767680 0.000000 -0.047430 
#    y 0.000000 3.388980 0.000000 
#    z -0.047430 0.000000 3.553170 
# 
# 
# High freq. dielectric constant tensor:
#      x y z
#    x 1.780290 0.000000 0.001570 
#    y 0.000000 1.756550 0.000000 
#    z 0.001570 0.000000 1.777680 
# 
# From -- ./inp_files/133221.got.cif
#   From: 2010.06.25/outbox.cif.g09.slc.cpg/sg12_67_cif.got.tgz:133221.got - 2010.06.28 00:19:55.
