data_PCOD8102742
_publ_section_title
;
Structure prediction by ZEFSAII (Michael W. Deem and Ramdas Pophale) SiO2 
 PCOD8102742
Probable space group: C 2/M
;
_chemical_formula_sum "Si O2"
_cell_formula_units_Z 40
_cell_length_a 27.087508
_cell_length_b 8.602630
_cell_length_c 31.817526
_cell_angle_alpha 90.000000
_cell_angle_beta 163.533777
_cell_angle_gamma 90.000000
_cell_volume 2101.567026
_symmetry_space_group_name_H-M "C 2/M"
_symmetry_group_IT_number 12
_symmetry_cell_setting 'monoclinic'
loop_
_space_group_symop_operation_xyz
x,y,z
-x,y,-z
-x,-y,-z
x,-y,z
1/2+x,1/2+y,z
1/2-x,1/2+y,-z
1/2-x,1/2-y,-z
1/2+x,1/2-y,z
loop_
_atom_site_type_symbol
_atom_site_label
_atom_site_fract_x
_atom_site_fract_y
_atom_site_fract_z
Si Si1 0.405386 0.817008 0.654108
Si Si2 0.924913 0.682517 0.763628
Si Si3 0.001011 0.819265 0.049039
Si Si4 0.198063 0.182108 0.655060
Si Si5 0.267243 0.817545 0.926449
O O1 0.250000 0.750000 0.500000
O O2 0.399141 0.744359 0.696303
O O3 0.587751 0.774436 0.781968
O O4 0.382449 0.000000 0.636878
O O5 0.944586 0.500000 0.775026
O O6 0.758949 0.724216 0.657317
O O7 0.102678 0.744154 0.930635
O O8 0.192148 0.781499 0.222424
O O9 0.958195 0.000000 0.020326
O O10 0.000000 0.769564 0.000000
O O11 0.855061 0.717839 0.953386
O O12 0.000000 0.231749 0.500000
O O13 0.228609 0.000000 0.688870
O O14 0.230791 0.000000 0.900492
#
# Coordination Sequence:
#
# PCOD8102742 Si02
#       5
#     8   8   8   8   8
#     4  11  22  36  53  78 112 144 177 220 269 317
#     4   8  17  34  55  78 105 139 179 220 261 311
#     4  10  21  36  54  80 112 142 174 214 264 321
#     4   9  18  34  56  81 107 139 181 222 261 309
#     4  10  20  37  59  80 102 136 183 225 266 316
#
# _framework density 19.033417
#
# number of rings (size 3 to 8) (size 9 to 14) (size 15 to 20)
#    0.000    2.400    0.000    3.600    0.000    3.600 
#    0.000   11.000    0.000    0.000    0.000    0.000 
#    0.000    0.000    0.000    0.000    0.000    0.000 
#
# Total GULP energy -248004.420644 kJ/mol
# GULP energy per Si atom -12400.221032 kJ/mol
# Density = 1.899010 g / cm^3
# Si number density = 19.033417 Si / 1000 Ang^3
#
#
#
# Elastic Constant Matrix: (Units=GPa)
#
#
# Indices 1 2 3 4 5 6 
#
# 1 142.3911 27.7955 81.0166 0.0177 -12.9313 0.0048
# 2 27.7955 39.9429 21.3563 0.0256 -4.4198 -0.0047
# 3 81.0166 21.3563 143.3432 0.0610 9.7445 0.0170
# 4 0.0177 0.0256 0.0610 31.0922 0.0074 -1.4838
# 5 -12.9313 -4.4198 9.7445 0.0074 29.0857 0.0027
# 6 0.0048 -0.0047 0.0170 -1.4838 0.0027 23.1122
#
#
#
# Elastic Compliance Matrix: (Units=1/GPa)
#
#
# Indices 1 2 3 4 5 6 
#
# 1 0.012400 -0.004157 -0.006878 0.000008 0.007186 0.000001
# 2 -0.004157 0.029524 -0.002281 -0.000018 0.003403 0.000007
# 3 -0.006878 -0.002281 0.011701 -0.000016 -0.007325 -0.000008
# 4 0.000008 -0.000018 -0.000016 0.032261 -0.000002 0.002071
# 5 0.007186 0.003403 -0.007325 -0.000002 0.040547 0.000000
# 6 0.000001 0.000007 -0.000008 0.002071 0.000000 0.043400
#
#
# Mechanical properties :
#
#
# Convention : Reuss Voigt Hill
#
# Bulk Modulus (GPa) = 37.04323 65.11269 51.07796
# Shear Modulus (GPa) = 24.33540 29.69195 27.01368
#
# Velocity S-wave (km/s) = 3.57958 3.95396 3.77142
# Velocity P-wave (km/s) = 6.04888 7.42489 6.77192
#
# Compressibility (1/GPa) = 0.02699549
#
# Stress axis : x y z
#
# Youngs Moduli (GPa) = 80.64506 33.87053 85.46156
#
# Poissons Ratio (x) = 0.14079 0.58777
# Poissons Ratio (y) = 0.33521 0.19492
# Poissons Ratio (z) = 0.55464 0.07725
#
# Static dielectric constant tensor:
#      x y z
#    x 3.792240 -0.000010 -0.062420 
#    y -0.000010 3.305830 -0.000060 
#    z -0.062420 -0.000060 3.470380 
# 
# 
# High freq. dielectric constant tensor:
#      x y z
#    x 1.748630 0.000000 0.004800 
#    y 0.000000 1.725820 -0.000010 
#    z 0.004800 -0.000010 1.738720 
# 
# From -- ./inp_files/92800.got.cif
#   From: 2010.06.25/outbox.cif.g09.slc.cpg/sg12_47_cif.got.tgz:92800.got - 2010.06.28 00:19:55.
