data_PCOD8102796
_publ_section_title
;
Structure prediction by ZEFSAII (Michael W. Deem and Ramdas Pophale) SiO2 
 PCOD8102796
Probable space group: C 2/M
;
_chemical_formula_sum "Si O2"
_cell_formula_units_Z 56
_cell_length_a 18.779589
_cell_length_b 13.721983
_cell_length_c 12.386734
_cell_angle_alpha 90.000000
_cell_angle_beta 113.280347
_cell_angle_gamma 90.000000
_cell_volume 2932.092750
_symmetry_space_group_name_H-M "C 2/M"
_symmetry_group_IT_number 12
_symmetry_cell_setting 'monoclinic'
loop_
_space_group_symop_operation_xyz
x,y,z
-x,y,-z
-x,-y,-z
x,-y,z
1/2+x,1/2+y,z
1/2-x,1/2+y,-z
1/2-x,1/2-y,-z
1/2+x,1/2-y,z
loop_
_atom_site_type_symbol
_atom_site_label
_atom_site_fract_x
_atom_site_fract_y
_atom_site_fract_z
Si Si1 0.419769 0.298392 0.675494
Si Si2 0.161959 0.221848 0.961670
Si Si3 0.176379 0.112909 0.565876
Si Si4 0.415890 0.612482 0.904406
Si Si5 0.418813 0.385107 0.277587
Si Si6 0.647794 0.889974 0.278977
Si Si7 0.583249 0.109283 0.010131
O O1 0.352184 0.324039 0.551569
O O2 0.408999 0.363194 0.775147
O O3 0.502437 0.322924 0.672305
O O4 0.412402 0.183687 0.699709
O O5 0.134443 0.147723 0.853604
O O6 0.250000 0.250000 0.000000
O O7 0.149708 0.171695 0.070647
O O8 0.112124 0.321886 0.930382
O O9 0.126007 0.139103 0.640219
O O10 0.265132 0.140484 0.640079
O O11 0.166518 0.000000 0.531227
O O12 0.399465 0.500000 0.913241
O O13 0.500000 0.642552 0.000000
O O14 0.437290 0.500000 0.276276
O O15 0.641920 0.884590 0.145939
O O16 0.628156 0.000000 0.306385
O O17 0.577420 0.000000 0.959954
O O18 0.500000 0.146548 0.000000
#
# Coordination Sequence:
#
# PCOD8102796 Si02
#       7
#     8   8   8   8   8   8   8
#     4  12  21  37  64  91 117 154 203 248 296 356
#     4  12  23  36  57  84 120 156 189 232 298 361
#     4  10  22  39  60  89 119 154 201 247 298 353
#     4  11  22  38  60  89 122 153 192 247 309 359
#     4  11  23  39  61  87 121 158 198 247 298 352
#     4  10  21  38  59  86 119 155 196 248 299 351
#     4  10  20  37  59  83 111 151 201 242 279 344
#
# _framework density 19.098986
#
# number of rings (size 3 to 8) (size 9 to 14) (size 15 to 20)
#    0.000    1.143    2.857    4.714    0.000    3.429 
#    0.000    0.000    0.000    2.571    0.000    0.000 
#    0.000    0.000    0.000    0.000    0.000    0.000 
#
# Total GULP energy -347293.826335 kJ/mol
# GULP energy per Si atom -12403.350941 kJ/mol
# Density = 1.905552 g / cm^3
# Si number density = 19.098986 Si / 1000 Ang^3
#
#
#
# Elastic Constant Matrix: (Units=GPa)
#
#
# Indices 1 2 3 4 5 6 
#
# 1 116.1032 60.0172 25.2340 0.0000 3.7208 0.0000
# 2 60.0172 107.7497 16.3131 0.0000 -6.9538 0.0000
# 3 25.2340 16.3131 85.2550 0.0000 3.8800 0.0000
# 4 0.0000 0.0000 0.0000 18.2516 0.0000 3.2169
# 5 3.7208 -6.9538 3.8800 0.0000 30.6754 0.0000
# 6 0.0000 0.0000 0.0000 3.2169 0.0000 31.5595
#
#
#
# Elastic Compliance Matrix: (Units=1/GPa)
#
#
# Indices 1 2 3 4 5 6 
#
# 1 0.012812 -0.006967 -0.002330 0.000000 -0.002839 0.000000
# 2 -0.006967 0.013527 -0.000708 0.000000 0.004001 0.000000
# 3 -0.002330 -0.000708 0.012622 0.000000 -0.001474 0.000000
# 4 0.000000 0.000000 0.000000 0.055792 0.000000 -0.005687
# 5 -0.002839 0.004001 -0.001474 0.000000 0.034037 0.000000
# 6 0.000000 0.000000 0.000000 -0.005687 0.000000 0.032266
#
#
# Mechanical properties :
#
#
# Convention : Reuss Voigt Hill
#
# Bulk Modulus (GPa) = 52.76908 56.91517 54.84213
# Shear Modulus (GPa) = 26.68353 29.93354 28.30854
#
# Velocity S-wave (km/s) = 3.74186 3.96319 3.85411
# Velocity P-wave (km/s) = 6.80866 7.12792 6.97012
#
# Compressibility (1/GPa) = 0.01895049
#
# Stress axis : x y z
#
# Youngs Moduli (GPa) = 78.05423 73.92813 79.22838
#
# Poissons Ratio (x) = 0.51503 0.18459
# Poissons Ratio (y) = 0.54377 0.05612
# Poissons Ratio (z) = 0.18185 0.05237
#
# Static dielectric constant tensor:
#      x y z
#    x 3.501650 0.000000 0.051840 
#    y 0.000000 3.677290 0.000000 
#    z 0.051840 0.000000 3.487090 
# 
# 
# High freq. dielectric constant tensor:
#      x y z
#    x 1.738220 0.000000 0.009040 
#    y 0.000000 1.753350 0.000000 
#    z 0.009040 0.000000 1.738570 
# 
# From -- ./inp_files/156148.got.cif
#   From: 2010.06.25/outbox.cif.g09.slc.cpg/sg12_79_cif.got.tgz:156148.got - 2010.06.28 00:19:55.
