data_PCOD8102289
_publ_section_title
;
Structure prediction by ZEFSAII (Michael W. Deem and Ramdas Pophale) SiO2 
 PCOD8102289
Probable space group: C 2/M
;
_chemical_formula_sum "Si O2"
_cell_formula_units_Z 56
_cell_length_a 14.117135
_cell_length_b 21.458465
_cell_length_c 9.054608
_cell_angle_alpha 90.000000
_cell_angle_beta 96.635412
_cell_angle_gamma 90.000000
_cell_volume 2724.557521
_symmetry_space_group_name_H-M "C 2/M"
_symmetry_group_IT_number 12
_symmetry_cell_setting 'monoclinic'
loop_
_space_group_symop_operation_xyz
x,y,z
-x,y,-z
-x,-y,-z
x,-y,z
1/2+x,1/2+y,z
1/2-x,1/2+y,-z
1/2-x,1/2-y,-z
1/2+x,1/2-y,z
loop_
_atom_site_type_symbol
_atom_site_label
_atom_site_fract_x
_atom_site_fract_y
_atom_site_fract_z
Si Si1 0.841585 0.071735 0.585732
Si Si2 0.603295 0.727539 0.013138
Si Si3 0.500000 0.657047 0.500000
Si Si4 0.500000 0.858878 0.500000
Si Si5 0.663529 0.072190 0.358969
Si Si6 0.257274 0.852675 0.197633
Si Si7 0.606967 0.865829 0.048647
Si Si8 0.606321 0.762297 0.682958
O O1 0.771851 0.083678 0.433552
O O2 0.784957 0.088084 0.725048
O O3 0.938121 0.113343 0.596773
O O4 0.873307 0.000000 0.599277
O O5 0.674883 0.678415 0.089068
O O6 0.604575 0.793362 0.100043
O O7 0.500000 0.695813 0.000000
O O8 0.628314 0.742620 0.851489
O O9 0.581712 0.699888 0.589594
O O10 0.410520 0.899128 0.536286
O O11 0.522926 0.813342 0.643270
O O12 0.655909 0.097811 0.191759
O O13 0.638866 0.000000 0.350247
O O14 0.296714 0.802714 0.329373
O O15 0.336727 0.876311 0.095461
O O16 0.500000 0.890585 0.000000
#
# Coordination Sequence:
#
# PCOD8102289 Si02
#       8
#     8   8   4   4   8   8   8   8
#     4  11  26  45  65  91 129 178 220 262 311 372
#     4  10  20  36  61  92 129 162 202 263 331 385
#     4  11  25  42  70  94 129 167 218 270 316 385
#     4  11  19  40  60  92 139 153 208 262 322 391
#     4  11  24  39  62  90 124 176 218 259 308 375
#     4  11  22  41  66  94 130 163 212 270 314 389
#     4  10  22  39  61  91 131 164 204 265 328 384
#     4  10  21  37  62 102 124 160 202 263 338 374
#
# _framework density 20.553795000000001
#
# number of rings (size 3 to 8) (size 9 to 14) (size 15 to 20)
#    0.000    1.429    1.429    5.571    4.000    2.571 
#    0.000    0.000    0.000    1.286    0.000    0.000 
#    0.000    0.000    0.000    0.000    0.000    0.000 
#
# Total GULP energy -346927.155682 kJ/mol
# GULP energy per Si atom -12390.255560 kJ/mol
# Density = 2.050701 g / cm^3
# Si number density = 20.553795 Si / 1000 Ang^3
#
#
#
# Elastic Constant Matrix: (Units=GPa)
#
#
# Indices 1 2 3 4 5 6 
#
# 1 96.1383 42.4443 30.0567 0.0000 -8.2777 0.0000
# 2 42.4443 110.7685 51.2748 0.0000 3.7919 0.0000
# 3 30.0567 51.2748 88.7500 0.0000 6.2555 0.0000
# 4 0.0000 0.0000 0.0000 32.9373 0.0000 -0.6167
# 5 -8.2777 3.7919 6.2555 0.0000 36.0758 0.0000
# 6 0.0000 0.0000 0.0000 -0.6167 0.0000 26.9547
#
#
#
# Elastic Compliance Matrix: (Units=1/GPa)
#
#
# Indices 1 2 3 4 5 6 
#
# 1 0.013308 -0.004122 -0.002401 0.000000 0.003903 0.000000
# 2 -0.004122 0.013600 -0.006372 0.000000 -0.001270 0.000000
# 3 -0.002401 -0.006372 0.015949 0.000000 -0.002647 0.000000
# 4 0.000000 0.000000 0.000000 0.030374 0.000000 0.000695
# 5 0.003903 -0.001270 -0.002647 0.000000 0.029207 0.000000
# 6 0.000000 0.000000 0.000000 0.000695 0.000000 0.037115
#
#
# Mechanical properties :
#
#
# Convention : Reuss Voigt Hill
#
# Bulk Modulus (GPa) = 58.58970 60.35650 59.47310
# Shear Modulus (GPa) = 29.23432 30.65228 29.94330
#
# Velocity S-wave (km/s) = 3.77547 3.86595 3.82098
# Velocity P-wave (km/s) = 6.89732 7.02540 6.96166
#
# Compressibility (1/GPa) = 0.01706785
#
# Stress axis : x y z
#
# Youngs Moduli (GPa) = 75.14273 73.52781 62.70112
#
# Poissons Ratio (x) = 0.30305 0.15054
# Poissons Ratio (y) = 0.30971 0.39954
# Poissons Ratio (z) = 0.18041 0.46853
#
# Static dielectric constant tensor:
#      x y z
#    x 3.844950 0.000000 0.122180 
#    y 0.000000 3.781810 0.000000 
#    z 0.122180 0.000000 3.691900 
# 
# 
# High freq. dielectric constant tensor:
#      x y z
#    x 1.810060 0.000000 0.013620 
#    y 0.000000 1.793360 0.000000 
#    z 0.013620 0.000000 1.798140 
# 
# From -- ./inp_files/64120.got.cif
#   From: 2010.06.25/outbox.cif.g09.slc.cpg/sg12_33_cif.got.tgz:64120.got - 2010.06.28 00:19:55.
