data_PCOD8102564
_publ_section_title
;
Structure prediction by ZEFSAII (Michael W. Deem and Ramdas Pophale) SiO2 
 PCOD8102564
Probable space group: C 2/M
;
_chemical_formula_sum "Si O2"
_cell_formula_units_Z 40
_cell_length_a 18.443961
_cell_length_b 12.021217
_cell_length_c 11.692675
_cell_angle_alpha 90.000000
_cell_angle_beta 124.156524
_cell_angle_gamma 90.000000
_cell_volume 2145.300358
_symmetry_space_group_name_H-M "C 2/M"
_symmetry_group_IT_number 12
_symmetry_cell_setting 'monoclinic'
loop_
_space_group_symop_operation_xyz
x,y,z
-x,y,-z
-x,-y,-z
x,-y,z
1/2+x,1/2+y,z
1/2-x,1/2+y,-z
1/2-x,1/2-y,-z
1/2+x,1/2-y,z
loop_
_atom_site_type_symbol
_atom_site_label
_atom_site_fract_x
_atom_site_fract_y
_atom_site_fract_z
Si Si1 0.924974 0.371079 0.849173
Si Si2 0.720979 0.251617 0.153736
Si Si3 0.137177 0.131552 0.866781
Si Si4 0.504394 0.793355 0.326954
Si Si5 0.874945 0.624488 0.382972
O O1 0.906608 0.500000 0.851523
O O2 0.836001 0.307781 0.800160
O O3 0.954227 0.348285 0.747012
O O4 0.000000 0.327835 0.000000
O O5 0.786911 0.162016 0.156182
O O6 0.774860 0.345604 0.269105
O O7 0.658786 0.309205 0.005592
O O8 0.041278 0.174173 0.739694
O O9 0.132470 0.000000 0.878734
O O10 0.582058 0.786905 0.490273
O O11 0.427916 0.872655 0.309807
O O12 0.879446 0.500000 0.438037
#
# Coordination Sequence:
#
# PCOD8102564 Si02
#       5
#     8   8   8   8   8
#     4  11  21  35  56  83 114 146 180 229 280 323
#     4  10  21  36  55  85 111 143 188 230 271 332
#     4  10  20  37  57  80 112 149 186 228 273 323
#     4  10  20  37  57  84 111 144 188 227 266 332
#     4  10  20  37  61  84 110 147 185 228 273 323
#
# _framework density 18.645408
#
# number of rings (size 3 to 8) (size 9 to 14) (size 15 to 20)
#    0.000    1.800    2.000    3.600    0.000    0.800 
#    0.000   12.000    0.000    0.000    0.000    0.000 
#    0.000    0.000    0.000    0.000    0.000    0.000 
#
# Total GULP energy -247968.475375 kJ/mol
# GULP energy per Si atom -12398.423769 kJ/mol
# Density = 1.860297 g / cm^3
# Si number density = 18.645408 Si / 1000 Ang^3
#
#
#
# Elastic Constant Matrix: (Units=GPa)
#
#
# Indices 1 2 3 4 5 6 
#
# 1 103.5129 34.3438 58.6931 0.0000 -0.6180 0.0000
# 2 34.3438 84.7613 33.0621 0.0000 7.4927 0.0000
# 3 58.6931 33.0621 101.6902 0.0000 -2.3747 0.0000
# 4 0.0000 0.0000 0.0000 23.9663 0.0000 2.6934
# 5 -0.6180 7.4927 -2.3747 0.0000 21.5431 0.0000
# 6 0.0000 0.0000 0.0000 2.6934 0.0000 19.4758
#
#
#
# Elastic Compliance Matrix: (Units=1/GPa)
#
#
# Indices 1 2 3 4 5 6 
#
# 1 0.015050 -0.003181 -0.007636 0.000000 0.000696 0.000000
# 2 -0.003181 0.014790 -0.003103 0.000000 -0.005577 0.000000
# 3 -0.007636 -0.003103 0.015309 0.000000 0.002548 0.000000
# 4 0.000000 0.000000 0.000000 0.042384 0.000000 -0.005861
# 5 0.000696 -0.005577 0.002548 0.000000 0.048659 0.000000
# 6 0.000000 0.000000 0.000000 -0.005861 0.000000 0.052156
#
#
# Mechanical properties :
#
#
# Convention : Reuss Voigt Hill
#
# Bulk Modulus (GPa) = 57.77113 60.24026 59.00569
# Shear Modulus (GPa) = 22.52675 23.92139 23.22407
#
# Velocity S-wave (km/s) = 3.47964 3.58573 3.53309
# Velocity P-wave (km/s) = 6.86988 7.03717 6.95403
#
# Compressibility (1/GPa) = 0.01730968
#
# Stress axis : x y z
#
# Youngs Moduli (GPa) = 66.44573 67.61300 65.31944
#
# Poissons Ratio (x) = 0.21508 0.49877
# Poissons Ratio (y) = 0.21137 0.20268
# Poissons Ratio (z) = 0.50737 0.20979
#
# Static dielectric constant tensor:
#      x y z
#    x 3.346640 0.000000 0.053300 
#    y 0.000000 3.241950 0.000000 
#    z 0.053300 0.000000 3.577150 
# 
# 
# High freq. dielectric constant tensor:
#      x y z
#    x 1.718920 0.000000 0.001810 
#    y 0.000000 1.706160 0.000000 
#    z 0.001810 0.000000 1.730840 
# 
# From -- ./inp_files/152703.got.cif
#   From: 2010.06.25/outbox.cif.g09.slc.cpg/sg12_77_cif.got.tgz:152703.got - 2010.06.28 00:19:55.
