data_PCOD8102055
_publ_section_title
;
Structure prediction by ZEFSAII (Michael W. Deem and Ramdas Pophale) SiO2 
 PCOD8102055
Probable space group: C 2/M
;
_chemical_formula_sum "Si O2"
_cell_formula_units_Z 56
_cell_length_a 27.643076
_cell_length_b 9.327516
_cell_length_c 11.782215
_cell_angle_alpha 90.000000
_cell_angle_beta 109.402746
_cell_angle_gamma 90.000000
_cell_volume 2865.406279
_symmetry_space_group_name_H-M "C 2/M"
_symmetry_group_IT_number 12
_symmetry_cell_setting 'monoclinic'
loop_
_space_group_symop_operation_xyz
x,y,z
-x,y,-z
-x,-y,-z
x,-y,z
1/2+x,1/2+y,z
1/2-x,1/2+y,-z
1/2-x,1/2-y,-z
1/2+x,1/2-y,z
loop_
_atom_site_type_symbol
_atom_site_label
_atom_site_fract_x
_atom_site_fract_y
_atom_site_fract_z
Si Si1 0.997336 0.837496 0.127464
Si Si2 0.755654 0.159377 0.892713
Si Si3 0.153131 0.663604 0.081865
Si Si4 0.389120 0.338638 0.766454
Si Si5 0.656699 0.839692 0.664423
Si Si6 0.911184 0.664184 0.184853
Si Si7 0.303682 0.329978 0.515487
O O1 0.959341 0.754273 0.180893
O O2 0.052597 0.830126 0.233911
O O3 0.977029 0.000000 0.103743
O O4 0.000000 0.775848 0.000000
O O5 0.797531 0.240240 0.848791
O O6 0.703908 0.149393 0.784907
O O7 0.774826 0.000000 0.939587
O O8 0.750000 0.250000 0.000000
O O9 0.165319 0.500000 0.121571
O O10 0.109354 0.726295 0.128806
O O11 0.136474 0.681993 0.938629
O O12 0.377572 0.500000 0.800557
O O13 0.346271 0.292840 0.642490
O O14 0.608138 0.789426 0.704092
O O15 0.669783 0.724710 0.578874
O O16 0.646815 0.000000 0.605733
O O17 0.929051 0.500000 0.200718
O O18 0.293037 0.500000 0.498846
O O19 0.250000 0.250000 0.500000
#
# Coordination Sequence:
#
# PCOD8102055 Si02
#       7
#     8   8   8   8   8   8   8
#     4  10  20  36  60  88 117 154 198 241 293 356
#     4  11  21  34  53  80 115 152 189 235 291 349
#     4  11  21  34  54  85 119 152 192 236 291 356
#     4  10  22  40  59  85 119 153 194 247 298 345
#     4  10  22  41  59  81 119 158 195 245 294 345
#     4  10  21  37  56  84 121 154 188 239 298 348
#     4  11  24  42  64  88 117 156 200 245 292 348
#
# _framework density 19.543476999999999
#
# number of rings (size 3 to 8) (size 9 to 14) (size 15 to 20)
#    0.000    1.571    2.857    2.143    0.000    7.714 
#    0.000    0.714    0.000    4.286    0.000    0.000 
#    0.000    0.000    0.000    0.000    0.000    0.000 
#
# Total GULP energy -347064.659202 kJ/mol
# GULP energy per Si atom -12395.166400 kJ/mol
# Density = 1.949900 g / cm^3
# Si number density = 19.543477 Si / 1000 Ang^3
#
#
#
# Elastic Constant Matrix: (Units=GPa)
#
#
# Indices 1 2 3 4 5 6 
#
# 1 130.0159 63.0212 41.7069 0.0000 -12.3854 0.0000
# 2 63.0212 120.7062 41.7161 0.0000 -13.7008 0.0000
# 3 41.7069 41.7161 73.1857 0.0000 -9.9660 0.0000
# 4 0.0000 0.0000 0.0000 28.2055 0.0000 -4.5984
# 5 -12.3854 -13.7008 -9.9660 0.0000 35.5343 0.0000
# 6 0.0000 0.0000 0.0000 -4.5984 0.0000 38.2192
#
#
#
# Elastic Compliance Matrix: (Units=1/GPa)
#
#
# Indices 1 2 3 4 5 6 
#
# 1 0.011111 -0.004404 -0.003665 0.000000 0.001147 0.000000
# 2 -0.004404 0.012267 -0.004208 0.000000 0.002014 0.000000
# 3 -0.003665 -0.004208 0.018461 0.000000 0.002278 0.000000
# 4 0.000000 0.000000 0.000000 0.036163 0.000000 0.004351
# 5 0.001147 0.002014 0.002278 0.000000 0.029957 0.000000
# 6 0.000000 0.000000 0.000000 0.004351 0.000000 0.026688
#
#
# Mechanical properties :
#
#
# Convention : Reuss Voigt Hill
#
# Bulk Modulus (GPa) = 57.85625 68.53292 63.19459
# Shear Modulus (GPa) = 30.30936 32.22270 31.26603
#
# Velocity S-wave (km/s) = 3.94238 4.06491 4.00411
# Velocity P-wave (km/s) = 7.09868 7.56137 7.33368
#
# Compressibility (1/GPa) = 0.01728422
#
# Stress axis : x y z
#
# Youngs Moduli (GPa) = 89.99881 81.51928 54.16688
#
# Poissons Ratio (x) = 0.35904 0.19855
# Poissons Ratio (y) = 0.39638 0.22794
# Poissons Ratio (z) = 0.32989 0.34303
#
# Static dielectric constant tensor:
#      x y z
#    x 5.922130 0.000000 -1.300610 
#    y 0.000000 3.799530 0.000000 
#    z -1.300610 0.000000 4.465490 
# 
# 
# High freq. dielectric constant tensor:
#      x y z
#    x 1.771140 0.000000 -0.004320 
#    y 0.000000 1.766050 0.000000 
#    z -0.004320 0.000000 1.737130 
# 
# From -- ./inp_files/181128.got.cif
#   From: 2010.06.25/outbox.cif.g09.slc.cpg/sg12_91_cif.got.tgz:181128.got - 2010.06.28 00:19:55.
