data_PCOD8102345
_publ_section_title
;
Structure prediction by ZEFSAII (Michael W. Deem and Ramdas Pophale) SiO2 
 PCOD8102345
Probable space group: C 2/M
;
_chemical_formula_sum "Si O2"
_cell_formula_units_Z 56
_cell_length_a 19.016068
_cell_length_b 23.777927
_cell_length_c 8.658084
_cell_angle_alpha 90.000000
_cell_angle_beta 42.486135
_cell_angle_gamma 90.000000
_cell_volume 2644.144184
_symmetry_space_group_name_H-M "C 2/M"
_symmetry_group_IT_number 12
_symmetry_cell_setting 'monoclinic'
loop_
_space_group_symop_operation_xyz
x,y,z
-x,y,-z
-x,-y,-z
x,-y,z
1/2+x,1/2+y,z
1/2-x,1/2+y,-z
1/2-x,1/2-y,-z
1/2+x,1/2-y,z
loop_
_atom_site_type_symbol
_atom_site_label
_atom_site_fract_x
_atom_site_fract_y
_atom_site_fract_z
Si Si1 0.808717 0.835990 0.101712
Si Si2 0.606110 0.436084 0.235334
Si Si3 0.100304 0.434433 0.744743
Si Si4 0.401292 0.344627 0.262324
Si Si5 0.990756 0.764677 0.692421
Si Si6 0.699109 0.436951 0.395612
Si Si7 0.577180 0.853725 0.501100
O O1 0.807327 0.835379 0.292417
O O2 0.687365 0.832506 0.247467
O O3 0.867795 0.891950 0.942236
O O4 0.874392 0.781692 0.937463
O O5 0.500000 0.421824 0.500000
O O6 0.601116 0.500000 0.176023
O O7 0.699704 0.431284 0.209034
O O8 0.101240 0.500000 0.699800
O O9 0.191225 0.417435 0.714520
O O10 0.107370 0.400576 0.575308
O O11 0.000000 0.415967 0.000000
O O12 0.419291 0.292277 0.347659
O O13 0.389887 0.398903 0.387082
O O14 0.500000 0.356567 0.000000
O O15 0.000000 0.784237 0.500000
O O16 0.010904 0.698258 0.677435
O O17 0.671882 0.500000 0.490201
O O18 0.500000 0.881805 0.500000
#
# Coordination Sequence:
#
# PCOD8102345 Si02
#       7
#     8   8   8   8   8   8   8
#     4  11  22  40  63  92 130 160 202 264 311 358
#     4  10  21  37  63  97 131 170 209 246 307 381
#     4  10  23  44  65  90 126 165 207 255 306 366
#     4  10  20  36  62  90 125 163 197 252 313 359
#     4  10  23  43  62  89 127 163 205 252 313 371
#     4  10  20  37  60  90 125 166 210 247 302 371
#     4  11  26  44  65  96 121 160 215 257 312 372
#
# _framework density 21.178875999999999
#
# number of rings (size 3 to 8) (size 9 to 14) (size 15 to 20)
#    0.000    1.714    1.429    3.000    2.000    6.286 
#    2.571    0.000    0.000    0.000    0.000    0.000 
#    0.000    0.000    0.000    0.000    0.000    0.000 
#
# Total GULP energy -347076.075694 kJ/mol
# GULP energy per Si atom -12395.574132 kJ/mol
# Density = 2.113067 g / cm^3
# Si number density = 21.178876 Si / 1000 Ang^3
#
#
#
# Elastic Constant Matrix: (Units=GPa)
#
#
# Indices 1 2 3 4 5 6 
#
# 1 137.9616 23.5272 24.5877 0.0000 -0.9872 0.0000
# 2 23.5272 72.0948 30.3481 0.0000 1.6745 0.0000
# 3 24.5877 30.3481 61.9921 0.0000 -5.4456 0.0000
# 4 0.0000 0.0000 0.0000 23.1974 0.0000 10.7343
# 5 -0.9872 1.6745 -5.4456 0.0000 36.1388 0.0000
# 6 0.0000 0.0000 0.0000 10.7343 0.0000 -18.5157
#
#
#
# Elastic Compliance Matrix: (Units=1/GPa)
#
#
# Indices 1 2 3 4 5 6 
#
# 1 0.007943 -0.001589 -0.002378 0.000000 -0.000068 0.000000
# 2 -0.001589 0.017952 -0.008345 0.000000 -0.002133 0.000000
# 3 -0.002378 -0.008345 0.021472 0.000000 0.003557 0.000000
# 4 0.000000 0.000000 0.000000 0.033990 0.000000 0.019705
# 5 -0.000068 -0.002133 0.003557 0.000000 0.028304 0.000000
# 6 0.000000 0.000000 0.000000 0.019705 0.000000 -0.042584
#
#
# Mechanical properties :
#
#
# Convention : Reuss Voigt Hill
#
# Bulk Modulus (GPa) = 43.97307 47.66387 45.81847
# Shear Modulus (GPa) = 50.36132 21.06978 35.71555
#
# Velocity S-wave (km/s) = 4.88167 3.15754 4.11101
# Velocity P-wave (km/s) = 7.25134 5.98729 6.64942
#
# Compressibility (1/GPa) = 0.02274119
#
# Stress axis : x y z
#
# Youngs Moduli (GPa) = 125.90026 55.70498 46.57180
#
# Poissons Ratio (x) = 0.08853 0.11076
# Poissons Ratio (y) = 0.20010 0.38865
# Poissons Ratio (z) = 0.29942 0.46487
#
# Static dielectric constant tensor:
#      x y z
#    x 4.737160 0.000000 -0.042490 
#    y 0.000000 3.650950 0.000000 
#    z -0.042490 0.000000 3.624900 
# 
# 
# High freq. dielectric constant tensor:
#      x y z
#    x 1.853970 0.000000 -0.005660 
#    y 0.000000 1.821330 0.000000 
#    z -0.005660 0.000000 1.810210 
# 
# From -- ./inp_files/80025.got.cif
#   From: 2010.06.25/outbox.cif.g09.slc.cpg/sg12_41_cif.got.tgz:80025.got - 2010.06.28 00:19:55.
