data_PCOD8102731
_publ_section_title
;
Structure prediction by ZEFSAII (Michael W. Deem and Ramdas Pophale) SiO2 
 PCOD8102731
Probable space group: C 2/M
;
_chemical_formula_sum "Si O2"
_cell_formula_units_Z 64
_cell_length_a 13.408643
_cell_length_b 26.620739
_cell_length_c 9.660040
_cell_angle_alpha 90.000000
_cell_angle_beta 66.047924
_cell_angle_gamma 90.000000
_cell_volume 3151.197139
_symmetry_space_group_name_H-M "C 2/M"
_symmetry_group_IT_number 12
_symmetry_cell_setting 'monoclinic'
loop_
_space_group_symop_operation_xyz
x,y,z
-x,y,-z
-x,-y,-z
x,-y,z
1/2+x,1/2+y,z
1/2-x,1/2+y,-z
1/2-x,1/2-y,-z
1/2+x,1/2-y,z
loop_
_atom_site_type_symbol
_atom_site_label
_atom_site_fract_x
_atom_site_fract_y
_atom_site_fract_z
Si Si1 0.800632 0.302873 0.947706
Si Si2 0.990595 0.707920 0.354383
Si Si3 0.261440 0.944152 0.341672
Si Si4 0.157402 0.897387 0.646162
Si Si5 0.623697 0.382764 0.962423
Si Si6 0.324214 0.839968 0.232805
Si Si7 0.565617 0.556088 0.251555
Si Si8 0.834391 0.793479 0.484273
O O1 0.702323 0.336945 0.950784
O O2 0.890965 0.295434 0.779619
O O3 0.750000 0.250000 0.000000
O O4 0.853239 0.322644 0.061761
O O5 0.908444 0.679978 0.298667
O O6 0.952235 0.765825 0.409208
O O7 0.000000 0.680911 0.500000
O O8 0.247624 0.928663 0.510438
O O9 0.332610 0.900913 0.227583
O O10 0.142247 0.944766 0.341287
O O11 0.315340 0.000000 0.299738
O O12 0.168011 0.911717 0.801358
O O13 0.171949 0.837208 0.626362
O O14 0.038048 0.910121 0.653988
O O15 0.500000 0.363564 0.000000
O O16 0.630245 0.421896 0.083692
O O17 0.202463 0.819869 0.348052
O O18 0.526412 0.500000 0.236074
O O19 0.750000 0.750000 0.500000
#
# Coordination Sequence:
#
# PCOD8102731 Si02
#       8
#     8   8   8   8   8   8   8   8
#     4  12  26  39  64  90 128 169 218 257 310 374
#     4  11  25  40  64  91 124 168 210 259 316 367
#     4  10  20  37  64  89 120 158 207 258 317 380
#     4  10  21  33  59  85 125 158 208 250 306 371
#     4  10  24  39  58  88 128 165 202 254 312 378
#     4  10  22  43  63  93 128 164 212 260 313 376
#     4  10  20  37  58  88 123 159 200 255 318 382
#     4   9  21  38  59  85 127 164 205 248 308 367
#
# _framework density 20.309743000000001
#
# number of rings (size 3 to 8) (size 9 to 14) (size 15 to 20)
#    0.000    1.750    1.250    1.875   12.250    5.750 
#    0.000    0.000    0.000    2.625    0.000    0.000 
#    0.000    0.000    0.000    0.000    0.000    0.000 
#
# Total GULP energy -396563.342269 kJ/mol
# GULP energy per Si atom -12392.604446 kJ/mol
# Density = 2.026352 g / cm^3
# Si number density = 20.309743 Si / 1000 Ang^3
#
#
#
# Elastic Constant Matrix: (Units=GPa)
#
#
# Indices 1 2 3 4 5 6 
#
# 1 68.2944 35.9549 34.3099 0.0000 7.5799 0.0000
# 2 35.9549 140.6292 39.3932 0.0000 -6.8182 0.0000
# 3 34.3099 39.3932 139.4458 0.0000 0.6021 0.0000
# 4 0.0000 0.0000 0.0000 21.5253 0.0000 -4.3089
# 5 7.5799 -6.8182 0.6021 0.0000 28.4863 0.0000
# 6 0.0000 0.0000 0.0000 -4.3089 0.0000 27.3892
#
#
#
# Elastic Compliance Matrix: (Units=1/GPa)
#
#
# Indices 1 2 3 4 5 6 
#
# 1 0.019327 -0.004248 -0.003529 0.000000 -0.006085 0.000000
# 2 -0.004248 0.008759 -0.001443 0.000000 0.003257 0.000000
# 3 -0.003529 -0.001443 0.008446 0.000000 0.000415 0.000000
# 4 0.000000 0.000000 0.000000 0.047968 0.000000 0.007546
# 5 -0.006085 0.003257 0.000415 0.000000 0.037495 0.000000
# 6 0.000000 0.000000 0.000000 0.007546 0.000000 0.037698
#
#
# Mechanical properties :
#
#
# Convention : Reuss Voigt Hill
#
# Bulk Modulus (GPa) = 55.27517 63.07614 59.17566
# Shear Modulus (GPa) = 27.14988 31.39426 29.27207
#
# Velocity S-wave (km/s) = 3.66018 3.93590 3.80054
# Velocity P-wave (km/s) = 6.71846 7.19580 6.96123
#
# Compressibility (1/GPa) = 0.01809130
#
# Stress axis : x y z
#
# Youngs Moduli (GPa) = 51.74066 114.16574 118.40615
#
# Poissons Ratio (x) = 0.48496 0.41786
# Poissons Ratio (y) = 0.21979 0.17090
# Poissons Ratio (z) = 0.18260 0.16478
#
# Static dielectric constant tensor:
#      x y z
#    x 3.391280 0.000000 0.123130 
#    y 0.000000 5.004310 0.000000 
#    z 0.123130 0.000000 3.765730 
# 
# 
# High freq. dielectric constant tensor:
#      x y z
#    x 1.764130 0.000000 0.008300 
#    y 0.000000 1.790830 0.000000 
#    z 0.008300 0.000000 1.808640 
# 
# From -- ./inp_files/66916.got.cif
#   From: 2010.06.25/outbox.cif.g09.slc.cpg/sg12_34_cif.got.tgz:66916.got - 2010.06.28 00:19:55.
