data_PCOD8102779
_publ_section_title
;
Structure prediction by ZEFSAII (Michael W. Deem and Ramdas Pophale) SiO2 
 PCOD8102779
Probable space group: C 2/M
;
_chemical_formula_sum "Si O2"
_cell_formula_units_Z 56
_cell_length_a 19.037125
_cell_length_b 8.812517
_cell_length_c 19.809296
_cell_angle_alpha 90.000000
_cell_angle_beta 64.535747
_cell_angle_gamma 90.000000
_cell_volume 3000.459408
_symmetry_space_group_name_H-M "C 2/M"
_symmetry_group_IT_number 12
_symmetry_cell_setting 'monoclinic'
loop_
_space_group_symop_operation_xyz
x,y,z
-x,y,-z
-x,-y,-z
x,-y,z
1/2+x,1/2+y,z
1/2-x,1/2+y,-z
1/2-x,1/2-y,-z
1/2+x,1/2-y,z
loop_
_atom_site_type_symbol
_atom_site_label
_atom_site_fract_x
_atom_site_fract_y
_atom_site_fract_z
Si Si1 0.023839 0.177413 0.060676
Si Si2 0.676810 0.319494 0.069412
Si Si3 0.288568 0.670870 0.421373
Si Si4 0.870017 0.823394 0.759468
Si Si5 0.897791 0.326055 0.197917
Si Si6 0.450129 0.672050 0.303015
Si Si7 0.754324 0.679382 0.710222
O O1 0.102901 0.245608 0.058854
O O2 0.952854 0.209757 0.137826
O O3 0.036415 0.000000 0.046477
O O4 0.000000 0.255275 0.000000
O O5 0.682687 0.500000 0.063824
O O6 0.664212 0.269432 0.153192
O O7 0.750000 0.250000 0.000000
O O8 0.260623 0.500000 0.437807
O O9 0.250000 0.750000 0.500000
O O10 0.383321 0.682534 0.388459
O O11 0.253687 0.733613 0.364444
O O12 0.834609 0.726924 0.712420
O O13 0.962016 0.792450 0.711720
O O14 0.851314 0.000000 0.757199
O O15 0.907800 0.500000 0.170957
O O16 0.922023 0.304059 0.265028
O O17 0.810527 0.269791 0.219967
O O18 0.447113 0.500000 0.273075
O O19 0.740730 0.500000 0.721639
#
# Coordination Sequence:
#
# PCOD8102779 Si02
#       7
#     8   8   8   8   8   8   8
#     4  10  21  38  57  76 104 147 190 229 284 341
#     4  10  22  38  55  79 112 149 188 235 287 334
#     4   9  19  36  60  86 113 147 182 226 275 330
#     4  10  20  37  59  82 112 148 190 238 280 328
#     4  11  21  34  55  82 108 140 186 237 281 324
#     4   9  18  37  60  81 111 149 186 223 274 334
#     4  10  22  38  57  82 114 150 188 225 276 338
#
# _framework density 18.663809000000001
#
# number of rings (size 3 to 8) (size 9 to 14) (size 15 to 20)
#    0.000    2.143    1.429    2.571    2.000    4.857 
#    0.000    0.714    0.000    4.286    0.000    0.000 
#    0.000    0.000    0.000    0.000    0.000    0.000 
#
# Total GULP energy -346904.112886 kJ/mol
# GULP energy per Si atom -12389.432603 kJ/mol
# Density = 1.862133 g / cm^3
# Si number density = 18.663809 Si / 1000 Ang^3
#
#
#
# Elastic Constant Matrix: (Units=GPa)
#
#
# Indices 1 2 3 4 5 6 
#
# 1 135.7437 31.5352 65.8156 0.0000 -1.3435 0.0000
# 2 31.5352 30.4121 22.0438 0.0000 2.2257 -0.0002
# 3 65.8156 22.0438 117.1104 0.0000 -9.3163 0.0000
# 4 0.0000 0.0000 0.0000 37.4103 0.0000 -11.6118
# 5 -1.3435 2.2257 -9.3163 0.0000 23.5450 0.0000
# 6 0.0000 -0.0002 0.0000 -11.6118 0.0000 40.1529
#
#
#
# Elastic Compliance Matrix: (Units=1/GPa)
#
#
# Indices 1 2 3 4 5 6 
#
# 1 0.011799 -0.008522 -0.005069 0.000000 -0.000527 0.000000
# 2 -0.008522 0.045266 -0.004244 0.000000 -0.006444 0.000000
# 3 -0.005069 -0.004244 0.012592 0.000000 0.005094 0.000000
# 4 0.000000 0.000000 0.000000 0.029367 0.000000 0.008493
# 5 -0.000527 -0.006444 0.005094 0.000000 0.045067 0.000000
# 6 0.000000 0.000000 0.000000 0.008493 0.000000 0.027361
#
#
# Mechanical properties :
#
#
# Convention : Reuss Voigt Hill
#
# Bulk Modulus (GPa) = 29.42264 58.00616 43.71440
# Shear Modulus (GPa) = 22.88860 31.14640 27.01750
#
# Velocity S-wave (km/s) = 3.50575 4.08954 3.80885
# Velocity P-wave (km/s) = 5.67325 7.31068 6.54339
#
# Compressibility (1/GPa) = 0.03398743
#
# Stress axis : x y z
#
# Youngs Moduli (GPa) = 84.75257 22.09158 79.41776
#
# Poissons Ratio (x) = 0.18827 0.40255
# Poissons Ratio (y) = 0.72228 0.33703
# Poissons Ratio (z) = 0.42959 0.09375
#
# Static dielectric constant tensor:
#      x y z
#    x 3.594600 0.000000 -0.153880 
#    y 0.000000 3.276870 0.000000 
#    z -0.153880 0.000000 3.180770 
# 
# 
# High freq. dielectric constant tensor:
#      x y z
#    x 1.729350 0.000000 -0.011430 
#    y 0.000000 1.712560 0.000000 
#    z -0.011430 0.000000 1.713620 
# 
# From -- ./inp_files/313693.got.cif
#   From: 2010.06.25/outbox.cif.g09.slc.cpg/sg12_157_cif.got.tgz:313693.got - 2010.06.28 00:19:55.
