data_PCOD8102913
_publ_section_title
;
Structure prediction by ZEFSAII (Michael W. Deem and Ramdas Pophale) SiO2 
 PCOD8102913
Probable space group: C 2/M
;
_chemical_formula_sum "Si O2"
_cell_formula_units_Z 48
_cell_length_a 33.986410
_cell_length_b 14.922548
_cell_length_c 10.009753
_cell_angle_alpha 90.000000
_cell_angle_beta 152.688033
_cell_angle_gamma 90.000000
_cell_volume 2329.315480
_symmetry_space_group_name_H-M "C 2/M"
_symmetry_group_IT_number 12
_symmetry_cell_setting 'monoclinic'
loop_
_space_group_symop_operation_xyz
x,y,z
-x,y,-z
-x,-y,-z
x,-y,z
1/2+x,1/2+y,z
1/2-x,1/2+y,-z
1/2-x,1/2-y,-z
1/2+x,1/2-y,z
loop_
_atom_site_type_symbol
_atom_site_label
_atom_site_fract_x
_atom_site_fract_y
_atom_site_fract_z
Si Si1 0.435554 0.249059 0.689567
Si Si2 0.450130 0.747934 0.214942
Si Si3 0.276668 0.154107 0.134268
Si Si4 0.802505 0.099085 0.358171
Si Si5 0.189917 0.897344 0.142984
Si Si6 0.183928 0.396161 0.241354
O O1 0.483688 0.278783 0.700811
O O2 0.375578 0.161980 0.479400
O O3 0.381478 0.334777 0.574270
O O4 0.500000 0.219520 0.000000
O O5 0.500000 0.771015 0.500000
O O6 0.388810 0.663533 0.050537
O O7 0.401005 0.837050 0.020710
O O8 0.216036 0.123061 0.070803
O O9 0.250000 0.250000 0.000000
O O10 0.261002 0.089051 0.961495
O O11 0.748216 0.136379 0.318972
O O12 0.838601 0.000000 0.500330
O O13 0.271480 0.878262 0.482408
O O14 0.159737 0.000000 0.065540
O O15 0.158538 0.500000 0.145847
#
# Coordination Sequence:
#
# PCOD8102913 Si02
#       6
#     8   8   8   8   8   8
#     4  11  22  35  56  85 116 148 184 238 300 348
#     4  12  23  37  59  88 123 154 189 247 307 354
#     4  10  20  38  58  80 112 153 198 232 276 346
#     4  10  20  37  60  82 109 149 195 238 282 345
#     4  11  23  40  63  88 118 159 202 243 291 355
#     4  10  22  41  63  85 114 159 208 245 285 348
#
# _framework density 20.606912000000001
#
# number of rings (size 3 to 8) (size 9 to 14) (size 15 to 20)
#    0.000    1.333    0.000    8.000    0.000    1.667 
#    0.000    1.667    0.000    4.500    0.000    0.000 
#    0.000    0.000    0.000    0.000    0.000    0.000 
#
# Total GULP energy -297656.482801 kJ/mol
# GULP energy per Si atom -12402.353450 kJ/mol
# Density = 2.056001 g / cm^3
# Si number density = 20.606912 Si / 1000 Ang^3
#
#
#
# Elastic Constant Matrix: (Units=GPa)
#
#
# Indices 1 2 3 4 5 6 
#
# 1 79.1282 11.2435 6.8034 0.0000 -7.5143 0.0000
# 2 11.2435 70.2704 21.8507 0.0000 10.9189 0.0000
# 3 6.8034 21.8507 93.9072 0.0000 -4.0463 0.0000
# 4 0.0000 0.0000 0.0000 14.6819 0.0000 -12.7907
# 5 -7.5143 10.9189 -4.0463 0.0000 37.5247 0.0000
# 6 0.0000 0.0000 0.0000 -12.7907 0.0000 19.6180
#
#
#
# Elastic Compliance Matrix: (Units=1/GPa)
#
#
# Indices 1 2 3 4 5 6 
#
# 1 0.013349 -0.002598 -0.000216 0.000000 0.003406 0.000000
# 2 -0.002598 0.016787 -0.003969 0.000000 -0.005833 0.000000
# 3 -0.000216 -0.003969 0.011690 0.000000 0.002372 0.000000
# 4 0.000000 0.000000 0.000000 0.157667 0.000000 0.102797
# 5 0.003406 -0.005833 0.002372 0.000000 0.029284 0.000000
# 6 0.000000 0.000000 0.000000 0.102797 0.000000 0.117997
#
#
# Mechanical properties :
#
#
# Convention : Reuss Voigt Hill
#
# Bulk Modulus (GPa) = 35.38554 35.90010 35.64282
# Shear Modulus (GPa) = 13.52228 27.92544 20.72386
#
# Velocity S-wave (km/s) = 2.56442 3.68523 3.17468
# Velocity P-wave (km/s) = 5.09679 5.96381 5.54727
#
# Compressibility (1/GPa) = 0.02826013
#
# Stress axis : x y z
#
# Youngs Moduli (GPa) = 74.91279 59.56995 85.54148
#
# Poissons Ratio (x) = 0.15476 0.01846
# Poissons Ratio (y) = 0.19462 0.33953
# Poissons Ratio (z) = 0.01617 0.23644
#
# Static dielectric constant tensor:
#      x y z
#    x 4.243980 0.000000 -0.343560 
#    y 0.000000 3.719470 0.000000 
#    z -0.343560 0.000000 4.273300 
# 
# 
# High freq. dielectric constant tensor:
#      x y z
#    x 1.822270 0.000000 -0.015780 
#    y 0.000000 1.802600 0.000000 
#    z -0.015780 0.000000 1.807450 
# 
# From -- ./inp_files/112934.got.cif
#   From: 2010.06.25/outbox.cif.g09.slc.cpg/sg12_57_cif.got.tgz:112934.got - 2010.06.28 00:19:55.
