data_PCOD8102465
_publ_section_title
;
Structure prediction by ZEFSAII (Michael W. Deem and Ramdas Pophale) SiO2 
 PCOD8102465
Probable space group: C 2/M
;
_chemical_formula_sum "Si O2"
_cell_formula_units_Z 44
_cell_length_a 11.856410
_cell_length_b 20.287470
_cell_length_c 9.476894
_cell_angle_alpha 90.000000
_cell_angle_beta 104.561919
_cell_angle_gamma 90.000000
_cell_volume 2206.312697
_symmetry_space_group_name_H-M "C 2/M"
_symmetry_group_IT_number 12
_symmetry_cell_setting 'monoclinic'
loop_
_space_group_symop_operation_xyz
x,y,z
-x,y,-z
-x,-y,-z
x,-y,z
1/2+x,1/2+y,z
1/2-x,1/2+y,-z
1/2-x,1/2-y,-z
1/2+x,1/2-y,z
loop_
_atom_site_type_symbol
_atom_site_label
_atom_site_fract_x
_atom_site_fract_y
_atom_site_fract_z
Si Si1 0.741054 0.424611 0.017121
Si Si2 0.680772 0.310505 0.540222
Si Si3 0.973085 0.354491 0.149342
Si Si4 0.980828 0.784457 0.273349
Si Si5 0.500000 0.366088 0.000000
Si Si6 0.801736 0.574689 0.718971
O O1 0.774848 0.500000 0.058063
O O2 0.839599 0.378818 0.120746
O O3 0.616028 0.410359 0.050025
O O4 0.735595 0.412438 0.846744
O O5 0.750000 0.250000 0.500000
O O6 0.574970 0.321592 0.399744
O O7 0.642084 0.291131 0.686135
O O8 0.753444 0.378047 0.579638
O O9 0.001661 0.293575 0.261378
O O10 0.060232 0.413630 0.217467
O O11 0.000000 0.330524 0.000000
O O12 0.978192 0.819230 0.124026
O O13 0.782150 0.500000 0.661870
#
# Coordination Sequence:
#
# PCOD8102465 Si02
#       6
#     8   8   8   8   4   8
#     4  10  22  38  61  93 131 167 206 258 320 378
#     4  11  23  42  63  90 129 169 212 260 318 378
#     4  10  20  36  64  96 123 159 209 268 316 368
#     4  11  24  38  63  95 125 165 214 263 316 373
#     4  12  23  40  64  92 131 166 210 262 310 380
#     4  10  20  40  65  92 126 169 212 261 317 379
#
# _framework density 19.942777
#
# number of rings (size 3 to 8) (size 9 to 14) (size 15 to 20)
#    0.000    1.455    4.545    0.818    2.545    2.909 
#    0.000    3.636    0.000    1.091    0.000    0.000 
#    0.000    0.000    0.000    0.000    0.000    0.000 
#
# Total GULP energy -272768.104264 kJ/mol
# GULP energy per Si atom -12398.550194 kJ/mol
# Density = 1.989739 g / cm^3
# Si number density = 19.942777 Si / 1000 Ang^3
#
#
#
# Elastic Constant Matrix: (Units=GPa)
#
#
# Indices 1 2 3 4 5 6 
#
# 1 126.0290 42.0346 35.6686 0.0000 1.3226 0.0000
# 2 42.0346 129.5866 51.5512 0.0000 9.1457 0.0000
# 3 35.6686 51.5512 90.2106 0.0000 -0.0178 0.0000
# 4 0.0000 0.0000 0.0000 34.3479 0.0000 6.1605
# 5 1.3226 9.1457 -0.0178 0.0000 26.1797 0.0000
# 6 0.0000 0.0000 0.0000 6.1605 0.0000 28.7833
#
#
#
# Elastic Compliance Matrix: (Units=1/GPa)
#
#
# Indices 1 2 3 4 5 6 
#
# 1 0.009326 -0.002039 -0.002522 0.000000 0.000239 0.000000
# 2 -0.002039 0.010763 -0.005345 0.000000 -0.003661 0.000000
# 3 -0.002522 -0.005345 0.015137 0.000000 0.002005 0.000000
# 4 0.000000 0.000000 0.000000 0.030276 0.000000 -0.006480
# 5 0.000239 -0.003661 0.002005 0.000000 0.039466 0.000000
# 6 0.000000 0.000000 0.000000 -0.006480 0.000000 0.036129
#
#
# Mechanical properties :
#
#
# Convention : Reuss Voigt Hill
#
# Bulk Modulus (GPa) = 64.87626 67.14832 66.01229
# Shear Modulus (GPa) = 30.11188 32.30030 31.20609
#
# Velocity S-wave (km/s) = 3.88998 4.02885 3.96002
# Velocity P-wave (km/s) = 7.26483 7.44216 7.35403
#
# Compressibility (1/GPa) = 0.01541396
#
# Stress axis : x y z
#
# Youngs Moduli (GPa) = 107.22730 92.91245 66.06136
#
# Poissons Ratio (x) = 0.18941 0.16664
# Poissons Ratio (y) = 0.21859 0.35311
# Poissons Ratio (z) = 0.27047 0.49663
#
# Static dielectric constant tensor:
#      x y z
#    x 3.888870 0.000000 -0.021680 
#    y 0.000000 3.517890 0.000000 
#    z -0.021680 0.000000 3.612800 
# 
# 
# High freq. dielectric constant tensor:
#      x y z
#    x 1.785000 0.000000 0.002410 
#    y 0.000000 1.778120 0.000000 
#    z 0.002410 0.000000 1.760990 
# 
# From -- ./inp_files/49273.got.cif
#   From: 2010.06.25/outbox.cif.g09.slc.cpg/sg12_25_cif.got.tgz:49273.got - 2010.06.28 00:19:55.
