data_PCOD8102257
_publ_section_title
;
Structure prediction by ZEFSAII (Michael W. Deem and Ramdas Pophale) SiO2 
 PCOD8102257
Probable space group: C 2/M
;
_chemical_formula_sum "Si O2"
_cell_formula_units_Z 64
_cell_length_a 20.028800
_cell_length_b 15.572848
_cell_length_c 11.278121
_cell_angle_alpha 90.000000
_cell_angle_beta 70.695873
_cell_angle_gamma 90.000000
_cell_volume 3319.931928
_symmetry_space_group_name_H-M "C 2/M"
_symmetry_group_IT_number 12
_symmetry_cell_setting 'monoclinic'
loop_
_space_group_symop_operation_xyz
x,y,z
-x,y,-z
-x,-y,-z
x,-y,z
1/2+x,1/2+y,z
1/2-x,1/2+y,-z
1/2-x,1/2-y,-z
1/2+x,1/2-y,z
loop_
_atom_site_type_symbol
_atom_site_label
_atom_site_fract_x
_atom_site_fract_y
_atom_site_fract_z
Si Si1 0.426412 0.255808 0.094867
Si Si2 0.691272 0.183490 0.997636
Si Si3 0.186087 0.190234 0.497335
Si Si4 0.423261 0.176800 0.497125
Si Si5 0.332590 0.598676 0.261110
Si Si6 0.090344 0.404340 0.735199
Si Si7 0.180241 0.400185 0.249182
Si Si8 0.743624 0.904819 0.737810
O O1 0.375975 0.232113 0.015611
O O2 0.393090 0.334869 0.186727
O O3 0.442666 0.171412 0.165410
O O4 0.500000 0.289589 0.000000
O O5 0.726261 0.120845 0.881441
O O6 0.750000 0.250000 0.000000
O O7 0.664550 0.128427 0.124547
O O8 0.250000 0.250000 0.500000
O O9 0.111802 0.240001 0.542898
O O10 0.180739 0.110410 0.590909
O O11 0.198468 0.156726 0.356201
O O12 0.500000 0.201655 0.500000
O O13 0.431036 0.105212 0.390009
O O14 0.373227 0.147209 0.632595
O O15 0.355114 0.500000 0.223149
O O16 0.261037 0.622855 0.233358
O O17 0.064868 0.500000 0.792053
O O18 0.174888 0.398467 0.694816
O O19 0.165343 0.500000 0.271026
O O20 0.775007 0.000000 0.722965
#
# Coordination Sequence:
#
# PCOD8102257 Si02
#       8
#     8   8   8   8   8   8   8   8
#     4  11  24  42  63  90 125 166 209 253 310 368
#     4  11  21  38  60  85 122 163 200 248 303 363
#     4  12  19  38  66  88 119 160 208 251 302 364
#     4  12  25  38  60  92 129 161 196 253 314 366
#     4  11  22  40  67  95 119 158 214 265 306 359
#     4  10  21  40  62  89 123 160 205 249 302 373
#     4  11  23  38  60  91 124 162 205 251 305 366
#     4  10  20  36  61  91 118 154 204 257 298 352
#
# _framework density 19.277502999999999
#
# number of rings (size 3 to 8) (size 9 to 14) (size 15 to 20)
#    0.000    1.000    5.000    2.625    1.750    4.000 
#    0.000    0.000    0.000    3.000    0.000    0.000 
#    0.000    0.000    0.000    0.000    0.000    0.000 
#
# Total GULP energy -396873.119108 kJ/mol
# GULP energy per Si atom -12402.284972 kJ/mol
# Density = 1.923363 g / cm^3
# Si number density = 19.277503 Si / 1000 Ang^3
#
#
#
# Elastic Constant Matrix: (Units=GPa)
#
#
# Indices 1 2 3 4 5 6 
#
# 1 87.9754 45.3462 37.4912 0.0000 1.3987 0.0000
# 2 45.3462 106.8073 42.4826 0.0000 -5.7416 0.0000
# 3 37.4912 42.4826 113.7719 0.0000 7.8572 0.0000
# 4 0.0000 0.0000 0.0000 30.1871 0.0000 4.5367
# 5 1.3987 -5.7416 7.8572 0.0000 31.9970 0.0000
# 6 0.0000 0.0000 0.0000 4.5367 0.0000 17.2463
#
#
#
# Elastic Compliance Matrix: (Units=1/GPa)
#
#
# Indices 1 2 3 4 5 6 
#
# 1 0.015453 -0.005413 -0.003008 0.000000 -0.000908 0.000000
# 2 -0.005413 0.013189 -0.003378 0.000000 0.003433 0.000000
# 3 -0.003008 -0.003378 0.011266 0.000000 -0.003241 0.000000
# 4 0.000000 0.000000 0.000000 0.034490 0.000000 -0.009073
# 5 -0.000908 0.003433 -0.003241 0.000000 0.032705 0.000000
# 6 0.000000 0.000000 0.000000 -0.009073 0.000000 0.060370
#
#
# Mechanical properties :
#
#
# Convention : Reuss Voigt Hill
#
# Bulk Modulus (GPa) = 61.31457 62.13275 61.72366
# Shear Modulus (GPa) = 25.44411 28.10171 26.77291
#
# Velocity S-wave (km/s) = 3.63696 3.82219 3.73073
# Velocity P-wave (km/s) = 7.03648 7.19580 7.11658
#
# Compressibility (1/GPa) = 0.01630934
#
# Stress axis : x y z
#
# Youngs Moduli (GPa) = 64.71037 75.82051 88.76205
#
# Poissons Ratio (x) = 0.41043 0.26703
# Poissons Ratio (y) = 0.35029 0.29984
# Poissons Ratio (z) = 0.19467 0.25613
#
# Static dielectric constant tensor:
#      x y z
#    x 3.380750 0.000000 0.084560 
#    y 0.000000 3.558360 0.000000 
#    z 0.084560 0.000000 3.386220 
# 
# 
# High freq. dielectric constant tensor:
#      x y z
#    x 1.726760 0.000000 0.010110 
#    y 0.000000 1.754690 0.000000 
#    z 0.010110 0.000000 1.760260 
# 
# From -- ./inp_files/167231.got.cif
#   From: 2010.06.25/outbox.cif.g09.slc.cpg/sg12_84_cif.got.tgz:167231.got - 2010.06.28 00:19:55.
