data_PCOD8102449
_publ_section_title
;
Structure prediction by ZEFSAII (Michael W. Deem and Ramdas Pophale) SiO2 
 PCOD8102449
Probable space group: C 2/M
;
_chemical_formula_sum "Si O2"
_cell_formula_units_Z 48
_cell_length_a 11.745898
_cell_length_b 29.663602
_cell_length_c 8.760822
_cell_angle_alpha 90.000000
_cell_angle_beta 56.925362
_cell_angle_gamma 90.000000
_cell_volume 2557.869865
_symmetry_space_group_name_H-M "C 2/M"
_symmetry_group_IT_number 12
_symmetry_cell_setting 'monoclinic'
loop_
_space_group_symop_operation_xyz
x,y,z
-x,y,-z
-x,-y,-z
x,-y,z
1/2+x,1/2+y,z
1/2-x,1/2+y,-z
1/2-x,1/2-y,-z
1/2+x,1/2-y,z
loop_
_atom_site_type_symbol
_atom_site_label
_atom_site_fract_x
_atom_site_fract_y
_atom_site_fract_z
Si Si1 0.791846 0.153864 0.584258
Si Si2 0.948074 0.871745 0.750446
Si Si3 0.344767 0.887138 0.594766
Si Si4 0.847913 0.277912 0.115455
Si Si5 0.280921 0.318031 0.092690
Si Si6 0.403512 0.550408 0.215264
O O1 0.829592 0.125103 0.709836
O O2 0.683142 0.126862 0.560758
O O3 0.730222 0.201511 0.681614
O O4 0.931282 0.162619 0.388539
O O5 0.017243 0.920712 0.714913
O O6 0.895035 0.853461 0.951952
O O7 0.500000 0.903648 0.500000
O O8 0.322555 0.844102 0.721233
O O9 0.242765 0.927412 0.717043
O O10 0.843867 0.223884 0.139380
O O11 0.787842 0.296132 0.002975
O O12 0.000000 0.295673 0.000000
O O13 0.377843 0.500000 0.296848
O O14 0.500000 0.548622 0.000000
#
# Coordination Sequence:
#
# PCOD8102449 Si02
#       6
#     8   8   8   8   8   8
#     4   9  20  35  54  81 112 148 188 234 282 322
#     4   9  18  38  58  80 112 146 189 236 282 332
#     4  11  22  37  57  84 115 150 182 232 289 340
#     4  10  21  35  51  76 109 152 193 235 270 332
#     4  10  21  36  53  77 108 151 192 229 281 327
#     4  10  20  36  64  91 109 143 190 234 280 342
#
# _framework density 18.765612999999998
#
# number of rings (size 3 to 8) (size 9 to 14) (size 15 to 20)
#    0.000    2.167    1.667    1.000    4.667    1.000 
#    9.000    6.667    0.000    0.000    0.000    2.333 
#    0.000    0.000    0.000    0.000    0.000    0.000 
#
# Total GULP energy -297480.843899 kJ/mol
# GULP energy per Si atom -12395.035162 kJ/mol
# Density = 1.872290 g / cm^3
# Si number density = 18.765613 Si / 1000 Ang^3
#
#
#
# Elastic Constant Matrix: (Units=GPa)
#
#
# Indices 1 2 3 4 5 6 
#
# 1 99.7741 42.9791 37.1039 0.0000 -15.3742 0.0000
# 2 42.9791 123.3528 47.5070 0.0000 -10.3561 0.0000
# 3 37.1039 47.5070 86.2621 0.0000 -10.4972 0.0000
# 4 0.0000 0.0000 0.0000 18.4683 0.0000 -2.3660
# 5 -15.3742 -10.3561 -10.4972 0.0000 22.6359 0.0000
# 6 0.0000 0.0000 0.0000 -2.3660 0.0000 13.4031
#
#
#
# Elastic Compliance Matrix: (Units=1/GPa)
#
#
# Indices 1 2 3 4 5 6 
#
# 1 0.013505 -0.002838 -0.003484 0.000000 0.006258 0.000000
# 2 -0.002838 0.010990 -0.004721 0.000000 0.000911 0.000000
# 3 -0.003484 -0.004721 0.016046 0.000000 0.002915 0.000000
# 4 0.000000 0.000000 0.000000 0.055400 0.000000 0.009780
# 5 0.006258 0.000911 0.002915 0.000000 0.050197 0.000000
# 6 0.000000 0.000000 0.000000 0.009780 0.000000 0.076336
#
#
# Mechanical properties :
#
#
# Convention : Reuss Voigt Hill
#
# Bulk Modulus (GPa) = 54.18736 62.72990 58.45863
# Shear Modulus (GPa) = 19.94310 23.02140 21.48225
#
# Velocity S-wave (km/s) = 3.26352 3.50635 3.38711
# Velocity P-wave (km/s) = 6.56805 7.06352 6.82029
#
# Compressibility (1/GPa) = 0.01845449
#
# Stress axis : x y z
#
# Youngs Moduli (GPa) = 74.04461 90.98794 62.32069
#
# Poissons Ratio (x) = 0.25824 0.21715
# Poissons Ratio (y) = 0.21016 0.29422
# Poissons Ratio (z) = 0.25800 0.42956
#
# Static dielectric constant tensor:
#      x y z
#    x 3.471640 0.000000 0.021650 
#    y 0.000000 3.524920 0.000000 
#    z 0.021650 0.000000 3.546740 
# 
# 
# High freq. dielectric constant tensor:
#      x y z
#    x 1.730710 0.000000 0.002470 
#    y 0.000000 1.706070 0.000000 
#    z 0.002470 0.000000 1.730050 
# 
# From -- ./inp_files/52446.got.cif
#   From: 2010.06.25/outbox.cif.g09.slc.cpg/sg12_27_cif.got.tgz:52446.got - 2010.06.28 00:19:55.
