data_PCOD8102527
_publ_section_title
;
Structure prediction by ZEFSAII (Michael W. Deem and Ramdas Pophale) SiO2 
 PCOD8102527
Probable space group: C 2/M
;
_chemical_formula_sum "Si O2"
_cell_formula_units_Z 56
_cell_length_a 28.458900
_cell_length_b 8.888898
_cell_length_c 14.352545
_cell_angle_alpha 90.000000
_cell_angle_beta 59.460109
_cell_angle_gamma 90.000000
_cell_volume 3127.066288
_symmetry_space_group_name_H-M "C 2/M"
_symmetry_group_IT_number 12
_symmetry_cell_setting 'monoclinic'
loop_
_space_group_symop_operation_xyz
x,y,z
-x,y,-z
-x,-y,-z
x,-y,z
1/2+x,1/2+y,z
1/2-x,1/2+y,-z
1/2-x,1/2-y,-z
1/2+x,1/2-y,z
loop_
_atom_site_type_symbol
_atom_site_label
_atom_site_fract_x
_atom_site_fract_y
_atom_site_fract_z
Si Si1 0.910715 0.829448 0.843062
Si Si2 0.848776 0.676834 0.062809
Si Si3 0.374476 0.176270 0.703831
Si Si4 0.745142 0.823783 0.106315
Si Si5 0.443887 0.821996 0.101678
Si Si6 0.947576 0.821596 0.492280
Si Si7 0.034890 0.169911 0.735477
O O1 0.912264 0.770635 0.736291
O O2 0.971046 0.822662 0.823226
O O3 0.887999 0.000000 0.870215
O O4 0.871729 0.716841 0.937915
O O5 0.839429 0.500000 0.079181
O O6 0.790897 0.759979 0.131092
O O7 0.891519 0.736762 0.096689
O O8 0.311622 0.215617 0.786549
O O9 0.393454 0.236294 0.583810
O O10 0.385983 0.000000 0.702115
O O11 0.752989 0.000000 0.085031
O O12 0.750000 0.750000 0.000000
O O13 0.435201 0.768863 0.216472
O O14 0.445780 0.000000 0.097175
O O15 0.500000 0.757423 0.000000
O O16 0.953933 0.767466 0.379118
O O17 0.000000 0.771165 0.500000
O O18 0.939646 0.000000 0.506206
O O19 0.056538 0.000000 0.721845
#
# Coordination Sequence:
#
# PCOD8102527 Si02
#       7
#     8   8   8   8   8   8   8
#     4  11  20  32  53  80 113 149 181 221 269 321
#     4  11  22  36  54  80 112 147 187 224 270 330
#     4  11  23  36  53  81 112 145 184 225 271 328
#     4  11  23  37  55  80 112 146 183 227 276 326
#     4  10  21  36  54  79 113 147 178 225 278 324
#     4  10  20  37  56  79 112 146 182 224 272 326
#     4  10  21  35  54  81 111 147 186 222 266 328
#
# _framework density 17.908158
#
# number of rings (size 3 to 8) (size 9 to 14) (size 15 to 20)
#    0.000    1.429    4.286    1.714    0.000    4.571 
#    0.000    0.000    0.000    0.857    0.000    0.000 
#    0.000    0.000    0.000    0.000    0.000    0.000 
#
# Total GULP energy -347230.914951 kJ/mol
# GULP energy per Si atom -12401.104105 kJ/mol
# Density = 1.786740 g / cm^3
# Si number density = 17.908158 Si / 1000 Ang^3
#
#
#
# Elastic Constant Matrix: (Units=GPa)
#
#
# Indices 1 2 3 4 5 6 
#
# 1 110.8370 40.3966 48.8883 0.0000 4.7545 0.0000
# 2 40.3966 55.3258 30.8287 0.0000 -4.6145 0.0000
# 3 48.8883 30.8287 105.2600 0.0000 1.2715 0.0000
# 4 0.0000 0.0000 0.0000 32.2712 0.0000 1.3014
# 5 4.7545 -4.6145 1.2715 0.0000 27.8977 0.0000
# 6 0.0000 0.0000 0.0000 1.3014 0.0000 28.2053
#
#
#
# Elastic Compliance Matrix: (Units=1/GPa)
#
#
# Indices 1 2 3 4 5 6 
#
# 1 0.013954 -0.008243 -0.004024 0.000000 -0.003558 0.000000
# 2 -0.008243 0.026894 -0.004121 0.000000 0.006041 0.000000
# 3 -0.004024 -0.004121 0.012583 0.000000 -0.000569 0.000000
# 4 0.000000 0.000000 0.000000 0.031045 0.000000 -0.001432
# 5 -0.003558 0.006041 -0.000569 0.000000 0.037477 0.000000
# 6 0.000000 0.000000 0.000000 -0.001432 0.000000 0.035520
#
#
# Mechanical properties :
#
#
# Convention : Reuss Voigt Hill
#
# Bulk Modulus (GPa) = 48.41510 56.85001 52.63255
# Shear Modulus (GPa) = 25.36335 27.76212 26.56273
#
# Velocity S-wave (km/s) = 3.76746 3.94159 3.85551
# Velocity P-wave (km/s) = 6.78372 7.24770 7.01954
#
# Compressibility (1/GPa) = 0.02065471
#
# Stress axis : x y z
#
# Youngs Moduli (GPa) = 71.66321 37.18307 79.47254
#
# Poissons Ratio (x) = 0.30652 0.31977
# Poissons Ratio (y) = 0.59075 0.32751
# Poissons Ratio (z) = 0.28835 0.15323
#
# Static dielectric constant tensor:
#      x y z
#    x 3.387510 0.000000 -0.036930 
#    y 0.000000 3.255320 0.000000 
#    z -0.036930 0.000000 3.243830 
# 
# 
# High freq. dielectric constant tensor:
#      x y z
#    x 1.682240 0.000000 -0.000580 
#    y 0.000000 1.695990 0.000000 
#    z -0.000580 0.000000 1.681470 
# 
# From -- ./inp_files/243699.got.cif
#   From: 2010.06.25/outbox.cif.g09.slc.cpg/sg12_122_cif.got.tgz:243699.got - 2010.06.28 00:19:55.
