data_PCOD8102727
_publ_section_title
;
Structure prediction by ZEFSAII (Michael W. Deem and Ramdas Pophale) SiO2 
 PCOD8102727
Probable space group: C 2/M
;
_chemical_formula_sum "Si O2"
_cell_formula_units_Z 64
_cell_length_a 9.245406
_cell_length_b 18.237915
_cell_length_c 20.807657
_cell_angle_alpha 90.000000
_cell_angle_beta 115.411378
_cell_angle_gamma 90.000000
_cell_volume 3169.073932
_symmetry_space_group_name_H-M "C 2/M"
_symmetry_group_IT_number 12
_symmetry_cell_setting 'monoclinic'
loop_
_space_group_symop_operation_xyz
x,y,z
-x,y,-z
-x,-y,-z
x,-y,z
1/2+x,1/2+y,z
1/2-x,1/2+y,-z
1/2-x,1/2-y,-z
1/2+x,1/2-y,z
loop_
_atom_site_type_symbol
_atom_site_label
_atom_site_fract_x
_atom_site_fract_y
_atom_site_fract_z
Si Si1 0.159969 0.845496 0.702913
Si Si2 0.310993 0.808277 0.460263
Si Si3 0.059473 0.919206 0.439579
Si Si4 0.047988 0.173354 0.151611
Si Si5 0.824627 0.913817 0.936900
Si Si6 0.529174 0.173289 0.931770
Si Si7 0.627421 0.269616 0.298825
Si Si8 0.771901 0.084013 0.155804
O O1 0.332724 0.813877 0.714630
O O2 0.176969 0.907403 0.760093
O O3 0.073893 0.876348 0.624718
O O4 0.053079 0.776822 0.708877
O O5 0.500000 0.813575 0.500000
O O6 0.250000 0.750000 0.500000
O O7 0.235342 0.885253 0.466856
O O8 0.258192 0.792187 0.377107
O O9 0.000000 0.917918 0.500000
O O10 0.073412 0.000000 0.414001
O O11 0.882692 0.129693 0.128842
O O12 0.168303 0.125239 0.131280
O O13 0.139873 0.180538 0.237124
O O14 0.999320 0.252798 0.114252
O O15 0.702912 0.864466 0.955869
O O16 0.773118 0.000000 0.922306
O O17 0.000000 0.906658 0.000000
O O18 0.408279 0.110945 0.885529
O O19 0.500000 0.194375 0.000000
O O20 0.784859 0.000000 0.137668
#
# Coordination Sequence:
#
# PCOD8102727 Si02
#       8
#     8   8   8   8   8   8   8   8
#     4  10  20  37  58  87 120 159 202 256 304 368
#     4  11  21  37  61  92 124 161 210 260 306 372
#     4  10  21  37  58  85 121 165 208 254 311 370
#     4  11  23  41  63  92 123 161 206 257 310 371
#     4  11  25  44  65  90 127 167 203 252 314 376
#     4  12  25  42  65  92 120 156 207 257 303 366
#     4  10  21  35  60  90 120 159 201 257 310 358
#     4  11  23  39  61  89 122 160 201 252 309 369
#
# _framework density 20.195174000000002
#
# number of rings (size 3 to 8) (size 9 to 14) (size 15 to 20)
#    0.000    1.250    1.250    5.625    1.750    3.750 
#    0.000    0.625    0.000    1.500    0.000    0.000 
#    0.000    0.000    0.000    0.000    0.000    0.000 
#
# Total GULP energy -396728.489427 kJ/mol
# GULP energy per Si atom -12397.765295 kJ/mol
# Density = 2.014921 g / cm^3
# Si number density = 20.195174 Si / 1000 Ang^3
#
#
#
# Elastic Constant Matrix: (Units=GPa)
#
#
# Indices 1 2 3 4 5 6 
#
# 1 98.4769 55.1396 40.1711 0.0000 -2.4113 0.0000
# 2 55.1396 133.5134 41.7716 0.0000 -9.5114 0.0000
# 3 40.1711 41.7716 103.6603 0.0000 -6.1285 0.0000
# 4 0.0000 0.0000 0.0000 19.0883 0.0000 -0.1600
# 5 -2.4113 -9.5114 -6.1285 0.0000 30.5757 0.0000
# 6 0.0000 0.0000 0.0000 -0.1600 0.0000 34.5164
#
#
#
# Elastic Compliance Matrix: (Units=1/GPa)
#
#
# Indices 1 2 3 4 5 6 
#
# 1 0.014342 -0.004855 -0.003667 0.000000 -0.001114 0.000000
# 2 -0.004855 0.010336 -0.002142 0.000000 0.002403 0.000000
# 3 -0.003667 -0.002142 0.012017 0.000000 0.001453 0.000000
# 4 0.000000 0.000000 0.000000 0.052390 0.000000 0.000243
# 5 -0.001114 0.002403 0.001453 0.000000 0.033657 0.000000
# 6 0.000000 0.000000 0.000000 0.000243 0.000000 0.028973
#
#
# Mechanical properties :
#
#
# Convention : Reuss Voigt Hill
#
# Bulk Modulus (GPa) = 65.07398 67.75724 66.41561
# Shear Modulus (GPa) = 28.06386 30.07395 29.06891
#
# Velocity S-wave (km/s) = 3.73182 3.86316 3.79806
# Velocity P-wave (km/s) = 7.13170 7.31592 7.22440
#
# Compressibility (1/GPa) = 0.01536713
#
# Stress axis : x y z
#
# Youngs Moduli (GPa) = 69.72622 96.74737 83.21554
#
# Poissons Ratio (x) = 0.46971 0.30518
# Poissons Ratio (y) = 0.33852 0.17821
# Poissons Ratio (z) = 0.25571 0.20719
#
# Static dielectric constant tensor:
#      x y z
#    x 3.850790 0.000000 -0.122080 
#    y 0.000000 3.864390 0.000000 
#    z -0.122080 0.000000 3.835310 
# 
# 
# High freq. dielectric constant tensor:
#      x y z
#    x 1.792660 0.000000 -0.009810 
#    y 0.000000 1.783600 0.000000 
#    z -0.009810 0.000000 1.804220 
# 
# From -- ./inp_files/301746.got.cif
#   From: 2010.06.25/outbox.cif.g09.slc.cpg/sg12_151_cif.got.tgz:301746.got - 2010.06.28 00:19:55.
