data_PCOD8102445
_publ_section_title
;
Structure prediction by ZEFSAII (Michael W. Deem and Ramdas Pophale) SiO2 
 PCOD8102445
Probable space group: C 2/M
;
_chemical_formula_sum "Si O2"
_cell_formula_units_Z 48
_cell_length_a 11.530197
_cell_length_b 26.798576
_cell_length_c 14.320227
_cell_angle_alpha 90.000000
_cell_angle_beta 29.048383
_cell_angle_gamma 90.000000
_cell_volume 2148.476110
_symmetry_space_group_name_H-M "C 2/M"
_symmetry_group_IT_number 12
_symmetry_cell_setting 'monoclinic'
loop_
_space_group_symop_operation_xyz
x,y,z
-x,y,-z
-x,-y,-z
x,-y,z
1/2+x,1/2+y,z
1/2-x,1/2+y,-z
1/2-x,1/2-y,-z
1/2+x,1/2-y,z
loop_
_atom_site_type_symbol
_atom_site_label
_atom_site_fract_x
_atom_site_fract_y
_atom_site_fract_z
Si Si1 0.149753 0.697483 0.604520
Si Si2 0.244062 0.641980 0.224548
Si Si3 0.446072 0.366061 0.272531
Si Si4 0.010825 0.345799 0.094886
Si Si5 0.883106 0.555944 0.445333
Si Si6 0.718997 0.054717 0.697029
O O1 0.250000 0.750000 0.500000
O O2 0.356285 0.658417 0.432367
O O3 0.899860 0.685171 0.728600
O O4 0.109550 0.691644 0.744764
O O5 0.291913 0.659183 0.297410
O O6 0.098573 0.590247 0.329695
O O7 0.500000 0.630968 0.000000
O O8 0.372830 0.424418 0.333712
O O9 0.721960 0.357246 0.059558
O O10 0.881711 0.399146 0.172733
O O11 0.000000 0.319790 0.000000
O O12 0.921169 0.500000 0.455113
O O13 0.886803 0.559020 0.331554
O O14 0.000000 0.059663 0.500000
O O15 0.647323 0.000000 0.789260
#
# Coordination Sequence:
#
# PCOD8102445 Si02
#       6
#     8   8   8   8   8   8
#     4  11  25  48  71  98 133 176 229 287 354 414
#     4  11  21  44  71  97 138 181 229 285 355 415
#     4  11  23  44  69  98 138 182 224 285 351 412
#     4  12  25  43  71 103 140 181 232 288 341 408
#     4  10  20  36  64 102 141 184 234 280 336 410
#     4  10  20  38  64  95 140 191 231 273 333 405
#
# _framework density 22.341418000000001
#
# number of rings (size 3 to 8) (size 9 to 14) (size 15 to 20)
#    0.000    1.167    5.000    3.000    0.000    3.333 
#    6.000    0.000    0.000    0.000    0.000    0.000 
#    0.000    0.000    0.000    0.000    0.000    0.000 
#
# Total GULP energy -297478.623728 kJ/mol
# GULP energy per Si atom -12394.942655 kJ/mol
# Density = 2.229057 g / cm^3
# Si number density = 22.341418 Si / 1000 Ang^3
#
#
#
# Elastic Constant Matrix: (Units=GPa)
#
#
# Indices 1 2 3 4 5 6 
#
# 1 104.5347 48.5228 33.4156 0.0029 15.7350 -0.0023
# 2 48.5228 129.2135 65.4815 -0.0002 -1.7884 0.0000
# 3 33.4156 65.4815 120.2494 0.0026 4.2923 -0.0020
# 4 0.0029 -0.0002 0.0026 28.5759 -0.0020 0.9106
# 5 15.7350 -1.7884 4.2923 -0.0020 44.8920 0.0016
# 6 -0.0023 0.0000 -0.0020 0.9106 0.0016 19.7130
#
#
#
# Elastic Compliance Matrix: (Units=1/GPa)
#
#
# Indices 1 2 3 4 5 6 
#
# 1 0.012538 -0.004261 -0.001004 -0.000002 -0.004468 0.000002
# 2 -0.004261 0.012181 -0.005538 0.000001 0.002508 -0.000001
# 3 -0.001004 -0.005538 0.011646 -0.000001 -0.000982 0.000001
# 4 -0.000002 0.000001 -0.000001 0.035046 0.000002 -0.001619
# 5 -0.004468 0.002508 -0.000982 0.000002 0.024036 -0.000003
# 6 0.000002 -0.000001 0.000001 -0.001619 -0.000003 0.050803
#
#
# Mechanical properties :
#
#
# Convention : Reuss Voigt Hill
#
# Bulk Modulus (GPa) = 67.76417 72.09306 69.92862
# Shear Modulus (GPa) = 28.93929 32.40802 30.67366
#
# Velocity S-wave (km/s) = 3.60296 3.81278 3.70935
# Velocity P-wave (km/s) = 6.90691 7.19179 7.05079
#
# Compressibility (1/GPa) = 0.01475706
#
# Stress axis : x y z
#
# Youngs Moduli (GPa) = 79.75920 82.09691 85.86589
#
# Poissons Ratio (x) = 0.34983 0.08622
# Poissons Ratio (y) = 0.33987 0.47556
# Poissons Ratio (z) = 0.08009 0.45469
#
# Static dielectric constant tensor:
#      x y z
#    x 4.290660 0.000000 0.114130 
#    y 0.000000 4.068710 0.000000 
#    z 0.114130 0.000000 4.109240 
# 
# 
# High freq. dielectric constant tensor:
#      x y z
#    x 1.892660 0.000000 0.003010 
#    y 0.000000 1.858120 0.000000 
#    z 0.003010 0.000000 1.884100 
# 
# From -- ./inp_files/209300.got.cif
#   From: 2010.06.25/outbox.cif.g09.slc.cpg/sg12_105_cif.got.tgz:209300.got - 2010.06.28 00:19:55.
