data_PCOD8102218
_publ_section_title
;
Structure prediction by ZEFSAII (Michael W. Deem and Ramdas Pophale) SiO2 
 PCOD8102218
Probable space group: C 2/M
;
_chemical_formula_sum "Si O2"
_cell_formula_units_Z 56
_cell_length_a 30.321342
_cell_length_b 13.558161
_cell_length_c 7.420296
_cell_angle_alpha 90.000000
_cell_angle_beta 72.818260
_cell_angle_gamma 90.000000
_cell_volume 2914.359994
_symmetry_space_group_name_H-M "C 2/M"
_symmetry_group_IT_number 12
_symmetry_cell_setting 'monoclinic'
loop_
_space_group_symop_operation_xyz
x,y,z
-x,y,-z
-x,-y,-z
x,-y,z
1/2+x,1/2+y,z
1/2-x,1/2+y,-z
1/2-x,1/2-y,-z
1/2+x,1/2-y,z
loop_
_atom_site_type_symbol
_atom_site_label
_atom_site_fract_x
_atom_site_fract_y
_atom_site_fract_z
Si Si1 0.667923 0.385796 0.560309
Si Si2 0.510766 0.390748 0.196539
Si Si3 0.554231 0.887664 0.404085
Si Si4 0.913661 0.741948 0.942674
Si Si5 0.191372 0.779048 0.889795
Si Si6 0.075829 0.231391 0.658317
Si Si7 0.237855 0.113376 0.154963
O O1 0.663159 0.500000 0.618923
O O2 0.691741 0.327982 0.694036
O O3 0.617388 0.344290 0.582262
O O4 0.698343 0.368842 0.348390
O O5 0.513255 0.500000 0.279609
O O6 0.559950 0.338101 0.166733
O O7 0.470680 0.327069 0.339499
O O8 0.500000 0.399094 0.000000
O O9 0.500000 0.876371 0.500000
O O10 0.568424 0.853612 0.186267
O O11 0.581958 0.823164 0.516891
O O12 0.570241 0.000000 0.408666
O O13 0.859847 0.760161 0.974720
O O14 0.925855 0.725333 0.137407
O O15 0.216746 0.674118 0.846169
O O16 0.218587 0.853036 0.986165
O O17 0.252932 0.000000 0.125808
#
# Coordination Sequence:
#
# PCOD8102218 Si02
#       7
#     8   8   8   8   8   8   8
#     4  10  20  36  61  88 116 148 185 231 286 344
#     4   9  17  31  53  81 113 145 177 219 274 330
#     4  11  23  38  56  77 108 151 197 238 276 321
#     4  10  21  37  57  82 113 147 188 235 279 334
#     4  10  21  37  59  83 115 152 188 234 288 340
#     4  10  20  37  58  84 117 148 186 231 279 334
#     4  10  21  37  57  83 115 150 192 237 285 340
#
# _framework density 19.215195999999999
#
# number of rings (size 3 to 8) (size 9 to 14) (size 15 to 20)
#    0.000    2.000    1.429    2.143    0.000    5.143 
#    0.000    5.714    0.000    6.000    0.000    0.000 
#    0.000    0.000    0.000    0.000    0.000    0.000 
#
# Total GULP energy -347310.196481 kJ/mol
# GULP energy per Si atom -12403.935589 kJ/mol
# Density = 1.917146 g / cm^3
# Si number density = 19.215196 Si / 1000 Ang^3
#
#
#
# Elastic Constant Matrix: (Units=GPa)
#
#
# Indices 1 2 3 4 5 6 
#
# 1 73.9311 42.5133 22.0967 0.0000 -16.0819 0.0000
# 2 42.5133 137.7207 51.9099 0.0000 -6.5388 0.0000
# 3 22.0967 51.9099 71.4497 0.0000 -6.5815 0.0000
# 4 0.0000 0.0000 0.0000 27.6128 0.0000 0.3345
# 5 -16.0819 -6.5388 -6.5815 0.0000 24.9558 0.0000
# 6 0.0000 0.0000 0.0000 0.3345 0.0000 28.9966
#
#
#
# Elastic Compliance Matrix: (Units=1/GPa)
#
#
# Indices 1 2 3 4 5 6 
#
# 1 0.019043 -0.004852 -0.001385 0.000000 0.010635 0.000000
# 2 -0.004852 0.011248 -0.006855 0.000000 -0.001987 0.000000
# 3 -0.001385 -0.006855 0.019633 0.000000 0.002489 0.000000
# 4 0.000000 0.000000 0.000000 0.036220 0.000000 -0.000418
# 5 0.010635 -0.001987 0.002489 0.000000 0.047060 0.000000
# 6 0.000000 0.000000 0.000000 -0.000418 0.000000 0.034492
#
#
# Mechanical properties :
#
#
# Convention : Reuss Voigt Hill
#
# Bulk Modulus (GPa) = 42.11828 57.34905 49.73366
# Shear Modulus (GPa) = 24.77785 27.41851 26.09818
#
# Velocity S-wave (km/s) = 3.59485 3.78155 3.68938
# Velocity P-wave (km/s) = 6.26078 6.99838 6.63983
#
# Compressibility (1/GPa) = 0.02374266
#
# Stress axis : x y z
#
# Youngs Moduli (GPa) = 52.51176 88.90474 50.93344
#
# Poissons Ratio (x) = 0.43133 0.07054
# Poissons Ratio (y) = 0.25476 0.34913
# Poissons Ratio (z) = 0.07273 0.60940
#
# Static dielectric constant tensor:
#      x y z
#    x 3.441380 0.000000 -0.030970 
#    y 0.000000 3.606850 0.000000 
#    z -0.030970 0.000000 3.563890 
# 
# 
# High freq. dielectric constant tensor:
#      x y z
#    x 1.744430 0.000000 -0.001450 
#    y 0.000000 1.747810 0.000000 
#    z -0.001450 0.000000 1.755460 
# 
# From -- ./inp_files/110361.got.cif
#   From: 2010.06.25/outbox.cif.g09.slc.cpg/sg12_56_cif.got.tgz:110361.got - 2010.06.28 00:19:55.
