data_PCOD8102970
_publ_section_title
;
Structure prediction by ZEFSAII (Michael W. Deem and Ramdas Pophale) SiO2 
 PCOD8102970
Probable space group: C 2/M
;
_chemical_formula_sum "Si O2"
_cell_formula_units_Z 56
_cell_length_a 20.103631
_cell_length_b 9.071206
_cell_length_c 17.383957
_cell_angle_alpha 90.000000
_cell_angle_beta 63.617846
_cell_angle_gamma 90.000000
_cell_volume 2840.034212
_symmetry_space_group_name_H-M "C 2/M"
_symmetry_group_IT_number 12
_symmetry_cell_setting 'monoclinic'
loop_
_space_group_symop_operation_xyz
x,y,z
-x,y,-z
-x,-y,-z
x,-y,z
1/2+x,1/2+y,z
1/2-x,1/2+y,-z
1/2-x,1/2-y,-z
1/2+x,1/2-y,z
loop_
_atom_site_type_symbol
_atom_site_label
_atom_site_fract_x
_atom_site_fract_y
_atom_site_fract_z
Si Si1 0.324075 0.671680 0.935092
Si Si2 0.583154 0.670818 0.964423
Si Si3 0.327387 0.329351 0.661313
Si Si4 0.674465 0.327993 0.515288
Si Si5 0.900261 0.671449 0.757463
Si Si6 0.160759 0.327398 0.787968
Si Si7 0.072241 0.671180 0.684595
O O1 0.307256 0.500000 0.931864
O O2 0.348353 0.739377 0.841993
O O3 0.250000 0.750000 0.000000
O O4 0.389043 0.698548 0.963489
O O5 0.583447 0.500000 0.942104
O O6 0.638712 0.750396 0.878150
O O7 0.500000 0.736181 0.000000
O O8 0.340409 0.500000 0.674999
O O9 0.343470 0.297599 0.564213
O O10 0.384328 0.229630 0.680024
O O11 0.243808 0.280771 0.723891
O O12 0.684166 0.500000 0.526958
O O13 0.750000 0.250000 0.500000
O O14 0.605564 0.265169 0.598115
O O15 0.880412 0.500000 0.773491
O O16 0.985290 0.701642 0.734117
O O17 0.153196 0.500000 0.804870
O O18 0.107278 0.274443 0.746718
O O19 0.091033 0.500000 0.660189
#
# Coordination Sequence:
#
# PCOD8102970 Si02
#       7
#     8   8   8   8   8   8   8
#     4  11  23  40  62  86 119 159 201 247 299 361
#     4  10  22  38  56  83 116 148 190 244 295 346
#     4  10  22  40  61  86 120 156 195 244 296 357
#     4  11  22  39  64  92 121 157 199 246 299 356
#     4  11  24  40  61  89 122 159 200 249 302 355
#     4  10  20  37  60  84 113 152 196 241 291 349
#     4  10  22  41  61  87 124 160 199 247 300 358
#
# _framework density 19.718071999999999
#
# number of rings (size 3 to 8) (size 9 to 14) (size 15 to 20)
#    0.000    1.571    1.429    3.000    0.000    7.714 
#    0.000    2.857    0.000    0.000    0.000    0.000 
#    0.000    0.000    0.000    0.000    0.000    0.000 
#
# Total GULP energy -347389.455703 kJ/mol
# GULP energy per Si atom -12406.766275 kJ/mol
# Density = 1.967319 g / cm^3
# Si number density = 19.718072 Si / 1000 Ang^3
#
#
#
# Elastic Constant Matrix: (Units=GPa)
#
#
# Indices 1 2 3 4 5 6 
#
# 1 79.4415 34.0551 5.8189 0.0000 11.3078 0.0000
# 2 34.0551 81.6517 45.2213 0.0000 4.3888 0.0001
# 3 5.8189 45.2213 94.1429 0.0000 5.9617 0.0000
# 4 0.0000 0.0000 0.0000 39.4925 0.0000 0.6676
# 5 11.3078 4.3888 5.9617 0.0000 28.8695 0.0000
# 6 0.0000 0.0001 0.0000 0.6676 0.0000 33.0702
#
#
#
# Elastic Compliance Matrix: (Units=1/GPa)
#
#
# Indices 1 2 3 4 5 6 
#
# 1 0.016903 -0.008664 0.003498 0.000000 -0.006026 0.000000
# 2 -0.008664 0.021149 -0.009763 0.000000 0.002194 0.000000
# 3 0.003498 -0.009763 0.015288 0.000000 -0.003043 0.000000
# 4 0.000000 0.000000 0.000000 0.025330 0.000000 -0.000511
# 5 -0.006026 0.002194 -0.003043 0.000000 0.037294 0.000000
# 6 0.000000 0.000000 0.000000 -0.000511 0.000000 0.030249
#
#
# Mechanical properties :
#
#
# Convention : Reuss Voigt Hill
#
# Bulk Modulus (GPa) = 42.57989 47.26964 44.92477
# Shear Modulus (GPa) = 27.18905 31.62915 29.40910
#
# Velocity S-wave (km/s) = 3.71737 4.00943 3.86616
# Velocity P-wave (km/s) = 6.32980 6.74231 6.53931
#
# Compressibility (1/GPa) = 0.02348526
#
# Stress axis : x y z
#
# Youngs Moduli (GPa) = 59.15992 47.28264 65.41058
#
# Poissons Ratio (x) = 0.40964 -0.22883
# Poissons Ratio (y) = 0.51254 0.63857
# Poissons Ratio (z) = -0.20696 0.46160
#
# Static dielectric constant tensor:
#      x y z
#    x 3.747250 0.000000 0.074910 
#    y 0.000000 3.623180 0.000000 
#    z 0.074910 0.000000 3.700180 
# 
# 
# High freq. dielectric constant tensor:
#      x y z
#    x 1.779840 0.000000 0.004200 
#    y 0.000000 1.768660 0.000000 
#    z 0.004200 0.000000 1.777090 
# 
# From -- ./inp_files/280953.got.cif
#   From: 2010.06.25/outbox.cif.g09.slc.cpg/sg12_141_cif.got.tgz:280953.got - 2010.06.28 00:19:55.
