data_PCOD8102504
_publ_section_title
;
Structure prediction by ZEFSAII (Michael W. Deem and Ramdas Pophale) SiO2 
 PCOD8102504
Probable space group: C 2/M
;
_chemical_formula_sum "Si O2"
_cell_formula_units_Z 56
_cell_length_a 26.882243
_cell_length_b 21.571569
_cell_length_c 5.133577
_cell_angle_alpha 90.000000
_cell_angle_beta 92.663450
_cell_angle_gamma 90.000000
_cell_volume 2973.705151
_symmetry_space_group_name_H-M "C 2/M"
_symmetry_group_IT_number 12
_symmetry_cell_setting 'monoclinic'
loop_
_space_group_symop_operation_xyz
x,y,z
-x,y,-z
-x,-y,-z
x,-y,z
1/2+x,1/2+y,z
1/2-x,1/2+y,-z
1/2-x,1/2-y,-z
1/2+x,1/2-y,z
loop_
_atom_site_type_symbol
_atom_site_label
_atom_site_fract_x
_atom_site_fract_y
_atom_site_fract_z
Si Si1 0.245745 0.431460 0.243507
Si Si2 0.706072 0.837274 0.617876
Si Si3 0.853694 0.431468 0.093450
Si Si4 0.944653 0.274316 0.514203
Si Si5 0.343964 0.714102 0.474016
Si Si6 0.444849 0.144214 0.013715
Si Si7 0.703229 0.661368 0.053219
O O1 0.261014 0.500000 0.351277
O O2 0.245841 0.377758 0.461372
O O3 0.189630 0.434384 0.128118
O O4 0.285964 0.410124 0.033702
O O5 0.681943 0.780028 0.455462
O O6 0.741101 0.811948 0.863292
O O7 0.660767 0.881406 0.691560
O O8 0.860933 0.500000 0.219741
O O9 0.904725 0.410393 0.966819
O O10 0.903577 0.220708 0.466329
O O11 0.937860 0.327410 0.297968
O O12 0.000000 0.244729 0.500000
O O13 0.936704 0.302651 0.798154
O O14 0.332078 0.665223 0.700279
O O15 0.323202 0.697282 0.186552
O O16 0.500000 0.115023 0.000000
#
# Coordination Sequence:
#
# PCOD8102504 Si02
#       7
#     8   8   8   8   8   8   8
#     4  10  22  39  56  77 114 153 189 224 268 329
#     4  11  21  35  57  77 113 151 185 226 275 327
#     4  10  21  34  52  78 105 148 200 238 275 317
#     4  10  21  37  58  80 107 146 182 221 283 341
#     4  12  22  35  58  82 116 140 179 231 276 326
#     4  10  20  37  55  76 104 142 191 238 284 323
#     4  11  24  36  54  87 110 145 182 224 274 325
#
# _framework density 18.831726
#
# number of rings (size 3 to 8) (size 9 to 14) (size 15 to 20)
#    0.000    1.429    2.857    3.000    4.000    0.857 
#    0.000    0.000    0.000    2.571    0.000    0.000 
#    0.000    3.429    0.000    0.000    0.000    0.000 
#
# Total GULP energy -347005.576059 kJ/mol
# GULP energy per Si atom -12393.056288 kJ/mol
# Density = 1.878886 g / cm^3
# Si number density = 18.831726 Si / 1000 Ang^3
#
#
#
# Elastic Constant Matrix: (Units=GPa)
#
#
# Indices 1 2 3 4 5 6 
#
# 1 137.4145 53.5599 32.6519 0.0000 -3.3406 0.0000
# 2 53.5599 57.6579 22.4703 0.0000 3.7428 0.0000
# 3 32.6519 22.4703 81.1496 0.0000 -0.8885 0.0000
# 4 0.0000 0.0000 0.0000 20.0427 0.0000 -4.3669
# 5 -3.3406 3.7428 -0.8885 0.0000 21.7834 0.0000
# 6 0.0000 0.0000 0.0000 -4.3669 0.0000 20.6562
#
#
#
# Elastic Compliance Matrix: (Units=1/GPa)
#
#
# Indices 1 2 3 4 5 6 
#
# 1 0.011931 -0.010604 -0.001825 0.000000 0.003577 0.000000
# 2 -0.010604 0.029146 -0.003878 0.000000 -0.006792 0.000000
# 3 -0.001825 -0.003878 0.014142 0.000000 0.000963 0.000000
# 4 0.000000 0.000000 0.000000 0.052303 0.000000 0.011057
# 5 0.003577 -0.006792 0.000963 0.000000 0.047661 0.000000
# 6 0.000000 0.000000 0.000000 0.011057 0.000000 0.050749
#
#
# Mechanical properties :
#
#
# Convention : Reuss Voigt Hill
#
# Bulk Modulus (GPa) = 44.23971 54.84293 49.54132
# Shear Modulus (GPa) = 20.31845 23.66579 21.99212
#
# Velocity S-wave (km/s) = 3.28830 3.54884 3.42105
# Velocity P-wave (km/s) = 6.16119 6.78072 6.47837
#
# Compressibility (1/GPa) = 0.02260413
#
# Stress axis : x y z
#
# Youngs Moduli (GPa) = 83.81537 34.30976 70.71239
#
# Poissons Ratio (x) = 0.36382 0.12907
# Poissons Ratio (y) = 0.88877 0.27425
# Poissons Ratio (z) = 0.15298 0.13306
#
# Static dielectric constant tensor:
#      x y z
#    x 3.638960 0.000000 -0.005460 
#    y 0.000000 3.367830 0.000000 
#    z -0.005460 0.000000 3.501800 
# 
# 
# High freq. dielectric constant tensor:
#      x y z
#    x 1.722790 0.000000 0.000830 
#    y 0.000000 1.693690 0.000000 
#    z 0.000830 0.000000 1.741830 
# 
# From -- ./inp_files/29053.got.cif
#   From: 2010.06.25/outbox.cif.g09.slc.cpg/sg12_15_cif.got.tgz:29053.got - 2010.06.28 00:19:55.
