data_PCOD8102500
_publ_section_title
;
Structure prediction by ZEFSAII (Michael W. Deem and Ramdas Pophale) SiO2 
 PCOD8102500
Probable space group: C 2/M
;
_chemical_formula_sum "Si O2"
_cell_formula_units_Z 48
_cell_length_a 20.588233
_cell_length_b 17.147560
_cell_length_c 21.197936
_cell_angle_alpha 90.000000
_cell_angle_beta 159.336535
_cell_angle_gamma 90.000000
_cell_volume 2640.826752
_symmetry_space_group_name_H-M "C 2/M"
_symmetry_group_IT_number 12
_symmetry_cell_setting 'monoclinic'
loop_
_space_group_symop_operation_xyz
x,y,z
-x,y,-z
-x,-y,-z
x,-y,z
1/2+x,1/2+y,z
1/2-x,1/2+y,-z
1/2-x,1/2-y,-z
1/2+x,1/2-y,z
loop_
_atom_site_type_symbol
_atom_site_label
_atom_site_fract_x
_atom_site_fract_y
_atom_site_fract_z
Si Si1 0.438915 0.412337 0.377131
Si Si2 0.665184 0.304616 0.976459
Si Si3 0.729495 0.294884 0.416260
Si Si4 0.406711 0.183906 0.980349
Si Si5 0.810390 0.634737 0.669202
Si Si6 0.499604 0.909285 0.710512
O O1 0.500000 0.376913 0.500000
O O2 0.362119 0.500000 0.314681
O O3 0.284056 0.360344 0.204488
O O4 0.625134 0.415403 0.504814
O O5 0.640578 0.258005 0.019365
O O6 0.790873 0.379955 0.101969
O O7 0.750000 0.250000 0.000000
O O8 0.469752 0.335244 0.772737
O O9 0.750000 0.250000 0.500000
O O10 0.748717 0.226449 0.382032
O O11 0.883118 0.362370 0.551406
O O12 0.500000 0.212004 0.000000
O O13 0.548185 0.124181 0.143818
O O14 0.915913 0.607943 0.702777
O O15 0.494925 0.000000 0.689719
#
# Coordination Sequence:
#
# PCOD8102500 Si02
#       6
#     8   8   8   8   8   8
#     4  11  23  34  49  77 117 154 185 224 272 329
#     4  11  20  38  59  82 111 148 192 236 278 327
#     4   9  18  33  56  75 108 145 182 232 273 328
#     4  11  22  38  58  79 108 151 197 231 270 329
#     4  10  20  37  54  79 112 148 190 226 272 331
#     4  11  22  35  57  88 117 146 184 235 290 337
#
# _framework density 18.176126
#
# number of rings (size 3 to 8) (size 9 to 14) (size 15 to 20)
#    0.000    1.500    6.667    1.500    2.333    2.333 
#    0.000    0.000    0.000    0.500    0.000    4.667 
#    0.000    0.000    0.000    0.000    0.000    0.000 
#
# Total GULP energy -297490.573806 kJ/mol
# GULP energy per Si atom -12395.440575 kJ/mol
# Density = 1.813476 g / cm^3
# Si number density = 18.176126 Si / 1000 Ang^3
#
#
#
# Elastic Constant Matrix: (Units=GPa)
#
#
# Indices 1 2 3 4 5 6 
#
# 1 71.0161 9.9002 23.2020 0.0042 2.4084 0.0004
# 2 9.9002 100.3605 52.5772 0.0099 0.8927 -0.0010
# 3 23.2020 52.5772 157.0021 0.0052 0.9141 -0.0049
# 4 0.0042 0.0099 0.0052 18.3270 0.0085 3.7048
# 5 2.4084 0.8927 0.9141 0.0085 26.0087 0.0016
# 6 0.0004 -0.0010 -0.0049 3.7048 0.0016 17.7951
#
#
#
# Elastic Compliance Matrix: (Units=1/GPa)
#
#
# Indices 1 2 3 4 5 6 
#
# 1 0.014851 -0.000373 -0.002062 -0.000002 -0.001290 0.000000
# 2 -0.000373 0.012095 -0.003994 -0.000005 -0.000240 0.000001
# 3 -0.002062 -0.003994 0.008011 0.000000 0.000046 0.000002
# 4 -0.000002 -0.000005 0.000000 0.056962 -0.000017 -0.011859
# 5 -0.001290 -0.000240 0.000046 -0.000017 0.038575 0.000000
# 6 0.000000 0.000001 0.000002 -0.011859 0.000000 0.058664
#
#
# Mechanical properties :
#
#
# Convention : Reuss Voigt Hill
#
# Bulk Modulus (GPa) = 45.25114 55.52638 50.38876
# Shear Modulus (GPa) = 23.87967 28.60610 26.24288
#
# Velocity S-wave (km/s) = 3.62856 3.97145 3.80387
# Velocity P-wave (km/s) = 6.51960 7.18647 6.86114
#
# Compressibility (1/GPa) = 0.02209889
#
# Stress axis : x y z
#
# Youngs Moduli (GPa) = 67.33626 82.67600 124.82299
#
# Poissons Ratio (x) = 0.03085 0.25741
# Poissons Ratio (y) = 0.02513 0.49854
# Poissons Ratio (z) = 0.13886 0.33021
#
# Static dielectric constant tensor:
#      x y z
#    x 3.259680 -0.000060 -0.028910 
#    y -0.000060 3.430980 -0.000260 
#    z -0.028910 -0.000260 3.920550 
# 
# 
# High freq. dielectric constant tensor:
#      x y z
#    x 1.680590 0.000000 0.001900 
#    y 0.000000 1.676670 -0.000010 
#    z 0.001900 -0.000010 1.731920 
# 
# From -- ./inp_files/322593.got.cif
#   From: 2010.06.25/outbox.cif.g09.slc.cpg/sg12_162_cif.got.tgz:322593.got - 2010.06.28 00:19:55.
