data_PCOD8102207
_publ_section_title
;
Structure prediction by ZEFSAII (Michael W. Deem and Ramdas Pophale) SiO2 
 PCOD8102207
Probable space group: C 2/M
;
_chemical_formula_sum "Si O2"
_cell_formula_units_Z 56
_cell_length_a 12.797388
_cell_length_b 18.304578
_cell_length_c 13.583700
_cell_angle_alpha 90.000000
_cell_angle_beta 128.813611
_cell_angle_gamma 90.000000
_cell_volume 2479.373770
_symmetry_space_group_name_H-M "C 2/M"
_symmetry_group_IT_number 12
_symmetry_cell_setting 'monoclinic'
loop_
_space_group_symop_operation_xyz
x,y,z
-x,y,-z
-x,-y,-z
x,-y,z
1/2+x,1/2+y,z
1/2-x,1/2+y,-z
1/2-x,1/2-y,-z
1/2+x,1/2-y,z
loop_
_atom_site_type_symbol
_atom_site_label
_atom_site_fract_x
_atom_site_fract_y
_atom_site_fract_z
Si Si1 0.134894 0.085895 0.961123
Si Si2 0.431751 0.717590 0.604199
Si Si3 0.708550 0.278692 0.673206
Si Si4 0.405980 0.084611 0.030812
Si Si5 0.264063 0.418083 0.567187
Si Si6 0.411551 0.137331 0.699286
Si Si7 0.659838 0.365658 0.193686
O O1 0.251534 0.113441 0.952824
O O2 0.183829 0.100029 0.101440
O O3 0.107944 0.000000 0.932156
O O4 0.995665 0.128702 0.861884
O O5 0.334878 0.751675 0.461597
O O6 0.578869 0.698551 0.655296
O O7 0.378187 0.639918 0.607737
O O8 0.446539 0.777729 0.698086
O O9 0.788392 0.355079 0.704318
O O10 0.797346 0.219149 0.782945
O O11 0.469459 0.095829 0.176300
O O12 0.397053 0.000000 0.000989
O O13 0.500000 0.121744 0.000000
O O14 0.315135 0.500000 0.575377
O O15 0.128203 0.405303 0.423870
O O16 0.241904 0.408318 0.671784
#
# Coordination Sequence:
#
# PCOD8102207 Si02
#       7
#     8   8   8   8   8   8   8
#     4  10  22  39  62  90 125 170 208 256 323 378
#     4  10  20  38  60  90 131 169 200 255 320 382
#     4  10  20  36  61  87 124 167 209 248 319 373
#     4  10  23  44  64  85 124 174 219 263 315 378
#     4  11  21  36  64  98 128 162 206 259 319 377
#     4  11  20  41  60  91 124 161 209 262 315 370
#     4  11  19  38  62  96 126 162 205 263 311 383
#
# _framework density 22.586348999999998
#
# number of rings (size 3 to 8) (size 9 to 14) (size 15 to 20)
#    0.000    1.571    2.857    3.857    0.000    1.143 
#    2.571    8.571    0.000    3.429    0.000    0.000 
#    0.000    0.000    0.000    0.000    0.000    0.000 
#
# Total GULP energy -346969.006647 kJ/mol
# GULP energy per Si atom -12391.750237 kJ/mol
# Density = 2.253494 g / cm^3
# Si number density = 22.586349 Si / 1000 Ang^3
#
#
#
# Elastic Constant Matrix: (Units=GPa)
#
#
# Indices 1 2 3 4 5 6 
#
# 1 86.9637 2.9693 1.8610 0.0000 7.0476 0.0000
# 2 2.9693 69.0592 7.9905 0.0000 -2.9303 0.0000
# 3 1.8610 7.9905 81.8610 0.0000 1.4035 0.0000
# 4 0.0000 0.0000 0.0000 26.2089 0.0000 2.3767
# 5 7.0476 -2.9303 1.4035 0.0000 23.2258 0.0000
# 6 0.0000 0.0000 0.0000 2.3767 0.0000 18.0093
#
#
#
# Elastic Compliance Matrix: (Units=1/GPa)
#
#
# Indices 1 2 3 4 5 6 
#
# 1 0.011821 -0.000647 -0.000143 0.000000 -0.003660 0.000000
# 2 -0.000647 0.014769 -0.001464 0.000000 0.002148 0.000000
# 3 -0.000143 -0.001464 0.012377 0.000000 -0.000889 0.000000
# 4 0.000000 0.000000 0.000000 0.038617 0.000000 -0.005096
# 5 -0.003660 0.002148 -0.000889 0.000000 0.044491 0.000000
# 6 0.000000 0.000000 0.000000 -0.005096 0.000000 0.056200
#
#
# Mechanical properties :
#
#
# Convention : Reuss Voigt Hill
#
# Bulk Modulus (GPa) = 29.01950 29.28059 29.15004
# Shear Modulus (GPa) = 25.73768 28.49301 27.11534
#
# Velocity S-wave (km/s) = 3.37935 3.55563 3.46861
# Velocity P-wave (km/s) = 5.30120 5.46340 5.38291
#
# Compressibility (1/GPa) = 0.03445959
#
# Stress axis : x y z
#
# Youngs Moduli (GPa) = 84.59658 67.71098 80.79374
#
# Poissons Ratio (x) = 0.04381 0.01154
# Poissons Ratio (y) = 0.05474 0.11826
# Poissons Ratio (z) = 0.01208 0.09911
#
# Static dielectric constant tensor:
#      x y z
#    x 4.368720 0.000000 -0.075230 
#    y 0.000000 3.703600 0.000000 
#    z -0.075230 0.000000 4.202180 
# 
# 
# High freq. dielectric constant tensor:
#      x y z
#    x 1.891790 0.000000 -0.001460 
#    y 0.000000 1.867260 0.000000 
#    z -0.001460 0.000000 1.892900 
# 
# From -- ./inp_files/216434.got.cif
#   From: 2010.06.25/outbox.cif.g09.slc.cpg/sg12_109_cif.got.tgz:216434.got - 2010.06.28 00:19:55.
