data_PCOD8102351
_publ_section_title
;
Structure prediction by ZEFSAII (Michael W. Deem and Ramdas Pophale) SiO2 
 PCOD8102351
Probable space group: C 2/M
;
_chemical_formula_sum "Si O2"
_cell_formula_units_Z 56
_cell_length_a 30.872985
_cell_length_b 8.394990
_cell_length_c 12.635329
_cell_angle_alpha 90.000000
_cell_angle_beta 52.638082
_cell_angle_gamma 90.000000
_cell_volume 2602.873913
_symmetry_space_group_name_H-M "C 2/M"
_symmetry_group_IT_number 12
_symmetry_cell_setting 'monoclinic'
loop_
_space_group_symop_operation_xyz
x,y,z
-x,y,-z
-x,-y,-z
x,-y,z
1/2+x,1/2+y,z
1/2-x,1/2+y,-z
1/2-x,1/2-y,-z
1/2+x,1/2-y,z
loop_
_atom_site_type_symbol
_atom_site_label
_atom_site_fract_x
_atom_site_fract_y
_atom_site_fract_z
Si Si1 0.234126 0.814040 0.258041
Si Si2 0.099684 0.818196 0.780663
Si Si3 0.141747 0.687320 0.937177
Si Si4 0.371093 0.811723 0.647270
Si Si5 0.801954 0.316931 0.477795
Si Si6 0.451037 0.811665 0.341777
Si Si7 0.068107 0.310769 0.234622
O O1 0.295437 0.750598 0.145775
O O2 0.187019 0.778890 0.240878
O O3 0.207681 0.698427 0.384480
O O4 0.235922 0.000000 0.286754
O O5 0.110873 0.729257 0.874197
O O6 0.151544 0.800371 0.629245
O O7 0.051908 0.748779 0.776256
O O8 0.087092 0.000000 0.826362
O O9 0.144002 0.500000 0.942742
O O10 0.107902 0.760273 0.084816
O O11 0.400195 0.760524 0.492744
O O12 0.411312 0.755767 0.681295
O O13 0.361428 0.000000 0.667330
O O14 0.815138 0.500000 0.427412
O O15 0.750000 0.250000 0.500000
O O16 0.507123 0.743942 0.307517
O O17 0.451981 0.000000 0.335559
O O18 0.067205 0.500000 0.227467
#
# Coordination Sequence:
#
# PCOD8102351 Si02
#       7
#     8   8   8   8   8   8   8
#     4  11  22  35  56  87 122 158 196 238 292 353
#     4  12  24  37  58  88 123 156 195 242 299 359
#     4  10  22  40  60  83 119 162 204 242 289 357
#     4  10  20  36  62  91 118 150 199 254 302 350
#     4  12  22  35  57  87 120 155 194 241 298 351
#     4  10  20  37  63  90 117 151 199 253 304 351
#     4   9  20  40  63  86 113 157 209 252 292 350
#
# _framework density 21.514679000000001
#
# number of rings (size 3 to 8) (size 9 to 14) (size 15 to 20)
#    0.000    1.429    2.857    3.429    0.000    3.429 
#    0.000    5.000    0.000    1.714    0.000    0.000 
#    0.000    0.000    0.000    0.000    0.000    0.000 
#
# Total GULP energy -346933.689820 kJ/mol
# GULP energy per Si atom -12390.488922 kJ/mol
# Density = 2.146571 g / cm^3
# Si number density = 21.514679 Si / 1000 Ang^3
#
#
#
# Elastic Constant Matrix: (Units=GPa)
#
#
# Indices 1 2 3 4 5 6 
#
# 1 149.1398 13.0295 29.1526 0.0000 -2.0091 0.0000
# 2 13.0295 31.8487 11.4593 0.0000 -3.8589 0.0000
# 3 29.1526 11.4593 84.2769 0.0000 -4.6393 0.0000
# 4 0.0000 0.0000 0.0000 14.4508 0.0000 -1.0037
# 5 -2.0091 -3.8589 -4.6393 0.0000 26.7273 0.0000
# 6 0.0000 0.0000 0.0000 -1.0037 0.0000 25.7461
#
#
#
# Elastic Compliance Matrix: (Units=1/GPa)
#
#
# Indices 1 2 3 4 5 6 
#
# 1 0.007335 -0.002212 -0.002245 0.000000 -0.000158 0.000000
# 2 -0.002212 0.034115 -0.003646 0.000000 0.004126 0.000000
# 3 -0.002245 -0.003646 0.013226 0.000000 0.001601 0.000000
# 4 0.000000 0.000000 0.000000 0.069388 0.000000 0.002705
# 5 -0.000158 0.004126 0.001601 0.000000 0.038277 0.000000
# 6 0.000000 0.000000 0.000000 0.002705 0.000000 0.038946
#
#
# Mechanical properties :
#
#
# Convention : Reuss Voigt Hill
#
# Bulk Modulus (GPa) = 25.99478 41.39425 33.69452
# Shear Modulus (GPa) = 21.70905 27.49309 24.60107
#
# Velocity S-wave (km/s) = 3.17998 3.57862 3.38517
# Velocity P-wave (km/s) = 5.05881 6.02969 5.56546
#
# Compressibility (1/GPa) = 0.03846926
#
# Stress axis : x y z
#
# Youngs Moduli (GPa) = 136.33016 29.31230 75.60737
#
# Poissons Ratio (x) = 0.06484 0.16976
# Poissons Ratio (y) = 0.30158 0.27569
# Poissons Ratio (z) = 0.30609 0.10688
#
# Static dielectric constant tensor:
#      x y z
#    x 4.430500 0.000000 -0.091080 
#    y 0.000000 3.506640 0.000000 
#    z -0.091080 0.000000 3.951920 
# 
# 
# High freq. dielectric constant tensor:
#      x y z
#    x 1.874400 0.000000 -0.000430 
#    y 0.000000 1.811350 0.000000 
#    z -0.000430 0.000000 1.828150 
# 
# From -- ./inp_files/187265.got.cif
#   From: 2010.06.25/outbox.cif.g09.slc.cpg/sg12_94_cif.got.tgz:187265.got - 2010.06.28 00:19:55.
