data_PCOD8102486
_publ_section_title
;
Structure prediction by ZEFSAII (Michael W. Deem and Ramdas Pophale) SiO2 
 PCOD8102486
Probable space group: C 2/M
;
_chemical_formula_sum "Si O2"
_cell_formula_units_Z 48
_cell_length_a 17.285681
_cell_length_b 15.002872
_cell_length_c 17.766728
_cell_angle_alpha 90.000000
_cell_angle_beta 151.316529
_cell_angle_gamma 90.000000
_cell_volume 2211.479088
_symmetry_space_group_name_H-M "C 2/M"
_symmetry_group_IT_number 12
_symmetry_cell_setting 'monoclinic'
loop_
_space_group_symop_operation_xyz
x,y,z
-x,y,-z
-x,-y,-z
x,-y,z
1/2+x,1/2+y,z
1/2-x,1/2+y,-z
1/2-x,1/2-y,-z
1/2+x,1/2-y,z
loop_
_atom_site_type_symbol
_atom_site_label
_atom_site_fract_x
_atom_site_fract_y
_atom_site_fract_z
Si Si1 0.391602 0.097756 0.007727
Si Si2 0.330498 0.346004 0.060635
Si Si3 0.258801 0.600827 0.344741
Si Si4 0.393512 0.313366 0.596466
Si Si5 0.325608 0.275053 0.272916
Si Si6 0.324721 0.598229 0.883794
O O1 0.284459 0.087947 0.991189
O O2 0.320563 0.170819 0.890818
O O3 0.391536 0.000000 0.968514
O O4 0.571269 0.127221 0.182539
O O5 0.512079 0.349362 0.249738
O O6 0.250000 0.250000 0.000000
O O7 0.338236 0.375921 0.982207
O O8 0.290795 0.500000 0.344120
O O9 0.317814 0.607416 0.481617
O O10 0.359153 0.671047 0.378869
O O11 0.250000 0.250000 0.500000
O O12 0.522135 0.264769 0.651951
O O13 0.274762 0.173228 0.246656
O O14 0.243394 0.500000 0.806045
O O15 0.500000 0.594291 0.000000
#
# Coordination Sequence:
#
# PCOD8102486 Si02
#       6
#     8   8   8   8   8   8
#     4  10  20  36  66  99 129 167 212 264 324 390
#     4  11  21  42  66  94 124 171 220 270 318 382
#     4  11  24  41  66 103 138 168 207 265 333 395
#     4  11  25  40  64  94 133 175 213 257 332 388
#     4  11  23  41  67  92 132 174 217 266 318 386
#     4  11  24  41  68  97 123 163 223 278 317 368
#
# _framework density 21.704929
#
# number of rings (size 3 to 8) (size 9 to 14) (size 15 to 20)
#    0.000    1.167    3.333    4.000    2.333    6.000 
#    0.000    0.000    0.000    2.000    0.000    0.000 
#    0.000    0.000    0.000    0.000    0.000    0.000 
#
# Total GULP energy -297495.853622 kJ/mol
# GULP energy per Si atom -12395.660568 kJ/mol
# Density = 2.165553 g / cm^3
# Si number density = 21.704929 Si / 1000 Ang^3
#
#
#
# Elastic Constant Matrix: (Units=GPa)
#
#
# Indices 1 2 3 4 5 6 
#
# 1 86.6292 36.3291 22.7109 0.0049 1.6479 0.0014
# 2 36.3291 153.5538 37.6659 -0.0054 2.1112 -0.0004
# 3 22.7109 37.6659 98.7218 -0.0085 8.5074 0.0005
# 4 0.0049 -0.0054 -0.0085 19.5005 -0.0067 -2.4085
# 5 1.6479 2.1112 8.5074 -0.0067 40.2961 0.0014
# 6 0.0014 -0.0004 0.0005 -2.4085 0.0014 16.2452
#
#
#
# Elastic Compliance Matrix: (Units=1/GPa)
#
#
# Indices 1 2 3 4 5 6 
#
# 1 0.013174 -0.002618 -0.002034 -0.000005 0.000028 -0.000002
# 2 -0.002618 0.007707 -0.002355 0.000002 0.000201 0.000001
# 3 -0.002034 -0.002355 0.011691 0.000004 -0.002262 0.000001
# 4 -0.000005 0.000002 0.000004 0.052237 0.000008 0.007745
# 5 0.000028 0.000201 -0.002262 0.000008 0.025282 -0.000001
# 6 -0.000002 0.000001 0.000001 0.007745 -0.000001 0.062705
#
#
# Mechanical properties :
#
#
# Convention : Reuss Voigt Hill
#
# Bulk Modulus (GPa) = 53.88978 59.14629 56.51804
# Shear Modulus (GPa) = 25.90709 31.35496 28.63103
#
# Velocity S-wave (km/s) = 3.45861 3.80491 3.63589
# Velocity P-wave (km/s) = 6.38996 6.82733 6.61226
#
# Compressibility (1/GPa) = 0.01855639
#
# Stress axis : x y z
#
# Youngs Moduli (GPa) = 75.90585 129.75497 85.53597
#
# Poissons Ratio (x) = 0.33974 0.17399
# Poissons Ratio (y) = 0.19874 0.20147
# Poissons Ratio (z) = 0.15440 0.30562
#
# Static dielectric constant tensor:
#      x y z
#    x 5.495070 0.000120 -0.287700 
#    y 0.000120 4.142090 -0.000030 
#    z -0.287700 -0.000030 4.136290 
# 
# 
# High freq. dielectric constant tensor:
#      x y z
#    x 1.862300 0.000000 0.005240 
#    y 0.000000 1.845160 0.000000 
#    z 0.005240 0.000000 1.852500 
# 
# From -- ./inp_files/278217.got.cif
#   From: 2010.06.25/outbox.cif.g09.slc.cpg/sg12_140_cif.got.tgz:278217.got - 2010.06.28 00:19:55.
