data_PCOD8102714
_publ_section_title
;
Structure prediction by ZEFSAII (Michael W. Deem and Ramdas Pophale) SiO2 
 PCOD8102714
Probable space group: C 2/M
;
_chemical_formula_sum "Si O2"
_cell_formula_units_Z 64
_cell_length_a 30.346345
_cell_length_b 9.230958
_cell_length_c 23.284831
_cell_angle_alpha 90.000000
_cell_angle_beta 149.562697
_cell_angle_gamma 90.000000
_cell_volume 3304.359807
_symmetry_space_group_name_H-M "C 2/M"
_symmetry_group_IT_number 12
_symmetry_cell_setting 'monoclinic'
loop_
_space_group_symop_operation_xyz
x,y,z
-x,y,-z
-x,-y,-z
x,-y,z
1/2+x,1/2+y,z
1/2-x,1/2+y,-z
1/2-x,1/2-y,-z
1/2+x,1/2-y,z
loop_
_atom_site_type_symbol
_atom_site_label
_atom_site_fract_x
_atom_site_fract_y
_atom_site_fract_z
Si Si1 0.528486 0.661107 0.275053
Si Si2 0.734036 0.172191 0.660490
Si Si3 0.695866 0.171232 0.488027
Si Si4 0.092452 0.171078 0.083535
Si Si5 0.751211 0.333187 0.942252
Si Si6 0.891108 0.833415 0.029307
Si Si7 0.051478 0.671405 0.502359
Si Si8 0.941070 0.160039 0.292640
O O1 0.571924 0.500000 0.324574
O O2 0.596612 0.785543 0.365968
O O3 0.485206 0.688831 0.164489
O O4 0.452089 0.670086 0.236285
O O5 0.724911 0.224603 0.584158
O O6 0.824534 0.234962 0.787965
O O7 0.651588 0.226240 0.606902
O O8 0.734593 0.000000 0.662637
O O9 0.750000 0.250000 0.500000
O O10 0.706848 0.000000 0.494215
O O11 0.090857 0.000000 0.090993
O O12 0.101948 0.214091 0.028367
O O13 0.000000 0.237791 0.000000
O O14 0.771424 0.500000 0.978202
O O15 0.659604 0.313065 0.806812
O O16 0.750000 0.250000 0.000000
O O17 0.821877 0.271858 0.978933
O O18 0.860595 0.000000 0.001493
O O19 0.050257 0.500000 0.503982
O O20 0.000000 0.736167 0.500000
O O21 0.999271 0.719085 0.387661
O O22 0.969701 0.000000 0.346485
#
# Coordination Sequence:
#
# PCOD8102714 Si02
#       8
#     8   8   8   8   8   8   8   8
#     4  10  20  37  58  85 118 149 190 239 289 349
#     4   9  19  36  55  84 118 145 188 241 285 341
#     4  11  23  38  60  87 117 151 190 240 297 347
#     4   9  19  35  59  86 112 149 195 242 292 340
#     4  11  22  37  56  83 118 155 193 234 286 348
#     4  10  21  37  60  88 117 152 195 244 296 347
#     4  10  21  36  57  85 115 149 191 239 286 338
#     4  10  21  37  55  79 117 154 190 234 287 353
#
# _framework density 19.36835
#
# number of rings (size 3 to 8) (size 9 to 14) (size 15 to 20)
#    0.000    2.000    2.500    0.750    3.500    1.750 
#    0.000    0.000    0.000    1.875    0.000    0.000 
#    0.000    0.000    0.000    0.000    0.000    0.000 
#
# Total GULP energy -396718.936714 kJ/mol
# GULP energy per Si atom -12397.466772 kJ/mol
# Density = 1.932427 g / cm^3
# Si number density = 19.368350 Si / 1000 Ang^3
#
#
#
# Elastic Constant Matrix: (Units=GPa)
#
#
# Indices 1 2 3 4 5 6 
#
# 1 136.9250 41.5819 78.8963 0.0000 4.6684 0.0000
# 2 41.5819 50.9248 37.0054 0.0000 4.4393 0.0000
# 3 78.8963 37.0054 140.6901 0.0000 -0.0763 0.0000
# 4 0.0000 0.0000 0.0000 26.7213 0.0000 1.7638
# 5 4.6684 4.4393 -0.0763 0.0000 33.3934 0.0000
# 6 0.0000 0.0000 0.0000 1.7638 0.0000 27.4659
#
#
#
# Elastic Compliance Matrix: (Units=1/GPa)
#
#
# Indices 1 2 3 4 5 6 
#
# 1 0.012200 -0.006071 -0.005245 0.000000 -0.000911 0.000000
# 2 -0.006071 0.027654 -0.003871 0.000000 -0.002836 0.000000
# 3 -0.005245 -0.003871 0.011068 0.000000 0.001273 0.000000
# 4 0.000000 0.000000 0.000000 0.037583 0.000000 -0.002413
# 5 -0.000911 -0.002836 0.001273 0.000000 0.030453 0.000000
# 6 0.000000 0.000000 0.000000 -0.002413 0.000000 0.036564
#
#
# Mechanical properties :
#
#
# Convention : Reuss Voigt Hill
#
# Bulk Modulus (GPa) = 48.66617 71.50077 60.08347
# Shear Modulus (GPa) = 25.94087 28.91988 27.43038
#
# Velocity S-wave (km/s) = 3.66367 3.86832 3.76739
# Velocity P-wave (km/s) = 6.56337 7.54641 7.07199
#
# Compressibility (1/GPa) = 0.02054816
#
# Stress axis : x y z
#
# Youngs Moduli (GPa) = 81.96472 36.16110 90.34931
#
# Poissons Ratio (x) = 0.21953 0.47392
# Poissons Ratio (y) = 0.49761 0.34973
# Poissons Ratio (z) = 0.42994 0.13997
#
# Static dielectric constant tensor:
#      x y z
#    x 3.688270 0.000000 0.232650 
#    y 0.000000 3.355580 0.000000 
#    z 0.232650 0.000000 3.698880 
# 
# 
# High freq. dielectric constant tensor:
#      x y z
#    x 1.761800 0.000000 0.003670 
#    y 0.000000 1.721840 0.000000 
#    z 0.003670 0.000000 1.759960 
# 
# From -- ./inp_files/353540.got.cif
#   From: 2010.06.25/outbox.cif.g09.slc.cpg/sg12_177_cif.got.tgz:353540.got - 2010.06.28 00:19:55.
