data_PCOD8102612
_publ_section_title
;
Structure prediction by ZEFSAII (Michael W. Deem and Ramdas Pophale) SiO2 
 PCOD8102612
Probable space group: C 2/M
;
_chemical_formula_sum "Si O2"
_cell_formula_units_Z 48
_cell_length_a 20.372834
_cell_length_b 8.956152
_cell_length_c 26.549081
_cell_angle_alpha 90.000000
_cell_angle_beta 30.006837
_cell_angle_gamma 90.000000
_cell_volume 2422.602425
_symmetry_space_group_name_H-M "C 2/M"
_symmetry_group_IT_number 12
_symmetry_cell_setting 'monoclinic'
loop_
_space_group_symop_operation_xyz
x,y,z
-x,y,-z
-x,-y,-z
x,-y,z
1/2+x,1/2+y,z
1/2-x,1/2+y,-z
1/2-x,1/2-y,-z
1/2+x,1/2-y,z
loop_
_atom_site_type_symbol
_atom_site_label
_atom_site_fract_x
_atom_site_fract_y
_atom_site_fract_z
Si Si1 0.991683 0.323475 0.902397
Si Si2 0.728693 0.671637 0.795049
Si Si3 0.233807 0.674378 0.114774
Si Si4 0.228199 0.822829 0.460802
Si Si5 0.491084 0.826461 0.564152
Si Si6 0.027277 0.322924 0.766101
O O1 0.985247 0.500000 0.907325
O O2 0.102479 0.271040 0.867465
O O3 0.025567 0.261730 0.824225
O O4 0.852060 0.262493 0.011465
O O5 0.686018 0.500000 0.818201
O O6 0.777162 0.707952 0.818844
O O7 0.844810 0.711776 0.679500
O O8 0.254759 0.500000 0.090079
O O9 0.100470 0.735816 0.178517
O O10 0.250000 0.750000 0.500000
O O11 0.089586 0.773851 0.530528
O O12 0.342391 0.763021 0.347891
O O13 0.232061 0.000000 0.464057
O O14 0.500000 0.782080 0.500000
O O15 0.524836 0.000000 0.550888
O O16 0.027461 0.500000 0.765564
#
# Coordination Sequence:
#
# PCOD8102612 Si02
#       6
#     8   8   8   8   8   8
#     4  11  22  36  56  83 112 140 179 231 279 322
#     4  10  21  37  57  80 110 149 185 220 271 333
#     4  10  20  37  58  77 105 147 188 221 266 329
#     4  11  22  38  60  85 115 150 189 231 280 336
#     4  10  21  38  60  86 115 148 190 236 279 330
#     4   9  20  38  58  80 109 146 182 222 275 332
#
# _framework density 19.813404999999999
#
# number of rings (size 3 to 8) (size 9 to 14) (size 15 to 20)
#    0.000    1.833    0.000    4.000    0.000    6.333 
#    0.000    6.667    0.000    0.000    0.000    0.000 
#    0.000    0.000    0.000    0.000    0.000    0.000 
#
# Total GULP energy -297726.576834 kJ/mol
# GULP energy per Si atom -12405.274035 kJ/mol
# Density = 1.976831 g / cm^3
# Si number density = 19.813405 Si / 1000 Ang^3
#
#
#
# Elastic Constant Matrix: (Units=GPa)
#
#
# Indices 1 2 3 4 5 6 
#
# 1 90.4569 26.3492 4.6168 0.0010 -2.1309 -0.0003
# 2 26.3492 49.8638 16.2303 0.0000 1.7378 0.0013
# 3 4.6168 16.2303 73.4184 0.0042 7.5086 -0.0011
# 4 0.0010 0.0000 0.0042 31.2883 -0.0005 -2.2793
# 5 -2.1309 1.7378 7.5086 -0.0005 40.1651 -0.0002
# 6 -0.0003 0.0013 -0.0011 -2.2793 -0.0002 32.0013
#
#
#
# Elastic Compliance Matrix: (Units=1/GPa)
#
#
# Indices 1 2 3 4 5 6 
#
# 1 0.013136 -0.007191 0.000674 0.000000 0.000882 0.000000
# 2 -0.007191 0.025547 -0.005141 0.000001 -0.000526 -0.000001
# 3 0.000674 -0.005141 0.014975 -0.000002 -0.002541 0.000001
# 4 0.000000 0.000001 -0.000002 0.032128 0.000001 0.002288
# 5 0.000882 -0.000526 -0.002541 0.000001 0.025442 0.000000
# 6 0.000000 -0.000001 0.000001 0.002288 0.000000 0.031412
#
#
# Mechanical properties :
#
#
# Convention : Reuss Voigt Hill
#
# Bulk Modulus (GPa) = 32.96125 34.23686 33.59906
# Shear Modulus (GPa) = 28.39776 31.79380 30.09578
#
# Velocity S-wave (km/s) = 3.78995 4.01017 3.90161
# Velocity P-wave (km/s) = 5.98528 6.22568 6.10666
#
# Compressibility (1/GPa) = 0.03033865
#
# Stress axis : x y z
#
# Youngs Moduli (GPa) = 76.12563 39.14420 66.77925
#
# Poissons Ratio (x) = 0.28150 -0.04498
# Poissons Ratio (y) = 0.54745 0.34334
# Poissons Ratio (z) = -0.05127 0.20126
#
# Static dielectric constant tensor:
#      x y z
#    x 2.978870 0.000000 0.456680 
#    y 0.000000 3.384720 0.000000 
#    z 0.456680 0.000000 3.722090 
# 
# 
# High freq. dielectric constant tensor:
#      x y z
#    x 1.788240 0.000000 0.003170 
#    y 0.000000 1.752320 0.000000 
#    z 0.003170 0.000000 1.790160 
# 
# From -- ./inp_files/327182.got.cif
#   From: 2010.06.25/outbox.cif.g09.slc.cpg/sg12_164_cif.got.tgz:327182.got - 2010.06.28 00:19:55.
