data_PCOD8102277
_publ_section_title
;
Structure prediction by ZEFSAII (Michael W. Deem and Ramdas Pophale) SiO2 
 PCOD8102277
Probable space group: C 2/M
;
_chemical_formula_sum "Si O2"
_cell_formula_units_Z 64
_cell_length_a 9.379961
_cell_length_b 18.020264
_cell_length_c 30.896716
_cell_angle_alpha 90.000000
_cell_angle_beta 36.419125
_cell_angle_gamma 90.000000
_cell_volume 3100.504915
_symmetry_space_group_name_H-M "C 2/M"
_symmetry_group_IT_number 12
_symmetry_cell_setting 'monoclinic'
loop_
_space_group_symop_operation_xyz
x,y,z
-x,y,-z
-x,-y,-z
x,-y,z
1/2+x,1/2+y,z
1/2-x,1/2+y,-z
1/2-x,1/2-y,-z
1/2+x,1/2-y,z
loop_
_atom_site_type_symbol
_atom_site_label
_atom_site_fract_x
_atom_site_fract_y
_atom_site_fract_z
Si Si1 0.868888 0.416440 0.205212
Si Si2 0.262352 0.585678 0.917580
Si Si3 0.325539 0.689166 0.820179
Si Si4 0.780080 0.293379 0.580823
Si Si5 0.214215 0.145531 0.843287
Si Si6 0.141650 0.686894 0.338637
Si Si7 0.004103 0.586616 0.694424
Si Si8 0.035757 0.917293 0.369500
O O1 0.874845 0.500000 0.184774
O O2 0.799996 0.358177 0.185990
O O3 0.674078 0.411161 0.290499
O O4 0.131527 0.395782 0.158046
O O5 0.295489 0.500000 0.895036
O O6 0.315719 0.640801 0.865432
O O7 0.452253 0.607386 0.908572
O O8 0.000000 0.600031 0.000000
O O9 0.187898 0.766953 0.859737
O O10 0.596731 0.710509 0.741287
O O11 0.872239 0.312103 0.606371
O O12 0.548858 0.241048 0.637726
O O13 0.701443 0.367512 0.574346
O O14 0.000000 0.257968 0.500000
O O15 0.329851 0.133710 0.767715
O O16 0.067406 0.605861 0.337720
O O17 0.963781 0.500000 0.713652
O O18 0.281687 0.608382 0.636856
O O19 0.945767 0.000000 0.400699
#
# Coordination Sequence:
#
# PCOD8102277 Si02
#       8
#     8   8   8   8   8   8   8   8
#     4  10  20  36  61  92 124 160 209 269 321 376
#     4  11  25  44  65  93 135 181 219 264 328 396
#     4  12  23  38  66  98 129 162 222 280 319 382
#     4  12  25  42  62  90 131 171 212 268 338 400
#     4  11  21  38  64  94 130 167 211 264 327 384
#     4  12  24  39  65  93 125 165 221 270 323 389
#     4  10  21  38  65  96 126 164 215 271 326 393
#     4   9  19  37  59  87 123 161 207 264 326 386
#
# _framework density 20.6418
#
# number of rings (size 3 to 8) (size 9 to 14) (size 15 to 20)
#    0.000    1.125    2.500    6.375    0.000    1.750 
#    0.000    0.625    0.000    4.125    0.000    0.000 
#    0.000    0.000    0.000    0.000    0.000    0.000 
#
# Total GULP energy -396839.282986 kJ/mol
# GULP energy per Si atom -12401.227593 kJ/mol
# Density = 2.059482 g / cm^3
# Si number density = 20.641800 Si / 1000 Ang^3
#
#
#
# Elastic Constant Matrix: (Units=GPa)
#
#
# Indices 1 2 3 4 5 6 
#
# 1 97.3720 20.6903 21.9322 -0.0025 -13.9694 0.0048
# 2 20.6903 96.4564 22.0961 0.0122 -10.6751 -0.0259
# 3 21.9322 22.0961 65.2597 -0.0285 -13.9487 0.0787
# 4 -0.0025 0.0122 -0.0285 27.8884 0.0456 -22.2640
# 5 -13.9694 -10.6751 -13.9487 0.0456 25.6685 -0.0810
# 6 0.0048 -0.0259 0.0787 -22.2640 -0.0810 47.5818
#
#
#
# Elastic Compliance Matrix: (Units=1/GPa)
#
#
# Indices 1 2 3 4 5 6 
#
# 1 0.011784 -0.001460 -0.002517 -0.000001 0.004438 0.000009
# 2 -0.001460 0.011621 -0.002920 0.000000 0.002452 0.000016
# 3 -0.002517 -0.002920 0.018788 -0.000012 0.007625 -0.000025
# 4 -0.000001 0.000000 -0.000012 0.057238 -0.000024 0.026782
# 5 0.004438 0.002452 0.007625 -0.000024 0.046537 0.000056
# 6 0.000009 0.000016 -0.000025 0.026782 0.000056 0.033548
#
#
# Mechanical properties :
#
#
# Convention : Reuss Voigt Hill
#
# Bulk Modulus (GPa) = 35.21371 43.16946 39.19159
# Shear Modulus (GPa) = 24.65770 33.18570 28.92170
#
# Velocity S-wave (km/s) = 3.45998 4.01396 3.74722
# Velocity P-wave (km/s) = 5.74964 6.51471 6.14410
#
# Compressibility (1/GPa) = 0.02839803
#
# Stress axis : x y z
#
# Youngs Moduli (GPa) = 84.86235 86.05283 53.22554
#
# Poissons Ratio (x) = 0.12562 0.13399
# Poissons Ratio (y) = 0.12388 0.15542
# Poissons Ratio (z) = 0.21363 0.25128
#
# Static dielectric constant tensor:
#      x y z
#    x 4.113770 0.000040 -0.198510 
#    y 0.000040 3.909940 -0.000040 
#    z -0.198510 -0.000040 3.385250 
# 
# 
# High freq. dielectric constant tensor:
#      x y z
#    x 1.827410 0.000000 -0.016840 
#    y 0.000000 1.819990 0.000000 
#    z -0.016840 0.000000 1.767150 
# 
# From -- ./inp_files/372914.got.cif
#   From: 2010.06.25/outbox.cif.g09.slc.cpg/sg12_187_cif.got.tgz:372914.got - 2010.06.28 00:19:55.
