data_PCOD8102047
_publ_section_title
;
Structure prediction by ZEFSAII (Michael W. Deem and Ramdas Pophale) SiO2 
 PCOD8102047
Probable space group: C 2/M
;
_chemical_formula_sum "Si O2"
_cell_formula_units_Z 64
_cell_length_a 18.035245
_cell_length_b 19.782171
_cell_length_c 11.489986
_cell_angle_alpha 90.000000
_cell_angle_beta 129.960351
_cell_angle_gamma 90.000000
_cell_volume 3142.110580
_symmetry_space_group_name_H-M "C 2/M"
_symmetry_group_IT_number 12
_symmetry_cell_setting 'monoclinic'
loop_
_space_group_symop_operation_xyz
x,y,z
-x,y,-z
-x,-y,-z
x,-y,z
1/2+x,1/2+y,z
1/2-x,1/2+y,-z
1/2-x,1/2-y,-z
1/2+x,1/2-y,z
loop_
_atom_site_type_symbol
_atom_site_label
_atom_site_fract_x
_atom_site_fract_y
_atom_site_fract_z
Si Si1 0.132935 0.182047 0.328055
Si Si2 0.888049 0.698652 0.867858
Si Si3 0.426996 0.925868 0.759519
Si Si4 0.106455 0.657937 0.882833
Si Si5 0.956815 0.733036 0.573502
Si Si6 0.746736 0.424025 0.119525
Si Si7 0.975222 0.925246 0.108196
Si Si8 0.181218 0.614211 0.562329
O O1 0.146605 0.235168 0.235804
O O2 0.118529 0.218326 0.437250
O O3 0.232899 0.142581 0.431822
O O4 0.042560 0.131378 0.231276
O O5 0.868464 0.629705 0.775845
O O6 0.842526 0.692680 0.952148
O O7 0.000000 0.709620 0.000000
O O8 0.538461 0.903014 0.859228
O O9 0.379036 0.934183 0.583847
O O10 0.424677 0.000000 0.817001
O O11 0.190130 0.629715 0.886024
O O12 0.040956 0.712595 0.748908
O O13 0.894242 0.669663 0.466436
O O14 0.000000 0.767290 0.500000
O O15 0.763609 0.500000 0.089644
O O16 0.774324 0.424766 0.283563
O O17 0.635867 0.401990 0.990657
O O18 0.990981 0.000000 0.181517
O O19 0.000000 0.931700 0.000000
#
# Coordination Sequence:
#
# PCOD8102047 Si02
#       8
#     8   8   8   8   8   8   8   8
#     4  12  22  41  65  84 123 159 195 259 293 347
#     4  10  20  36  60  88 116 159 202 232 296 355
#     4  10  21  36  57  86 121 157 200 240 286 359
#     4  10  21  37  57  87 123 157 194 240 296 351
#     4  11  22  39  58  88 124 152 195 238 298 363
#     4  11  22  37  59  89 122 158 198 248 305 348
#     4  10  22  39  61  89 113 150 205 254 301 349
#     4  11  22  36  59  86 116 161 199 242 296 351
#
# _framework density 20.368473999999999
#
# number of rings (size 3 to 8) (size 9 to 14) (size 15 to 20)
#    0.000    1.375    6.250    1.500    0.000    3.250 
#    2.250    3.125    0.000    0.375    0.000    0.000 
#    0.000    0.000    0.000    0.000    0.000    0.000 
#
# Total GULP energy -396658.345573 kJ/mol
# GULP energy per Si atom -12395.573299 kJ/mol
# Density = 2.032211 g / cm^3
# Si number density = 20.368474 Si / 1000 Ang^3
#
#
#
# Elastic Constant Matrix: (Units=GPa)
#
#
# Indices 1 2 3 4 5 6 
#
# 1 100.1275 17.1897 20.0271 0.0000 -4.9507 0.0000
# 2 17.1897 71.4232 17.0717 0.0000 0.5610 0.0000
# 3 20.0271 17.0717 59.6105 0.0000 -5.6145 0.0000
# 4 0.0000 0.0000 0.0000 3.3115 0.0000 -2.9391
# 5 -4.9507 0.5610 -5.6145 0.0000 31.7726 0.0000
# 6 0.0000 0.0000 0.0000 -2.9391 0.0000 21.4523
#
#
#
# Elastic Compliance Matrix: (Units=1/GPa)
#
#
# Indices 1 2 3 4 5 6 
#
# 1 0.010983 -0.001930 -0.003023 0.000000 0.001211 0.000000
# 2 -0.001930 0.015403 -0.003881 0.000000 -0.001259 0.000000
# 3 -0.003023 -0.003881 0.019184 0.000000 0.002988 0.000000
# 4 0.000000 0.000000 0.000000 0.343780 0.000000 0.047100
# 5 0.001211 -0.001259 0.002988 0.000000 0.032213 0.000000
# 6 0.000000 0.000000 0.000000 0.047100 0.000000 0.053068
#
#
# Mechanical properties :
#
#
# Convention : Reuss Voigt Hill
#
# Bulk Modulus (GPa) = 35.84078 37.74869 36.79474
# Shear Modulus (GPa) = 9.96808 23.09878 16.53343
#
# Velocity S-wave (km/s) = 2.21461 3.37121 2.85216
# Velocity P-wave (km/s) = 4.91668 5.80746 5.38053
#
# Compressibility (1/GPa) = 0.02790118
#
# Stress axis : x y z
#
# Youngs Moduli (GPa) = 91.04802 64.92142 52.12631
#
# Poissons Ratio (x) = 0.12532 0.15758
# Poissons Ratio (y) = 0.17575 0.20232
# Poissons Ratio (z) = 0.27525 0.25198
#
# Static dielectric constant tensor:
#      x y z
#    x 5.123150 0.000000 0.608020 
#    y 0.000000 3.769530 0.000000 
#    z 0.608020 0.000000 4.234630 
# 
# 
# High freq. dielectric constant tensor:
#      x y z
#    x 1.784160 0.000000 0.002040 
#    y 0.000000 1.789700 0.000000 
#    z 0.002040 0.000000 1.789970 
# 
# From -- ./inp_files/159587.got.cif
#   From: 2010.06.25/outbox.cif.g09.slc.cpg/sg12_80_cif.got.tgz:159587.got - 2010.06.28 00:19:55.
