data_PCOD8102920
_publ_section_title
;
Structure prediction by ZEFSAII (Michael W. Deem and Ramdas Pophale) SiO2 
 PCOD8102920
Probable space group: C 2/M
;
_chemical_formula_sum "Si O2"
_cell_formula_units_Z 48
_cell_length_a 15.631539
_cell_length_b 14.883045
_cell_length_c 18.693460
_cell_angle_alpha 90.000000
_cell_angle_beta 32.540230
_cell_angle_gamma 90.000000
_cell_volume 2339.257534
_symmetry_space_group_name_H-M "C 2/M"
_symmetry_group_IT_number 12
_symmetry_cell_setting 'monoclinic'
loop_
_space_group_symop_operation_xyz
x,y,z
-x,y,-z
-x,-y,-z
x,-y,z
1/2+x,1/2+y,z
1/2-x,1/2+y,-z
1/2-x,1/2-y,-z
1/2+x,1/2-y,z
loop_
_atom_site_type_symbol
_atom_site_label
_atom_site_fract_x
_atom_site_fract_y
_atom_site_fract_z
Si Si1 0.493186 0.400724 0.196216
Si Si2 0.066145 0.747723 0.875913
Si Si3 0.631510 0.395335 0.564318
Si Si4 0.931509 0.751695 0.624394
Si Si5 0.328024 0.846292 0.953539
Si Si6 0.495093 0.897332 0.313457
O O1 0.429117 0.500000 0.222066
O O2 0.453530 0.335783 0.158920
O O3 0.405389 0.363921 0.328741
O O4 0.682330 0.409399 0.080206
O O5 0.248655 0.718325 0.749290
O O6 0.967289 0.662399 0.914475
O O7 0.000000 0.773450 0.000000
O O8 0.589748 0.500000 0.582925
O O9 0.527595 0.338085 0.583119
O O10 0.814843 0.373855 0.419275
O O11 0.000000 0.721486 0.500000
O O12 0.944549 0.666046 0.666243
O O13 0.396559 0.883173 0.831652
O O14 0.250000 0.750000 0.000000
O O15 0.508572 0.000000 0.330621
#
# Coordination Sequence:
#
# PCOD8102920 Si02
#       6
#     8   8   8   8   8   8
#     4  10  20  37  60  82 111 155 201 242 287 350
#     4  11  22  35  55  85 119 149 185 244 305 352
#     4  10  22  41  62  85 117 160 208 247 286 351
#     4  12  23  37  60  88 121 156 191 246 310 356
#     4  10  20  38  59  81 113 154 200 237 281 352
#     4  11  23  40  63  88 117 158 204 246 291 354
#
# _framework density 20.51933
#
# number of rings (size 3 to 8) (size 9 to 14) (size 15 to 20)
#    0.000    1.333    0.000    8.000    0.000    1.667 
#    0.000    1.667    0.000    4.500    0.000    0.000 
#    0.000    0.000    0.000    0.000    0.000    0.000 
#
# Total GULP energy -297651.737401 kJ/mol
# GULP energy per Si atom -12402.155725 kJ/mol
# Density = 2.047263 g / cm^3
# Si number density = 20.519330 Si / 1000 Ang^3
#
#
#
# Elastic Constant Matrix: (Units=GPa)
#
#
# Indices 1 2 3 4 5 6 
#
# 1 83.8901 28.6322 14.7424 -0.0021 -7.6634 0.0009
# 2 28.6322 53.8155 9.3608 -0.0004 1.2095 0.0011
# 3 14.7424 9.3608 110.1509 -0.0026 -8.0786 0.0033
# 4 -0.0021 -0.0004 -0.0026 28.1503 0.0008 -4.1770
# 5 -7.6634 1.2095 -8.0786 0.0008 37.8164 -0.0008
# 6 0.0009 0.0011 0.0033 -4.1770 -0.0008 -2.2868
#
#
#
# Elastic Compliance Matrix: (Units=1/GPa)
#
#
# Indices 1 2 3 4 5 6 
#
# 1 0.015097 -0.007906 -0.001123 0.000001 0.003072 -0.000002
# 2 -0.007906 0.023035 -0.001088 0.000001 -0.002571 0.000006
# 3 -0.001123 -0.001088 0.009455 0.000002 0.001827 0.000009
# 4 0.000001 0.000001 0.000002 0.027949 -0.000001 -0.051051
# 5 0.003072 -0.002571 0.001827 -0.000001 0.027539 -0.000005
# 6 -0.000002 0.000006 0.000009 -0.051051 -0.000005 -0.344048
#
#
# Mechanical properties :
#
#
# Convention : Reuss Voigt Hill
#
# Bulk Modulus (GPa) = 36.55921 39.25859 37.90890
# Shear Modulus (GPa) = -23.62715 25.74404 1.05845
#
# Velocity S-wave (km/s) = -3.39700 3.54591 0.71899
# Velocity P-wave (km/s) = 1.57148 5.99489 4.38225
#
# Compressibility (1/GPa) = 0.02735289
#
# Stress axis : x y z
#
# Youngs Moduli (GPa) = 66.23962 43.41168 105.76116
#
# Poissons Ratio (x) = 0.34320 0.11881
# Poissons Ratio (y) = 0.52368 0.11507
# Poissons Ratio (z) = 0.07441 0.04723
#
# Static dielectric constant tensor:
#      x y z
#    x 3.752600 0.000000 -0.170740 
#    y 0.000000 3.785620 0.000000 
#    z -0.170740 0.000000 4.158390 
# 
# 
# High freq. dielectric constant tensor:
#      x y z
#    x 1.793730 0.000000 -0.002840 
#    y 0.000000 1.798440 0.000000 
#    z -0.002840 0.000000 1.829900 
# 
# From -- ./inp_files/271602.got.cif
#   From: 2010.06.25/outbox.cif.g09.slc.cpg/sg12_136_cif.got.tgz:271602.got - 2010.06.28 00:19:55.
