data_PCOD8102002
_publ_section_title
;
Structure prediction by ZEFSAII (Michael W. Deem and Ramdas Pophale) SiO2 
 PCOD8102002
Probable space group: C 2/M
;
_chemical_formula_sum "Si O2"
_cell_formula_units_Z 56
_cell_length_a 16.179908
_cell_length_b 8.266861
_cell_length_c 23.553996
_cell_angle_alpha 90.000000
_cell_angle_beta 57.757635
_cell_angle_gamma 90.000000
_cell_volume 2664.700524
_symmetry_space_group_name_H-M "C 2/M"
_symmetry_group_IT_number 12
_symmetry_cell_setting 'monoclinic'
loop_
_space_group_symop_operation_xyz
x,y,z
-x,y,-z
-x,-y,-z
x,-y,z
1/2+x,1/2+y,z
1/2-x,1/2+y,-z
1/2-x,1/2-y,-z
1/2+x,1/2-y,z
loop_
_atom_site_type_symbol
_atom_site_label
_atom_site_fract_x
_atom_site_fract_y
_atom_site_fract_z
Si Si1 0.566679 0.309642 0.922479
Si Si2 0.472170 0.309460 0.840914
Si Si3 0.751474 0.684252 0.436567
Si Si4 0.920821 0.182613 0.307153
Si Si5 0.216775 0.190492 0.159312
Si Si6 0.916568 0.316116 0.568922
Si Si7 0.398055 0.810220 0.701929
O O1 0.582144 0.500000 0.909779
O O2 0.509110 0.238545 0.887955
O O3 0.672132 0.231878 0.897735
O O4 0.500000 0.264468 0.000000
O O5 0.460853 0.500000 0.850433
O O6 0.561068 0.265257 0.764829
O O7 0.365332 0.244729 0.857069
O O8 0.714422 0.500000 0.449378
O O9 0.750000 0.750000 0.500000
O O10 0.855215 0.693616 0.367182
O O11 0.683459 0.804922 0.427482
O O12 0.026370 0.191211 0.296156
O O13 0.879182 0.000000 0.326470
O O14 0.201163 0.277535 0.226553
O O15 0.204969 0.000000 0.170354
O O16 0.949534 0.500000 0.565400
O O17 0.895994 0.242464 0.638354
O O18 0.000000 0.226989 0.500000
O O19 0.424992 0.000000 0.694425
#
# Coordination Sequence:
#
# PCOD8102002 Si02
#       7
#     8   8   8   8   8   8   8
#     4  10  21  38  61  89 120 158 205 253 305 371
#     4   8  18  37  59  84 119 160 195 240 305 364
#     4  12  25  39  57  82 114 151 196 242 291 350
#     4  10  20  37  60  84 115 152 192 240 297 354
#     4  10  21  38  59  85 120 160 202 249 306 366
#     4  10  22  39  58  81 112 150 190 238 297 355
#     4  10  20  36  60  87 116 151 193 242 297 355
#
# _framework density 21.015495000000001
#
# number of rings (size 3 to 8) (size 9 to 14) (size 15 to 20)
#    0.000    2.000    0.000    4.286    2.000    3.429 
#    0.000    3.571    0.000    0.000    0.000    0.000 
#    0.000    0.000    0.000    0.000    0.000    0.000 
#
# Total GULP energy -346926.905926 kJ/mol
# GULP energy per Si atom -12390.246640 kJ/mol
# Density = 2.096766 g / cm^3
# Si number density = 21.015495 Si / 1000 Ang^3
#
#
#
# Elastic Constant Matrix: (Units=GPa)
#
#
# Indices 1 2 3 4 5 6 
#
# 1 104.0514 16.5753 70.1954 0.0000 10.1812 0.0003
# 2 16.5753 46.5688 30.2155 0.0001 1.4336 0.0007
# 3 70.1954 30.2155 158.2846 0.0000 12.7878 0.0001
# 4 0.0000 0.0001 0.0000 22.1696 0.0000 -9.8966
# 5 10.1812 1.4336 12.7878 0.0000 42.2460 0.0001
# 6 0.0003 0.0007 0.0001 -9.8966 0.0001 23.3013
#
#
#
# Elastic Compliance Matrix: (Units=1/GPa)
#
#
# Indices 1 2 3 4 5 6 
#
# 1 0.013858 -0.001117 -0.005808 0.000000 -0.001544 0.000000
# 2 -0.001117 0.024614 -0.004262 0.000000 0.000724 -0.000001
# 3 -0.005808 -0.004262 0.009822 0.000000 -0.001429 0.000000
# 4 0.000000 0.000000 0.000000 0.055660 0.000000 0.023640
# 5 -0.001544 0.000724 -0.001429 0.000000 0.024451 0.000000
# 6 0.000000 -0.000001 0.000000 0.023640 0.000000 0.052957
#
#
# Mechanical properties :
#
#
# Convention : Reuss Voigt Hill
#
# Bulk Modulus (GPa) = 38.57800 60.31969 49.44885
# Shear Modulus (GPa) = 23.54337 30.33795 26.94066
#
# Velocity S-wave (km/s) = 3.35070 3.80359 3.58431
# Velocity P-wave (km/s) = 5.77636 6.93214 6.38048
#
# Compressibility (1/GPa) = 0.02592151
#
# Stress axis : x y z
#
# Youngs Moduli (GPa) = 72.16307 40.62722 101.80929
#
# Poissons Ratio (x) = 0.04536 0.59127
# Poissons Ratio (y) = 0.08058 0.43391
# Poissons Ratio (z) = 0.41909 0.17315
#
# Static dielectric constant tensor:
#      x y z
#    x 3.881950 0.000000 0.217590 
#    y 0.000000 3.420870 0.000000 
#    z 0.217590 0.000000 3.879630 
# 
# 
# High freq. dielectric constant tensor:
#      x y z
#    x 1.820430 0.000000 0.002280 
#    y 0.000000 1.798860 0.000000 
#    z 0.002280 0.000000 1.835380 
# 
# From -- ./inp_files/338445.got.cif
#   From: 2010.06.25/outbox.cif.g09.slc.cpg/sg12_170_cif.got.tgz:338445.got - 2010.06.28 00:19:55.
