data_PCOD8102933
_publ_section_title
;
Structure prediction by ZEFSAII (Michael W. Deem and Ramdas Pophale) SiO2 
 PCOD8102933
Probable space group: C 2/M
;
_chemical_formula_sum "Si O2"
_cell_formula_units_Z 48
_cell_length_a 17.636956
_cell_length_b 8.703866
_cell_length_c 15.215772
_cell_angle_alpha 90.000000
_cell_angle_beta 90.077400
_cell_angle_gamma 90.000000
_cell_volume 2335.766489
_symmetry_space_group_name_H-M "C 2/M"
_symmetry_group_IT_number 12
_symmetry_cell_setting 'monoclinic'
loop_
_space_group_symop_operation_xyz
x,y,z
-x,y,-z
-x,-y,-z
x,-y,z
1/2+x,1/2+y,z
1/2-x,1/2+y,-z
1/2-x,1/2-y,-z
1/2+x,1/2-y,z
loop_
_atom_site_type_symbol
_atom_site_label
_atom_site_fract_x
_atom_site_fract_y
_atom_site_fract_z
Si Si1 0.915280 0.319182 0.357918
Si Si2 0.411916 0.820406 0.678832
Si Si3 0.668302 0.181770 0.814174
Si Si4 0.087707 0.319299 0.989985
Si Si5 0.831248 0.180315 0.517824
Si Si6 0.160831 0.181311 0.156784
O O1 0.903222 0.500000 0.369522
O O2 0.865157 0.253161 0.277238
O O3 0.892064 0.238113 0.447640
O O4 0.001871 0.276829 0.340619
O O5 0.356876 0.727352 0.614880
O O6 0.394869 0.771011 0.778077
O O7 0.397205 0.000000 0.666247
O O8 0.753688 0.241139 0.827072
O O9 0.666340 0.000000 0.810311
O O10 0.615243 0.236236 0.894271
O O11 0.101577 0.500000 0.005071
O O12 0.137363 0.223725 0.058533
O O13 0.000000 0.276094 0.000000
O O14 0.750000 0.250000 0.500000
O O15 0.824132 0.000000 0.512728
O O16 0.154185 0.000000 0.171981
#
# Coordination Sequence:
#
# PCOD8102933 Si02
#       6
#     8   8   8   8   8   8
#     4  10  21  40  64  88 117 155 199 246 297 354
#     4  11  23  40  63  89 118 157 202 245 294 355
#     4   9  19  36  58  84 114 151 194 240 293 352
#     4  10  20  37  60  83 111 152 199 244 295 358
#     4  12  25  41  62  89 122 158 198 245 296 352
#     4  11  22  36  57  86 120 155 193 244 300 354
#
# _framework density 20.550000000000001
#
# number of rings (size 3 to 8) (size 9 to 14) (size 15 to 20)
#    0.000    1.500    0.000    5.500    0.000    7.667 
#    0.000    2.500    0.000    0.000    0.000    0.000 
#    0.000    0.000    0.000    0.000    0.000    0.000 
#
# Total GULP energy -297753.225928 kJ/mol
# GULP energy per Si atom -12406.384414 kJ/mol
# Density = 2.050323 g / cm^3
# Si number density = 20.550000 Si / 1000 Ang^3
#
#
#
# Elastic Constant Matrix: (Units=GPa)
#
#
# Indices 1 2 3 4 5 6 
#
# 1 88.3947 39.1349 4.8860 0.0000 3.0276 0.0000
# 2 39.1349 52.7433 7.6616 0.0000 -3.3459 0.0000
# 3 4.8860 7.6616 77.5998 0.0000 0.6285 0.0000
# 4 0.0000 0.0000 0.0000 34.3256 0.0000 6.0016
# 5 3.0276 -3.3459 0.6285 0.0000 46.5842 0.0000
# 6 0.0000 0.0000 0.0000 6.0016 0.0000 23.5876
#
#
#
# Elastic Compliance Matrix: (Units=1/GPa)
#
#
# Indices 1 2 3 4 5 6 
#
# 1 0.017038 -0.012801 0.000208 0.000000 -0.002030 0.000000
# 2 -0.012801 0.028946 -0.002076 0.000000 0.002939 0.000000
# 3 0.000208 -0.002076 0.013081 0.000000 -0.000339 0.000000
# 4 0.000000 0.000000 0.000000 0.030489 0.000000 -0.007758
# 5 -0.002030 0.002939 -0.000339 0.000000 0.021814 0.000000
# 6 0.000000 0.000000 0.000000 -0.007758 0.000000 0.044369
#
#
# Mechanical properties :
#
#
# Convention : Reuss Voigt Hill
#
# Bulk Modulus (GPa) = 33.63951 35.78923 34.71437
# Shear Modulus (GPa) = 25.64292 32.03648 28.83970
#
# Velocity S-wave (km/s) = 3.53630 3.95264 3.75025
# Velocity P-wave (km/s) = 5.75143 6.18746 5.97343
#
# Compressibility (1/GPa) = 0.02972694
#
# Stress axis : x y z
#
# Youngs Moduli (GPa) = 58.69093 34.54704 76.44529
#
# Poissons Ratio (x) = 0.44224 -0.01586
# Poissons Ratio (y) = 0.75131 0.15868
# Poissons Ratio (z) = -0.01218 0.07171
#
# Static dielectric constant tensor:
#      x y z
#    x 3.918680 0.000000 0.089020 
#    y 0.000000 3.513950 0.000000 
#    z 0.089020 0.000000 4.097690 
# 
# 
# High freq. dielectric constant tensor:
#      x y z
#    x 1.820000 0.000000 -0.001080 
#    y 0.000000 1.784350 0.000000 
#    z -0.001080 0.000000 1.821400 
# 
# From -- ./inp_files/221611.got.cif
#   From: 2010.06.25/outbox.cif.g09.slc.cpg/sg12_111_cif.got.tgz:221611.got - 2010.06.28 00:19:55.
