data_PCOD8102579
_publ_section_title
;
Structure prediction by ZEFSAII (Michael W. Deem and Ramdas Pophale) SiO2 
 PCOD8102579
Probable space group: C 2/M
;
_chemical_formula_sum "Si O2"
_cell_formula_units_Z 56
_cell_length_a 27.522089
_cell_length_b 8.737418
_cell_length_c 16.120843
_cell_angle_alpha 90.000000
_cell_angle_beta 131.323337
_cell_angle_gamma 90.000000
_cell_volume 2911.316656
_symmetry_space_group_name_H-M "C 2/M"
_symmetry_group_IT_number 12
_symmetry_cell_setting 'monoclinic'
loop_
_space_group_symop_operation_xyz
x,y,z
-x,y,-z
-x,-y,-z
x,-y,z
1/2+x,1/2+y,z
1/2-x,1/2+y,-z
1/2-x,1/2-y,-z
1/2+x,1/2-y,z
loop_
_atom_site_type_symbol
_atom_site_label
_atom_site_fract_x
_atom_site_fract_y
_atom_site_fract_z
Si Si1 0.518506 0.824357 0.333234
Si Si2 0.361609 0.175063 0.428561
Si Si3 0.777747 0.174858 0.111874
Si Si4 0.500277 0.181464 0.876829
Si Si5 0.585088 0.324028 0.670961
Si Si6 0.233265 0.319041 0.239382
Si Si7 0.097451 0.818803 0.105815
O O1 0.594699 0.804404 0.439650
O O2 0.504782 0.769480 0.224461
O O3 0.478854 0.721357 0.352323
O O4 0.496876 0.000000 0.320281
O O5 0.406168 0.223862 0.401324
O O6 0.296688 0.275916 0.364806
O O7 0.340521 0.000000 0.392672
O O8 0.854470 0.201756 0.199570
O O9 0.745861 0.240773 0.159934
O O10 0.758706 0.000000 0.085413
O O11 0.750000 0.250000 0.000000
O O12 0.442828 0.266158 0.859942
O O13 0.493421 0.000000 0.881146
O O14 0.568979 0.238048 0.990935
O O15 0.580607 0.500000 0.637675
O O16 0.222725 0.500000 0.232739
O O17 0.170932 0.232413 0.203873
O O18 0.092749 0.000000 0.090156
#
# Coordination Sequence:
#
# PCOD8102579 Si02
#       7
#     8   8   8   8   8   8   8
#     4  10  22  37  57  83 112 147 189 232 278 326
#     4  10  20  37  57  82 113 147 189 233 273 326
#     4   9  20  34  49  75 109 142 181 224 266 321
#     4  10  21  39  60  84 113 146 183 230 281 332
#     4  10  21  35  52  79 113 151 190 227 273 328
#     4  10  21  38  58  81 109 148 187 224 278 336
#     4  11  22  38  60  86 113 144 183 229 280 335
#
# _framework density 19.235282999999999
#
# number of rings (size 3 to 8) (size 9 to 14) (size 15 to 20)
#    0.000    2.000    0.000    5.143    2.000    7.429 
#    0.000    0.714    0.000    0.000    0.000    0.000 
#    0.000    0.000    0.000    0.000    0.000    0.000 
#
# Total GULP energy -347243.033017 kJ/mol
# GULP energy per Si atom -12401.536893 kJ/mol
# Density = 1.919150 g / cm^3
# Si number density = 19.235283 Si / 1000 Ang^3
#
#
#
# Elastic Constant Matrix: (Units=GPa)
#
#
# Indices 1 2 3 4 5 6 
#
# 1 64.8890 19.2269 34.2495 0.0000 17.7921 0.0000
# 2 19.2269 75.0379 26.2384 0.0000 5.1241 0.0000
# 3 34.2495 26.2384 88.2225 0.0000 6.1621 0.0000
# 4 0.0000 0.0000 0.0000 29.9472 0.0000 7.1106
# 5 17.7921 5.1241 6.1621 0.0000 27.0165 0.0000
# 6 0.0000 0.0000 0.0000 7.1106 0.0000 28.9465
#
#
#
# Elastic Compliance Matrix: (Units=1/GPa)
#
#
# Indices 1 2 3 4 5 6 
#
# 1 0.023860 -0.002547 -0.007562 0.000000 -0.013505 0.000000
# 2 -0.002547 0.015236 -0.003514 0.000000 -0.000411 0.000000
# 3 -0.007562 -0.003514 0.015163 0.000000 0.002188 0.000000
# 4 0.000000 0.000000 0.000000 0.035460 0.000000 -0.008711
# 5 -0.013505 -0.000411 0.002188 0.000000 0.045487 0.000000
# 6 0.000000 0.000000 0.000000 -0.008711 0.000000 0.036686
#
#
# Mechanical properties :
#
#
# Convention : Reuss Voigt Hill
#
# Bulk Modulus (GPa) = 37.01927 43.06433 40.04180
# Shear Modulus (GPa) = 24.02189 27.07768 25.54979
#
# Velocity S-wave (km/s) = 3.53773 3.75602 3.64851
# Velocity P-wave (km/s) = 5.99789 6.42238 6.21376
#
# Compressibility (1/GPa) = 0.02701296
#
# Stress axis : x y z
#
# Youngs Moduli (GPa) = 41.91088 65.63407 65.95050
#
# Poissons Ratio (x) = 0.16718 0.49872
# Poissons Ratio (y) = 0.10676 0.23174
# Poissons Ratio (z) = 0.31693 0.23062
#
# Static dielectric constant tensor:
#      x y z
#    x 3.240920 0.000000 0.168020 
#    y 0.000000 3.612760 0.000000 
#    z 0.168020 0.000000 3.666490 
# 
# 
# High freq. dielectric constant tensor:
#      x y z
#    x 1.730350 0.000000 0.011160 
#    y 0.000000 1.756460 0.000000 
#    z 0.011160 0.000000 1.756090 
# 
# From -- ./inp_files/288421.got.cif
#   From: 2010.06.25/outbox.cif.g09.slc.cpg/sg12_145_cif.got.tgz:288421.got - 2010.06.28 00:19:55.
