data_PCOD8102642
_publ_section_title
;
Structure prediction by ZEFSAII (Michael W. Deem and Ramdas Pophale) SiO2 
 PCOD8102642
Probable space group: C 2/M
;
_chemical_formula_sum "Si O2"
_cell_formula_units_Z 56
_cell_length_a 18.739243
_cell_length_b 8.673818
_cell_length_c 25.094241
_cell_angle_alpha 90.000000
_cell_angle_beta 134.637157
_cell_angle_gamma 90.000000
_cell_volume 2902.380671
_symmetry_space_group_name_H-M "C 2/M"
_symmetry_group_IT_number 12
_symmetry_cell_setting 'monoclinic'
loop_
_space_group_symop_operation_xyz
x,y,z
-x,y,-z
-x,-y,-z
x,-y,z
1/2+x,1/2+y,z
1/2-x,1/2+y,-z
1/2-x,1/2-y,-z
1/2+x,1/2-y,z
loop_
_atom_site_type_symbol
_atom_site_label
_atom_site_fract_x
_atom_site_fract_y
_atom_site_fract_z
Si Si1 0.552333 0.169144 0.185623
Si Si2 0.241143 0.822658 0.438710
Si Si3 0.388408 0.816320 0.427370
Si Si4 0.833294 0.316572 0.082033
Si Si5 0.046149 0.330831 0.306744
Si Si6 0.754356 0.318795 0.257875
Si Si7 0.843123 0.817691 0.203389
O O1 0.440895 0.229691 0.111102
O O2 0.537239 0.147288 0.239964
O O3 0.641418 0.286861 0.219300
O O4 0.576081 0.000000 0.172904
O O5 0.250000 0.750000 0.500000
O O6 0.318739 0.747571 0.437659
O O7 0.129633 0.795549 0.360852
O O8 0.265773 0.000000 0.456034
O O9 0.500000 0.753306 0.500000
O O10 0.339123 0.760892 0.345235
O O11 0.388139 0.000000 0.427212
O O12 0.824988 0.500000 0.083015
O O13 0.813213 0.243597 0.129602
O O14 0.750000 0.250000 0.000000
O O15 0.067609 0.500000 0.344336
O O16 0.944643 0.262219 0.277589
O O17 0.765296 0.500000 0.254120
O O18 0.762883 0.228994 0.206462
O O19 0.855409 0.000000 0.206947
#
# Coordination Sequence:
#
# PCOD8102642 Si02
#       7
#     8   8   8   8   8   8   8
#     4   9  19  36  59  85 116 151 190 235 290 345
#     4  11  22  36  55  81 111 149 196 247 302 358
#     4   9  20  37  55  79 113 155 199 245 299 353
#     4  10  21  40  65  94 124 157 193 237 291 349
#     4  10  20  37  58  80 110 150 195 247 296 348
#     4  11  21  36  60  86 117 157 202 247 295 354
#     4  11  23  38  59  88 121 155 196 243 291 350
#
# _framework density 19.294505000000001
#
# number of rings (size 3 to 8) (size 9 to 14) (size 15 to 20)
#    0.000    1.857    1.429    3.857    2.000    2.857 
#    0.000    0.714    0.000    7.714    0.000    0.000 
#    0.000    0.000    0.000    0.000    0.000    0.000 
#
# Total GULP energy -347022.587626 kJ/mol
# GULP energy per Si atom -12393.663844 kJ/mol
# Density = 1.925059 g / cm^3
# Si number density = 19.294505 Si / 1000 Ang^3
#
#
#
# Elastic Constant Matrix: (Units=GPa)
#
#
# Indices 1 2 3 4 5 6 
#
# 1 99.0234 36.6233 47.7138 0.0000 -1.6051 0.0000
# 2 36.6233 79.7288 28.3235 0.0000 -3.1412 0.0000
# 3 47.7138 28.3235 121.9806 0.0000 11.8507 0.0000
# 4 0.0000 0.0000 0.0000 30.8859 0.0000 1.0233
# 5 -1.6051 -3.1412 11.8507 0.0000 25.1521 0.0000
# 6 0.0000 0.0000 0.0000 1.0233 0.0000 29.1246
#
#
#
# Elastic Compliance Matrix: (Units=1/GPa)
#
#
# Indices 1 2 3 4 5 6 
#
# 1 0.014145 -0.004737 -0.004677 0.000000 0.002515 0.000000
# 2 -0.004737 0.015532 -0.002005 0.000000 0.002582 0.000000
# 3 -0.004677 -0.002005 0.011052 0.000000 -0.005756 0.000000
# 4 0.000000 0.000000 0.000000 0.032415 0.000000 -0.001139
# 5 0.002515 0.002582 -0.005756 0.000000 0.042953 0.000000
# 6 0.000000 0.000000 0.000000 -0.001139 0.000000 0.034375
#
#
# Mechanical properties :
#
#
# Convention : Reuss Voigt Hill
#
# Bulk Modulus (GPa) = 55.89063 58.45042 57.17053
# Shear Modulus (GPa) = 27.89020 29.57068 28.73044
#
# Velocity S-wave (km/s) = 3.80610 3.91909 3.86300
# Velocity P-wave (km/s) = 6.95307 7.13012 7.04215
#
# Compressibility (1/GPa) = 0.01789209
#
# Stress axis : x y z
#
# Youngs Moduli (GPa) = 70.69605 64.38251 90.47862
#
# Poissons Ratio (x) = 0.30497 0.42321
# Poissons Ratio (y) = 0.33487 0.18137
# Poissons Ratio (z) = 0.33068 0.12906
#
# Static dielectric constant tensor:
#      x y z
#    x 3.423450 0.000000 0.176920 
#    y 0.000000 3.485130 0.000000 
#    z 0.176920 0.000000 3.451140 
# 
# 
# High freq. dielectric constant tensor:
#      x y z
#    x 1.752130 0.000000 0.008560 
#    y 0.000000 1.744990 0.000000 
#    z 0.008560 0.000000 1.745110 
# 
# From -- ./inp_files/363158.got.cif
#   From: 2010.06.25/outbox.cif.g09.slc.cpg/sg12_182_cif.got.tgz:363158.got - 2010.06.28 00:19:55.
