data_PCOD8102619
_publ_section_title
;
Structure prediction by ZEFSAII (Michael W. Deem and Ramdas Pophale) SiO2 
 PCOD8102619
Probable space group: C 2/M
;
_chemical_formula_sum "Si O2"
_cell_formula_units_Z 56
_cell_length_a 20.086681
_cell_length_b 8.960036
_cell_length_c 19.518601
_cell_angle_alpha 90.000000
_cell_angle_beta 58.941204
_cell_angle_gamma 90.000000
_cell_volume 3009.290569
_symmetry_space_group_name_H-M "C 2/M"
_symmetry_group_IT_number 12
_symmetry_cell_setting 'monoclinic'
loop_
_space_group_symop_operation_xyz
x,y,z
-x,y,-z
-x,-y,-z
x,-y,z
1/2+x,1/2+y,z
1/2-x,1/2+y,-z
1/2-x,1/2-y,-z
1/2+x,1/2-y,z
loop_
_atom_site_type_symbol
_atom_site_label
_atom_site_fract_x
_atom_site_fract_y
_atom_site_fract_z
Si Si1 0.907660 0.174619 0.832576
Si Si2 0.254011 0.326684 0.840495
Si Si3 0.224802 0.174217 0.583309
Si Si4 0.305778 0.673704 0.666454
Si Si5 0.047927 0.175104 0.669740
Si Si6 0.966708 0.671944 0.592785
Si Si7 0.818435 0.825045 0.005848
O O1 0.835468 0.239724 0.826675
O O2 0.896951 0.209849 0.919854
O O3 0.989705 0.235663 0.760284
O O4 0.907317 0.000000 0.820137
O O5 0.247096 0.500000 0.862018
O O6 0.249309 0.298545 0.761604
O O7 0.181826 0.243952 0.917248
O O8 0.250000 0.250000 0.500000
O O9 0.275984 0.234885 0.617941
O O10 0.135143 0.209362 0.647602
O O11 0.241229 0.000000 0.567440
O O12 0.309517 0.500000 0.645257
O O13 0.390665 0.728314 0.642844
O O14 0.032302 0.267110 0.609107
O O15 0.036849 0.000000 0.660170
O O16 0.947353 0.500000 0.619185
O O17 0.000000 0.692069 0.500000
O O18 0.804068 0.000000 0.018942
O O19 0.750000 0.750000 0.000000
#
# Coordination Sequence:
#
# PCOD8102619 Si02
#       7
#     8   8   8   8   8   8   8
#     4   8  14  29  50  75 105 136 175 217 260 314
#     4   9  17  31  51  76 106 140 177 220 266 319
#     4  11  24  40  59  81 108 144 187 230 274 332
#     4  11  22  38  59  79 108 147 185 227 274 327
#     4  10  20  37  58  78 105 144 184 221 271 331
#     4  11  23  36  53  81 112 137 173 229 280 326
#     4   9  16  26  45  74 109 141 171 215 264 319
#
# _framework density 18.609038000000002
#
# number of rings (size 3 to 8) (size 9 to 14) (size 15 to 20)
#    0.000    2.143    1.429    3.429    0.000    5.714 
#    0.000    0.714    0.000    0.857    0.000    6.000 
#    0.000    0.000    0.000    0.000    0.000    0.000 
#
# Total GULP energy -347072.925893 kJ/mol
# GULP energy per Si atom -12395.461639 kJ/mol
# Density = 1.856668 g / cm^3
# Si number density = 18.609038 Si / 1000 Ang^3
#
#
#
# Elastic Constant Matrix: (Units=GPa)
#
#
# Indices 1 2 3 4 5 6 
#
# 1 41.8013 22.1017 12.1686 -0.0001 3.9444 0.0012
# 2 22.1017 78.1983 46.6802 -0.0002 4.1260 0.0028
# 3 12.1686 46.6802 111.6278 0.0000 3.0371 0.0001
# 4 -0.0001 -0.0002 0.0000 31.5891 -0.0001 3.6247
# 5 3.9444 4.1260 3.0371 -0.0001 22.7439 0.0000
# 6 0.0012 0.0028 0.0001 3.6247 0.0000 24.6805
#
#
#
# Elastic Compliance Matrix: (Units=1/GPa)
#
#
# Indices 1 2 3 4 5 6 
#
# 1 0.028411 -0.008067 0.000372 0.000000 -0.003514 0.000000
# 2 -0.008067 0.019438 -0.007217 0.000000 -0.001164 -0.000002
# 3 0.000372 -0.007217 0.011945 0.000000 -0.000350 0.000001
# 4 0.000000 0.000000 0.000000 0.032199 0.000000 -0.004729
# 5 -0.003514 -0.001164 -0.000350 0.000000 0.044835 0.000000
# 6 0.000000 -0.000002 0.000001 -0.004729 0.000000 0.041212
#
#
# Mechanical properties :
#
#
# Convention : Reuss Voigt Hill
#
# Bulk Modulus (GPa) = 33.36685 43.72537 38.54611
# Shear Modulus (GPa) = 22.95103 25.84782 24.39942
#
# Velocity S-wave (km/s) = 3.51569 3.73096 3.62492
# Velocity P-wave (km/s) = 5.86936 6.48907 6.18698
#
# Compressibility (1/GPa) = 0.02996987
#
# Stress axis : x y z
#
# Youngs Moduli (GPa) = 35.19753 51.44645 83.71358
#
# Poissons Ratio (x) = 0.41499 -0.03112
# Poissons Ratio (y) = 0.28392 0.60419
# Poissons Ratio (z) = -0.01308 0.37131
#
# Static dielectric constant tensor:
#      x y z
#    x 3.093950 0.000000 0.015940 
#    y 0.000000 3.426710 0.000000 
#    z 0.015940 0.000000 4.057310 
# 
# 
# High freq. dielectric constant tensor:
#      x y z
#    x 1.678380 0.000000 0.005320 
#    y 0.000000 1.717770 0.000000 
#    z 0.005320 0.000000 1.746220 
# 
# From -- ./inp_files/319688.got.cif
#   From: 2010.06.25/outbox.cif.g09.slc.cpg/sg12_160_cif.got.tgz:319688.got - 2010.06.28 00:19:55.
