data_PCOD8102882
_publ_section_title
;
Structure prediction by ZEFSAII (Michael W. Deem and Ramdas Pophale) SiO2 
 PCOD8102882
Probable space group: C 2/M
;
_chemical_formula_sum "Si O2"
_cell_formula_units_Z 64
_cell_length_a 27.707253
_cell_length_b 8.524480
_cell_length_c 16.564283
_cell_angle_alpha 90.000000
_cell_angle_beta 127.101589
_cell_angle_gamma 90.000000
_cell_volume 3120.335509
_symmetry_space_group_name_H-M "C 2/M"
_symmetry_group_IT_number 12
_symmetry_cell_setting 'monoclinic'
loop_
_space_group_symop_operation_xyz
x,y,z
-x,y,-z
-x,-y,-z
x,-y,z
1/2+x,1/2+y,z
1/2-x,1/2+y,-z
1/2-x,1/2-y,-z
1/2+x,1/2-y,z
loop_
_atom_site_type_symbol
_atom_site_label
_atom_site_fract_x
_atom_site_fract_y
_atom_site_fract_z
Si Si1 0.232005 0.683348 0.327518
Si Si2 0.642930 0.684023 0.794598
Si Si3 0.429832 0.681208 0.437865
Si Si4 0.887334 0.315389 0.066859
Si Si5 0.507603 0.816076 0.101368
Si Si6 0.119892 0.181766 0.305194
Si Si7 0.269977 0.186566 0.858167
Si Si8 0.855835 0.680535 0.503428
O O1 0.215597 0.500000 0.315611
O O2 0.183384 0.781546 0.327542
O O3 0.232286 0.746306 0.236027
O O4 0.297349 0.710640 0.432532
O O5 0.642039 0.500000 0.811570
O O6 0.602200 0.728382 0.677362
O O7 0.614368 0.772322 0.841396
O O8 0.710884 0.746353 0.846675
O O9 0.500000 0.716904 0.500000
O O10 0.416812 0.500000 0.445935
O O11 0.404718 0.788641 0.483551
O O12 0.885517 0.500000 0.053726
O O13 0.948784 0.250486 0.089088
O O14 0.829201 0.243041 0.961750
O O15 0.566075 0.725166 0.190794
O O16 0.517208 0.000000 0.126137
O O17 0.500000 0.777985 0.000000
O O18 0.112863 0.280017 0.380086
O O19 0.116741 0.000000 0.323923
O O20 0.269749 0.000000 0.857519
O O21 0.835881 0.500000 0.481566
#
# Coordination Sequence:
#
# PCOD8102882 Si02
#       8
#     8   8   8   8   8   8   8   8
#     4  11  21  41  68  92 123 163 208 256 312 371
#     4  10  20  37  59  88 123 161 203 248 306 368
#     4  10  22  41  64  90 124 167 208 251 312 375
#     4  10  21  36  59  90 121 157 204 255 304 362
#     4  10  22  43  66  90 123 165 211 256 313 375
#     4  12  26  42  63  92 126 163 208 258 312 371
#     4   9  18  36  62  88 119 161 204 246 302 367
#     4  12  25  42  64  94 127 161 207 257 313 371
#
# _framework density 20.510615999999999
#
# number of rings (size 3 to 8) (size 9 to 14) (size 15 to 20)
#    0.000    1.500    1.250    4.125    1.750    3.500 
#    0.000    2.500    0.000    0.000    0.000    0.000 
#    0.000    0.000    0.000    0.000    0.000    0.000 
#
# Total GULP energy -396994.848850 kJ/mol
# GULP energy per Si atom -12406.089027 kJ/mol
# Density = 2.046393 g / cm^3
# Si number density = 20.510616 Si / 1000 Ang^3
#
#
#
# Elastic Constant Matrix: (Units=GPa)
#
#
# Indices 1 2 3 4 5 6 
#
# 1 126.3812 26.6380 59.4014 0.0000 -1.7991 0.0000
# 2 26.6380 44.6696 19.0657 0.0000 -4.1634 0.0000
# 3 59.4014 19.0657 106.7769 0.0000 -4.0861 0.0000
# 4 0.0000 0.0000 0.0000 20.4085 0.0000 -6.9525
# 5 -1.7991 -4.1634 -4.0861 0.0000 36.6387 0.0000
# 6 0.0000 0.0000 0.0000 -6.9525 0.0000 29.5966
#
#
#
# Elastic Compliance Matrix: (Units=1/GPa)
#
#
# Indices 1 2 3 4 5 6 
#
# 1 0.011492 -0.004512 -0.005609 0.000000 -0.000574 0.000000
# 2 -0.004512 0.026197 -0.002071 0.000000 0.002524 0.000000
# 3 -0.005609 -0.002071 0.012891 0.000000 0.000927 0.000000
# 4 0.000000 0.000000 0.000000 0.053261 0.000000 0.012512
# 5 -0.000574 0.002524 0.000927 0.000000 0.027656 0.000000
# 6 0.000000 0.000000 0.000000 0.012512 0.000000 0.036727
#
#
# Mechanical properties :
#
#
# Convention : Reuss Voigt Hill
#
# Bulk Modulus (GPa) = 38.17557 54.22643 46.20100
# Shear Modulus (GPa) = 24.83364 28.84363 26.83864
#
# Velocity S-wave (km/s) = 3.48339 3.75411 3.62128
# Velocity P-wave (km/s) = 5.90183 6.72954 6.32923
#
# Compressibility (1/GPa) = 0.02619476
#
# Stress axis : x y z
#
# Youngs Moduli (GPa) = 87.01696 38.17293 77.57284
#
# Poissons Ratio (x) = 0.17225 0.43514
# Poissons Ratio (y) = 0.39265 0.16063
# Poissons Ratio (z) = 0.48811 0.07904
#
# Static dielectric constant tensor:
#      x y z
#    x 3.860330 0.000000 0.038800 
#    y 0.000000 3.442180 0.000000 
#    z 0.038800 0.000000 3.839930 
# 
# 
# High freq. dielectric constant tensor:
#      x y z
#    x 1.816150 0.000000 -0.000830 
#    y 0.000000 1.779150 0.000000 
#    z -0.000830 0.000000 1.816000 
# 
# From -- ./inp_files/249971.got.cif
#   From: 2010.06.25/outbox.cif.g09.slc.cpg/sg12_125_cif.got.tgz:249971.got - 2010.06.28 00:19:55.
