data_PCOD8102980
_publ_section_title
;
Structure prediction by ZEFSAII (Michael W. Deem and Ramdas Pophale) SiO2 
 PCOD8102980
Probable space group: C 2/M
;
_chemical_formula_sum "Si O2"
_cell_formula_units_Z 64
_cell_length_a 16.199049
_cell_length_b 9.017172
_cell_length_c 32.531629
_cell_angle_alpha 90.000000
_cell_angle_beta 41.902459
_cell_angle_gamma 90.000000
_cell_volume 3173.613555
_symmetry_space_group_name_H-M "C 2/M"
_symmetry_group_IT_number 12
_symmetry_cell_setting 'monoclinic'
loop_
_space_group_symop_operation_xyz
x,y,z
-x,y,-z
-x,-y,-z
x,-y,z
1/2+x,1/2+y,z
1/2-x,1/2+y,-z
1/2-x,1/2-y,-z
1/2+x,1/2-y,z
loop_
_atom_site_type_symbol
_atom_site_label
_atom_site_fract_x
_atom_site_fract_y
_atom_site_fract_z
Si Si1 0.725672 0.828351 0.628743
Si Si2 0.357385 0.328501 0.865445
Si Si3 0.545545 0.672173 0.861650
Si Si4 0.339718 0.671879 0.498099
Si Si5 0.481501 0.668933 0.735405
Si Si6 0.607908 0.674994 0.928989
Si Si7 0.687212 0.830912 0.259210
Si Si8 0.588908 0.828609 0.384474
O O1 0.791061 0.797835 0.561456
O O2 0.583768 0.780351 0.679630
O O3 0.787021 0.724211 0.639784
O O4 0.736336 0.000000 0.637271
O O5 0.320017 0.500000 0.884746
O O6 0.425529 0.263830 0.881488
O O7 0.460118 0.312656 0.791736
O O8 0.234727 0.239376 0.899922
O O9 0.518629 0.500000 0.877478
O O10 0.569222 0.741043 0.898431
O O11 0.666922 0.698489 0.788423
O O12 0.342117 0.500000 0.486392
O O13 0.250000 0.750000 0.500000
O O14 0.476815 0.733817 0.443506
O O15 0.516118 0.500000 0.711389
O O16 0.355497 0.716415 0.759674
O O17 0.627393 0.500000 0.918498
O O18 0.500000 0.719743 0.000000
O O19 0.608095 0.801236 0.329283
O O20 0.667395 0.000000 0.251402
O O21 0.563914 0.000000 0.403422
#
# Coordination Sequence:
#
# PCOD8102980 Si02
#       8
#     8   8   8   8   8   8   8   8
#     4  11  24  40  58  82 114 153 194 237 295 360
#     4  10  21  38  60  87 120 160 200 243 300 360
#     4   9  18  36  60  83 118 162 196 237 299 357
#     4  11  24  41  59  81 111 150 194 239 295 360
#     4  11  22  36  58  88 118 148 196 250 295 350
#     4  10  21  38  61  89 120 158 204 247 291 352
#     4  10  20  37  60  84 115 156 195 234 298 364
#     4  11  23  38  59  86 113 147 194 243 294 358
#
# _framework density 20.166284999999998
#
# number of rings (size 3 to 8) (size 9 to 14) (size 15 to 20)
#    0.000    1.625    1.250    3.375    0.000   10.750 
#    0.000    1.250    0.000    0.000    0.000    0.000 
#    0.000    0.000    0.000    0.000    0.000    0.000 
#
# Total GULP energy -396801.048154 kJ/mol
# GULP energy per Si atom -12400.032755 kJ/mol
# Density = 2.012039 g / cm^3
# Si number density = 20.166285 Si / 1000 Ang^3
#
#
#
# Elastic Constant Matrix: (Units=GPa)
#
#
# Indices 1 2 3 4 5 6 
#
# 1 144.4700 39.2267 43.2196 0.0009 0.7898 0.0018
# 2 39.2267 56.0478 45.1096 0.0037 7.3075 0.0019
# 3 43.2196 45.1096 106.2847 0.0004 -6.5496 0.0005
# 4 0.0009 0.0037 0.0004 20.2375 0.0000 -4.6789
# 5 0.7898 7.3075 -6.5496 0.0000 24.7663 0.0001
# 6 0.0018 0.0019 0.0005 -4.6789 0.0001 38.0184
#
#
#
# Elastic Compliance Matrix: (Units=1/GPa)
#
#
# Indices 1 2 3 4 5 6 
#
# 1 0.008708 -0.005176 -0.001288 0.000001 0.000909 0.000000
# 2 -0.005176 0.033634 -0.012983 -0.000006 -0.013192 -0.000002
# 3 -0.001288 -0.012983 0.015941 0.000002 0.008088 0.000001
# 4 0.000001 -0.000006 0.000002 0.050860 0.000002 0.006259
# 5 0.000909 -0.013192 0.008088 0.000002 0.046380 0.000001
# 6 0.000000 -0.000002 0.000001 0.006259 0.000001 0.027073
#
#
# Mechanical properties :
#
#
# Convention : Reuss Voigt Hill
#
# Bulk Modulus (GPa) = 51.57779 62.43493 57.00636
# Shear Modulus (GPa) = 21.93428 28.55420 25.24424
#
# Velocity S-wave (km/s) = 3.30156 3.76698 3.54192
# Velocity P-wave (km/s) = 6.33763 7.06735 6.71241
#
# Compressibility (1/GPa) = 0.01938819
#
# Stress axis : x y z
#
# Youngs Moduli (GPa) = 114.84165 29.73184 62.73083
#
# Poissons Ratio (x) = 0.15390 0.08079
# Poissons Ratio (y) = 0.59444 0.81444
# Poissons Ratio (z) = 0.14791 0.38601
#
# Static dielectric constant tensor:
#      x y z
#    x 3.894310 -0.000010 0.035220 
#    y -0.000010 3.526970 0.000010 
#    z 0.035220 0.000010 3.693740 
# 
# 
# High freq. dielectric constant tensor:
#      x y z
#    x 1.800760 0.000000 -0.000600 
#    y 0.000000 1.772900 0.000000 
#    z -0.000600 0.000000 1.790900 
# 
# From -- ./inp_files/375367.got.cif
#   From: 2010.06.25/outbox.cif.g09.slc.cpg/sg12_188_cif.got.tgz:375367.got - 2010.06.28 00:19:55.
