data_PCOD8102657
_publ_section_title
;
Structure prediction by ZEFSAII (Michael W. Deem and Ramdas Pophale) SiO2 
 PCOD8102657
Probable space group: C 2/M
;
_chemical_formula_sum "Si O2"
_cell_formula_units_Z 52
_cell_length_a 23.746593
_cell_length_b 9.651634
_cell_length_c 16.791379
_cell_angle_alpha 90.000000
_cell_angle_beta 135.000050
_cell_angle_gamma 90.000000
_cell_volume 2721.279443
_symmetry_space_group_name_H-M "C 2/M"
_symmetry_group_IT_number 12
_symmetry_cell_setting 'monoclinic'
loop_
_space_group_symop_operation_xyz
x,y,z
-x,y,-z
-x,-y,-z
x,-y,z
1/2+x,1/2+y,z
1/2-x,1/2+y,-z
1/2-x,1/2-y,-z
1/2+x,1/2-y,z
loop_
_atom_site_type_symbol
_atom_site_label
_atom_site_fract_x
_atom_site_fract_y
_atom_site_fract_z
Si Si1 0.000000 0.749999 0.000000
Si Si2 0.421179 0.163508 0.201828
Si Si3 0.368927 0.842560 0.753866
Si Si4 0.902791 0.338287 0.610870
Si Si5 0.280648 0.836492 0.359470
Si Si6 0.291920 0.838287 0.194711
Si Si7 0.884939 0.157440 0.016011
O O1 0.052989 0.656993 0.112355
O O2 0.940634 0.843005 0.993623
O O3 0.507285 0.193934 0.327331
O O4 0.354435 0.226636 0.194388
O O5 0.419996 0.242279 0.117421
O O6 0.410734 0.000000 0.174484
O O7 0.389027 0.782327 0.686299
O O8 0.302575 0.742280 0.722572
O O9 0.337211 0.000000 0.717667
O O10 0.887197 0.500000 0.594885
O O11 0.839953 0.273364 0.485518
O O12 0.320045 0.806068 0.312759
O O13 0.263749 0.000000 0.353015
O O14 0.292311 0.000000 0.179507
O O15 0.202727 0.782327 0.091754
O O16 0.880458 0.000000 0.043247
#
# Coordination Sequence:
#
# PCOD8102657 Si02
#       7
#     4   8   8   8   8   8   8
#     4  12  22  36  60  82 114 144 180 222 282 324
#     4  10  20  37  58  81 112 148 184 227 272 322
#     4  11  22  37  56  84 114 143 182 227 276 333
#     4   9  19  35  56  82 111 144 187 228 269 322
#     4  10  20  37  58  81 112 148 184 227 272 322
#     4   9  19  35  56  82 111 144 187 228 269 322
#     4  11  22  37  56  84 114 143 182 227 276 333
#
# _framework density 19.108658999999999
#
# number of rings (size 3 to 8) (size 9 to 14) (size 15 to 20)
#    0.000    1.846    3.077    1.385    0.000    1.846 
#    0.000    4.615    0.000    0.000    0.000    2.154 
#    0.000    0.000    0.000    0.000    0.000    0.000 
#
# Total GULP energy -322310.593498 kJ/mol
# GULP energy per Si atom -12396.561288 kJ/mol
# Density = 1.906517 g / cm^3
# Si number density = 19.108659 Si / 1000 Ang^3
#
#
#
# Elastic Constant Matrix: (Units=GPa)
#
#
# Indices 1 2 3 4 5 6 
#
# 1 131.9310 27.8481 44.4840 0.0000 2.8329 0.0000
# 2 27.8481 48.0423 27.8477 0.0000 0.0000 0.0000
# 3 44.4840 27.8477 131.9308 0.0000 -2.8323 0.0000
# 4 0.0000 0.0000 0.0000 19.0625 0.0000 -0.0002
# 5 2.8329 0.0000 -2.8323 0.0000 27.8320 0.0000
# 6 0.0000 0.0000 0.0000 -0.0002 0.0000 19.0625
#
#
#
# Elastic Compliance Matrix: (Units=1/GPa)
#
#
# Indices 1 2 3 4 5 6 
#
# 1 0.009225 -0.004022 -0.002287 0.000000 -0.001172 0.000000
# 2 -0.004022 0.025477 -0.004022 0.000000 0.000000 0.000000
# 3 -0.002287 -0.004022 0.009225 0.000000 0.001171 0.000000
# 4 0.000000 0.000000 0.000000 0.052459 0.000000 0.000001
# 5 -0.001172 0.000000 0.001171 0.000000 0.036168 0.000000
# 6 0.000000 0.000000 0.000000 0.000001 0.000000 0.052459
#
#
# Mechanical properties :
#
#
# Convention : Reuss Voigt Hill
#
# Bulk Modulus (GPa) = 42.97970 56.91818 49.94894
# Shear Modulus (GPa) = 23.42698 27.30635 25.36667
#
# Velocity S-wave (km/s) = 3.50521 3.78432 3.64743
# Velocity P-wave (km/s) = 6.23884 6.99614 6.62831
#
# Compressibility (1/GPa) = 0.02326680
#
# Stress axis : x y z
#
# Youngs Moduli (GPa) = 108.40348 39.25053 108.40393
#
# Poissons Ratio (x) = 0.15786 0.24788
# Poissons Ratio (y) = 0.43597 0.43596
# Poissons Ratio (z) = 0.24788 0.15785
#
# Static dielectric constant tensor:
#      x y z
#    x 3.726730 0.000000 0.000000 
#    y 0.000000 3.043840 0.000000 
#    z 0.000000 0.000000 3.726710 
# 
# 
# High freq. dielectric constant tensor:
#      x y z
#    x 1.752780 0.000000 0.000000 
#    y 0.000000 1.701770 0.000000 
#    z 0.000000 0.000000 1.752780 
# 
# From -- ./inp_files/232599.got.cif
#   From: 2010.06.25/outbox.cif.g09.slc.cpg/sg12_117_cif.got.tgz:232599.got - 2010.06.28 00:19:55.
