data_PCOD8102969
_publ_section_title
;
Structure prediction by ZEFSAII (Michael W. Deem and Ramdas Pophale) SiO2 
 PCOD8102969
Probable space group: C 2/M
;
_chemical_formula_sum "Si O2"
_cell_formula_units_Z 56
_cell_length_a 19.493485
_cell_length_b 9.288269
_cell_length_c 18.809344
_cell_angle_alpha 90.000000
_cell_angle_beta 60.045668
_cell_angle_gamma 90.000000
_cell_volume 2950.721520
_symmetry_space_group_name_H-M "C 2/M"
_symmetry_group_IT_number 12
_symmetry_cell_setting 'monoclinic'
loop_
_space_group_symop_operation_xyz
x,y,z
-x,y,-z
-x,-y,-z
x,-y,z
1/2+x,1/2+y,z
1/2-x,1/2+y,-z
1/2-x,1/2-y,-z
1/2+x,1/2-y,z
loop_
_atom_site_type_symbol
_atom_site_label
_atom_site_fract_x
_atom_site_fract_y
_atom_site_fract_z
Si Si1 0.976646 0.337571 0.346984
Si Si2 0.772838 0.834097 0.665187
Si Si3 0.870882 0.165327 0.750863
Si Si4 0.681284 0.171758 0.491909
Si Si5 0.326927 0.329203 0.931101
Si Si6 0.514079 0.330607 0.072308
Si Si7 0.906709 0.662278 0.230224
O O1 0.997218 0.500000 0.358304
O O2 0.902535 0.282638 0.431176
O O3 0.958283 0.325638 0.273726
O O4 0.053288 0.242541 0.322161
O O5 0.799859 0.811056 0.732275
O O6 0.820498 0.729263 0.587812
O O7 0.681844 0.787786 0.706914
O O8 0.784927 0.000000 0.635109
O O9 0.843883 0.224823 0.841796
O O10 0.894693 0.000000 0.747421
O O11 0.750000 0.250000 0.500000
O O12 0.694101 0.000000 0.488545
O O13 0.312460 0.500000 0.941175
O O14 0.400539 0.281205 0.942401
O O15 0.250000 0.250000 0.000000
O O16 0.506383 0.500000 0.081962
O O17 0.442528 0.266464 0.153704
O O18 0.500000 0.274892 0.000000
O O19 0.906491 0.500000 0.200296
#
# Coordination Sequence:
#
# PCOD8102969 Si02
#       7
#     8   8   8   8   8   8   8
#     4  10  21  38  60  84 114 151 191 237 286 340
#     4  10  22  40  59  86 120 152 195 242 286 342
#     4  10  22  40  61  84 116 156 193 236 288 346
#     4  11  22  38  60  88 120 154 193 241 292 341
#     4  10  22  39  58  83 115 151 189 232 287 345
#     4  10  22  39  58  85 118 148 188 242 289 339
#     4  10  20  37  60  84 113 152 193 236 281 338
#
# _framework density 18.97841
#
# number of rings (size 3 to 8) (size 9 to 14) (size 15 to 20)
#    0.000    1.857    2.857    0.429    2.000    4.286 
#    0.000    2.857    0.000    0.000    0.000    0.000 
#    0.000    0.000    0.000    0.000    0.000    0.000 
#
# Total GULP energy -347275.322642 kJ/mol
# GULP energy per Si atom -12402.690094 kJ/mol
# Density = 1.893521 g / cm^3
# Si number density = 18.978410 Si / 1000 Ang^3
#
#
#
# Elastic Constant Matrix: (Units=GPa)
#
#
# Indices 1 2 3 4 5 6 
#
# 1 60.6772 25.6657 25.5526 0.0000 1.5106 0.0000
# 2 25.6657 44.5122 36.9857 0.0000 -6.9542 -0.0001
# 3 25.5526 36.9857 113.9732 0.0000 -2.9552 0.0000
# 4 0.0000 0.0000 0.0000 37.8608 0.0000 -6.4209
# 5 1.5106 -6.9542 -2.9552 0.0000 33.9018 0.0000
# 6 0.0000 -0.0001 0.0000 -6.4209 0.0000 28.3846
#
#
#
# Elastic Compliance Matrix: (Units=1/GPa)
#
#
# Indices 1 2 3 4 5 6 
#
# 1 0.022331 -0.012611 -0.001009 0.000000 -0.003670 0.000000
# 2 -0.012611 0.038921 -0.009603 0.000000 0.007709 0.000000
# 3 -0.001009 -0.009603 0.012094 0.000000 -0.000871 0.000000
# 4 0.000000 0.000000 0.000000 0.027466 0.000000 0.006213
# 5 -0.003670 0.007709 -0.000871 0.000000 0.031166 0.000000
# 6 0.000000 0.000000 0.000000 0.006213 0.000000 0.036636
#
#
# Mechanical properties :
#
#
# Convention : Reuss Voigt Hill
#
# Bulk Modulus (GPa) = 37.17543 43.95229 40.56386
# Shear Modulus (GPa) = 22.31870 28.76002 25.53936
#
# Velocity S-wave (km/s) = 3.43301 3.89705 3.67237
# Velocity P-wave (km/s) = 5.94516 6.59232 6.27708
#
# Compressibility (1/GPa) = 0.02689948
#
# Stress axis : x y z
#
# Youngs Moduli (GPa) = 44.78003 25.69318 82.68539
#
# Poissons Ratio (x) = 0.32401 0.08346
# Poissons Ratio (y) = 0.56472 0.79403
# Poissons Ratio (z) = 0.04520 0.24673
#
# Static dielectric constant tensor:
#      x y z
#    x 3.521530 0.000000 0.081160 
#    y 0.000000 3.436310 0.000000 
#    z 0.081160 0.000000 3.587640 
# 
# 
# High freq. dielectric constant tensor:
#      x y z
#    x 1.743140 0.000000 0.000740 
#    y 0.000000 1.729850 0.000000 
#    z 0.000740 0.000000 1.744930 
# 
# From -- ./inp_files/280850.got.cif
#   From: 2010.06.25/outbox.cif.g09.slc.cpg/sg12_141_cif.got.tgz:280850.got - 2010.06.28 00:19:55.
