data_PCOD8102610
_publ_section_title
;
Structure prediction by ZEFSAII (Michael W. Deem and Ramdas Pophale) SiO2 
 PCOD8102610
Probable space group: C 2/M
;
_chemical_formula_sum "Si O2"
_cell_formula_units_Z 64
_cell_length_a 9.651467
_cell_length_b 19.370409
_cell_length_c 25.096736
_cell_angle_alpha 90.000000
_cell_angle_beta 48.844210
_cell_angle_gamma 90.000000
_cell_volume 3532.644134
_symmetry_space_group_name_H-M "C 2/M"
_symmetry_group_IT_number 12
_symmetry_cell_setting 'monoclinic'
loop_
_space_group_symop_operation_xyz
x,y,z
-x,y,-z
-x,-y,-z
x,-y,z
1/2+x,1/2+y,z
1/2-x,1/2+y,-z
1/2-x,1/2-y,-z
1/2+x,1/2-y,z
loop_
_atom_site_type_symbol
_atom_site_label
_atom_site_fract_x
_atom_site_fract_y
_atom_site_fract_z
Si Si1 0.794004 0.312592 0.029786
Si Si2 0.218988 0.665215 0.189597
Si Si3 0.689068 0.578705 0.473213
Si Si4 0.011685 0.230193 0.181745
Si Si5 0.706355 0.078587 0.435774
Si Si6 0.967567 0.079910 0.946219
Si Si7 0.475102 0.824304 0.347169
Si Si8 0.694711 0.302882 0.665672
O O1 0.680572 0.308699 0.112687
O O2 0.725600 0.382890 0.018953
O O3 0.750000 0.250000 0.000000
O O4 0.000000 0.314688 0.000000
O O5 0.082837 0.692483 0.177496
O O6 0.339790 0.729256 0.183825
O O7 0.356760 0.607807 0.131721
O O8 0.089511 0.638125 0.270464
O O9 0.500000 0.611747 0.500000
O O10 0.708336 0.500000 0.449411
O O11 0.678926 0.584245 0.539275
O O12 0.862099 0.616980 0.404910
O O13 0.961516 0.190725 0.249277
O O14 0.500000 0.104415 0.500000
O O15 0.805896 0.126453 0.367392
O O16 0.702755 0.000000 0.414697
O O17 0.945537 0.000000 0.937847
O O18 0.000000 0.093115 0.000000
O O19 0.341951 0.763563 0.361336
O O20 0.609598 0.789972 0.356257
#
# Coordination Sequence:
#
# PCOD8102610 Si02
#       8
#     8   8   8   8   8   8   8   8
#     4  11  20  33  59  86 110 148 190 229 274 328
#     4   9  18  34  54  77 106 140 175 221 275 321
#     4  10  22  38  55  76 103 136 179 225 268 322
#     4   9  18  33  51  80 110 133 177 222 266 322
#     4  10  20  37  58  77 102 140 185 225 266 326
#     4  10  21  36  54  80 113 147 187 229 272 324
#     4  10  21  35  54  80 108 140 176 220 276 324
#     4  10  21  35  53  80 110 140 174 224 274 321
#
# _framework density 18.116741000000001
#
# number of rings (size 3 to 8) (size 9 to 14) (size 15 to 20)
#    0.000    2.125    1.250    2.625    1.750    1.750 
#    0.000    5.000    0.000    0.000    0.000    0.000 
#    0.000    0.000    0.000    0.000    0.000    0.000 
#
# Total GULP energy -396599.869892 kJ/mol
# GULP energy per Si atom -12393.745934 kJ/mol
# Density = 1.807551 g / cm^3
# Si number density = 18.116741 Si / 1000 Ang^3
#
#
#
# Elastic Constant Matrix: (Units=GPa)
#
#
# Indices 1 2 3 4 5 6 
#
# 1 109.0923 47.4973 38.6003 -0.0021 -3.8277 0.0019
# 2 47.4973 98.5800 52.9234 -0.0024 2.7583 0.0005
# 3 38.6003 52.9234 94.5646 -0.0006 -3.3556 0.0072
# 4 -0.0021 -0.0024 -0.0006 29.1388 0.0043 -1.2538
# 5 -3.8277 2.7583 -3.3556 0.0043 25.9311 -0.0015
# 6 0.0019 0.0005 0.0072 -1.2538 -0.0015 27.1408
#
#
#
# Elastic Compliance Matrix: (Units=1/GPa)
#
#
# Indices 1 2 3 4 5 6 
#
# 1 0.012060 -0.004662 -0.002243 0.000000 0.001986 0.000000
# 2 -0.004662 0.016480 -0.007441 0.000001 -0.003404 0.000002
# 3 -0.002243 -0.007441 0.015743 -0.000001 0.002498 -0.000004
# 4 0.000000 0.000001 -0.000001 0.034387 -0.000006 0.001589
# 5 0.001986 -0.003404 0.002498 -0.000006 0.039542 0.000001
# 6 0.000000 0.000002 -0.000004 0.001589 0.000001 0.036918
#
#
# Mechanical properties :
#
#
# Convention : Reuss Voigt Hill
#
# Bulk Modulus (GPa) = 64.13877 64.47544 64.30711
# Shear Modulus (GPa) = 26.45228 27.32323 26.88775
#
# Velocity S-wave (km/s) = 3.82527 3.88774 3.85663
# Velocity P-wave (km/s) = 7.41554 7.47120 7.44342
#
# Compressibility (1/GPa) = 0.01559119
#
# Stress axis : x y z
#
# Youngs Moduli (GPa) = 82.92152 60.67878 63.51839
#
# Poissons Ratio (x) = 0.28287 0.14248
# Poissons Ratio (y) = 0.38656 0.47265
# Poissons Ratio (z) = 0.18600 0.45152
#
# Static dielectric constant tensor:
#      x y z
#    x 3.677950 0.000000 0.028560 
#    y 0.000000 3.120270 0.000000 
#    z 0.028560 0.000000 3.504050 
# 
# 
# High freq. dielectric constant tensor:
#      x y z
#    x 1.716770 0.000000 0.005330 
#    y 0.000000 1.672600 0.000000 
#    z 0.005330 0.000000 1.711050 
# 
# From -- ./inp_files/333708.got.cif
#   From: 2010.06.25/outbox.cif.g09.slc.cpg/sg12_167_cif.got.tgz:333708.got - 2010.06.28 00:19:55.
