data_PCOD8102440
_publ_section_title
;
Structure prediction by ZEFSAII (Michael W. Deem and Ramdas Pophale) SiO2 
 PCOD8102440
Probable space group: C 2/M
;
_chemical_formula_sum "Si O2"
_cell_formula_units_Z 48
_cell_length_a 22.634996
_cell_length_b 13.458009
_cell_length_c 12.543971
_cell_angle_alpha 90.000000
_cell_angle_beta 35.692648
_cell_angle_gamma 90.000000
_cell_volume 2229.411553
_symmetry_space_group_name_H-M "C 2/M"
_symmetry_group_IT_number 12
_symmetry_cell_setting 'monoclinic'
loop_
_space_group_symop_operation_xyz
x,y,z
-x,y,-z
-x,-y,-z
x,-y,z
1/2+x,1/2+y,z
1/2-x,1/2+y,-z
1/2-x,1/2-y,-z
1/2+x,1/2-y,z
loop_
_atom_site_type_symbol
_atom_site_label
_atom_site_fract_x
_atom_site_fract_y
_atom_site_fract_z
Si Si1 0.573650 0.234700 0.652426
Si Si2 0.759520 0.730840 0.231120
Si Si3 0.729205 0.389584 0.068029
Si Si4 0.949054 0.386736 0.680508
Si Si5 0.113402 0.612044 0.794435
Si Si6 0.591698 0.615141 0.074682
O O1 0.655643 0.243126 0.440365
O O2 0.482715 0.167179 0.740017
O O3 0.628849 0.184621 0.671792
O O4 0.521870 0.339105 0.762933
O O5 0.729765 0.692538 0.158023
O O6 0.814077 0.643799 0.216080
O O7 0.833190 0.826579 0.115751
O O8 0.727658 0.500000 0.121166
O O9 0.631200 0.373920 0.138028
O O10 0.828001 0.377751 0.848035
O O11 0.985451 0.500000 0.638421
O O12 0.000000 0.339640 0.500000
O O13 0.141376 0.500000 0.719686
O O14 0.000000 0.619902 0.000000
O O15 0.587092 0.500000 0.045800
#
# Coordination Sequence:
#
# PCOD8102440 Si02
#       6
#     8   8   8   8   8   8
#     4  12  25  40  66  96 134 171 220 265 336 391
#     4  12  24  42  68  95 131 174 222 271 328 393
#     4  10  21  40  65  94 130 173 218 271 324 383
#     4  10  20  36  63  97 128 164 218 273 325 382
#     4  11  23  45  72  95 122 162 219 280 329 386
#     4  11  25  43  63  96 142 179 216 266 332 399
#
# _framework density 21.530346000000002
#
# number of rings (size 3 to 8) (size 9 to 14) (size 15 to 20)
#    0.000    1.000    3.333    3.000    2.333    6.667 
#    0.000    3.333    0.000    0.000    0.000    0.000 
#    0.000    0.000    0.000    0.000    0.000    0.000 
#
# Total GULP energy -297724.392768 kJ/mol
# GULP energy per Si atom -12405.183032 kJ/mol
# Density = 2.148134 g / cm^3
# Si number density = 21.530346 Si / 1000 Ang^3
#
#
#
# Elastic Constant Matrix: (Units=GPa)
#
#
# Indices 1 2 3 4 5 6 
#
# 1 63.9840 30.5017 10.3900 0.0000 -1.6979 0.0000
# 2 30.5017 133.4407 51.7033 0.0000 4.3358 0.0000
# 3 10.3900 51.7033 118.9371 0.0000 5.4834 0.0000
# 4 0.0000 0.0000 0.0000 27.2045 0.0000 3.8461
# 5 -1.6979 4.3358 5.4834 0.0000 16.2811 0.0000
# 6 0.0000 0.0000 0.0000 3.8461 0.0000 36.3271
#
#
#
# Elastic Compliance Matrix: (Units=1/GPa)
#
#
# Indices 1 2 3 4 5 6 
#
# 1 0.017681 -0.004192 0.000143 0.000000 0.002912 0.000000
# 2 -0.004192 0.010025 -0.003909 0.000000 -0.001790 0.000000
# 3 0.000143 -0.003909 0.010204 0.000000 -0.002381 0.000000
# 4 0.000000 0.000000 0.000000 0.037317 0.000000 -0.003951
# 5 0.002912 -0.001790 -0.002381 0.000000 0.063003 0.000000
# 6 0.000000 0.000000 0.000000 -0.003951 0.000000 0.027946
#
#
# Mechanical properties :
#
#
# Convention : Reuss Voigt Hill
#
# Bulk Modulus (GPa) = 45.46418 55.72799 50.59608
# Shear Modulus (GPa) = 26.39583 30.88032 28.63807
#
# Velocity S-wave (km/s) = 3.50520 3.79128 3.65105
# Velocity P-wave (km/s) = 6.12732 6.71601 6.42841
#
# Compressibility (1/GPa) = 0.02199534
#
# Stress axis : x y z
#
# Youngs Moduli (GPa) = 56.55752 99.75116 97.99657
#
# Poissons Ratio (x) = 0.41813 -0.01405
# Poissons Ratio (y) = 0.23707 0.38309
# Poissons Ratio (z) = -0.00811 0.38995
#
# Static dielectric constant tensor:
#      x y z
#    x 4.030120 0.000000 -0.070000 
#    y 0.000000 4.090950 0.000000 
#    z -0.070000 0.000000 3.837150 
# 
# 
# High freq. dielectric constant tensor:
#      x y z
#    x 1.839110 0.000000 -0.002510 
#    y 0.000000 1.854390 0.000000 
#    z -0.002510 0.000000 1.838820 
# 
# From -- ./inp_files/143189.got.cif
#   From: 2010.06.25/outbox.cif.g09.slc.cpg/sg12_72_cif.got.tgz:143189.got - 2010.06.28 00:19:55.
