data_PCOD8102425
_publ_section_title
;
Structure prediction by ZEFSAII (Michael W. Deem and Ramdas Pophale) SiO2 
 PCOD8102425
Probable space group: C 2/M
;
_chemical_formula_sum "Si O2"
_cell_formula_units_Z 44
_cell_length_a 25.270844
_cell_length_b 12.357766
_cell_length_c 9.325311
_cell_angle_alpha 90.000000
_cell_angle_beta 129.932394
_cell_angle_gamma 90.000000
_cell_volume 2233.091315
_symmetry_space_group_name_H-M "C 2/M"
_symmetry_group_IT_number 12
_symmetry_cell_setting 'monoclinic'
loop_
_space_group_symop_operation_xyz
x,y,z
-x,y,-z
-x,-y,-z
x,-y,z
1/2+x,1/2+y,z
1/2-x,1/2+y,-z
1/2-x,1/2-y,-z
1/2+x,1/2-y,z
loop_
_atom_site_type_symbol
_atom_site_label
_atom_site_fract_x
_atom_site_fract_y
_atom_site_fract_z
Si Si1 0.103403 0.733816 0.397257
Si Si2 0.104943 0.500000 0.958288
Si Si3 0.980443 0.877714 0.131553
Si Si4 0.947113 0.500000 0.625211
Si Si5 0.328233 0.000000 0.217859
Si Si6 0.139094 0.271559 0.139414
Si Si7 0.771438 0.281220 0.196212
O O1 0.040104 0.814171 0.319894
O O2 0.077590 0.609661 0.339211
O O3 0.139623 0.757520 0.308081
O O4 0.155440 0.763721 0.617521
O O5 0.165817 0.500000 0.944241
O O6 0.029506 0.500000 0.754568
O O7 0.113594 0.394242 0.071171
O O8 0.972613 0.000000 0.177542
O O9 0.000000 0.878658 0.000000
O O10 0.909803 0.811871 0.031784
O O11 0.908753 0.500000 0.405005
O O12 0.282182 0.907873 0.206911
O O13 0.215304 0.254620 0.213273
O O14 0.750000 0.250000 0.000000
#
# Coordination Sequence:
#
# PCOD8102425 Si02
#       7
#     8   4   8   4   4   8   8
#     4  10  21  39  61  90 120 150 195 246 297 353
#     4  12  20  36  63  93 120 152 198 248 302 352
#     4   9  19  37  59  87 119 151 187 235 294 354
#     4  10  20  36  63  93 119 153 190 254 303 356
#     4  10  23  40  58  84 121 162 203 241 295 356
#     4  11  22  36  63  91 118 152 195 246 299 351
#     4  11  23  42  59  82 119 161 200 240 293 349
#
# _framework density 19.703628999999999
#
# number of rings (size 3 to 8) (size 9 to 14) (size 15 to 20)
#    0.000    1.636    3.636    1.364    1.273    0.727 
#    3.273    0.909    0.000    1.091    0.000    0.000 
#    0.000    0.000    0.000    0.000    0.000    0.000 
#
# Total GULP energy -272643.107160 kJ/mol
# GULP energy per Si atom -12392.868507 kJ/mol
# Density = 1.965878 g / cm^3
# Si number density = 19.703629 Si / 1000 Ang^3
#
#
#
# Elastic Constant Matrix: (Units=GPa)
#
#
# Indices 1 2 3 4 5 6 
#
# 1 51.1408 23.1360 18.4665 0.0000 11.6207 0.0000
# 2 23.1360 129.5426 56.7721 0.0000 23.4920 0.0000
# 3 18.4665 56.7721 114.8644 0.0000 15.9987 0.0000
# 4 0.0000 0.0000 0.0000 19.8456 0.0000 -2.9882
# 5 11.6207 23.4920 15.9987 0.0000 33.8289 0.0000
# 6 0.0000 0.0000 0.0000 -2.9882 0.0000 25.5560
#
#
#
# Elastic Compliance Matrix: (Units=1/GPa)
#
#
# Indices 1 2 3 4 5 6 
#
# 1 0.022417 -0.002282 -0.001739 0.000000 -0.005294 0.000000
# 2 -0.002282 0.010894 -0.004360 0.000000 -0.004719 0.000000
# 3 -0.001739 -0.004360 0.011386 0.000000 -0.001759 0.000000
# 4 0.000000 0.000000 0.000000 0.051292 0.000000 0.005998
# 5 -0.005294 -0.004719 -0.001759 0.000000 0.035488 0.000000
# 6 0.000000 0.000000 0.000000 0.005998 0.000000 0.039831
#
#
# Mechanical properties :
#
#
# Convention : Reuss Voigt Hill
#
# Bulk Modulus (GPa) = 35.79759 54.69967 45.24863
# Shear Modulus (GPa) = 25.33186 28.99097 27.16142
#
# Velocity S-wave (km/s) = 3.58948 3.83998 3.71684
# Velocity P-wave (km/s) = 5.94866 6.89073 6.43695
#
# Compressibility (1/GPa) = 0.02793484
#
# Stress axis : x y z
#
# Youngs Moduli (GPa) = 44.60934 91.79744 87.83082
#
# Poissons Ratio (x) = 0.20944 0.15273
# Poissons Ratio (y) = 0.10178 0.38295
# Poissons Ratio (z) = 0.07757 0.40024
#
# Static dielectric constant tensor:
#      x y z
#    x 3.483320 0.000000 0.226900 
#    y 0.000000 3.700590 0.000000 
#    z 0.226900 0.000000 3.721410 
# 
# 
# High freq. dielectric constant tensor:
#      x y z
#    x 1.755250 0.000000 0.013030 
#    y 0.000000 1.772310 0.000000 
#    z 0.013030 0.000000 1.768090 
# 
# From -- ./inp_files/84108.got.cif
#   From: 2010.06.25/outbox.cif.g09.slc.cpg/sg12_43_cif.got.tgz:84108.got - 2010.06.28 00:19:55.
