data_PCOD8102524
_publ_section_title
;
Structure prediction by ZEFSAII (Michael W. Deem and Ramdas Pophale) SiO2 
 PCOD8102524
Probable space group: C 2/M
;
_chemical_formula_sum "Si O2"
_cell_formula_units_Z 56
_cell_length_a 28.386596
_cell_length_b 8.814248
_cell_length_c 14.271242
_cell_angle_alpha 90.000000
_cell_angle_beta 60.598669
_cell_angle_gamma 90.000000
_cell_volume 3110.852502
_symmetry_space_group_name_H-M "C 2/M"
_symmetry_group_IT_number 12
_symmetry_cell_setting 'monoclinic'
loop_
_space_group_symop_operation_xyz
x,y,z
-x,y,-z
-x,-y,-z
x,-y,z
1/2+x,1/2+y,z
1/2-x,1/2+y,-z
1/2-x,1/2-y,-z
1/2+x,1/2-y,z
loop_
_atom_site_type_symbol
_atom_site_label
_atom_site_fract_x
_atom_site_fract_y
_atom_site_fract_z
Si Si1 0.451962 0.178101 0.610936
Si Si2 0.862534 0.324042 0.558989
Si Si3 0.255060 0.677555 0.597298
Si Si4 0.653104 0.670371 0.763760
Si Si5 0.918797 0.828676 0.340557
Si Si6 0.973577 0.319840 0.797989
Si Si7 0.943458 0.819825 0.009702
O O1 0.500000 0.251380 0.500000
O O2 0.392291 0.214150 0.628015
O O3 0.453388 0.239324 0.716021
O O4 0.462015 0.000000 0.602924
O O5 0.846714 0.500000 0.566193
O O6 0.809494 0.223647 0.598094
O O7 0.906875 0.283706 0.437486
O O8 0.254807 0.500000 0.582373
O O9 0.250000 0.750000 0.500000
O O10 0.206091 0.724913 0.713724
O O11 0.669444 0.500000 0.777840
O O12 0.632221 0.669691 0.677933
O O13 0.606898 0.734396 0.877679
O O14 0.969459 0.760570 0.235517
O O15 0.930745 0.000000 0.363754
O O16 0.978758 0.500000 0.797248
O O17 0.934067 0.260193 0.918267
O O18 0.943747 0.000000 0.997795
O O19 0.000000 0.764582 0.000000
#
# Coordination Sequence:
#
# PCOD8102524 Si02
#       7
#     8   8   8   8   8   8   8
#     4   9  18  34  54  79 111 146 181 221 274 327
#     4  11  21  36  57  79 109 148 186 223 271 328
#     4  12  24  37  55  81 114 145 182 227 273 324
#     4  10  21  37  56  77 110 150 185 221 271 327
#     4  11  20  32  52  80 114 147 182 223 267 322
#     4  11  21  34  54  81 113 147 186 225 267 326
#     4  10  20  37  56  78 111 147 180 223 276 326
#
# _framework density 18.001497000000001
#
# number of rings (size 3 to 8) (size 9 to 14) (size 15 to 20)
#    0.000    1.429    4.286    2.571    0.000    1.429 
#    0.000    3.571    0.000    0.857    0.000    0.000 
#    0.000    0.000    0.000    0.000    0.000    0.000 
#
# Total GULP energy -347192.580141 kJ/mol
# GULP energy per Si atom -12399.735005 kJ/mol
# Density = 1.796052 g / cm^3
# Si number density = 18.001497 Si / 1000 Ang^3
#
#
#
# Elastic Constant Matrix: (Units=GPa)
#
#
# Indices 1 2 3 4 5 6 
#
# 1 81.2293 39.7068 50.4195 0.0000 -1.6943 0.0000
# 2 39.7068 76.6674 35.8921 0.0000 -7.2599 0.0000
# 3 50.4195 35.8921 112.0287 0.0000 -1.2362 0.0000
# 4 0.0000 0.0000 0.0000 28.2940 0.0000 -1.9132
# 5 -1.6943 -7.2599 -1.2362 0.0000 30.1846 0.0000
# 6 0.0000 0.0000 0.0000 -1.9132 0.0000 24.2427
#
#
#
# Elastic Compliance Matrix: (Units=1/GPa)
#
#
# Indices 1 2 3 4 5 6 
#
# 1 0.020015 -0.007330 -0.006669 0.000000 -0.000913 0.000000
# 2 -0.007330 0.018406 -0.002555 0.000000 0.003911 0.000000
# 3 -0.006669 -0.002555 0.012741 0.000000 -0.000467 0.000000
# 4 0.000000 0.000000 0.000000 0.035533 0.000000 0.002804
# 5 -0.000913 0.003911 -0.000467 0.000000 0.034000 0.000000
# 6 0.000000 0.000000 0.000000 0.002804 0.000000 0.041471
#
#
# Mechanical properties :
#
#
# Convention : Reuss Voigt Hill
#
# Bulk Modulus (GPa) = 55.39119 57.99581 56.69350
# Shear Modulus (GPa) = 24.83956 26.13803 25.48880
#
# Velocity S-wave (km/s) = 3.71868 3.81464 3.76696
# Velocity P-wave (km/s) = 7.01963 7.18951 7.10508
#
# Compressibility (1/GPa) = 0.01805341
#
# Stress axis : x y z
#
# Youngs Moduli (GPa) = 49.96356 54.33011 78.48466
#
# Poissons Ratio (x) = 0.39823 0.52345
# Poissons Ratio (y) = 0.36623 0.20052
# Poissons Ratio (z) = 0.33323 0.13881
#
# Static dielectric constant tensor:
#      x y z
#    x 3.296530 0.000000 0.018610 
#    y 0.000000 3.220450 0.000000 
#    z 0.018610 0.000000 3.351150 
# 
# 
# High freq. dielectric constant tensor:
#      x y z
#    x 1.683640 0.000000 -0.002490 
#    y 0.000000 1.690990 0.000000 
#    z -0.002490 0.000000 1.688520 
# 
# From -- ./inp_files/243623.got.cif
#   From: 2010.06.25/outbox.cif.g09.slc.cpg/sg12_122_cif.got.tgz:243623.got - 2010.06.28 00:19:55.
