data_PCOD8102057
_publ_section_title
;
Structure prediction by ZEFSAII (Michael W. Deem and Ramdas Pophale) SiO2 
 PCOD8102057
Probable space group: C 2/M
;
_chemical_formula_sum "Si O2"
_cell_formula_units_Z 56
_cell_length_a 15.130275
_cell_length_b 8.804153
_cell_length_c 21.085645
_cell_angle_alpha 90.000000
_cell_angle_beta 88.043198
_cell_angle_gamma 90.000000
_cell_volume 2807.165145
_symmetry_space_group_name_H-M "C 2/M"
_symmetry_group_IT_number 12
_symmetry_cell_setting 'monoclinic'
loop_
_space_group_symop_operation_xyz
x,y,z
-x,y,-z
-x,-y,-z
x,-y,z
1/2+x,1/2+y,z
1/2-x,1/2+y,-z
1/2-x,1/2-y,-z
1/2+x,1/2-y,z
loop_
_atom_site_type_symbol
_atom_site_label
_atom_site_fract_x
_atom_site_fract_y
_atom_site_fract_z
Si Si1 0.482704 0.321932 0.152969
Si Si2 0.840072 0.678741 0.072402
Si Si3 0.168014 0.676061 0.369599
Si Si4 0.156482 0.322550 0.623478
Si Si5 0.993049 0.674655 0.714837
Si Si6 0.359433 0.678896 0.940370
Si Si7 0.102072 0.822471 0.497680
O O1 0.470861 0.500000 0.145531
O O2 0.393533 0.243236 0.130643
O O3 0.496638 0.282211 0.225512
O O4 0.568129 0.264178 0.111755
O O5 0.849880 0.500000 0.071205
O O6 0.737538 0.728545 0.082000
O O7 0.881284 0.743739 0.006745
O O8 0.166135 0.500000 0.389642
O O9 0.264917 0.728985 0.344392
O O10 0.102257 0.706580 0.313118
O O11 0.143159 0.779524 0.429673
O O12 0.177464 0.500000 0.626584
O O13 0.151017 0.272659 0.550625
O O14 0.066122 0.280661 0.661147
O O15 0.003333 0.500000 0.735740
O O16 0.364167 0.500000 0.950941
O O17 0.000000 0.776149 0.500000
O O18 0.116003 0.000000 0.510644
#
# Coordination Sequence:
#
# PCOD8102057 Si02
#       7
#     8   8   8   8   8   8   8
#     4  11  23  38  59  84 116 155 194 237 286 343
#     4  10  20  36  60  88 118 151 191 237 286 340
#     4  11  23  41  63  88 118 153 195 242 295 350
#     4  11  23  41  63  87 117 154 194 240 297 351
#     4  10  24  43  60  81 115 156 196 240 288 344
#     4   9  20  38  58  85 119 153 189 233 288 342
#     4  11  22  37  62  92 120 151 192 242 293 349
#
# _framework density 19.948951999999998
#
# number of rings (size 3 to 8) (size 9 to 14) (size 15 to 20)
#    0.000    1.571    1.429    3.000    0.000    7.429 
#    0.000    4.286    0.000    0.000    0.000    0.000 
#    0.000    0.000    0.000    0.000    0.000    0.000 
#
# Total GULP energy -347378.457502 kJ/mol
# GULP energy per Si atom -12406.373482 kJ/mol
# Density = 1.990355 g / cm^3
# Si number density = 19.948952 Si / 1000 Ang^3
#
#
#
# Elastic Constant Matrix: (Units=GPa)
#
#
# Indices 1 2 3 4 5 6 
#
# 1 96.0211 31.9827 22.4999 0.0000 22.7118 0.0000
# 2 31.9827 44.5962 22.2606 0.0000 6.7060 0.0000
# 3 22.4999 22.2606 80.8592 0.0000 17.2067 0.0000
# 4 0.0000 0.0000 0.0000 36.0115 0.0000 1.6048
# 5 22.7118 6.7060 17.2067 0.0000 24.8818 0.0000
# 6 0.0000 0.0000 0.0000 1.6048 0.0000 31.6305
#
#
#
# Elastic Compliance Matrix: (Units=1/GPa)
#
#
# Indices 1 2 3 4 5 6 
#
# 1 0.016830 -0.010605 0.001052 0.000000 -0.013231 0.000000
# 2 -0.010605 0.032803 -0.007338 0.000000 0.005914 0.000000
# 3 0.001052 -0.007338 0.016273 0.000000 -0.010236 0.000000
# 4 0.000000 0.000000 0.000000 0.027832 0.000000 -0.001412
# 5 -0.013231 0.005914 -0.010236 0.000000 0.057752 0.000000
# 6 0.000000 0.000000 0.000000 -0.001412 0.000000 0.031687
#
#
# Mechanical properties :
#
#
# Convention : Reuss Voigt Hill
#
# Bulk Modulus (GPa) = 31.13045 41.66254 36.39650
# Shear Modulus (GPa) = 21.96198 28.15364 25.05781
#
# Velocity S-wave (km/s) = 3.32159 3.76078 3.54799
# Velocity P-wave (km/s) = 5.50905 6.30776 5.92189
#
# Compressibility (1/GPa) = 0.03212289
#
# Stress axis : x y z
#
# Youngs Moduli (GPa) = 59.41807 30.48528 61.45237
#
# Poissons Ratio (x) = 0.32331 -0.06466
# Poissons Ratio (y) = 0.63015 0.45094
# Poissons Ratio (z) = -0.06252 0.22370
#
# Static dielectric constant tensor:
#      x y z
#    x 3.980190 0.000000 0.029080 
#    y 0.000000 3.583040 0.000000 
#    z 0.029080 0.000000 3.445420 
# 
# 
# High freq. dielectric constant tensor:
#      x y z
#    x 1.796210 0.000000 0.005620 
#    y 0.000000 1.782540 0.000000 
#    z 0.005620 0.000000 1.766890 
# 
# From -- ./inp_files/309019.got.cif
#   From: 2010.06.25/outbox.cif.g09.slc.cpg/sg12_155_cif.got.tgz:309019.got - 2010.06.28 00:19:55.
