data_PCOD8102976
_publ_section_title
;
Structure prediction by ZEFSAII (Michael W. Deem and Ramdas Pophale) SiO2 
 PCOD8102976
Probable space group: C 2/M
;
_chemical_formula_sum "Si O2"
_cell_formula_units_Z 64
_cell_length_a 30.293451
_cell_length_b 8.952286
_cell_length_c 16.142199
_cell_angle_alpha 90.000000
_cell_angle_beta 133.413833
_cell_angle_gamma 90.000000
_cell_volume 3179.995253
_symmetry_space_group_name_H-M "C 2/M"
_symmetry_group_IT_number 12
_symmetry_cell_setting 'monoclinic'
loop_
_space_group_symop_operation_xyz
x,y,z
-x,y,-z
-x,-y,-z
x,-y,z
1/2+x,1/2+y,z
1/2-x,1/2+y,-z
1/2-x,1/2-y,-z
1/2+x,1/2-y,z
loop_
_atom_site_type_symbol
_atom_site_label
_atom_site_fract_x
_atom_site_fract_y
_atom_site_fract_z
Si Si1 0.009285 0.328742 0.749041
Si Si2 0.344080 0.677546 0.778884
Si Si3 0.224220 0.830503 0.045965
Si Si4 0.707164 0.176886 0.589261
Si Si5 0.841578 0.668586 0.304230
Si Si6 0.047012 0.823729 0.629565
Si Si7 0.620155 0.173062 0.007318
Si Si8 0.883083 0.675518 0.666626
O O1 0.010553 0.500000 0.721275
O O2 0.028614 0.230629 0.696241
O O3 0.942569 0.279974 0.691800
O O4 0.053143 0.304336 0.883982
O O5 0.344737 0.500000 0.784177
O O6 0.275409 0.742049 0.681612
O O7 0.376077 0.740215 0.901687
O O8 0.382984 0.732453 0.751105
O O9 0.273732 0.828847 0.181708
O O10 0.165833 0.739894 0.999229
O O11 0.205269 0.000000 0.999758
O O12 0.250000 0.750000 0.000000
O O13 0.665303 0.234391 0.611608
O O14 0.675542 0.224948 0.462869
O O15 0.710669 0.000000 0.601953
O O16 0.867656 0.500000 0.337786
O O17 0.885641 0.769169 0.306172
O O18 0.000000 0.762468 0.500000
O O19 0.047567 0.000000 0.631483
O O20 0.635567 0.000000 0.041940
O O21 0.882393 0.500000 0.686081
#
# Coordination Sequence:
#
# PCOD8102976 Si02
#       8
#     8   8   8   8   8   8   8   8
#     4  10  23  42  63  86 116 159 209 250 292 354
#     4  11  22  39  61  89 123 156 194 244 306 367
#     4  11  22  37  58  86 119 154 195 244 295 352
#     4   9  18  36  61  88 118 151 194 245 298 359
#     4  10  20  37  60  84 114 156 200 239 288 353
#     4  11  24  39  57  88 126 158 196 247 300 353
#     4  11  23  40  61  87 119 158 203 250 298 353
#     4  10  21  39  63  88 114 151 201 253 299 352
#
# _framework density 20.125817000000001
#
# number of rings (size 3 to 8) (size 9 to 14) (size 15 to 20)
#    0.000    1.625    1.250    3.375    0.000    8.000 
#    0.000    3.750    0.000    0.000    0.000    0.000 
#    0.000    0.000    0.000    0.000    0.000    0.000 
#
# Total GULP energy -396929.270263 kJ/mol
# GULP energy per Si atom -12404.039696 kJ/mol
# Density = 2.008001 g / cm^3
# Si number density = 20.125817 Si / 1000 Ang^3
#
#
#
# Elastic Constant Matrix: (Units=GPa)
#
#
# Indices 1 2 3 4 5 6 
#
# 1 91.4350 37.6118 27.8763 0.0000 -11.5963 0.0000
# 2 37.6118 79.4364 33.1774 0.0000 -5.7841 0.0000
# 3 27.8763 33.1774 84.2645 0.0000 -8.4281 0.0000
# 4 0.0000 0.0000 0.0000 28.8692 0.0000 -2.2846
# 5 -11.5963 -5.7841 -8.4281 0.0000 40.3107 0.0000
# 6 0.0000 0.0000 0.0000 -2.2846 0.0000 31.5158
#
#
#
# Elastic Compliance Matrix: (Units=1/GPa)
#
#
# Indices 1 2 3 4 5 6 
#
# 1 0.014292 -0.005630 -0.002227 0.000000 0.002838 0.000000
# 2 -0.005630 0.017319 -0.004974 0.000000 -0.000174 0.000000
# 3 -0.002227 -0.004974 0.014735 0.000000 0.001726 0.000000
# 4 0.000000 0.000000 0.000000 0.034839 0.000000 0.002525
# 5 0.002838 -0.000174 0.001726 0.000000 0.025960 0.000000
# 6 0.000000 0.000000 0.000000 0.002525 0.000000 0.031913
#
#
# Mechanical properties :
#
#
# Convention : Reuss Voigt Hill
#
# Bulk Modulus (GPa) = 48.34803 50.27409 49.31106
# Shear Modulus (GPa) = 29.13504 30.57051 29.85277
#
# Velocity S-wave (km/s) = 3.80892 3.90162 3.85555
# Velocity P-wave (km/s) = 6.58930 6.73283 6.66145
#
# Compressibility (1/GPa) = 0.02068337
#
# Stress axis : x y z
#
# Youngs Moduli (GPa) = 69.97134 57.73986 67.86404
#
# Poissons Ratio (x) = 0.32507 0.15116
# Poissons Ratio (y) = 0.39393 0.33756
# Poissons Ratio (z) = 0.15586 0.28720
#
# Static dielectric constant tensor:
#      x y z
#    x 3.597340 0.000000 0.034910 
#    y 0.000000 3.608250 0.000000 
#    z 0.034910 0.000000 3.875000 
# 
# 
# High freq. dielectric constant tensor:
#      x y z
#    x 1.793020 0.000000 -0.004560 
#    y 0.000000 1.772990 0.000000 
#    z -0.004560 0.000000 1.797210 
# 
# From -- ./inp_files/249937.got.cif
#   From: 2010.06.25/outbox.cif.g09.slc.cpg/sg12_125_cif.got.tgz:249937.got - 2010.06.28 00:19:55.
