data_PCOD8102649
_publ_section_title
;
Structure prediction by ZEFSAII (Michael W. Deem and Ramdas Pophale) SiO2 
 PCOD8102649
Probable space group: C 2/M
;
_chemical_formula_sum "Si O2"
_cell_formula_units_Z 48
_cell_length_a 16.646401
_cell_length_b 31.486388
_cell_length_c 8.812054
_cell_angle_alpha 90.000000
_cell_angle_beta 29.924299
_cell_angle_gamma 90.000000
_cell_volume 2304.066310
_symmetry_space_group_name_H-M "C 2/M"
_symmetry_group_IT_number 12
_symmetry_cell_setting 'monoclinic'
loop_
_space_group_symop_operation_xyz
x,y,z
-x,y,-z
-x,-y,-z
x,-y,z
1/2+x,1/2+y,z
1/2-x,1/2+y,-z
1/2-x,1/2-y,-z
1/2+x,1/2-y,z
loop_
_atom_site_type_symbol
_atom_site_label
_atom_site_fract_x
_atom_site_fract_y
_atom_site_fract_z
Si Si1 0.614737 0.208983 0.455530
Si Si2 0.482864 0.711929 0.849810
Si Si3 0.485785 0.867568 0.844792
Si Si4 0.882675 0.864042 0.548212
Si Si5 0.368733 0.544426 0.588217
Si Si6 0.520266 0.953136 0.290890
O O1 0.500000 0.205725 0.500000
O O2 0.575741 0.250251 0.616673
O O3 0.599836 0.167245 0.582538
O O4 0.798158 0.212104 0.098685
O O5 0.569455 0.668306 0.661280
O O6 0.500000 0.718135 0.000000
O O7 0.554458 0.914038 0.682535
O O8 0.500000 0.863970 0.000000
O O9 0.301782 0.857716 0.094972
O O10 0.894568 0.911681 0.453669
O O11 0.000000 0.858213 0.500000
O O12 0.500000 0.541403 0.500000
O O13 0.373148 0.500000 0.482335
O O14 0.206317 0.546491 0.948549
O O15 0.500000 0.942635 0.500000
O O16 0.443943 0.000000 0.376626
#
# Coordination Sequence:
#
# PCOD8102649 Si02
#       6
#     8   8   8   8   8   8
#     4  12  24  40  61  84 111 146 189 230 276 334
#     4  12  24  40  60  84 114 145 182 231 286 334
#     4  11  22  37  56  83 117 149 184 229 283 332
#     4  10  20  37  58  81 110 147 190 228 269 332
#     4   8  15  29  52  79 106 140 182 227 268 313
#     4   9  18  33  54  81 112 147 188 230 272 323
#
# _framework density 20.832733999999999
#
# number of rings (size 3 to 8) (size 9 to 14) (size 15 to 20)
#    0.000    1.667    0.000    5.500    0.000    3.000 
#    0.000    0.000    0.000    0.500    0.000    0.000 
#    0.000    0.000    0.000    0.000    0.000    0.000 
#
# Total GULP energy -297416.226178 kJ/mol
# GULP energy per Si atom -12392.342757 kJ/mol
# Density = 2.078532 g / cm^3
# Si number density = 20.832734 Si / 1000 Ang^3
#
#
#
# Elastic Constant Matrix: (Units=GPa)
#
#
# Indices 1 2 3 4 5 6 
#
# 1 61.5512 18.2599 -0.2326 0.0000 10.8650 0.0000
# 2 18.2599 195.6984 55.5194 0.0000 17.8744 0.0000
# 3 -0.2326 55.5194 50.4686 0.0000 0.8852 0.0000
# 4 0.0000 0.0000 0.0000 35.6036 0.0000 10.4657
# 5 10.8650 17.8744 0.8852 0.0000 36.6182 0.0000
# 6 0.0000 0.0000 0.0000 10.4657 0.0000 6.5269
#
#
#
# Elastic Compliance Matrix: (Units=1/GPa)
#
#
# Indices 1 2 3 4 5 6 
#
# 1 0.017579 -0.001871 0.002216 0.000000 -0.004356 0.000000
# 2 -0.001871 0.008084 -0.008846 0.000000 -0.003177 0.000000
# 3 0.002216 -0.008846 0.029504 0.000000 0.002947 0.000000
# 4 0.000000 0.000000 0.000000 0.053129 0.000000 -0.085191
# 5 -0.004356 -0.003177 0.002947 0.000000 0.030081 0.000000
# 6 0.000000 0.000000 0.000000 -0.085191 0.000000 0.289811
#
#
# Mechanical properties :
#
#
# Convention : Reuss Voigt Hill
#
# Bulk Modulus (GPa) = 26.20239 50.53465 38.36852
# Shear Modulus (GPa) = 10.91908 31.36116 21.14012
#
# Velocity S-wave (km/s) = 2.29187 3.88413 3.18898
# Velocity P-wave (km/s) = 4.42814 6.66523 5.65834
#
# Compressibility (1/GPa) = 0.03816446
#
# Stress axis : x y z
#
# Youngs Moduli (GPa) = 56.88605 123.69566 33.89322
#
# Poissons Ratio (x) = 0.23142 -0.07509
# Poissons Ratio (y) = 0.10643 0.29983
# Poissons Ratio (z) = -0.12603 1.09425
#
# Static dielectric constant tensor:
#      x y z
#    x 3.499640 0.000000 -0.207400 
#    y 0.000000 4.795960 0.000000 
#    z -0.207400 0.000000 3.836580 
# 
# 
# High freq. dielectric constant tensor:
#      x y z
#    x 1.790210 0.000000 -0.014450 
#    y 0.000000 1.851220 0.000000 
#    z -0.014450 0.000000 1.808140 
# 
# From -- ./inp_files/80576.got.cif
#   From: 2010.06.25/outbox.cif.g09.slc.cpg/sg12_41_cif.got.tgz:80576.got - 2010.06.28 00:19:55.
