data_PCOD8102032
_publ_section_title
;
Structure prediction by ZEFSAII (Michael W. Deem and Ramdas Pophale) SiO2 
 PCOD8102032
Probable space group: C 2/M
;
_chemical_formula_sum "Si O2"
_cell_formula_units_Z 56
_cell_length_a 18.620026
_cell_length_b 9.278975
_cell_length_c 23.441635
_cell_angle_alpha 90.000000
_cell_angle_beta 46.373037
_cell_angle_gamma 90.000000
_cell_volume 2931.670227
_symmetry_space_group_name_H-M "C 2/M"
_symmetry_group_IT_number 12
_symmetry_cell_setting 'monoclinic'
loop_
_space_group_symop_operation_xyz
x,y,z
-x,y,-z
-x,-y,-z
x,-y,z
1/2+x,1/2+y,z
1/2-x,1/2+y,-z
1/2-x,1/2-y,-z
1/2+x,1/2-y,z
loop_
_atom_site_type_symbol
_atom_site_label
_atom_site_fract_x
_atom_site_fract_y
_atom_site_fract_z
Si Si1 0.462822 0.670051 0.845987
Si Si2 0.419807 0.670698 0.997135
Si Si3 0.282261 0.333067 0.868354
Si Si4 0.009199 0.338003 0.431320
Si Si5 0.283822 0.160176 0.534224
Si Si6 0.316835 0.670918 0.294947
Si Si7 0.818031 0.833326 0.716437
O O1 0.456764 0.500000 0.846581
O O2 0.372072 0.731256 0.857784
O O3 0.568566 0.720458 0.762337
O O4 0.456017 0.722564 0.915083
O O5 0.405591 0.500000 0.008072
O O6 0.315108 0.742875 0.065908
O O7 0.500000 0.722898 0.000000
O O8 0.261839 0.500000 0.894083
O O9 0.310912 0.311983 0.787441
O O10 0.055893 0.500000 0.406579
O O11 0.901168 0.340895 0.464045
O O12 0.000000 0.277341 0.500000
O O13 0.076065 0.230651 0.358762
O O14 0.250000 0.250000 0.500000
O O15 0.243616 0.223921 0.616137
O O16 0.239662 0.000000 0.552825
O O17 0.307385 0.500000 0.290666
O O18 0.270782 0.748440 0.265285
O O19 0.812858 0.000000 0.701587
#
# Coordination Sequence:
#
# PCOD8102032 Si02
#       7
#     8   8   8   8   8   8   8
#     4   9  19  36  59  83 111 147 187 228 275 335
#     4  10  20  36  60  88 111 141 188 231 271 328
#     4  10  22  38  56  83 116 149 183 224 280 339
#     4  10  20  39  60  81 110 148 194 234 278 338
#     4  10  22  37  58  84 112 149 189 232 282 337
#     4  10  20  39  62  80 109 154 192 229 280 337
#     4  11  23  36  56  85 114 146 189 238 284 332
#
# _framework density 19.101738999999998
#
# number of rings (size 3 to 8) (size 9 to 14) (size 15 to 20)
#    0.000    2.000    1.429    1.714    2.000    4.000 
#    0.000    1.429    0.000    0.000    0.000    0.000 
#    0.000    0.000    0.000    0.000    0.000    0.000 
#
# Total GULP energy -347219.421689 kJ/mol
# GULP energy per Si atom -12400.693632 kJ/mol
# Density = 1.905826 g / cm^3
# Si number density = 19.101739 Si / 1000 Ang^3
#
#
#
# Elastic Constant Matrix: (Units=GPa)
#
#
# Indices 1 2 3 4 5 6 
#
# 1 152.0744 42.1487 57.4939 0.0000 -3.1169 0.0000
# 2 42.1487 53.0036 41.3614 0.0000 0.1590 0.0001
# 3 57.4939 41.3614 111.1734 0.0000 -14.4988 0.0000
# 4 0.0000 0.0000 0.0000 28.3143 0.0000 0.1475
# 5 -3.1169 0.1590 -14.4988 0.0000 36.9245 0.0000
# 6 0.0000 0.0001 0.0000 0.1475 0.0000 27.5580
#
#
#
# Elastic Compliance Matrix: (Units=1/GPa)
#
#
# Indices 1 2 3 4 5 6 
#
# 1 0.009022 -0.004928 -0.002878 0.000000 -0.000347 0.000000
# 2 -0.004928 0.029913 -0.009119 0.000000 -0.004125 0.000000
# 3 -0.002878 -0.009119 0.014597 0.000000 0.005528 0.000000
# 4 0.000000 0.000000 0.000000 0.035319 0.000000 -0.000189
# 5 -0.000347 -0.004125 0.005528 0.000000 0.029241 0.000000
# 6 0.000000 0.000000 0.000000 -0.000189 0.000000 0.036288
#
#
# Mechanical properties :
#
#
# Convention : Reuss Voigt Hill
#
# Bulk Modulus (GPa) = 50.80324 66.47325 58.63825
# Shear Modulus (GPa) = 25.66856 30.24252 27.95554
#
# Velocity S-wave (km/s) = 3.66974 3.98330 3.82973
# Velocity P-wave (km/s) = 6.67906 7.48537 7.09368
#
# Compressibility (1/GPa) = 0.01968378
#
# Stress axis : x y z
#
# Youngs Moduli (GPa) = 110.83469 33.42984 68.50848
#
# Poissons Ratio (x) = 0.16474 0.19716
# Poissons Ratio (y) = 0.54618 0.62470
# Poissons Ratio (z) = 0.31897 0.30483
#
# Static dielectric constant tensor:
#      x y z
#    x 3.503840 0.000000 0.177220 
#    y 0.000000 3.375060 0.000000 
#    z 0.177220 0.000000 3.532590 
# 
# 
# High freq. dielectric constant tensor:
#      x y z
#    x 1.756630 0.000000 -0.002320 
#    y 0.000000 1.719090 0.000000 
#    z -0.002320 0.000000 1.753760 
# 
# From -- ./inp_files/342245.got.cif
#   From: 2010.06.25/outbox.cif.g09.slc.cpg/sg12_172_cif.got.tgz:342245.got - 2010.06.28 00:19:55.
