data_PCOD8102164
_publ_section_title
;
Structure prediction by ZEFSAII (Michael W. Deem and Ramdas Pophale) SiO2 
 PCOD8102164
Probable space group: C 2/M
;
_chemical_formula_sum "Si O2"
_cell_formula_units_Z 64
_cell_length_a 31.162530
_cell_length_b 13.236347
_cell_length_c 10.155297
_cell_angle_alpha 90.000000
_cell_angle_beta 133.671803
_cell_angle_gamma 90.000000
_cell_volume 3029.815538
_symmetry_space_group_name_H-M "C 2/M"
_symmetry_group_IT_number 12
_symmetry_cell_setting 'monoclinic'
loop_
_space_group_symop_operation_xyz
x,y,z
-x,y,-z
-x,-y,-z
x,-y,z
1/2+x,1/2+y,z
1/2-x,1/2+y,-z
1/2-x,1/2-y,-z
1/2+x,1/2-y,z
loop_
_atom_site_type_symbol
_atom_site_label
_atom_site_fract_x
_atom_site_fract_y
_atom_site_fract_z
Si Si1 0.638869 0.379882 0.023200
Si Si2 0.210842 0.615505 0.324364
Si Si3 0.321362 0.881525 0.026362
Si Si4 0.197929 0.120856 0.879555
Si Si5 0.901761 0.203589 0.526983
Si Si6 0.330312 0.700062 0.625968
Si Si7 0.514065 0.384474 0.670018
Si Si8 0.936432 0.383548 0.431880
O O1 0.641610 0.500000 0.031514
O O2 0.680640 0.340208 0.990655
O O3 0.572613 0.336402 0.858403
O O4 0.658017 0.342092 0.205245
O O5 0.194476 0.500000 0.321399
O O6 0.281377 0.628668 0.453552
O O7 0.191555 0.683856 0.407291
O O8 0.179081 0.657870 0.125053
O O9 0.384324 0.852178 0.220764
O O10 0.311900 0.000000 0.996954
O O11 0.265257 0.841077 0.993246
O O12 0.152866 0.170195 0.679901
O O13 0.191455 0.000000 0.856736
O O14 0.886149 0.203375 0.647954
O O15 0.956094 0.124945 0.637056
O O16 0.927753 0.313439 0.541424
O O17 0.500000 0.330041 0.500000
O O18 0.529738 0.500000 0.675620
O O19 0.929688 0.500000 0.462233
O O20 0.000000 0.365350 0.500000
#
# Coordination Sequence:
#
# PCOD8102164 Si02
#       8
#     8   8   8   8   8   8   8   8
#     4  10  22  39  60  90 132 169 203 255 311 376
#     4  10  22  41  61  85 126 168 203 253 318 381
#     4   9  19  38  65  91 116 156 208 261 314 366
#     4  10  20  36  63  97 124 155 200 256 319 378
#     4  12  23  37  63  92 125 164 205 262 311 368
#     4  11  25  39  58  93 124 166 211 251 312 380
#     4  10  20  36  60  92 125 163 207 251 312 380
#     4  10  24  43  63  91 124 164 217 269 314 356
#
# _framework density 21.123398000000002
#
# number of rings (size 3 to 8) (size 9 to 14) (size 15 to 20)
#    0.000    1.750    2.500    1.125    1.750    5.000 
#    0.000    2.500    0.000    0.000    0.000    5.250 
#    0.000    0.000    0.000    0.000    0.000    0.000 
#
# Total GULP energy -396738.376200 kJ/mol
# GULP energy per Si atom -12398.074256 kJ/mol
# Density = 2.107532 g / cm^3
# Si number density = 21.123398 Si / 1000 Ang^3
#
#
#
# Elastic Constant Matrix: (Units=GPa)
#
#
# Indices 1 2 3 4 5 6 
#
# 1 151.4350 22.4706 47.9274 0.0000 2.0055 0.0000
# 2 22.4706 42.5828 18.2222 0.0000 -7.3527 0.0000
# 3 47.9274 18.2222 96.2079 0.0000 9.5137 0.0000
# 4 0.0000 0.0000 0.0000 19.1218 0.0000 -8.2960
# 5 2.0055 -7.3527 9.5137 0.0000 42.9247 0.0000
# 6 0.0000 0.0000 0.0000 -8.2960 0.0000 15.0494
#
#
#
# Elastic Compliance Matrix: (Units=1/GPa)
#
#
# Indices 1 2 3 4 5 6 
#
# 1 0.008132 -0.002802 -0.003512 0.000000 -0.000081 0.000000
# 2 -0.002802 0.027894 -0.004471 0.000000 0.005900 0.000000
# 3 -0.003512 -0.004471 0.013343 0.000000 -0.003559 0.000000
# 4 0.000000 0.000000 0.000000 0.068735 0.000000 0.037890
# 5 -0.000081 0.005900 -0.003559 0.000000 0.025100 0.000000
# 6 0.000000 0.000000 0.000000 0.037890 0.000000 0.087334
#
#
# Mechanical properties :
#
#
# Convention : Reuss Voigt Hill
#
# Bulk Modulus (GPa) = 35.97345 51.94067 43.95706
# Shear Modulus (GPa) = 19.12965 28.85957 23.99461
#
# Velocity S-wave (km/s) = 3.01261 3.70027 3.37401
# Velocity P-wave (km/s) = 5.40076 6.54970 6.00278
#
# Compressibility (1/GPa) = 0.02779828
#
# Stress axis : x y z
#
# Youngs Moduli (GPa) = 122.97147 35.84968 74.94820
#
# Poissons Ratio (x) = 0.10046 0.26324
# Poissons Ratio (y) = 0.34460 0.33507
# Poissons Ratio (z) = 0.43191 0.16027
#
# Static dielectric constant tensor:
#      x y z
#    x 3.883940 0.000000 0.116010 
#    y 0.000000 3.919770 0.000000 
#    z 0.116010 0.000000 3.773770 
# 
# 
# High freq. dielectric constant tensor:
#      x y z
#    x 1.822960 0.000000 0.009920 
#    y 0.000000 1.846270 0.000000 
#    z 0.009920 0.000000 1.817960 
# 
# From -- ./inp_files/112028.got.cif
#   From: 2010.06.25/outbox.cif.g09.slc.cpg/sg12_57_cif.got.tgz:112028.got - 2010.06.28 00:19:55.
