data_PCOD8102905
_publ_section_title
;
Structure prediction by ZEFSAII (Michael W. Deem and Ramdas Pophale) SiO2 
 PCOD8102905
Probable space group: C 2/M
;
_chemical_formula_sum "Si O2"
_cell_formula_units_Z 64
_cell_length_a 12.079138
_cell_length_b 18.925809
_cell_length_c 18.577540
_cell_angle_alpha 90.000000
_cell_angle_beta 126.898940
_cell_angle_gamma 90.000000
_cell_volume 3396.279297
_symmetry_space_group_name_H-M "C 2/M"
_symmetry_group_IT_number 12
_symmetry_cell_setting 'monoclinic'
loop_
_space_group_symop_operation_xyz
x,y,z
-x,y,-z
-x,-y,-z
x,-y,z
1/2+x,1/2+y,z
1/2-x,1/2+y,-z
1/2-x,1/2-y,-z
1/2+x,1/2-y,z
loop_
_atom_site_type_symbol
_atom_site_label
_atom_site_fract_x
_atom_site_fract_y
_atom_site_fract_z
Si Si1 0.986994 0.417048 0.579568
Si Si2 0.273537 0.177403 0.805287
Si Si3 0.548637 0.582001 0.097649
Si Si4 0.815433 0.838687 0.069728
Si Si5 0.401432 0.416449 0.360059
Si Si6 0.421854 0.186564 0.122717
Si Si7 0.319743 0.167830 0.239033
Si Si8 0.694367 0.416483 0.523498
O O1 0.008672 0.500000 0.607288
O O2 0.097881 0.369000 0.663958
O O3 0.000000 0.404347 0.500000
O O4 0.835843 0.388660 0.543950
O O5 0.264723 0.170331 0.887198
O O6 0.168819 0.119208 0.735135
O O7 0.429353 0.158860 0.843954
O O8 0.229060 0.253880 0.757514
O O9 0.582152 0.500000 0.111985
O O10 0.428168 0.598749 0.108960
O O11 0.686986 0.621374 0.172211
O O12 0.500000 0.607999 0.000000
O O13 0.902410 0.767281 0.089376
O O14 0.700794 0.856422 0.964313
O O15 0.392096 0.500000 0.346943
O O16 0.561337 0.390533 0.425929
O O17 0.320561 0.390785 0.400101
O O18 0.414876 0.173880 0.205416
O O19 0.692455 0.500000 0.522089
#
# Coordination Sequence:
#
# PCOD8102905 Si02
#       8
#     8   8   8   8   8   8   8   8
#     4  10  21  38  58  81 112 153 196 246 297 346
#     4  11  22  35  58  89 119 153 195 242 296 349
#     4  11  22  39  62  88 120 155 199 249 292 346
#     4  10  21  36  58  84 113 159 198 236 284 346
#     4   9  18  35  58  82 108 145 188 237 291 352
#     4  10  20  37  60  80 118 157 194 238 285 353
#     4  11  22  38  59  87 119 154 202 241 293 360
#     4   8  16  35  60  79 103 144 192 230 284 353
#
# _framework density 18.844151
#
# number of rings (size 3 to 8) (size 9 to 14) (size 15 to 20)
#    0.000    2.000    2.500    2.250    0.000    1.500 
#    2.250    3.125    0.000    1.500    0.000    0.000 
#    0.000    0.000    0.000    0.000    0.000    0.000 
#
# Total GULP energy -396789.214508 kJ/mol
# GULP energy per Si atom -12399.662953 kJ/mol
# Density = 1.880126 g / cm^3
# Si number density = 18.844151 Si / 1000 Ang^3
#
#
#
# Elastic Constant Matrix: (Units=GPa)
#
#
# Indices 1 2 3 4 5 6 
#
# 1 104.0987 28.9143 33.9365 0.0000 15.7552 0.0000
# 2 28.9143 58.9302 42.5562 0.0000 6.4319 0.0000
# 3 33.9365 42.5562 105.7561 0.0000 9.7534 0.0000
# 4 0.0000 0.0000 0.0000 26.6437 0.0000 -1.5663
# 5 15.7552 6.4319 9.7534 0.0000 27.3839 0.0000
# 6 0.0000 0.0000 0.0000 -1.5663 0.0000 17.8396
#
#
#
# Elastic Compliance Matrix: (Units=1/GPa)
#
#
# Indices 1 2 3 4 5 6 
#
# 1 0.012131 -0.004104 -0.001744 0.000000 -0.005395 0.000000
# 2 -0.004104 0.025445 -0.008880 0.000000 -0.000452 0.000000
# 3 -0.001744 -0.008880 0.013756 0.000000 -0.001810 0.000000
# 4 0.000000 0.000000 0.000000 0.037727 0.000000 0.003312
# 5 -0.005395 -0.000452 -0.001810 0.000000 0.040372 0.000000
# 6 0.000000 0.000000 0.000000 0.003312 0.000000 0.056346
#
#
# Mechanical properties :
#
#
# Convention : Reuss Voigt Hill
#
# Bulk Modulus (GPa) = 45.71345 53.28878 49.50111
# Shear Modulus (GPa) = 22.46928 25.26532 23.86730
#
# Velocity S-wave (km/s) = 3.45682 3.66560 3.56274
# Velocity P-wave (km/s) = 6.34383 6.80114 6.57646
#
# Compressibility (1/GPa) = 0.02187540
#
# Stress axis : x y z
#
# Youngs Moduli (GPa) = 82.43237 39.30001 72.69687
#
# Poissons Ratio (x) = 0.16129 0.12677
# Poissons Ratio (y) = 0.33831 0.64558
# Poissons Ratio (z) = 0.14375 0.34900
#
# Static dielectric constant tensor:
#      x y z
#    x 3.663250 0.000000 0.113050 
#    y 0.000000 3.239910 0.000000 
#    z 0.113050 0.000000 3.479980 
# 
# 
# High freq. dielectric constant tensor:
#      x y z
#    x 1.742840 0.000000 0.007440 
#    y 0.000000 1.708100 0.000000 
#    z 0.007440 0.000000 1.734330 
# 
# From -- ./inp_files/265112.got.cif
#   From: 2010.06.25/outbox.cif.g09.slc.cpg/sg12_133_cif.got.tgz:265112.got - 2010.06.28 00:19:55.
