data_PCOD8102901
_publ_section_title
;
Structure prediction by ZEFSAII (Michael W. Deem and Ramdas Pophale) SiO2 
 PCOD8102901
Probable space group: C 2/M
;
_chemical_formula_sum "Si O2"
_cell_formula_units_Z 56
_cell_length_a 19.548168
_cell_length_b 9.070106
_cell_length_c 24.487833
_cell_angle_alpha 90.000000
_cell_angle_beta 44.409966
_cell_angle_gamma 90.000000
_cell_volume 3038.330588
_symmetry_space_group_name_H-M "C 2/M"
_symmetry_group_IT_number 12
_symmetry_cell_setting 'monoclinic'
loop_
_space_group_symop_operation_xyz
x,y,z
-x,y,-z
-x,-y,-z
x,-y,z
1/2+x,1/2+y,z
1/2-x,1/2+y,-z
1/2-x,1/2-y,-z
1/2+x,1/2-y,z
loop_
_atom_site_type_symbol
_atom_site_label
_atom_site_fract_x
_atom_site_fract_y
_atom_site_fract_z
Si Si1 0.460565 0.670789 0.824937
Si Si2 0.673894 0.671421 0.004581
Si Si3 0.279598 0.326088 0.857611
Si Si4 0.991497 0.169547 0.440989
Si Si5 0.298099 0.174181 0.523933
Si Si6 0.322125 0.675071 0.301676
Si Si7 0.797889 0.827786 0.721795
O O1 0.467604 0.500000 0.806630
O O2 0.430932 0.694345 0.905829
O O3 0.378950 0.736208 0.829830
O O4 0.567825 0.739996 0.754064
O O5 0.699116 0.500000 0.984563
O O6 0.750000 0.750000 0.000000
O O7 0.684149 0.748454 0.939445
O O8 0.270346 0.500000 0.872122
O O9 0.279406 0.282795 0.794650
O O10 0.909699 0.275154 0.463076
O O11 0.000000 0.197299 0.500000
O O12 0.091911 0.217214 0.355515
O O13 0.964751 0.000000 0.443220
O O14 0.250000 0.250000 0.500000
O O15 0.241308 0.227227 0.610510
O O16 0.292713 0.000000 0.519979
O O17 0.322852 0.500000 0.295634
O O18 0.277680 0.739514 0.271876
O O19 0.781524 0.000000 0.720556
#
# Coordination Sequence:
#
# PCOD8102901 Si02
#       7
#     8   8   8   8   8   8   8
#     4   8  16  32  54  77 101 136 177 215 259 312
#     4   9  16  30  53  78 106 136 174 219 264 315
#     4   9  18  33  55  79 105 137 178 219 261 319
#     4  10  20  37  60  80 106 145 185 222 268 324
#     4  11  24  38  57  82 111 143 181 228 273 322
#     4  10  21  37  56  77 106 142 179 220 266 319
#     4  10  21  36  56  80 108 144 179 219 269 321
#
# _framework density 18.431173999999999
#
# number of rings (size 3 to 8) (size 9 to 14) (size 15 to 20)
#    0.000    2.429    1.429    1.714    2.000    2.000 
#    0.000    4.286    0.000    4.286    0.000    0.000 
#    0.000    0.000    0.000    0.000    0.000    0.000 
#
# Total GULP energy -347114.218231 kJ/mol
# GULP energy per Si atom -12396.936365 kJ/mol
# Density = 1.838922 g / cm^3
# Si number density = 18.431174 Si / 1000 Ang^3
#
#
#
# Elastic Constant Matrix: (Units=GPa)
#
#
# Indices 1 2 3 4 5 6 
#
# 1 97.3884 29.8697 43.1850 0.0000 6.7647 -0.0005
# 2 29.8697 43.9885 26.6497 0.0000 6.8208 -0.0012
# 3 43.1850 26.6497 83.2088 -0.0001 18.7141 -0.0001
# 4 0.0000 0.0000 -0.0001 28.8593 0.0000 2.4925
# 5 6.7647 6.8208 18.7141 0.0000 29.1616 0.0000
# 6 -0.0005 -0.0012 -0.0001 2.4925 0.0000 30.7169
#
#
#
# Elastic Compliance Matrix: (Units=1/GPa)
#
#
# Indices 1 2 3 4 5 6 
#
# 1 0.014864 -0.006770 -0.005991 0.000000 0.001980 0.000000
# 2 -0.006770 0.031312 -0.006101 0.000000 -0.001838 0.000001
# 3 -0.005991 -0.006101 0.019222 0.000000 -0.009519 0.000000
# 4 0.000000 0.000000 0.000000 0.034895 0.000000 -0.002832
# 5 0.001980 -0.001838 -0.009519 0.000000 0.040371 0.000000
# 6 0.000000 0.000001 0.000000 -0.002832 0.000000 0.032785
#
#
# Mechanical properties :
#
#
# Convention : Reuss Voigt Hill
#
# Bulk Modulus (GPa) = 36.13747 47.11050 41.62398
# Shear Modulus (GPa) = 22.68608 26.07297 24.37953
#
# Velocity S-wave (km/s) = 3.51216 3.76521 3.64089
# Velocity P-wave (km/s) = 6.00802 6.67219 6.34880
#
# Compressibility (1/GPa) = 0.02767211
#
# Stress axis : x y z
#
# Youngs Moduli (GPa) = 67.27725 31.93671 52.02286
#
# Poissons Ratio (x) = 0.21623 0.31168
# Poissons Ratio (y) = 0.45550 0.31741
# Poissons Ratio (z) = 0.40308 0.19485
#
# Static dielectric constant tensor:
#      x y z
#    x 3.211230 0.000000 0.004720 
#    y 0.000000 3.292930 0.000000 
#    z 0.004720 0.000000 3.751800 
# 
# 
# High freq. dielectric constant tensor:
#      x y z
#    x 1.699360 0.000000 0.004350 
#    y 0.000000 1.698400 0.000000 
#    z 0.004350 0.000000 1.731340 
# 
# From -- ./inp_files/342246.got.cif
#   From: 2010.06.25/outbox.cif.g09.slc.cpg/sg12_172_cif.got.tgz:342246.got - 2010.06.28 00:19:55.
