data_PCOD8102346
_publ_section_title
;
Structure prediction by ZEFSAII (Michael W. Deem and Ramdas Pophale) SiO2 
 PCOD8102346
Probable space group: C 2/M
;
_chemical_formula_sum "Si O2"
_cell_formula_units_Z 56
_cell_length_a 11.460564
_cell_length_b 19.286143
_cell_length_c 14.589043
_cell_angle_alpha 90.000000
_cell_angle_beta 122.142005
_cell_angle_gamma 90.000000
_cell_volume 2730.387004
_symmetry_space_group_name_H-M "C 2/M"
_symmetry_group_IT_number 12
_symmetry_cell_setting 'monoclinic'
loop_
_space_group_symop_operation_xyz
x,y,z
-x,y,-z
-x,-y,-z
x,-y,z
1/2+x,1/2+y,z
1/2-x,1/2+y,-z
1/2-x,1/2-y,-z
1/2+x,1/2-y,z
loop_
_atom_site_type_symbol
_atom_site_label
_atom_site_fract_x
_atom_site_fract_y
_atom_site_fract_z
Si Si1 0.000000 0.870704 0.500000
Si Si2 0.696819 0.696318 0.722464
Si Si3 0.239089 0.851022 0.318987
Si Si4 0.528432 0.710294 0.813225
Si Si5 0.000000 0.169701 0.000000
Si Si6 0.728490 0.078943 0.480753
Si Si7 0.731186 0.079815 0.849688
Si Si8 0.450867 0.860494 0.748306
O O1 0.937181 0.824760 0.392029
O O2 0.876465 0.915390 0.492510
O O3 0.731249 0.772882 0.701124
O O4 0.671596 0.692995 0.821939
O O5 0.822932 0.641725 0.765698
O O6 0.292479 0.870262 0.441473
O O7 0.298303 0.905499 0.270084
O O8 0.072562 0.854268 0.251421
O O9 0.530739 0.718793 0.924838
O O10 0.484157 0.780373 0.742148
O O11 0.863718 0.123055 0.936308
O O12 0.601757 0.100177 0.363657
O O13 0.710605 0.000000 0.505366
O O14 0.590011 0.102053 0.843861
O O15 0.762567 0.000000 0.881836
#
# Coordination Sequence:
#
# PCOD8102346 Si02
#       8
#     4   8   8   8   4   8   8   8
#     4  10  21  34  60  86 121 176 206 244 296 350
#     4  10  20  36  62  90 128 155 205 259 302 355
#     4  10  21  35  61  95 122 165 207 246 303 354
#     4  10  20  42  62  94 121 151 207 271 307 355
#     4  10  25  42  72  94 107 154 214 260 322 354
#     4  11  22  37  56  88 130 173 208 234 287 371
#     4  11  22  42  62  87 126 160 200 251 303 369
#     4  10  23  37  58  92 122 164 193 246 311 361
#
# _framework density 20.509913000000001
#
# number of rings (size 3 to 8) (size 9 to 14) (size 15 to 20)
#    0.000    1.714    2.857    1.286    2.000    2.857 
#    0.000    1.429    0.000    0.857    0.000    0.000 
#    0.000    0.000    0.000    0.000    0.000    0.000 
#
# Total GULP energy -346866.248875 kJ/mol
# GULP energy per Si atom -12388.080317 kJ/mol
# Density = 2.046323 g / cm^3
# Si number density = 20.509913 Si / 1000 Ang^3
#
#
#
# Elastic Constant Matrix: (Units=GPa)
#
#
# Indices 1 2 3 4 5 6 
#
# 1 123.6456 32.7989 51.8464 0.0000 -0.9073 0.0000
# 2 32.7989 87.5638 25.2129 0.0000 -4.1247 0.0000
# 3 51.8464 25.2129 80.4515 0.0000 -1.9935 0.0000
# 4 0.0000 0.0000 0.0000 19.3772 0.0000 3.7059
# 5 -0.9073 -4.1247 -1.9935 0.0000 39.8835 0.0000
# 6 0.0000 0.0000 0.0000 3.7059 0.0000 21.9279
#
#
#
# Elastic Compliance Matrix: (Units=1/GPa)
#
#
# Indices 1 2 3 4 5 6 
#
# 1 0.011525 -0.002409 -0.006681 0.000000 -0.000321 0.000000
# 2 -0.002409 0.013105 -0.002526 0.000000 0.001174 0.000000
# 3 -0.006681 -0.002526 0.017538 0.000000 0.000463 0.000000
# 4 0.000000 0.000000 0.000000 0.053331 0.000000 -0.009013
# 5 -0.000321 0.001174 0.000463 0.000000 0.025210 0.000000
# 6 0.000000 0.000000 0.000000 -0.009013 0.000000 0.047127
#
#
# Mechanical properties :
#
#
# Convention : Reuss Voigt Hill
#
# Bulk Modulus (GPa) = 52.80179 56.81970 54.81074
# Shear Modulus (GPa) = 25.33186 28.35789 26.84487
#
# Velocity S-wave (km/s) = 3.51822 3.72243 3.62176
# Velocity P-wave (km/s) = 6.50417 6.79992 6.65369
#
# Compressibility (1/GPa) = 0.01893875
#
# Stress axis : x y z
#
# Youngs Moduli (GPa) = 86.76420 76.30671 57.01858
#
# Poissons Ratio (x) = 0.18379 0.38092
# Poissons Ratio (y) = 0.20898 0.14401
# Poissons Ratio (z) = 0.57964 0.19273
#
# Static dielectric constant tensor:
#      x y z
#    x 4.287800 0.000000 0.093460 
#    y 0.000000 3.454840 0.000000 
#    z 0.093460 0.000000 3.601630 
# 
# 
# High freq. dielectric constant tensor:
#      x y z
#    x 1.826620 0.000000 0.008620 
#    y 0.000000 1.779900 0.000000 
#    z 0.008620 0.000000 1.780750 
# 
# From -- ./inp_files/206795.got.cif
#   From: 2010.06.25/outbox.cif.g09.slc.cpg/sg12_104_cif.got.tgz:206795.got - 2010.06.28 00:19:55.
