data_PCOD8102830
_publ_section_title
;
Structure prediction by ZEFSAII (Michael W. Deem and Ramdas Pophale) SiO2 
 PCOD8102830
Probable space group: C 2/M
;
_chemical_formula_sum "Si O2"
_cell_formula_units_Z 64
_cell_length_a 14.625226
_cell_length_b 8.586953
_cell_length_c 33.729057
_cell_angle_alpha 90.000000
_cell_angle_beta 49.522480
_cell_angle_gamma 90.000000
_cell_volume 3222.084013
_symmetry_space_group_name_H-M "C 2/M"
_symmetry_group_IT_number 12
_symmetry_cell_setting 'monoclinic'
loop_
_space_group_symop_operation_xyz
x,y,z
-x,y,-z
-x,-y,-z
x,-y,z
1/2+x,1/2+y,z
1/2-x,1/2+y,-z
1/2-x,1/2-y,-z
1/2+x,1/2-y,z
loop_
_atom_site_type_symbol
_atom_site_label
_atom_site_fract_x
_atom_site_fract_y
_atom_site_fract_z
Si Si1 0.220749 0.184720 0.773641
Si Si2 0.358285 0.183006 0.944317
Si Si3 0.597127 0.184226 0.504162
Si Si4 0.813513 0.180877 0.873033
Si Si5 0.396045 0.317292 0.112495
Si Si6 0.542075 0.318369 0.756613
Si Si7 0.869063 0.182694 0.422728
Si Si8 0.992053 0.317542 0.689575
O O1 0.161870 0.249485 0.830556
O O2 0.355996 0.246452 0.730671
O O3 0.143853 0.243202 0.757934
O O4 0.219573 0.000000 0.776586
O O5 0.366705 0.267228 0.899793
O O6 0.482340 0.224168 0.931507
O O7 0.342292 0.000000 0.943607
O O8 0.250000 0.250000 0.000000
O O9 0.500000 0.253282 0.500000
O O10 0.731791 0.242864 0.455506
O O11 0.567013 0.240801 0.557047
O O12 0.589267 0.000000 0.505534
O O13 0.695515 0.282036 0.897346
O O14 0.912028 0.214824 0.811768
O O15 0.779619 0.000000 0.884246
O O16 0.423899 0.500000 0.106903
O O17 0.559768 0.500000 0.742228
O O18 0.558384 0.220089 0.712068
O O19 0.943510 0.225838 0.363293
O O20 0.869579 0.000000 0.429240
O O21 0.997360 0.500000 0.679138
#
# Coordination Sequence:
#
# PCOD8102830 Si02
#       8
#     8   8   8   8   8   8   8   8
#     4   9  19  36  58  83 114 156 197 236 288 349
#     4  12  26  44  65  92 122 158 201 252 308 364
#     4   9  19  38  63  85 110 152 200 241 292 357
#     4  11  22  39  64  93 122 157 198 248 302 362
#     4  11  21  40  65  91 122 157 199 247 300 360
#     4  10  20  37  59  84 115 154 197 242 291 344
#     4  10  21  37  57  85 119 152 191 246 299 344
#     4  11  22  37  57  85 121 159 199 241 291 354
#
# _framework density 19.862919999999999
#
# number of rings (size 3 to 8) (size 9 to 14) (size 15 to 20)
#    0.000    1.625    2.500    2.625    0.000    2.750 
#    0.000    8.750    0.000    0.000    0.000    0.000 
#    0.000    0.000    0.000    0.000    0.000    0.000 
#
# Total GULP energy -396932.436873 kJ/mol
# GULP energy per Si atom -12404.138652 kJ/mol
# Density = 1.981771 g / cm^3
# Si number density = 19.862920 Si / 1000 Ang^3
#
#
#
# Elastic Constant Matrix: (Units=GPa)
#
#
# Indices 1 2 3 4 5 6 
#
# 1 103.6910 19.6584 7.7167 0.0000 1.0417 0.0000
# 2 19.6584 34.1228 29.1700 -0.0002 1.2614 -0.0002
# 3 7.7167 29.1700 64.4166 0.0000 -4.6183 0.0000
# 4 0.0000 -0.0002 0.0000 32.2791 -0.0001 3.4320
# 5 1.0417 1.2614 -4.6183 -0.0001 27.6163 -0.0001
# 6 0.0000 -0.0002 0.0000 3.4320 -0.0001 32.7533
#
#
#
# Elastic Compliance Matrix: (Units=1/GPa)
#
#
# Indices 1 2 3 4 5 6 
#
# 1 0.011082 -0.008631 0.002611 0.000000 0.000413 0.000000
# 2 -0.008631 0.055499 -0.024551 0.000000 -0.006315 0.000000
# 3 0.002611 -0.024551 0.026722 0.000000 0.005492 0.000000
# 4 0.000000 0.000000 0.000000 0.031329 0.000000 -0.003283
# 5 0.000413 -0.006315 0.005492 0.000000 0.037402 0.000000
# 6 0.000000 0.000000 0.000000 -0.003283 0.000000 0.030875
#
#
# Mechanical properties :
#
#
# Convention : Reuss Voigt Hill
#
# Bulk Modulus (GPa) = 31.09387 35.03560 33.06473
# Shear Modulus (GPa) = 18.88416 28.24211 23.56314
#
# Velocity S-wave (km/s) = 3.08673 3.77483 3.44799
# Velocity P-wave (km/s) = 5.32842 6.05608 5.70387
#
# Compressibility (1/GPa) = 0.03216068
#
# Stress axis : x y z
#
# Youngs Moduli (GPa) = 90.23642 18.01829 37.42201
#
# Poissons Ratio (x) = 0.15552 -0.09769
# Poissons Ratio (y) = 0.77886 0.91873
# Poissons Ratio (z) = -0.23557 0.44236
#
# Static dielectric constant tensor:
#      x y z
#    x 3.830160 0.000000 -0.052980 
#    y 0.000000 3.427710 0.000000 
#    z -0.052980 0.000000 3.547920 
# 
# 
# High freq. dielectric constant tensor:
#      x y z
#    x 1.786800 0.000000 0.000780 
#    y 0.000000 1.764590 0.000000 
#    z 0.000780 0.000000 1.770510 
# 
# From -- ./inp_files/375415.got.cif
#   From: 2010.06.25/outbox.cif.g09.slc.cpg/sg12_188_cif.got.tgz:375415.got - 2010.06.28 00:19:55.
