data_PCOD8102191
_publ_section_title
;
Structure prediction by ZEFSAII (Michael W. Deem and Ramdas Pophale) SiO2 
 PCOD8102191
Probable space group: C 2/M
;
_chemical_formula_sum "Si O2"
_cell_formula_units_Z 64
_cell_length_a 30.655405
_cell_length_b 8.849341
_cell_length_c 14.301525
_cell_angle_alpha 90.000000
_cell_angle_beta 54.030002
_cell_angle_gamma 90.000000
_cell_volume 3139.952771
_symmetry_space_group_name_H-M "C 2/M"
_symmetry_group_IT_number 12
_symmetry_cell_setting 'monoclinic'
loop_
_space_group_symop_operation_xyz
x,y,z
-x,y,-z
-x,-y,-z
x,-y,z
1/2+x,1/2+y,z
1/2-x,1/2+y,-z
1/2-x,1/2-y,-z
1/2+x,1/2-y,z
loop_
_atom_site_type_symbol
_atom_site_label
_atom_site_fract_x
_atom_site_fract_y
_atom_site_fract_z
Si Si1 0.336080 0.822543 0.648944
Si Si2 0.995240 0.172091 0.237879
Si Si3 0.883806 0.178532 0.918091
Si Si4 0.448422 0.824658 0.126322
Si Si5 0.245773 0.322228 0.403479
Si Si6 0.702560 0.678689 0.119157
Si Si7 0.549085 0.328229 0.500368
Si Si8 0.152410 0.178760 0.838726
O O1 0.310143 0.781873 0.580022
O O2 0.299298 0.745296 0.774514
O O3 0.397328 0.768770 0.579837
O O4 0.333578 0.000000 0.669362
O O5 0.959830 0.280951 0.218432
O O6 0.968511 0.178271 0.371543
O O7 0.055497 0.240830 0.165395
O O8 0.995486 0.000000 0.199077
O O9 0.852629 0.225924 0.863795
O O10 0.885987 0.000000 0.923669
O O11 0.853842 0.244840 0.048067
O O12 0.398620 0.725973 0.157078
O O13 0.433729 0.000000 0.136947
O O14 0.500000 0.780807 0.000000
O O15 0.251472 0.500000 0.410564
O O16 0.250000 0.250000 0.500000
O O17 0.293921 0.257436 0.277964
O O18 0.710554 0.500000 0.113766
O O19 0.750000 0.750000 0.000000
O O20 0.500000 0.262273 0.500000
O O21 0.561821 0.500000 0.452153
O O22 0.155584 0.000000 0.838414
#
# Coordination Sequence:
#
# PCOD8102191 Si02
#       8
#     8   8   8   8   8   8   8   8
#     4  11  24  43  64  91 128 166 206 257 316 373
#     4  10  20  36  61  87 113 154 202 242 293 360
#     4   9  18  35  61  88 116 151 194 246 296 352
#     4  11  23  37  54  85 126 159 189 243 307 360
#     4  10  24  43  63  88 120 161 210 262 312 365
#     4  11  22  39  64  93 124 158 200 251 306 367
#     4  10  22  41  65  93 125 162 209 258 304 366
#     4  10  20  38  63  85 112 155 206 250 295 359
#
# _framework density 20.382473000000001
#
# number of rings (size 3 to 8) (size 9 to 14) (size 15 to 20)
#    0.000    1.750    1.250    2.625    1.750    6.750 
#    0.000    5.000    0.000    0.000    0.000    0.000 
#    0.000    0.000    0.000    0.000    0.000    0.000 
#
# Total GULP energy -396835.150712 kJ/mol
# GULP energy per Si atom -12401.098460 kJ/mol
# Density = 2.033608 g / cm^3
# Si number density = 20.382473 Si / 1000 Ang^3
#
#
#
# Elastic Constant Matrix: (Units=GPa)
#
#
# Indices 1 2 3 4 5 6 
#
# 1 113.0387 30.9206 40.3428 0.0000 8.8639 0.0000
# 2 30.9206 50.1902 38.0903 0.0000 2.6516 0.0000
# 3 40.3428 38.0903 106.0331 0.0000 1.1346 0.0000
# 4 0.0000 0.0000 0.0000 32.1548 0.0000 -0.2826
# 5 8.8639 2.6516 1.1346 0.0000 36.0286 0.0000
# 6 0.0000 0.0000 0.0000 -0.2826 0.0000 26.0242
#
#
#
# Elastic Compliance Matrix: (Units=1/GPa)
#
#
# Indices 1 2 3 4 5 6 
#
# 1 0.011266 -0.004927 -0.002492 0.000000 -0.002331 0.000000
# 2 -0.004927 0.029652 -0.008770 0.000000 -0.000694 0.000000
# 3 -0.002492 -0.008770 0.013521 0.000000 0.000833 0.000000
# 4 0.000000 0.000000 0.000000 0.031103 0.000000 0.000338
# 5 -0.002331 -0.000694 0.000833 0.000000 0.028354 0.000000
# 6 0.000000 0.000000 0.000000 0.000338 0.000000 0.038429
#
#
# Mechanical properties :
#
#
# Convention : Reuss Voigt Hill
#
# Bulk Modulus (GPa) = 45.32703 54.21883 49.77293
# Shear Modulus (GPa) = 26.03424 29.50207 27.76815
#
# Velocity S-wave (km/s) = 3.57779 3.80863 3.69501
# Velocity P-wave (km/s) = 6.27327 6.78228 6.53274
#
# Compressibility (1/GPa) = 0.02206189
#
# Stress axis : x y z
#
# Youngs Moduli (GPa) = 88.76108 33.72500 73.96130
#
# Poissons Ratio (x) = 0.16615 0.18430
# Poissons Ratio (y) = 0.43729 0.64863
# Poissons Ratio (z) = 0.22117 0.29576
#
# Static dielectric constant tensor:
#      x y z
#    x 3.981900 0.000000 -0.189330 
#    y 0.000000 3.513690 0.000000 
#    z -0.189330 0.000000 0.186540 
# 
# 
# High freq. dielectric constant tensor:
#      x y z
#    x 1.811520 0.000000 0.001960 
#    y 0.000000 1.773180 0.000000 
#    z 0.001960 0.000000 1.806610 
# 
# From -- ./inp_files/249884.got.cif
#   From: 2010.06.25/outbox.cif.g09.slc.cpg/sg12_125_cif.got.tgz:249884.got - 2010.06.28 00:19:55.
