data_PCOD8102294
_publ_section_title
;
Structure prediction by ZEFSAII (Michael W. Deem and Ramdas Pophale) SiO2 
 PCOD8102294
Probable space group: C 2/M
;
_chemical_formula_sum "Si O2"
_cell_formula_units_Z 52
_cell_length_a 9.027524
_cell_length_b 27.923618
_cell_length_c 16.550070
_cell_angle_alpha 90.000000
_cell_angle_beta 36.276399
_cell_angle_gamma 90.000000
_cell_volume 2468.470331
_symmetry_space_group_name_H-M "C 2/M"
_symmetry_group_IT_number 12
_symmetry_cell_setting 'monoclinic'
loop_
_space_group_symop_operation_xyz
x,y,z
-x,y,-z
-x,-y,-z
x,-y,z
1/2+x,1/2+y,z
1/2-x,1/2+y,-z
1/2-x,1/2-y,-z
1/2+x,1/2-y,z
loop_
_atom_site_type_symbol
_atom_site_label
_atom_site_fract_x
_atom_site_fract_y
_atom_site_fract_z
Si Si1 0.253334 0.164423 0.557972
Si Si2 0.012013 0.101104 0.207896
Si Si3 0.963584 0.312193 0.298642
Si Si4 0.293652 0.000000 0.871395
Si Si5 0.722949 0.275476 0.247164
Si Si6 0.249589 0.900471 0.839290
Si Si7 0.763445 0.000000 0.921245
Si Si8 0.500000 0.164404 0.000000
O O1 0.500000 0.178335 0.500000
O O2 0.301960 0.163040 0.440906
O O3 0.126874 0.115009 0.646848
O O4 0.048291 0.205494 0.660333
O O5 0.070819 0.045080 0.177854
O O6 0.811422 0.112575 0.226415
O O7 0.264529 0.131129 0.082379
O O8 0.788372 0.282923 0.312998
O O9 0.189432 0.280384 0.238343
O O10 0.083793 0.357328 0.198240
O O11 0.395419 0.951655 0.782558
O O12 0.000000 0.000000 0.000000
O O13 0.351105 0.000000 0.939454
O O14 0.943772 0.300703 0.099869
O O15 0.000000 0.904937 0.000000
O O16 0.500000 0.000000 0.000000
#
# Coordination Sequence:
#
# PCOD8102294 Si02
#       8
#     8   8   8   4   8   8   4   4
#     4  11  23  44  65  90 130 182 228 276 326 402
#     4  11  21  40  66  98 134 171 223 279 336 405
#     4  12  25  42  65  95 132 185 225 283 337 400
#     4  10  20  36  61  93 128 164 219 257 333 415
#     4  11  26  42  67  95 136 173 235 276 339 406
#     4  11  21  38  66  94 130 170 221 276 336 399
#     4  12  22  38  68 104 137 172 216 276 349 405
#     4  10  24  41  62 102 138 169 222 286 338 404
#
# _framework density 21.065676
#
# number of rings (size 3 to 8) (size 9 to 14) (size 15 to 20)
#    0.000    0.923    5.385    2.769    3.231    0.615 
#    0.000    1.154    0.000    0.000    0.000    4.308 
#    0.000    0.000    0.000    0.000    0.000    0.000 
#
# Total GULP energy -322215.506937 kJ/mol
# GULP energy per Si atom -12392.904113 kJ/mol
# Density = 2.101773 g / cm^3
# Si number density = 21.065676 Si / 1000 Ang^3
#
#
#
# Elastic Constant Matrix: (Units=GPa)
#
#
# Indices 1 2 3 4 5 6 
#
# 1 122.7354 42.7588 34.4489 0.0000 8.2707 0.0000
# 2 42.7588 159.0807 50.6174 0.0000 1.3438 0.0000
# 3 34.4489 50.6174 94.1490 0.0000 12.7205 0.0000
# 4 0.0000 0.0000 0.0000 2.8125 0.0000 17.6631
# 5 8.2707 1.3438 12.7205 0.0000 32.3898 0.0000
# 6 0.0000 0.0000 0.0000 17.6631 0.0000 19.3122
#
#
#
# Elastic Compliance Matrix: (Units=1/GPa)
#
#
# Indices 1 2 3 4 5 6 
#
# 1 0.009526 -0.001811 -0.002316 0.000000 -0.001448 0.000000
# 2 -0.001811 0.007985 -0.003852 0.000000 0.001644 0.000000
# 3 -0.002316 -0.003852 0.014192 0.000000 -0.004822 0.000000
# 4 0.000000 0.000000 0.000000 -0.074950 0.000000 0.068550
# 5 -0.001448 0.001644 -0.004822 0.000000 0.033069 0.000000
# 6 0.000000 0.000000 0.000000 0.068550 0.000000 -0.010915
#
#
# Mechanical properties :
#
#
# Convention : Reuss Voigt Hill
#
# Bulk Modulus (GPa) = 63.51992 70.17946 66.84969
# Shear Modulus (GPa) = 43825.07506 27.44557 21926.26031
#
# Velocity S-wave (km/s) = 144.39246 3.61343 102.13286
# Velocity P-wave (km/s) = 166.82065 7.12714 118.06762
#
# Compressibility (1/GPa) = 0.01574309
#
# Stress axis : x y z
#
# Youngs Moduli (GPa) = 104.97249 125.23748 70.46417
#
# Poissons Ratio (x) = 0.22685 0.16321
# Poissons Ratio (y) = 0.19014 0.27145
# Poissons Ratio (z) = 0.24314 0.48245
#
# Static dielectric constant tensor:
#      x y z
#    x 3.573690 0.000000 -0.043130 
#    y 0.000000 4.289310 0.000000 
#    z -0.043130 0.000000 3.761890 
# 
# 
# High freq. dielectric constant tensor:
#      x y z
#    x 1.830110 0.000000 0.007910 
#    y 0.000000 1.833460 0.000000 
#    z 0.007910 0.000000 1.807760 
# 
# From -- ./inp_files/201211.got.cif
#   From: 2010.06.25/outbox.cif.g09.slc.cpg/sg12_101_cif.got.tgz:201211.got - 2010.06.28 00:19:55.
