data_PCOD8102936
_publ_section_title
;
Structure prediction by ZEFSAII (Michael W. Deem and Ramdas Pophale) SiO2 
 PCOD8102936
Probable space group: C 2/M
;
_chemical_formula_sum "Si O2"
_cell_formula_units_Z 56
_cell_length_a 18.753884
_cell_length_b 8.965022
_cell_length_c 29.080972
_cell_angle_alpha 90.000000
_cell_angle_beta 143.485192
_cell_angle_gamma 90.000000
_cell_volume 2909.315006
_symmetry_space_group_name_H-M "C 2/M"
_symmetry_group_IT_number 12
_symmetry_cell_setting 'monoclinic'
loop_
_space_group_symop_operation_xyz
x,y,z
-x,y,-z
-x,-y,-z
x,-y,z
1/2+x,1/2+y,z
1/2-x,1/2+y,-z
1/2-x,1/2-y,-z
1/2+x,1/2-y,z
loop_
_atom_site_type_symbol
_atom_site_label
_atom_site_fract_x
_atom_site_fract_y
_atom_site_fract_z
Si Si1 0.580867 0.828016 0.126464
Si Si2 0.296643 0.675490 0.570308
Si Si3 0.861479 0.326925 0.423978
Si Si4 0.725184 0.671536 0.126724
Si Si5 0.833677 0.825807 0.006778
Si Si6 0.043754 0.326065 0.695663
Si Si7 0.310951 0.672860 0.305690
O O1 0.627744 0.773387 0.101422
O O2 0.466660 0.734744 0.082279
O O3 0.681142 0.799027 0.216736
O O4 0.545332 0.000000 0.104068
O O5 0.307575 0.500000 0.568213
O O6 0.250000 0.750000 0.500000
O O7 0.204000 0.714683 0.562666
O O8 0.425418 0.741138 0.650679
O O9 0.844711 0.500000 0.402908
O O10 0.803094 0.229033 0.353620
O O11 0.000000 0.283616 0.500000
O O12 0.689730 0.500000 0.117371
O O13 0.858148 0.704900 0.214146
O O14 0.720697 0.712965 0.071112
O O15 0.835835 0.000000 0.017144
O O16 0.750000 0.750000 0.000000
O O17 0.015423 0.500000 0.674793
O O18 0.088338 0.264629 0.669705
O O19 0.346843 0.500000 0.322454
#
# Coordination Sequence:
#
# PCOD8102936 Si02
#       7
#     8   8   8   8   8   8   8
#     4  10  21  37  58  85 114 145 185 231 278 331
#     4  11  23  38  58  85 115 147 186 230 276 330
#     4  10  22  39  58  82 113 148 186 230 279 331
#     4   9  20  38  59  82 109 146 189 230 276 333
#     4  11  23  38  56  81 114 150 189 232 279 331
#     4  10  20  37  60  83 112 148 184 228 281 332
#     4  10  21  37  59  86 114 145 185 231 276 330
#
# _framework density 19.248518000000001
#
# number of rings (size 3 to 8) (size 9 to 14) (size 15 to 20)
#    0.000    1.857    0.000    3.429    0.000    8.857 
#    0.000    4.286    0.000    0.000    0.000    0.000 
#    0.000    0.000    0.000    0.000    0.000    0.000 
#
# Total GULP energy -347379.134904 kJ/mol
# GULP energy per Si atom -12406.397675 kJ/mol
# Density = 1.920471 g / cm^3
# Si number density = 19.248518 Si / 1000 Ang^3
#
#
#
# Elastic Constant Matrix: (Units=GPa)
#
#
# Indices 1 2 3 4 5 6 
#
# 1 162.3000 84.2295 80.7556 0.0000 4.6131 0.0000
# 2 84.2295 112.5114 64.0907 0.0000 -1.7751 0.0000
# 3 80.7556 64.0907 97.4610 0.0000 -0.4440 0.0000
# 4 0.0000 0.0000 0.0000 34.8367 0.0000 2.0727
# 5 4.6131 -1.7751 -0.4440 0.0000 34.6346 0.0000
# 6 0.0000 0.0000 0.0000 2.0727 0.0000 38.5888
#
#
#
# Elastic Compliance Matrix: (Units=1/GPa)
#
#
# Indices 1 2 3 4 5 6 
#
# 1 0.012391 -0.005524 -0.006644 0.000000 -0.002019 0.000000
# 2 -0.005524 0.016687 -0.006389 0.000000 0.001509 0.000000
# 3 -0.006644 -0.006389 0.019971 0.000000 0.000814 0.000000
# 4 0.000000 0.000000 0.000000 0.028797 0.000000 -0.001547
# 5 -0.002019 0.001509 0.000814 0.000000 0.029229 0.000000
# 6 0.000000 0.000000 0.000000 -0.001547 0.000000 0.025997
#
#
# Mechanical properties :
#
#
# Convention : Reuss Voigt Hill
#
# Bulk Modulus (GPa) = 83.78963 92.26933 88.02948
# Shear Modulus (GPa) = 28.70813 31.15847 29.93330
#
# Velocity S-wave (km/s) = 3.86611 4.02773 3.94775
# Velocity P-wave (km/s) = 7.97208 8.34686 8.16162
#
# Compressibility (1/GPa) = 0.01193465
#
# Stress axis : x y z
#
# Youngs Moduli (GPa) = 80.70097 59.92821 50.07162
#
# Poissons Ratio (x) = 0.33102 0.33269
# Poissons Ratio (y) = 0.44576 0.31993
# Poissons Ratio (z) = 0.53620 0.38291
#
# Static dielectric constant tensor:
#      x y z
#    x 3.439510 0.000000 0.024560 
#    y 0.000000 3.623750 0.000000 
#    z 0.024560 0.000000 3.601910 
# 
# 
# High freq. dielectric constant tensor:
#      x y z
#    x 1.748920 0.000000 0.002160 
#    y 0.000000 1.759970 0.000000 
#    z 0.002160 0.000000 1.758740 
# 
# From -- ./inp_files/363103.got.cif
#   From: 2010.06.25/outbox.cif.g09.slc.cpg/sg12_182_cif.got.tgz:363103.got - 2010.06.28 00:19:55.
