data_PCOD8102767
_publ_section_title
;
Structure prediction by ZEFSAII (Michael W. Deem and Ramdas Pophale) SiO2 
 PCOD8102767
Probable space group: C 2/M
;
_chemical_formula_sum "Si O2"
_cell_formula_units_Z 56
_cell_length_a 14.793071
_cell_length_b 8.910716
_cell_length_c 21.515233
_cell_angle_alpha 90.000000
_cell_angle_beta 91.019897
_cell_angle_gamma 90.000000
_cell_volume 2835.621030
_symmetry_space_group_name_H-M "C 2/M"
_symmetry_group_IT_number 12
_symmetry_cell_setting 'monoclinic'
loop_
_space_group_symop_operation_xyz
x,y,z
-x,y,-z
-x,-y,-z
x,-y,z
1/2+x,1/2+y,z
1/2-x,1/2+y,-z
1/2-x,1/2-y,-z
1/2+x,1/2-y,z
loop_
_atom_site_type_symbol
_atom_site_label
_atom_site_fract_x
_atom_site_fract_y
_atom_site_fract_z
Si Si1 0.893069 0.831478 0.991777
Si Si2 0.616906 0.174734 0.884602
Si Si3 0.909872 0.323450 0.867501
Si Si4 0.235330 0.321688 0.345642
Si Si5 0.113590 0.177360 0.558881
Si Si6 0.735352 0.323110 0.215034
Si Si7 0.587556 0.677743 0.420767
O O1 0.849738 0.760279 0.053075
O O2 0.855958 0.000000 0.982508
O O3 0.865962 0.735131 0.931237
O O4 0.000000 0.829480 0.000000
O O5 0.515317 0.221265 0.863936
O O6 0.683417 0.220206 0.830131
O O7 0.620580 0.000000 0.900458
O O8 0.895023 0.500000 0.862761
O O9 0.859293 0.243680 0.810031
O O10 0.236749 0.500000 0.340195
O O11 0.308062 0.258378 0.396188
O O12 0.260834 0.250977 0.280352
O O13 0.137436 0.265690 0.366423
O O14 0.126703 0.232470 0.488061
O O15 0.016813 0.227795 0.584658
O O16 0.116045 0.000000 0.557918
O O17 0.724788 0.500000 0.222786
O O18 0.599462 0.500000 0.411659
#
# Coordination Sequence:
#
# PCOD8102767 Si02
#       7
#     8   8   8   8   8   8   8
#     4   9  17  31  55  85 111 138 176 220 269 325
#     4   9  20  38  58  79 107 141 179 225 274 320
#     4  10  20  37  59  82 109 140 176 225 277 321
#     4  11  22  36  53  79 112 144 179 222 268 315
#     4   8  17  34  58  84 111 142 178 218 265 319
#     4  11  24  40  55  76 106 145 188 223 264 323
#     4   9  17  35  60  84 109 142 180 218 263 317
#
# _framework density 19.748760999999998
#
# number of rings (size 3 to 8) (size 9 to 14) (size 15 to 20)
#    0.000    2.429    0.000    3.000    0.000    5.143 
#    0.000    6.429    0.000    0.000    0.000    0.000 
#    0.000    0.000    0.000    0.000    0.000    0.000 
#
# Total GULP energy -347248.848394 kJ/mol
# GULP energy per Si atom -12401.744585 kJ/mol
# Density = 1.970381 g / cm^3
# Si number density = 19.748761 Si / 1000 Ang^3
#
#
#
# Elastic Constant Matrix: (Units=GPa)
#
#
# Indices 1 2 3 4 5 6 
#
# 1 64.0011 23.1679 31.7235 0.0000 -7.6758 0.0000
# 2 23.1679 70.0761 33.5800 0.0000 -5.6725 0.0000
# 3 31.7235 33.5800 99.0480 0.0000 -12.1448 0.0000
# 4 0.0000 0.0000 0.0000 33.4413 0.0000 -0.2070
# 5 -7.6758 -5.6725 -12.1448 0.0000 30.6799 0.0000
# 6 0.0000 0.0000 0.0000 -0.2070 0.0000 24.1353
#
#
#
# Elastic Compliance Matrix: (Units=1/GPa)
#
#
# Indices 1 2 3 4 5 6 
#
# 1 0.019683 -0.004101 -0.004628 0.000000 0.002334 0.000000
# 2 -0.004101 0.017917 -0.004709 0.000000 0.000423 0.000000
# 3 -0.004628 -0.004709 0.013585 0.000000 0.003349 0.000000
# 4 0.000000 0.000000 0.000000 0.029905 0.000000 0.000256
# 5 0.002334 0.000423 0.003349 0.000000 0.034583 0.000000
# 6 0.000000 0.000000 0.000000 0.000256 0.000000 0.041435
#
#
# Mechanical properties :
#
#
# Convention : Reuss Voigt Hill
#
# Bulk Modulus (GPa) = 41.13512 45.56311 43.34911
# Shear Modulus (GPa) = 26.02998 27.29488 26.66243
#
# Velocity S-wave (km/s) = 3.63444 3.72170 3.67833
# Velocity P-wave (km/s) = 6.20376 6.44900 6.32757
#
# Compressibility (1/GPa) = 0.02431013
#
# Stress axis : x y z
#
# Youngs Moduli (GPa) = 50.80540 55.81380 73.60834
#
# Poissons Ratio (x) = 0.22889 0.34063
# Poissons Ratio (y) = 0.20835 0.34662
# Poissons Ratio (z) = 0.23511 0.26283
#
# Static dielectric constant tensor:
#      x y z
#    x 3.683720 0.000000 0.126830 
#    y 0.000000 3.441130 0.000000 
#    z 0.126830 0.000000 3.693170 
# 
# 
# High freq. dielectric constant tensor:
#      x y z
#    x 1.770920 0.000000 -0.000340 
#    y 0.000000 1.759410 0.000000 
#    z -0.000340 0.000000 1.769630 
# 
# From -- ./inp_files/309061.got.cif
#   From: 2010.06.25/outbox.cif.g09.slc.cpg/sg12_155_cif.got.tgz:309061.got - 2010.06.28 00:19:55.
