data_PCOD8102000
_publ_section_title
;
Structure prediction by ZEFSAII (Michael W. Deem and Ramdas Pophale) SiO2 
 PCOD8102000
Probable space group: C 2/M
;
_chemical_formula_sum "Si O2"
_cell_formula_units_Z 48
_cell_length_a 14.848619
_cell_length_b 9.066298
_cell_length_c 26.544010
_cell_angle_alpha 90.000000
_cell_angle_beta 134.929792
_cell_angle_gamma 90.000000
_cell_volume 2529.875236
_symmetry_space_group_name_H-M "C 2/M"
_symmetry_group_IT_number 12
_symmetry_cell_setting 'monoclinic'
loop_
_space_group_symop_operation_xyz
x,y,z
-x,y,-z
-x,-y,-z
x,-y,z
1/2+x,1/2+y,z
1/2-x,1/2+y,-z
1/2-x,1/2-y,-z
1/2+x,1/2-y,z
loop_
_atom_site_type_symbol
_atom_site_label
_atom_site_fract_x
_atom_site_fract_y
_atom_site_fract_z
Si Si1 0.397145 0.830888 0.319200
Si Si2 0.809987 0.326984 0.571785
Si Si3 0.061210 0.328869 0.937018
Si Si4 0.366418 0.829725 0.424175
Si Si5 0.243875 0.327622 0.918852
Si Si6 0.231219 0.326776 0.173324
O O1 0.542192 0.787555 0.366090
O O2 0.364802 0.803383 0.364356
O O3 0.308163 0.724241 0.252267
O O4 0.371236 0.000000 0.293739
O O5 0.788191 0.500000 0.557330
O O6 0.750000 0.250000 0.500000
O O7 0.745520 0.268547 0.597109
O O8 0.077852 0.500000 0.957407
O O9 0.126568 0.291734 0.909522
O O10 0.915080 0.281721 0.875929
O O11 0.125654 0.236861 0.007149
O O12 0.500000 0.776362 0.500000
O O13 0.343255 0.000000 0.429396
O O14 0.262105 0.500000 0.917603
O O15 0.211937 0.252256 0.853303
O O16 0.247248 0.500000 0.172640
#
# Coordination Sequence:
#
# PCOD8102000 Si02
#       6
#     8   8   8   8   8   8
#     4  10  23  41  58  81 117 155 189 235 292 346
#     4  11  22  38  61  87 114 147 189 237 289 345
#     4   9  20  38  58  83 116 152 190 235 283 334
#     4  10  20  39  62  85 115 148 186 236 292 344
#     4  10  20  36  60  87 115 150 192 235 283 339
#     4  11  23  38  57  82 117 154 192 237 284 339
#
# _framework density 18.973268999999998
#
# number of rings (size 3 to 8) (size 9 to 14) (size 15 to 20)
#    0.000    1.833    1.667    2.000    0.000    7.667 
#    0.000    5.000    0.000    0.000    0.000    0.000 
#    0.000    0.000    0.000    0.000    0.000    0.000 
#
# Total GULP energy -297745.131171 kJ/mol
# GULP energy per Si atom -12406.047132 kJ/mol
# Density = 1.893008 g / cm^3
# Si number density = 18.973269 Si / 1000 Ang^3
#
#
#
# Elastic Constant Matrix: (Units=GPa)
#
#
# Indices 1 2 3 4 5 6 
#
# 1 103.4087 40.5981 42.9861 0.0000 2.3251 0.0000
# 2 40.5981 70.9330 44.7914 0.0000 1.3418 0.0000
# 3 42.9861 44.7914 101.2214 0.0000 -7.7761 0.0000
# 4 0.0000 0.0000 0.0000 37.9955 0.0000 -2.8397
# 5 2.3251 1.3418 -7.7761 0.0000 25.4539 0.0000
# 6 0.0000 0.0000 0.0000 -2.8397 0.0000 32.0807
#
#
#
# Elastic Compliance Matrix: (Units=1/GPa)
#
#
# Indices 1 2 3 4 5 6 
#
# 1 0.013243 -0.005407 -0.003382 0.000000 -0.001958 0.000000
# 2 -0.005407 0.022131 -0.007730 0.000000 -0.003034 0.000000
# 3 -0.003382 -0.007730 0.015147 0.000000 0.005344 0.000000
# 4 0.000000 0.000000 0.000000 0.026494 0.000000 0.002345
# 5 -0.001958 -0.003034 0.005344 0.000000 0.041258 0.000000
# 6 0.000000 0.000000 0.000000 0.002345 0.000000 0.031379
#
#
# Mechanical properties :
#
#
# Convention : Reuss Voigt Hill
#
# Bulk Modulus (GPa) = 57.19834 59.14602 58.17218
# Shear Modulus (GPa) = 26.52279 28.91853 27.72066
#
# Velocity S-wave (km/s) = 3.74291 3.90830 3.82650
# Velocity P-wave (km/s) = 6.99224 7.18383 7.08868
#
# Compressibility (1/GPa) = 0.01748302
#
# Stress axis : x y z
#
# Youngs Moduli (GPa) = 75.51207 45.18509 66.02154
#
# Poissons Ratio (x) = 0.24432 0.22326
# Poissons Ratio (y) = 0.40830 0.51035
# Poissons Ratio (z) = 0.25535 0.34929
#
# Static dielectric constant tensor:
#      x y z
#    x 3.645180 0.000000 0.010680 
#    y 0.000000 3.527000 0.000000 
#    z 0.010680 0.000000 3.368880 
# 
# 
# High freq. dielectric constant tensor:
#      x y z
#    x 1.751810 0.000000 -0.002970 
#    y 0.000000 1.741270 0.000000 
#    z -0.002970 0.000000 1.733270 
# 
# From -- ./inp_files/360240.got.cif
#   From: 2010.06.25/outbox.cif.g09.slc.cpg/sg12_181_cif.got.tgz:360240.got - 2010.06.28 00:19:55.
