data_PCOD8102571
_publ_section_title
;
Structure prediction by ZEFSAII (Michael W. Deem and Ramdas Pophale) SiO2 
 PCOD8102571
Probable space group: C 2/M
;
_chemical_formula_sum "Si O2"
_cell_formula_units_Z 64
_cell_length_a 33.802036
_cell_length_b 8.606508
_cell_length_c 25.718076
_cell_angle_alpha 90.000000
_cell_angle_beta 153.905891
_cell_angle_gamma 90.000000
_cell_volume 3290.862851
_symmetry_space_group_name_H-M "C 2/M"
_symmetry_group_IT_number 12
_symmetry_cell_setting 'monoclinic'
loop_
_space_group_symop_operation_xyz
x,y,z
-x,y,-z
-x,-y,-z
x,-y,z
1/2+x,1/2+y,z
1/2-x,1/2+y,-z
1/2-x,1/2-y,-z
1/2+x,1/2-y,z
loop_
_atom_site_type_symbol
_atom_site_label
_atom_site_fract_x
_atom_site_fract_y
_atom_site_fract_z
Si Si1 0.469898 0.319047 0.021911
Si Si2 0.283884 0.817352 0.330588
Si Si3 0.929661 0.676363 0.586139
Si Si4 0.272083 0.679617 0.943385
Si Si5 0.210099 0.319666 0.147827
Si Si6 0.881054 0.180219 0.171646
Si Si7 0.853634 0.320483 0.758565
Si Si8 0.731026 0.177729 0.532556
O O1 0.445525 0.500000 0.996164
O O2 0.559784 0.275570 0.159786
O O3 0.500000 0.263632 0.000000
O O4 0.388955 0.222535 0.949899
O O5 0.370222 0.762308 0.466437
O O6 0.287291 0.766963 0.273920
O O7 0.189147 0.745104 0.238399
O O8 0.275221 0.000000 0.326831
O O9 0.961482 0.500000 0.612782
O O10 0.873211 0.682058 0.573194
O O11 0.014742 0.786211 0.694884
O O12 0.275364 0.500000 0.931732
O O13 0.281756 0.777956 0.902769
O O14 0.176740 0.717058 0.857043
O O15 0.352633 0.721997 0.078759
O O16 0.227742 0.500000 0.175621
O O17 0.860855 0.000000 0.158630
O O18 0.877950 0.500000 0.794279
O O19 0.779610 0.295630 0.627909
O O20 0.750000 0.250000 0.500000
O O21 0.766550 0.000000 0.578026
#
# Coordination Sequence:
#
# PCOD8102571 Si02
#       8
#     8   8   8   8   8   8   8   8
#     4  11  22  36  56  79 111 154 195 235 283 343
#     4  10  20  37  57  81 115 155 194 232 283 348
#     4   9  20  37  60  85 113 153 193 232 286 350
#     4  10  22  41  63  87 119 156 188 232 294 354
#     4  12  24  37  58  88 120 152 195 247 294 345
#     4  10  21  39  65  92 116 146 191 241 291 346
#     4  11  21  34  54  79 109 147 193 239 287 338
#     4  10  21  37  55  79 114 153 195 239 288 342
#
# _framework density 19.447787000000002
#
# number of rings (size 3 to 8) (size 9 to 14) (size 15 to 20)
#    0.000    1.625    1.250    4.875    0.000    6.000 
#    0.000    3.125    0.000    3.750    0.000    0.000 
#    0.000    0.000    0.000    0.000    0.000    0.000 
#
# Total GULP energy -396721.484618 kJ/mol
# GULP energy per Si atom -12397.546394 kJ/mol
# Density = 1.940352 g / cm^3
# Si number density = 19.447787 Si / 1000 Ang^3
#
#
#
# Elastic Constant Matrix: (Units=GPa)
#
#
# Indices 1 2 3 4 5 6 
#
# 1 89.6207 23.1332 41.3370 0.0000 -13.9596 0.0000
# 2 23.1332 67.0468 23.2292 0.0000 -2.4631 0.0000
# 3 41.3370 23.2292 102.9982 0.0000 2.0804 0.0000
# 4 0.0000 0.0000 0.0000 32.4006 0.0000 -0.3660
# 5 -13.9596 -2.4631 2.0804 0.0000 21.4572 0.0000
# 6 0.0000 0.0000 0.0000 -0.3660 0.0000 34.4600
#
#
#
# Elastic Compliance Matrix: (Units=1/GPa)
#
#
# Indices 1 2 3 4 5 6 
#
# 1 0.016516 -0.003170 -0.006135 0.000000 0.010976 0.000000
# 2 -0.003170 0.016893 -0.002540 0.000000 0.000123 0.000000
# 3 -0.006135 -0.002540 0.012856 0.000000 -0.005529 0.000000
# 4 0.000000 0.000000 0.000000 0.030867 0.000000 0.000328
# 5 0.010976 0.000123 -0.005529 0.000000 0.054295 0.000000
# 6 0.000000 0.000000 0.000000 0.000328 0.000000 0.029023
#
#
# Mechanical properties :
#
#
# Convention : Reuss Voigt Hill
#
# Bulk Modulus (GPa) = 44.29789 48.34049 46.31919
# Shear Modulus (GPa) = 26.08718 29.12799 27.60758
#
# Velocity S-wave (km/s) = 3.66648 3.87428 3.77181
# Velocity P-wave (km/s) = 6.38368 6.70253 6.54505
#
# Compressibility (1/GPa) = 0.02257444
#
# Stress axis : x y z
#
# Youngs Moduli (GPa) = 60.54841 59.19536 77.78583
#
# Poissons Ratio (x) = 0.18762 0.47723
# Poissons Ratio (y) = 0.19191 0.19760
# Poissons Ratio (z) = 0.37148 0.15038
#
# Static dielectric constant tensor:
#      x y z
#    x 3.227540 0.000000 -0.026500 
#    y 0.000000 3.545010 0.000000 
#    z -0.026500 0.000000 3.583120 
# 
# 
# High freq. dielectric constant tensor:
#      x y z
#    x 1.741950 0.000000 -0.010630 
#    y 0.000000 1.765740 0.000000 
#    z -0.010630 0.000000 1.759280 
# 
# From -- ./inp_files/353584.got.cif
#   From: 2010.06.25/outbox.cif.g09.slc.cpg/sg12_177_cif.got.tgz:353584.got - 2010.06.28 00:19:55.
