data_PCOD8102703
_publ_section_title
;
Structure prediction by ZEFSAII (Michael W. Deem and Ramdas Pophale) SiO2 
 PCOD8102703
Probable space group: C 2/M
;
_chemical_formula_sum "Si O2"
_cell_formula_units_Z 64
_cell_length_a 18.071156
_cell_length_b 9.532447
_cell_length_c 29.814994
_cell_angle_alpha 90.000000
_cell_angle_beta 142.530004
_cell_angle_gamma 90.000000
_cell_volume 3124.464825
_symmetry_space_group_name_H-M "C 2/M"
_symmetry_group_IT_number 12
_symmetry_cell_setting 'monoclinic'
loop_
_space_group_symop_operation_xyz
x,y,z
-x,y,-z
-x,-y,-z
x,-y,z
1/2+x,1/2+y,z
1/2-x,1/2+y,-z
1/2-x,1/2-y,-z
1/2+x,1/2-y,z
loop_
_atom_site_type_symbol
_atom_site_label
_atom_site_fract_x
_atom_site_fract_y
_atom_site_fract_z
Si Si1 0.113624 0.213198 0.947821
Si Si2 0.936205 0.836418 0.594840
Si Si3 0.602437 0.158355 0.110932
Si Si4 0.690925 0.345506 0.077821
Si Si5 0.151294 0.662227 0.293481
Si Si6 0.793298 0.835244 0.276864
Si Si7 0.423599 0.657698 0.168445
Si Si8 0.237521 0.658226 0.430753
O O1 0.058461 0.141432 0.876908
O O2 0.019854 0.337302 0.916999
O O3 0.250000 0.250000 0.000000
O O4 0.123001 0.122442 0.997778
O O5 0.863407 0.762239 0.599220
O O6 0.870366 0.807657 0.515329
O O7 0.071402 0.770651 0.659425
O O8 0.940612 0.000000 0.608648
O O9 0.599843 0.266707 0.068247
O O10 0.720322 0.201642 0.196758
O O11 0.613981 0.000000 0.098134
O O12 0.728256 0.500000 0.114511
O O13 0.803781 0.242672 0.124202
O O14 0.110670 0.500000 0.266474
O O15 0.223039 0.726367 0.285872
O O16 0.241520 0.675649 0.379202
O O17 0.033024 0.757681 0.243780
O O18 0.803391 0.000000 0.289090
O O19 0.416779 0.500000 0.185258
O O20 0.199844 0.500000 0.426052
#
# Coordination Sequence:
#
# PCOD8102703 Si02
#       8
#     8   8   8   8   8   8   8   8
#     4  10  23  41  64  88 116 153 197 243 296 355
#     4   9  18  35  58  86 119 156 196 241 290 343
#     4  11  23  41  63  90 123 160 201 245 297 356
#     4  11  25  42  62  88 120 156 195 248 306 357
#     4  10  20  37  58  84 119 157 197 243 297 352
#     4   9  19  36  59  85 117 156 195 240 292 344
#     4  11  23  40  62  89 118 154 202 246 295 360
#     4   9  19  34  57  87 118 154 198 243 289 346
#
# _framework density 20.483508
#
# number of rings (size 3 to 8) (size 9 to 14) (size 15 to 20)
#    0.000    2.000    1.250    1.500    1.750    7.500 
#    0.000    3.125    0.000    0.000    0.000    4.375 
#    0.000    0.000    0.000    0.000    0.000    0.000 
#
# Total GULP energy -396522.780975 kJ/mol
# GULP energy per Si atom -12391.336905 kJ/mol
# Density = 2.043689 g / cm^3
# Si number density = 20.483508 Si / 1000 Ang^3
#
#
#
# Elastic Constant Matrix: (Units=GPa)
#
#
# Indices 1 2 3 4 5 6 
#
# 1 91.0762 39.8578 38.7935 0.0000 6.3583 0.0000
# 2 39.8578 104.8286 31.2326 0.0000 3.1223 0.0000
# 3 38.7935 31.2326 104.7187 0.0000 10.1591 0.0000
# 4 0.0000 0.0000 0.0000 20.1949 0.0000 3.6778
# 5 6.3583 3.1223 10.1591 0.0000 35.6898 0.0000
# 6 0.0000 0.0000 0.0000 3.6778 0.0000 20.7428
#
#
#
# Elastic Compliance Matrix: (Units=1/GPa)
#
#
# Indices 1 2 3 4 5 6 
#
# 1 0.014676 -0.004346 -0.004035 0.000000 -0.001086 0.000000
# 2 -0.004346 0.011756 -0.001925 0.000000 0.000294 0.000000
# 3 -0.004035 -0.001925 0.011860 0.000000 -0.002489 0.000000
# 4 0.000000 0.000000 0.000000 0.051170 0.000000 -0.009073
# 5 -0.001086 0.000294 -0.002489 0.000000 0.028895 0.000000
# 6 0.000000 0.000000 0.000000 -0.009073 0.000000 0.049818
#
#
# Mechanical properties :
#
#
# Convention : Reuss Voigt Hill
#
# Bulk Modulus (GPa) = 56.55946 57.82125 57.19036
# Shear Modulus (GPa) = 25.68298 28.04147 26.86222
#
# Velocity S-wave (km/s) = 3.54480 3.70398 3.62526
# Velocity P-wave (km/s) = 6.66530 6.82511 6.74568
#
# Compressibility (1/GPa) = 0.01768051
#
# Stress axis : x y z
#
# Youngs Moduli (GPa) = 68.13734 85.05986 84.31756
#
# Poissons Ratio (x) = 0.36963 0.34026
# Poissons Ratio (y) = 0.29609 0.16232
# Poissons Ratio (z) = 0.27497 0.16374
#
# Static dielectric constant tensor:
#      x y z
#    x 3.827920 0.000000 -0.048390 
#    y 0.000000 3.480840 0.000000 
#    z -0.048390 0.000000 3.931940 
# 
# 
# High freq. dielectric constant tensor:
#      x y z
#    x 1.798880 0.000000 -0.003120 
#    y 0.000000 1.777450 0.000000 
#    z -0.003120 0.000000 1.808840 
# 
# From -- ./inp_files/378353.got.cif
#   From: 2010.06.25/outbox.cif.g09.slc.cpg/sg12_190_cif.got.tgz:378353.got - 2010.06.28 00:19:55.
