data_PCOD8102266
_publ_section_title
;
Structure prediction by ZEFSAII (Michael W. Deem and Ramdas Pophale) SiO2 
 PCOD8102266
Probable space group: C 2/M
;
_chemical_formula_sum "Si O2"
_cell_formula_units_Z 40
_cell_length_a 26.656023
_cell_length_b 8.817055
_cell_length_c 21.373901
_cell_angle_alpha 90.000000
_cell_angle_beta 158.351425
_cell_angle_gamma 90.000000
_cell_volume 1853.217017
_symmetry_space_group_name_H-M "C 2/M"
_symmetry_group_IT_number 12
_symmetry_cell_setting 'monoclinic'
loop_
_space_group_symop_operation_xyz
x,y,z
-x,y,-z
-x,-y,-z
x,-y,z
1/2+x,1/2+y,z
1/2-x,1/2+y,-z
1/2-x,1/2-y,-z
1/2+x,1/2-y,z
loop_
_atom_site_type_symbol
_atom_site_label
_atom_site_fract_x
_atom_site_fract_y
_atom_site_fract_z
Si Si1 0.902397 0.672243 0.243888
Si Si2 0.647693 0.679064 0.195201
Si Si3 0.901954 0.822492 0.441785
Si Si4 0.368312 0.172673 0.058322
Si Si5 0.845747 0.320510 0.663644
O O1 0.931623 0.500000 0.297953
O O2 0.903359 0.692470 0.171243
O O3 0.022732 0.780276 0.406632
O O4 0.758533 0.722253 0.107168
O O5 0.655471 0.500000 0.212385
O O6 0.757499 0.736064 0.271377
O O7 0.688337 0.755439 0.307918
O O8 0.500000 0.731744 0.000000
O O9 0.000000 0.765179 0.500000
O O10 0.873127 0.000000 0.404111
O O11 0.498333 0.224456 0.169544
O O12 0.327169 0.000000 0.995474
O O13 0.824570 0.500000 0.638339
O O14 0.750000 0.250000 0.500000
#
# Coordination Sequence:
#
# PCOD8102266 Si02
#       5
#     8   8   8   8   8
#     4  10  20  36  61  91 125 162 206 260 315 375
#     4  11  26  46  67  96 134 174 221 275 330 392
#     4  11  25  43  65  92 125 168 215 264 320 387
#     4   9  20  37  58  89 125 163 205 256 315 379
#     4  11  23  40  66  95 130 173 220 271 326 391
#
# _framework density 21.584088999999999
#
# number of rings (size 3 to 8) (size 9 to 14) (size 15 to 20)
#    0.000    1.600    0.000    3.600    2.800    7.200 
#    0.000    0.000    0.000    0.000    0.000    0.000 
#    0.000    0.000    0.000    0.000    0.000    0.000 
#
# Total GULP energy -248095.815383 kJ/mol
# GULP energy per Si atom -12404.790769 kJ/mol
# Density = 2.153496 g / cm^3
# Si number density = 21.584089 Si / 1000 Ang^3
#
#
#
# Elastic Constant Matrix: (Units=GPa)
#
#
# Indices 1 2 3 4 5 6 
#
# 1 90.5497 37.0348 44.2082 0.0000 23.4181 0.0000
# 2 37.0348 76.4436 43.3980 0.0000 6.5127 0.0000
# 3 44.2082 43.3980 122.5843 -0.0001 14.3427 -0.0001
# 4 0.0000 0.0000 -0.0001 36.7082 0.0000 7.9359
# 5 23.4181 6.5127 14.3427 0.0000 35.1962 0.0000
# 6 0.0000 0.0000 -0.0001 7.9359 0.0000 27.7614
#
#
#
# Elastic Compliance Matrix: (Units=1/GPa)
#
#
# Indices 1 2 3 4 5 6 
#
# 1 0.017326 -0.005850 -0.003103 0.000000 -0.009181 0.000000
# 2 -0.005850 0.018364 -0.004672 0.000000 0.002398 0.000000
# 3 -0.003103 -0.004672 0.011118 0.000000 -0.001602 0.000000
# 4 0.000000 0.000000 0.000000 0.029036 0.000000 -0.008300
# 5 -0.009181 0.002398 -0.001602 0.000000 0.034730 0.000000
# 6 0.000000 0.000000 0.000000 -0.008300 0.000000 0.038394
#
#
# Mechanical properties :
#
#
# Convention : Reuss Voigt Hill
#
# Bulk Modulus (GPa) = 51.13187 59.87330 55.50258
# Shear Modulus (GPa) = 27.36178 30.92895 29.14536
#
# Velocity S-wave (km/s) = 3.56432 3.78954 3.67865
# Velocity P-wave (km/s) = 6.37810 6.85181 6.61919
#
# Compressibility (1/GPa) = 0.01955727
#
# Stress axis : x y z
#
# Youngs Moduli (GPa) = 57.71809 54.45495 89.94302
#
# Poissons Ratio (x) = 0.31856 0.27909
# Poissons Ratio (y) = 0.33765 0.42023
# Poissons Ratio (z) = 0.17910 0.25442
#
# Static dielectric constant tensor:
#      x y z
#    x 3.944410 0.000000 0.208290 
#    y 0.000000 3.867950 0.000000 
#    z 0.208290 0.000000 3.990320 
# 
# 
# High freq. dielectric constant tensor:
#      x y z
#    x 1.850420 0.000000 0.010820 
#    y 0.000000 1.848620 0.000000 
#    z 0.010820 0.000000 1.858550 
# 
# From -- ./inp_files/162490.got.cif
#   From: 2010.06.25/outbox.cif.g09.slc.cpg/sg12_82_cif.got.tgz:162490.got - 2010.06.28 00:19:55.
