data_PCOD8102558
_publ_section_title
;
Structure prediction by ZEFSAII (Michael W. Deem and Ramdas Pophale) SiO2 
 PCOD8102558
Probable space group: C 2/M
;
_chemical_formula_sum "Si O2"
_cell_formula_units_Z 56
_cell_length_a 18.785791
_cell_length_b 9.285610
_cell_length_c 20.628314
_cell_angle_alpha 90.000000
_cell_angle_beta 122.351040
_cell_angle_gamma 90.000000
_cell_volume 3039.835650
_symmetry_space_group_name_H-M "C 2/M"
_symmetry_group_IT_number 12
_symmetry_cell_setting 'monoclinic'
loop_
_space_group_symop_operation_xyz
x,y,z
-x,y,-z
-x,-y,-z
x,-y,z
1/2+x,1/2+y,z
1/2-x,1/2+y,-z
1/2-x,1/2-y,-z
1/2+x,1/2-y,z
loop_
_atom_site_type_symbol
_atom_site_label
_atom_site_fract_x
_atom_site_fract_y
_atom_site_fract_z
Si Si1 0.029953 0.841441 0.329928
Si Si2 0.028073 0.669664 0.584054
Si Si3 0.343011 0.655136 0.197887
Si Si4 0.288692 0.834354 0.281118
Si Si5 0.896446 0.170008 0.770635
Si Si6 0.836417 0.170226 0.050380
Si Si7 0.988656 0.333230 0.070986
O O1 0.069956 0.776591 0.283281
O O2 0.038306 0.737270 0.396261
O O3 0.930625 0.857628 0.276531
O O4 0.069868 0.000000 0.362973
O O5 0.017617 0.500000 0.586194
O O6 0.126664 0.715410 0.639988
O O7 0.000000 0.724805 0.500000
O O8 0.296926 0.500000 0.172817
O O9 0.281508 0.759995 0.207174
O O10 0.365004 0.706745 0.136932
O O11 0.203949 0.799279 0.279693
O O12 0.294904 0.000000 0.267576
O O13 0.938613 0.257400 0.850365
O O14 0.917192 0.000000 0.790070
O O15 0.902739 0.246077 0.036697
O O16 0.830525 0.000000 0.032538
O O17 0.750000 0.250000 0.000000
O O18 0.981707 0.500000 0.089635
O O19 0.000000 0.322843 0.000000
#
# Coordination Sequence:
#
# PCOD8102558 Si02
#       7
#     8   8   8   8   8   8   8
#     4   9  17  33  55  77 102 137 178 220 268 322
#     4   9  18  34  55  81 113 144 177 220 268 323
#     4   9  18  34  53  73 102 136 174 223 271 316
#     4   9  19  33  54  81 106 140 184 220 264 326
#     4  10  20  37  57  79 108 143 185 231 278 331
#     4  11  23  39  57  79 109 143 185 233 282 333
#     4  11  25  41  56  79 111 148 189 235 287 337
#
# _framework density 18.422049000000001
#
# number of rings (size 3 to 8) (size 9 to 14) (size 15 to 20)
#    0.000    2.286    1.429    0.857    2.000    3.714 
#    0.000    0.714    0.000    0.000    0.000    0.000 
#    0.000    0.000    0.000    0.000    0.000    0.000 
#
# Total GULP energy -346962.718142 kJ/mol
# GULP energy per Si atom -12391.525648 kJ/mol
# Density = 1.838012 g / cm^3
# Si number density = 18.422049 Si / 1000 Ang^3
#
#
#
# Elastic Constant Matrix: (Units=GPa)
#
#
# Indices 1 2 3 4 5 6 
#
# 1 117.5609 58.2342 46.4065 0.0000 -11.0703 0.0000
# 2 58.2342 83.9880 52.2102 0.0000 -8.8482 0.0000
# 3 46.4065 52.2102 83.2339 0.0000 -18.0043 0.0000
# 4 0.0000 0.0000 0.0000 25.5672 0.0000 -6.6069
# 5 -11.0703 -8.8482 -18.0043 0.0000 30.9925 0.0000
# 6 0.0000 0.0000 0.0000 -6.6069 0.0000 30.7389
#
#
#
# Elastic Compliance Matrix: (Units=1/GPa)
#
#
# Indices 1 2 3 4 5 6 
#
# 1 0.013349 -0.007645 -0.002388 0.000000 0.001198 0.000000
# 2 -0.007645 0.023979 -0.011310 0.000000 -0.002455 0.000000
# 3 -0.002388 -0.011310 0.022368 0.000000 0.008912 0.000000
# 4 0.000000 0.000000 0.000000 0.041413 0.000000 0.008901
# 5 0.001198 -0.002455 0.008912 0.000000 0.037170 0.000000
# 6 0.000000 0.000000 0.000000 0.008901 0.000000 0.034445
#
#
# Mechanical properties :
#
#
# Convention : Reuss Voigt Hill
#
# Bulk Modulus (GPa) = 58.78855 66.49828 62.64342
# Shear Modulus (GPa) = 22.61625 25.98852 24.30239
#
# Velocity S-wave (km/s) = 3.50762 3.76004 3.63602
# Velocity P-wave (km/s) = 6.95599 7.41795 7.19068
#
# Compressibility (1/GPa) = 0.01701011
#
# Stress axis : x y z
#
# Youngs Moduli (GPa) = 74.91471 41.70263 44.70652
#
# Poissons Ratio (x) = 0.31881 0.10675
# Poissons Ratio (y) = 0.57270 0.50564
# Poissons Ratio (z) = 0.17889 0.47167
#
# Static dielectric constant tensor:
#      x y z
#    x 3.826210 0.000000 0.314230 
#    y 0.000000 3.672480 0.000000 
#    z 0.314230 0.000000 3.639030 
# 
# 
# High freq. dielectric constant tensor:
#      x y z
#    x 1.716440 0.000000 -0.010850 
#    y 0.000000 1.714960 0.000000 
#    z -0.010850 0.000000 1.700050 
# 
# From -- ./inp_files/275615.got.cif
#   From: 2010.06.25/outbox.cif.g09.slc.cpg/sg12_138_cif.got.tgz:275615.got - 2010.06.28 00:19:55.
