data_PCOD8102123
_publ_section_title
;
Structure prediction by ZEFSAII (Michael W. Deem and Ramdas Pophale) SiO2 
 PCOD8102123
Probable space group: C 2/M
;
_chemical_formula_sum "Si O2"
_cell_formula_units_Z 64
_cell_length_a 15.129719
_cell_length_b 8.960522
_cell_length_c 26.979687
_cell_angle_alpha 90.000000
_cell_angle_beta 115.559304
_cell_angle_gamma 90.000000
_cell_volume 3299.701347
_symmetry_space_group_name_H-M "C 2/M"
_symmetry_group_IT_number 12
_symmetry_cell_setting 'monoclinic'
loop_
_space_group_symop_operation_xyz
x,y,z
-x,y,-z
-x,-y,-z
x,-y,z
1/2+x,1/2+y,z
1/2-x,1/2+y,-z
1/2-x,1/2-y,-z
1/2+x,1/2-y,z
loop_
_atom_site_type_symbol
_atom_site_label
_atom_site_fract_x
_atom_site_fract_y
_atom_site_fract_z
Si Si1 0.297745 0.326928 0.436549
Si Si2 0.692912 0.677421 0.750318
Si Si3 0.892675 0.328406 0.549435
Si Si4 0.688849 0.338562 0.945852
Si Si5 0.402463 0.677640 0.171738
Si Si6 0.019453 0.836792 0.056846
Si Si7 0.887924 0.674904 0.366024
Si Si8 0.105412 0.821245 0.176002
O O1 0.316939 0.500000 0.429806
O O2 0.185716 0.297529 0.426001
O O3 0.371619 0.275832 0.497478
O O4 0.316783 0.231168 0.392209
O O5 0.699694 0.500000 0.750094
O O6 0.631364 0.734818 0.782874
O O7 0.636275 0.736849 0.689288
O O8 0.801286 0.744228 0.777399
O O9 0.886211 0.500000 0.530118
O O10 0.999635 0.288012 0.594840
O O11 0.740072 0.500000 0.953077
O O12 0.676268 0.261323 0.888573
O O13 0.580019 0.358856 0.938435
O O14 0.750000 0.250000 0.000000
O O15 0.399581 0.500000 0.167504
O O16 0.512884 0.732190 0.186874
O O17 0.092902 0.763640 0.115322
O O18 0.062493 0.000000 0.052396
O O19 0.000000 0.746554 0.000000
O O20 0.870278 0.500000 0.353887
O O21 0.116157 0.000000 0.179470
#
# Coordination Sequence:
#
# PCOD8102123 Si02
#       8
#     8   8   8   8   8   8   8   8
#     4  10  20  36  60  90 121 152 187 229 279 325
#     4  11  23  38  56  78 107 144 185 230 284 331
#     4   9  20  38  59  85 120 157 189 226 273 324
#     4   9  17  30  49  74 102 131 165 209 264 322
#     4   8  18  37  55  73 105 144 176 216 274 335
#     4   8  15  28  48  74 101 130 166 209 258 317
#     4  11  23  39  57  81 113 149 192 234 275 325
#     4   9  18  36  58  77 102 139 183 222 266 329
#
# _framework density 19.395695
#
# number of rings (size 3 to 8) (size 9 to 14) (size 15 to 20)
#    0.000    2.625    0.000    3.000    1.750    4.000 
#    0.000    6.875    0.000    0.750    0.000    0.000 
#    0.000    0.000    0.000    0.000    0.000    0.000 
#
# Total GULP energy -396571.725082 kJ/mol
# GULP energy per Si atom -12392.866409 kJ/mol
# Density = 1.935155 g / cm^3
# Si number density = 19.395695 Si / 1000 Ang^3
#
#
#
# Elastic Constant Matrix: (Units=GPa)
#
#
# Indices 1 2 3 4 5 6 
#
# 1 83.4425 29.5637 52.8565 0.0000 -10.7902 0.0000
# 2 29.5637 53.3794 31.5892 0.0000 -0.3694 0.0000
# 3 52.8565 31.5892 118.1795 0.0000 -15.1011 0.0000
# 4 0.0000 0.0000 0.0000 22.9119 0.0000 -3.3772
# 5 -10.7902 -0.3694 -15.1011 0.0000 27.6148 0.0000
# 6 0.0000 0.0000 0.0000 -3.3772 0.0000 19.7290
#
#
#
# Elastic Compliance Matrix: (Units=1/GPa)
#
#
# Indices 1 2 3 4 5 6 
#
# 1 0.018728 -0.006752 -0.006072 0.000000 0.003907 0.000000
# 2 -0.006752 0.024951 -0.004240 0.000000 -0.004623 0.000000
# 3 -0.006072 -0.004240 0.012902 0.000000 0.004626 0.000000
# 4 0.000000 0.000000 0.000000 0.044775 0.000000 0.007665
# 5 0.003907 -0.004623 0.004626 0.000000 0.040207 0.000000
# 6 0.000000 0.000000 0.000000 0.007665 0.000000 0.051999
#
#
# Mechanical properties :
#
#
# Convention : Reuss Voigt Hill
#
# Bulk Modulus (GPa) = 44.53923 53.66889 49.10406
# Shear Modulus (GPa) = 21.26078 23.45060 22.35569
#
# Velocity S-wave (km/s) = 3.31442 3.48093 3.39870
# Velocity P-wave (km/s) = 6.13682 6.62468 6.38541
#
# Compressibility (1/GPa) = 0.02245212
#
# Stress axis : x y z
#
# Youngs Moduli (GPa) = 53.39538 40.07918 77.50669
#
# Poissons Ratio (x) = 0.27061 0.47064
# Poissons Ratio (y) = 0.36052 0.32864
# Poissons Ratio (z) = 0.32423 0.16994
#
# Static dielectric constant tensor:
#      x y z
#    x 3.536740 0.000000 -0.207450 
#    y 0.000000 3.279420 0.000000 
#    z -0.207450 0.000000 3.544740 
# 
# 
# High freq. dielectric constant tensor:
#      x y z
#    x 1.755550 0.000000 -0.004230 
#    y 0.000000 1.727960 0.000000 
#    z -0.004230 0.000000 1.764720 
# 
# From -- ./inp_files/359931.got.cif
#   From: 2010.06.25/outbox.cif.g09.slc.cpg/sg12_180_cif.got.tgz:359931.got - 2010.06.28 00:19:55.
