data_PCOD8102664
_publ_section_title
;
Structure prediction by ZEFSAII (Michael W. Deem and Ramdas Pophale) SiO2 
 PCOD8102664
Probable space group: C 2/M
;
_chemical_formula_sum "Si O2"
_cell_formula_units_Z 56
_cell_length_a 21.532552
_cell_length_b 9.163643
_cell_length_c 19.473900
_cell_angle_alpha 90.000000
_cell_angle_beta 133.595937
_cell_angle_gamma 90.000000
_cell_volume 2782.835744
_symmetry_space_group_name_H-M "C 2/M"
_symmetry_group_IT_number 12
_symmetry_cell_setting 'monoclinic'
loop_
_space_group_symop_operation_xyz
x,y,z
-x,y,-z
-x,-y,-z
x,-y,z
1/2+x,1/2+y,z
1/2-x,1/2+y,-z
1/2-x,1/2-y,-z
1/2+x,1/2-y,z
loop_
_atom_site_type_symbol
_atom_site_label
_atom_site_fract_x
_atom_site_fract_y
_atom_site_fract_z
Si Si1 0.471267 0.835021 0.056052
Si Si2 0.481805 0.666842 0.284906
Si Si3 0.698311 0.332592 0.902510
Si Si4 0.595710 0.672832 0.252967
Si Si5 0.242283 0.336169 0.699401
Si Si6 0.072510 0.171179 0.609981
Si Si7 0.192309 0.165595 0.105781
O O1 0.543733 0.763624 0.157538
O O2 0.452737 0.000000 0.067586
O O3 0.500000 0.837288 0.000000
O O4 0.385868 0.738628 0.994402
O O5 0.497624 0.500000 0.316310
O O6 0.404225 0.684886 0.170749
O O7 0.565747 0.724116 0.307178
O O8 0.459332 0.742344 0.341275
O O9 0.726547 0.500000 0.923726
O O10 0.722873 0.256853 0.849201
O O11 0.750000 0.250000 0.000000
O O12 0.577492 0.500000 0.229083
O O13 0.697750 0.706119 0.320514
O O14 0.206148 0.500000 0.664437
O O15 0.161468 0.233121 0.648423
O O16 0.310804 0.328381 0.814399
O O17 0.000000 0.208796 0.500000
O O18 0.088486 0.000000 0.630827
O O19 0.197999 0.000000 0.082830
#
# Coordination Sequence:
#
# PCOD8102664 Si02
#       7
#     8   8   8   8   8   8   8
#     4  11  22  33  49  78 116 157 199 244 289 337
#     4   9  19  36  58  83 112 148 189 238 289 338
#     4  11  21  34  53  80 114 154 196 242 290 340
#     4  10  20  37  58  81 114 155 196 236 285 347
#     4  10  21  36  58  85 112 147 187 235 290 345
#     4  10  21  40  66  90 112 145 190 239 295 358
#     4  11  21  34  52  77 109 152 200 239 284 341
#
# _framework density 20.123358
#
# number of rings (size 3 to 8) (size 9 to 14) (size 15 to 20)
#    0.000    1.714    2.857    2.143    0.000    3.143 
#    0.000    2.143    0.000    0.000    0.000    0.000 
#    0.000    0.000    0.000    0.000    0.000    0.000 
#
# Total GULP energy -346971.652645 kJ/mol
# GULP energy per Si atom -12391.844737 kJ/mol
# Density = 2.007756 g / cm^3
# Si number density = 20.123358 Si / 1000 Ang^3
#
#
#
# Elastic Constant Matrix: (Units=GPa)
#
#
# Indices 1 2 3 4 5 6 
#
# 1 166.6223 45.3055 53.5891 0.0000 4.1046 0.0000
# 2 45.3055 92.5474 36.8878 0.0000 6.2601 0.0000
# 3 53.5891 36.8878 75.2286 0.0000 2.4379 0.0000
# 4 0.0000 0.0000 0.0000 19.8943 0.0000 5.8445
# 5 4.1046 6.2601 2.4379 0.0000 22.1725 0.0000
# 6 0.0000 0.0000 0.0000 5.8445 0.0000 28.3573
#
#
#
# Elastic Compliance Matrix: (Units=1/GPa)
#
#
# Indices 1 2 3 4 5 6 
#
# 1 0.008095 -0.002042 -0.004753 0.000000 -0.000400 0.000000
# 2 -0.002042 0.014158 -0.005390 0.000000 -0.003027 0.000000
# 3 -0.004753 -0.005390 0.019312 0.000000 0.000278 0.000000
# 4 0.000000 0.000000 0.000000 0.053505 0.000000 -0.011028
# 5 -0.000400 -0.003027 0.000278 0.000000 0.045999 0.000000
# 6 0.000000 0.000000 0.000000 -0.011028 0.000000 0.037537
#
#
# Mechanical properties :
#
#
# Convention : Reuss Voigt Hill
#
# Bulk Modulus (GPa) = 58.14890 67.32924 62.73907
# Shear Modulus (GPa) = 23.95716 27.32590 25.64153
#
# Velocity S-wave (km/s) = 3.45413 3.68899 3.57349
# Velocity P-wave (km/s) = 6.69828 7.18859 6.94776
#
# Compressibility (1/GPa) = 0.01719723
#
# Stress axis : x y z
#
# Youngs Moduli (GPa) = 123.53230 70.63308 51.78109
#
# Poissons Ratio (x) = 0.14420 0.24609
# Poissons Ratio (y) = 0.25220 0.27909
# Poissons Ratio (z) = 0.58709 0.38069
#
# Static dielectric constant tensor:
#      x y z
#    x 5.016570 0.000000 -0.053860 
#    y 0.000000 3.617960 0.000000 
#    z -0.053860 0.000000 3.365710 
# 
# 
# High freq. dielectric constant tensor:
#      x y z
#    x 1.807430 0.000000 -0.001150 
#    y 0.000000 1.769950 0.000000 
#    z -0.001150 0.000000 1.751310 
# 
# From -- ./inp_files/320205.got.cif
#   From: 2010.06.25/outbox.cif.g09.slc.cpg/sg12_161_cif.got.tgz:320205.got - 2010.06.28 00:19:55.
