data_PCOD8102624
_publ_section_title
;
Structure prediction by ZEFSAII (Michael W. Deem and Ramdas Pophale) SiO2 
 PCOD8102624
Probable space group: C 2/M
;
_chemical_formula_sum "Si O2"
_cell_formula_units_Z 64
_cell_length_a 19.586621
_cell_length_b 9.569897
_cell_length_c 18.402834
_cell_angle_alpha 90.000000
_cell_angle_beta 90.531050
_cell_angle_gamma 90.000000
_cell_volume 3449.314844
_symmetry_space_group_name_H-M "C 2/M"
_symmetry_group_IT_number 12
_symmetry_cell_setting 'monoclinic'
loop_
_space_group_symop_operation_xyz
x,y,z
-x,y,-z
-x,-y,-z
x,-y,z
1/2+x,1/2+y,z
1/2-x,1/2+y,-z
1/2-x,1/2-y,-z
1/2+x,1/2-y,z
loop_
_atom_site_type_symbol
_atom_site_label
_atom_site_fract_x
_atom_site_fract_y
_atom_site_fract_z
Si Si1 0.949807 0.834405 0.559930
Si Si2 0.250306 0.161286 0.212127
Si Si3 0.927485 0.660319 0.971115
Si Si4 0.097861 0.162284 0.169316
Si Si5 0.005298 0.165875 0.710844
Si Si6 0.814863 0.838650 0.480752
Si Si7 0.657374 0.337373 0.685400
Si Si8 0.294511 0.840127 0.054580
O O1 0.969204 0.770923 0.638596
O O2 0.872700 0.794363 0.538864
O O3 0.000000 0.769405 0.500000
O O4 0.959541 0.000000 0.561052
O O5 0.169087 0.185698 0.211720
O O6 0.282166 0.251802 0.276722
O O7 0.282773 0.212356 0.136344
O O8 0.268085 0.000000 0.226886
O O9 0.933497 0.500000 0.945246
O O10 0.901128 0.751559 0.904401
O O11 0.874259 0.675704 0.036655
O O12 0.000000 0.716986 0.000000
O O13 0.036270 0.218673 0.219235
O O14 0.088314 0.000000 0.149272
O O15 0.084128 0.213875 0.715838
O O16 0.001201 0.000000 0.706528
O O17 0.750000 0.750000 0.500000
O O18 0.841869 0.807515 0.400283
O O19 0.795329 0.000000 0.488926
O O20 0.669032 0.500000 0.702320
O O21 0.269572 0.000000 0.046955
O O22 0.250000 0.750000 0.000000
#
# Coordination Sequence:
#
# PCOD8102624 Si02
#       8
#     8   8   8   8   8   8   8   8
#     4   9  15  30  56  79 101 137 182 223 262 309
#     4  10  22  37  55  81 112 144 179 221 274 330
#     4  10  22  38  57  80 109 145 182 221 270 329
#     4  10  21  37  56  81 109 139 181 229 269 316
#     4   9  18  33  54  80 108 138 179 227 270 315
#     4  10  21  35  56  83 111 143 181 226 272 321
#     4  10  21  37  55  81 112 142 181 225 268 322
#     4  10  20  37  58  79 106 141 182 225 268 320
#
# _framework density 18.554409
#
# number of rings (size 3 to 8) (size 9 to 14) (size 15 to 20)
#    0.000    2.250    2.500    0.000    3.500    1.750 
#    0.000    0.000    0.000    1.125    0.000    0.000 
#    0.000    0.000    0.000    0.000    0.000    0.000 
#
# Total GULP energy -396837.570661 kJ/mol
# GULP energy per Si atom -12401.174083 kJ/mol
# Density = 1.851218 g / cm^3
# Si number density = 18.554409 Si / 1000 Ang^3
#
#
#
# Elastic Constant Matrix: (Units=GPa)
#
#
# Indices 1 2 3 4 5 6 
#
# 1 101.7063 29.4800 19.7133 0.0000 -7.5318 0.0000
# 2 29.4800 41.5483 24.0347 0.0000 5.9491 0.0000
# 3 19.7133 24.0347 51.6186 0.0000 1.4490 0.0000
# 4 0.0000 0.0000 0.0000 25.2626 0.0000 1.6368
# 5 -7.5318 5.9491 1.4490 0.0000 38.1449 0.0000
# 6 0.0000 0.0000 0.0000 1.6368 0.0000 26.4539
#
#
#
# Elastic Compliance Matrix: (Units=1/GPa)
#
#
# Indices 1 2 3 4 5 6 
#
# 1 0.012991 -0.009392 -0.000702 0.000000 0.004057 0.000000
# 2 -0.009392 0.040544 -0.015077 0.000000 -0.007605 0.000000
# 3 -0.000702 -0.015077 0.026628 0.000000 0.001201 0.000000
# 4 0.000000 0.000000 0.000000 0.039744 0.000000 -0.002459
# 5 0.004057 -0.007605 0.001201 0.000000 0.028157 0.000000
# 6 0.000000 0.000000 0.000000 -0.002459 0.000000 0.037954
#
#
# Mechanical properties :
#
#
# Convention : Reuss Voigt Hill
#
# Bulk Modulus (GPa) = 33.53611 37.92548 35.73080
# Shear Modulus (GPa) = 20.30045 26.08195 23.19120
#
# Velocity S-wave (km/s) = 3.31131 3.75334 3.53923
# Velocity P-wave (km/s) = 5.72131 6.26641 6.00005
#
# Compressibility (1/GPa) = 0.02981860
#
# Stress axis : x y z
#
# Youngs Moduli (GPa) = 76.97550 24.66487 37.55509
#
# Poissons Ratio (x) = 0.23166 0.02636
# Poissons Ratio (y) = 0.72299 0.56623
# Poissons Ratio (z) = 0.05403 0.37188
#
# Static dielectric constant tensor:
#      x y z
#    x 3.623140 0.000000 -0.142430 
#    y 0.000000 3.120380 0.000000 
#    z -0.142430 0.000000 3.539430 
# 
# 
# High freq. dielectric constant tensor:
#      x y z
#    x 1.734710 0.000000 -0.005750 
#    y 0.000000 1.683670 0.000000 
#    z -0.005750 0.000000 1.724050 
# 
# From -- ./inp_files/281344.got.cif
#   From: 2010.06.25/outbox.cif.g09.slc.cpg/sg12_141_cif.got.tgz:281344.got - 2010.06.28 00:19:55.
