data_PCOD8102444
_publ_section_title
;
Structure prediction by ZEFSAII (Michael W. Deem and Ramdas Pophale) SiO2 
 PCOD8102444
Probable space group: C 2/M
;
_chemical_formula_sum "Si O2"
_cell_formula_units_Z 56
_cell_length_a 9.037924
_cell_length_b 27.127419
_cell_length_c 11.723968
_cell_angle_alpha 90.000000
_cell_angle_beta 119.970457
_cell_angle_gamma 90.000000
_cell_volume 2490.070406
_symmetry_space_group_name_H-M "C 2/M"
_symmetry_group_IT_number 12
_symmetry_cell_setting 'monoclinic'
loop_
_space_group_symop_operation_xyz
x,y,z
-x,y,-z
-x,-y,-z
x,-y,z
1/2+x,1/2+y,z
1/2-x,1/2+y,-z
1/2-x,1/2-y,-z
1/2+x,1/2-y,z
loop_
_atom_site_type_symbol
_atom_site_label
_atom_site_fract_x
_atom_site_fract_y
_atom_site_fract_z
Si Si1 0.958934 0.776459 0.853665
Si Si2 0.953526 0.850370 0.297796
Si Si3 0.934536 0.445585 0.598561
Si Si4 0.234706 0.416008 0.865755
Si Si5 0.063593 0.942899 0.848697
Si Si6 0.234842 0.650295 0.427551
Si Si7 0.605371 0.809297 0.771761
O O1 0.062278 0.817297 0.820981
O O2 0.752965 0.780609 0.758163
O O3 0.029712 0.723218 0.845573
O O4 0.000000 0.787069 0.000000
O O5 0.140812 0.837782 0.420104
O O6 0.922349 0.908089 0.256935
O O7 0.813987 0.834094 0.336719
O O8 0.854456 0.500000 0.558347
O O9 0.787877 0.408718 0.582539
O O10 0.000000 0.427798 0.500000
O O11 0.085003 0.446854 0.749467
O O12 0.400571 0.423022 0.852941
O O13 0.185259 0.358654 0.855830
O O14 0.270129 0.436920 0.006141
O O15 0.044147 0.000000 0.804167
O O16 0.052343 0.677572 0.373833
#
# Coordination Sequence:
#
# PCOD8102444 Si02
#       7
#     8   8   8   8   8   8   8
#     4  12  25  45  71 101 135 177 230 287 347 419
#     4  11  24  45  66  96 142 179 233 285 352 409
#     4  10  20  36  63  98 135 180 233 286 347 413
#     4  10  20  38  61  97 135 175 224 284 337 409
#     4  11  21  37  66  99 135 183 227 278 340 405
#     4  10  25  43  66  97 135 186 227 292 344 412
#     4  11  24  42  69  98 132 177 230 283 350 403
#
# _framework density 22.489324
#
# number of rings (size 3 to 8) (size 9 to 14) (size 15 to 20)
#    0.000    1.286    1.429    4.714    2.000    4.000 
#    0.000    5.000    0.000    4.286    0.000    0.000 
#    0.000    0.000    0.000    0.000    0.000    0.000 
#
# Total GULP energy -347184.712960 kJ/mol
# GULP energy per Si atom -12399.454034 kJ/mol
# Density = 2.243814 g / cm^3
# Si number density = 22.489324 Si / 1000 Ang^3
#
#
#
# Elastic Constant Matrix: (Units=GPa)
#
#
# Indices 1 2 3 4 5 6 
#
# 1 67.1370 34.2124 17.0588 0.0000 8.7294 0.0000
# 2 34.2124 135.5403 34.8783 0.0000 -3.5352 0.0000
# 3 17.0588 34.8783 80.5587 0.0000 -9.9806 0.0000
# 4 0.0000 0.0000 0.0000 26.2194 0.0000 -10.4703
# 5 8.7294 -3.5352 -9.9806 0.0000 26.9128 0.0000
# 6 0.0000 0.0000 0.0000 -10.4703 0.0000 22.1707
#
#
#
# Elastic Compliance Matrix: (Units=1/GPa)
#
#
# Indices 1 2 3 4 5 6 
#
# 1 0.018827 -0.004142 -0.003162 0.000000 -0.007824 0.000000
# 2 -0.004142 0.009216 -0.002931 0.000000 0.001467 0.000000
# 3 -0.003162 -0.002931 0.015126 0.000000 0.006250 0.000000
# 4 0.000000 0.000000 0.000000 0.047004 0.000000 0.022198
# 5 -0.007824 0.001467 0.006250 0.000000 0.042205 0.000000
# 6 0.000000 0.000000 0.000000 0.022198 0.000000 0.055588
#
#
# Mechanical properties :
#
#
# Convention : Reuss Voigt Hill
#
# Bulk Modulus (GPa) = 44.05865 50.61501 47.33683
# Shear Modulus (GPa) = 23.14769 28.19967 25.67368
#
# Velocity S-wave (km/s) = 3.21171 3.54491 3.38241
# Velocity P-wave (km/s) = 5.77814 6.26979 6.02898
#
# Compressibility (1/GPa) = 0.02269702
#
# Stress axis : x y z
#
# Youngs Moduli (GPa) = 53.11629 108.50665 66.10955
#
# Poissons Ratio (x) = 0.44948 0.20907
# Poissons Ratio (y) = 0.22003 0.19378
# Poissons Ratio (z) = 0.16798 0.31805
#
# Static dielectric constant tensor:
#      x y z
#    x 4.011340 0.000000 0.218740 
#    y 0.000000 4.059010 0.000000 
#    z 0.218740 0.000000 4.115160 
# 
# 
# High freq. dielectric constant tensor:
#      x y z
#    x 1.871950 0.000000 0.013230 
#    y 0.000000 1.893700 0.000000 
#    z 0.013230 0.000000 1.884740 
# 
# From -- ./inp_files/124360.got.cif
#   From: 2010.06.25/outbox.cif.g09.slc.cpg/sg12_63_cif.got.tgz:124360.got - 2010.06.28 00:19:55.
