data_PCOD8102126
_publ_section_title
;
Structure prediction by ZEFSAII (Michael W. Deem and Ramdas Pophale) SiO2 
 PCOD8102126
Probable space group: C 2/M
;
_chemical_formula_sum "Si O2"
_cell_formula_units_Z 64
_cell_length_a 15.278094
_cell_length_b 8.701718
_cell_length_c 30.762422
_cell_angle_alpha 90.000000
_cell_angle_beta 128.896164
_cell_angle_gamma 90.000000
_cell_volume 3182.976807
_symmetry_space_group_name_H-M "C 2/M"
_symmetry_group_IT_number 12
_symmetry_cell_setting 'monoclinic'
loop_
_space_group_symop_operation_xyz
x,y,z
-x,y,-z
-x,-y,-z
x,-y,z
1/2+x,1/2+y,z
1/2-x,1/2+y,-z
1/2-x,1/2-y,-z
1/2+x,1/2-y,z
loop_
_atom_site_type_symbol
_atom_site_label
_atom_site_fract_x
_atom_site_fract_y
_atom_site_fract_z
Si Si1 0.155173 0.325317 0.441343
Si Si2 0.754080 0.820778 0.674248
Si Si3 0.711394 0.181395 0.053053
Si Si4 0.423728 0.319099 0.064524
Si Si5 0.685515 0.819599 0.746149
Si Si6 0.338589 0.180912 0.865504
Si Si7 0.950795 0.326007 0.441325
Si Si8 0.054594 0.821938 0.328876
O O1 0.188608 0.500000 0.440058
O O2 0.250000 0.250000 0.500000
O O3 0.141276 0.224831 0.393701
O O4 0.038394 0.320682 0.429859
O O5 0.741775 0.755352 0.719206
O O6 0.662389 0.744826 0.612557
O O7 0.880065 0.793676 0.696251
O O8 0.723164 0.000000 0.667152
O O9 0.833957 0.232497 0.073397
O O10 0.696011 0.240391 0.097369
O O11 0.696531 0.000000 0.044786
O O12 0.613460 0.257113 0.993975
O O13 0.433120 0.500000 0.065135
O O14 0.544907 0.252795 0.114699
O O15 0.739337 0.728730 0.802637
O O16 0.553067 0.786704 0.704131
O O17 0.706127 0.000000 0.758896
O O18 0.352110 0.000000 0.869891
O O19 0.921007 0.500000 0.446085
O O20 0.000000 0.241260 0.500000
O O21 0.019905 0.000000 0.323089
#
# Coordination Sequence:
#
# PCOD8102126 Si02
#       8
#     8   8   8   8   8   8   8   8
#     4  11  21  35  57  85 119 152 189 234 287 347
#     4   9  19  37  60  83 110 151 192 229 286 358
#     4   9  20  38  59  85 123 164 197 238 296 357
#     4  10  20  36  60  90 121 156 200 246 293 345
#     4  11  23  42  62  83 115 155 200 246 291 346
#     4  11  23  39  59  85 119 158 201 243 295 352
#     4   9  16  30  55  82 108 144 188 225 269 343
#     4  11  22  39  63  87 113 148 191 238 294 353
#
# _framework density 20.106964999999999
#
# number of rings (size 3 to 8) (size 9 to 14) (size 15 to 20)
#    0.000    1.875    1.250    3.000    0.000    6.000 
#    0.000    7.500    0.000    1.500    0.000    0.000 
#    0.000    0.000    0.000    0.000    0.000    0.000 
#
# Total GULP energy -396833.941058 kJ/mol
# GULP energy per Si atom -12401.060658 kJ/mol
# Density = 2.006120 g / cm^3
# Si number density = 20.106965 Si / 1000 Ang^3
#
#
#
# Elastic Constant Matrix: (Units=GPa)
#
#
# Indices 1 2 3 4 5 6 
#
# 1 95.8562 17.1579 35.1985 0.0000 -5.0204 0.0000
# 2 17.1579 29.3426 7.3939 0.0000 -4.2724 0.0000
# 3 35.1985 7.3939 101.4231 0.0000 -5.2681 0.0000
# 4 0.0000 0.0000 0.0000 32.9274 0.0000 3.7202
# 5 -5.0204 -4.2724 -5.2681 0.0000 29.1186 0.0000
# 6 0.0000 0.0000 0.0000 3.7202 0.0000 25.7873
#
#
#
# Elastic Compliance Matrix: (Units=1/GPa)
#
#
# Indices 1 2 3 4 5 6 
#
# 1 0.013124 -0.006572 -0.004046 0.000000 0.000566 0.000000
# 2 -0.006572 0.038653 -0.000304 0.000000 0.004483 0.000000
# 3 -0.004046 -0.000304 0.011354 0.000000 0.001312 0.000000
# 4 0.000000 0.000000 0.000000 0.030873 0.000000 -0.004454
# 5 0.000566 0.004483 0.001312 0.000000 0.035335 0.000000
# 6 0.000000 0.000000 0.000000 -0.004454 0.000000 0.039421
#
#
# Mechanical properties :
#
#
# Convention : Reuss Voigt Hill
#
# Bulk Modulus (GPa) = 24.22130 38.45809 31.33969
# Shear Modulus (GPa) = 24.46576 28.69144 26.57860
#
# Velocity S-wave (km/s) = 3.49202 3.78158 3.63968
# Velocity P-wave (km/s) = 5.32272 6.18348 5.76918
#
# Compressibility (1/GPa) = 0.04128598
#
# Stress axis : x y z
#
# Youngs Moduli (GPa) = 76.19566 25.87148 88.07319
#
# Poissons Ratio (x) = 0.17003 0.35636
# Poissons Ratio (y) = 0.50077 0.02679
# Poissons Ratio (z) = 0.30830 0.00787
#
# Static dielectric constant tensor:
#      x y z
#    x 3.847140 0.000000 -0.092850 
#    y 0.000000 3.465130 0.000000 
#    z -0.092850 0.000000 3.711790 
# 
# 
# High freq. dielectric constant tensor:
#      x y z
#    x 1.795650 0.000000 -0.000910 
#    y 0.000000 1.762440 0.000000 
#    z -0.000910 0.000000 1.786610 
# 
# From -- ./inp_files/375604.got.cif
#   From: 2010.06.25/outbox.cif.g09.slc.cpg/sg12_188_cif.got.tgz:375604.got - 2010.06.28 00:19:55.
