data_PCOD8102814
_publ_section_title
;
Structure prediction by ZEFSAII (Michael W. Deem and Ramdas Pophale) SiO2 
 PCOD8102814
Probable space group: C 2/M
;
_chemical_formula_sum "Si O2"
_cell_formula_units_Z 32
_cell_length_a 21.912713
_cell_length_b 9.320845
_cell_length_c 22.091757
_cell_angle_alpha 90.000000
_cell_angle_beta 21.945431
_cell_angle_gamma 90.000000
_cell_volume 1686.288761
_symmetry_space_group_name_H-M "C 2/M"
_symmetry_group_IT_number 12
_symmetry_cell_setting 'monoclinic'
loop_
_space_group_symop_operation_xyz
x,y,z
-x,y,-z
-x,-y,-z
x,-y,z
1/2+x,1/2+y,z
1/2-x,1/2+y,-z
1/2-x,1/2-y,-z
1/2+x,1/2-y,z
loop_
_atom_site_type_symbol
_atom_site_label
_atom_site_fract_x
_atom_site_fract_y
_atom_site_fract_z
Si Si1 0.248247 0.000000 0.263097
Si Si2 0.456144 0.000000 0.451008
Si Si3 0.084332 0.500000 0.644811
Si Si4 0.123159 0.000000 0.703924
Si Si5 0.417055 0.776745 0.880639
Si Si6 0.500000 0.750134 0.500000
Si Si7 0.093134 0.500000 0.008859
O O1 0.278452 0.000000 0.163655
O O2 0.154676 0.146184 0.366400
O O3 0.409947 0.000000 0.153468
O O4 0.256785 0.000000 0.635329
O O5 0.521365 0.854888 0.422585
O O6 0.518003 0.000000 0.324376
O O7 0.278641 0.500000 0.450783
O O8 0.041762 0.360679 0.722657
O O9 0.004714 0.866907 0.819543
O O10 0.250000 0.750000 0.000000
O O11 0.374467 0.860287 0.980937
#
# Coordination Sequence:
#
# PCOD8102814 Si02
#       7
#     4   4   4   4   8   4   4
#     4  10  22  40  61  85 111 162 192 248 286 348
#     4   9  21  35  61  85 116 142 195 252 287 346
#     4   9  22  37  57  86 114 159 190 238 296 346
#     4  10  20  37  59  83 116 156 192 236 294 342
#     4  11  22  39  58  89 123 155 194 244 291 361
#     4  10  20  40  60  86 110 148 206 242 288 338
#     4  10  23  39  58  83 125 151 196 234 304 351
#
# _framework density 18.976583999999999
#
# number of rings (size 3 to 8) (size 9 to 14) (size 15 to 20)
#    0.750    1.250    0.000    3.750    3.500    0.000 
#    0.000    0.000    0.000    6.000    0.000    0.000 
#    0.000    0.000    0.000    0.000    0.000    0.000 
#
# Total GULP energy -198363.522165 kJ/mol
# GULP energy per Si atom -12397.720135 kJ/mol
# Density = 1.893339 g / cm^3
# Si number density = 18.976584 Si / 1000 Ang^3
#
#
#
# Elastic Constant Matrix: (Units=GPa)
#
#
# Indices 1 2 3 4 5 6 
#
# 1 80.1668 26.1999 -3.7901 -0.0012 6.1960 0.0000
# 2 26.1999 136.6016 14.7730 -0.0001 1.3337 -0.0002
# 3 -3.7901 14.7730 42.8627 0.0020 -2.1805 -0.0006
# 4 -0.0012 -0.0001 0.0020 -18.2316 -0.0003 -14.9736
# 5 6.1960 1.3337 -2.1805 -0.0003 36.8916 0.0001
# 6 0.0000 -0.0002 -0.0006 -14.9736 0.0001 26.1892
#
#
#
# Elastic Compliance Matrix: (Units=1/GPa)
#
#
# Indices 1 2 3 4 5 6 
#
# 1 0.013655 -0.002823 0.002075 0.000000 -0.002069 0.000000
# 2 -0.002823 0.008195 -0.003074 0.000000 -0.000004 0.000000
# 3 0.002075 -0.003074 0.024635 0.000001 0.001219 0.000001
# 4 0.000000 0.000000 0.000001 -0.037324 0.000000 -0.021340
# 5 -0.002069 -0.000004 0.001219 0.000000 0.027526 0.000000
# 6 0.000000 0.000000 0.000001 -0.021340 0.000000 0.025983
#
#
# Mechanical properties :
#
#
# Convention : Reuss Voigt Hill
#
# Bulk Modulus (GPa) = 25.74645 37.11074 31.42860
# Shear Modulus (GPa) = 60.05234 23.79973 41.92604
#
# Velocity S-wave (km/s) = 5.63154 3.54526 4.70548
# Velocity P-wave (km/s) = 7.47546 6.02968 6.79115
#
# Compressibility (1/GPa) = 0.03884030
#
# Stress axis : x y z
#
# Youngs Moduli (GPa) = 73.23518 122.03262 40.59206
#
# Poissons Ratio (x) = 0.34452 -0.08424
# Poissons Ratio (y) = 0.20675 0.12479
# Poissons Ratio (z) = -0.15198 0.37515
#
# Static dielectric constant tensor:
#      x y z
#    x 3.496700 0.000000 0.005720 
#    y 0.000000 3.551250 0.000000 
#    z 0.005720 0.000000 3.335360 
# 
# 
# High freq. dielectric constant tensor:
#      x y z
#    x 1.740700 0.000000 -0.002990 
#    y 0.000000 1.752270 0.000000 
#    z -0.002990 0.000000 1.727410 
# 
# From -- ./inp_files/81842.got.cif
#   From: 2010.06.25/outbox.cif.g09.slc.cpg/sg12_41_cif.got.tgz:81842.got - 2010.06.28 00:19:55.
