data_PCOD8102044
_publ_section_title
;
Structure prediction by ZEFSAII (Michael W. Deem and Ramdas Pophale) SiO2 
 PCOD8102044
Probable space group: C 2/M
;
_chemical_formula_sum "Si O2"
_cell_formula_units_Z 64
_cell_length_a 15.503006
_cell_length_b 18.855883
_cell_length_c 31.079089
_cell_angle_alpha 90.000000
_cell_angle_beta 158.908287
_cell_angle_gamma 90.000000
_cell_volume 3269.391264
_symmetry_space_group_name_H-M "C 2/M"
_symmetry_group_IT_number 12
_symmetry_cell_setting 'monoclinic'
loop_
_space_group_symop_operation_xyz
x,y,z
-x,y,-z
-x,-y,-z
x,-y,z
1/2+x,1/2+y,z
1/2-x,1/2+y,-z
1/2-x,1/2-y,-z
1/2+x,1/2-y,z
loop_
_atom_site_type_symbol
_atom_site_label
_atom_site_fract_x
_atom_site_fract_y
_atom_site_fract_z
Si Si1 0.913494 0.844508 0.892582
Si Si2 0.088143 0.700264 0.668030
Si Si3 0.015054 0.162833 0.212421
Si Si4 0.227743 0.081805 0.386894
Si Si5 0.780804 0.079772 0.029302
Si Si6 0.641073 0.079858 0.229567
Si Si7 0.112201 0.144822 0.423114
Si Si8 0.647286 0.184391 0.851284
O O1 0.750225 0.797590 0.785721
O O2 0.753276 0.859962 0.860184
O O3 0.012670 0.912103 0.911760
O O4 0.151435 0.803092 0.018393
O O5 0.234996 0.676263 0.694855
O O6 0.006954 0.779906 0.624223
O O7 0.861948 0.645835 0.566367
O O8 0.820912 0.133527 0.087657
O O9 0.935023 0.236086 0.198135
O O10 0.052401 0.104565 0.266640
O O11 0.500000 0.093828 0.500000
O O12 0.171502 0.131350 0.401109
O O13 0.177080 0.000000 0.374839
O O14 0.801388 0.000000 0.056426
O O15 0.516862 0.094536 0.886876
O O16 0.570102 0.136193 0.233055
O O17 0.924587 0.086166 0.352275
O O18 0.590074 0.000000 0.222178
#
# Coordination Sequence:
#
# PCOD8102044 Si02
#       8
#     8   8   8   8   8   8   8   8
#     4   9  20  36  57  86 113 145 189 239 292 338
#     4  10  21  35  58  85 108 147 195 241 284 337
#     4  11  20  37  59  86 116 147 193 250 288 343
#     4  11  23  38  57  82 115 155 194 237 290 345
#     4   9  20  36  58  85 115 152 193 239 293 347
#     4  10  21  37  58  83 116 157 192 233 292 354
#     4  11  21  38  56  79 115 151 195 234 285 345
#     4  10  20  36  60  88 116 150 190 238 301 346
#
# _framework density 19.575509
#
# number of rings (size 3 to 8) (size 9 to 14) (size 15 to 20)
#    0.000    1.875    2.500    1.500    1.750    2.000 
#    0.000    3.750    0.000    3.000    0.000    0.000 
#    0.000    0.000    0.000    0.000    0.000    0.000 
#
# Total GULP energy -396614.925855 kJ/mol
# GULP energy per Si atom -12394.216433 kJ/mol
# Density = 1.953095 g / cm^3
# Si number density = 19.575509 Si / 1000 Ang^3
#
#
#
# Elastic Constant Matrix: (Units=GPa)
#
#
# Indices 1 2 3 4 5 6 
#
# 1 60.6859 8.5648 15.0944 0.0068 2.6841 -0.0047
# 2 8.5648 66.9626 10.9050 0.0053 2.1109 -0.0048
# 3 15.0944 10.9050 72.3187 0.0340 5.2263 -0.0072
# 4 0.0068 0.0053 0.0340 23.9685 -0.0056 -1.4190
# 5 2.6841 2.1109 5.2263 -0.0056 28.7421 0.0034
# 6 -0.0047 -0.0048 -0.0072 -1.4190 0.0034 18.2342
#
#
#
# Elastic Compliance Matrix: (Units=1/GPa)
#
#
# Indices 1 2 3 4 5 6 
#
# 1 0.017589 -0.001675 -0.003353 0.000000 -0.000910 0.000003
# 2 -0.001675 0.015484 -0.001940 0.000000 -0.000628 0.000003
# 3 -0.003353 -0.001940 0.014984 -0.000020 -0.002269 0.000003
# 4 0.000000 0.000000 -0.000020 0.041915 0.000011 0.003262
# 5 -0.000910 -0.000628 -0.002269 0.000011 0.035336 -0.000007
# 6 0.000003 0.000003 0.000003 0.003262 -0.000007 0.055096
#
#
# Mechanical properties :
#
#
# Convention : Reuss Voigt Hill
#
# Bulk Modulus (GPa) = 29.30726 29.89952 29.60339
# Shear Modulus (GPa) = 24.30584 25.21581 24.76082
#
# Velocity S-wave (km/s) = 3.52752 3.59295 3.56038
# Velocity P-wave (km/s) = 5.62095 5.70258 5.66191
#
# Compressibility (1/GPa) = 0.03412124
#
# Stress axis : x y z
#
# Youngs Moduli (GPa) = 56.85403 64.58427 66.73790
#
# Poissons Ratio (x) = 0.10818 0.22376
# Poissons Ratio (y) = 0.09523 0.12946
# Poissons Ratio (z) = 0.19062 0.12528
#
# Static dielectric constant tensor:
#      x y z
#    x 3.483560 0.000010 0.077600 
#    y 0.000010 3.410480 -0.000070 
#    z 0.077600 -0.000070 3.795230 
# 
# 
# High freq. dielectric constant tensor:
#      x y z
#    x 1.752860 0.000000 0.007120 
#    y 0.000000 1.752660 0.000000 
#    z 0.007120 0.000000 1.767480 
# 
# From -- ./inp_files/377101.got.cif
#   From: 2010.06.25/outbox.cif.g09.slc.cpg/sg12_189_cif.got.tgz:377101.got - 2010.06.28 00:19:55.
