data_PCOD8102372
_publ_section_title
;
Structure prediction by ZEFSAII (Michael W. Deem and Ramdas Pophale) SiO2 
 PCOD8102372
Probable space group: C 2/M
;
_chemical_formula_sum "Si O2"
_cell_formula_units_Z 56
_cell_length_a 23.415976
_cell_length_b 8.834170
_cell_length_c 31.417193
_cell_angle_alpha 90.000000
_cell_angle_beta 26.171738
_cell_angle_gamma 90.000000
_cell_volume 2866.462294
_symmetry_space_group_name_H-M "C 2/M"
_symmetry_group_IT_number 12
_symmetry_cell_setting 'monoclinic'
loop_
_space_group_symop_operation_xyz
x,y,z
-x,y,-z
-x,-y,-z
x,-y,z
1/2+x,1/2+y,z
1/2-x,1/2+y,-z
1/2-x,1/2-y,-z
1/2+x,1/2-y,z
loop_
_atom_site_type_symbol
_atom_site_label
_atom_site_fract_x
_atom_site_fract_y
_atom_site_fract_z
Si Si1 0.880673 0.322908 0.265400
Si Si2 0.611407 0.322262 0.829480
Si Si3 0.734477 0.323425 0.577911
Si Si4 0.326559 0.822743 0.910359
Si Si5 0.060606 0.824158 0.615617
Si Si6 0.651693 0.175170 0.962142
Si Si7 0.233363 0.826665 0.203653
O O1 0.863346 0.500000 0.268743
O O2 0.848402 0.235672 0.243716
O O3 0.781947 0.268529 0.367552
O O4 0.023877 0.281048 0.185215
O O5 0.589681 0.500000 0.842794
O O6 0.727360 0.281290 0.783939
O O7 0.480261 0.245568 0.932981
O O8 0.736601 0.500000 0.587160
O O9 0.871038 0.275176 0.466354
O O10 0.618335 0.281420 0.623145
O O11 0.275487 0.753850 0.900595
O O12 0.301345 0.000000 0.927570
O O13 0.250000 0.750000 0.000000
O O14 0.909547 0.783475 0.716728
O O15 0.086704 0.000000 0.588292
O O16 0.665119 0.197319 0.902628
O O17 0.651882 0.000000 0.974992
O O18 0.238430 0.000000 0.215997
#
# Coordination Sequence:
#
# PCOD8102372 Si02
#       7
#     8   8   8   8   8   8   8
#     4  11  23  39  59  84 117 157 195 234 289 350
#     4  12  25  39  57  82 116 155 197 245 289 340
#     4  10  20  36  62  93 121 149 186 236 288 343
#     4  11  22  35  56  84 116 152 190 237 287 339
#     4   9  19  38  62  89 119 152 188 232 289 347
#     4  11  22  38  60  85 116 155 196 239 290 347
#     4  10  22  40  61  83 113 155 198 239 287 345
#
# _framework density 19.536276000000001
#
# number of rings (size 3 to 8) (size 9 to 14) (size 15 to 20)
#    0.000    1.429    1.429    4.286    0.000    6.857 
#    0.000    0.714    0.000    4.286    0.000    0.000 
#    0.000    0.000    0.000    0.000    0.000    0.000 
#
# Total GULP energy -347371.326777 kJ/mol
# GULP energy per Si atom -12406.118813 kJ/mol
# Density = 1.949181 g / cm^3
# Si number density = 19.536276 Si / 1000 Ang^3
#
#
#
# Elastic Constant Matrix: (Units=GPa)
#
#
# Indices 1 2 3 4 5 6 
#
# 1 96.6422 34.0577 28.8692 0.1075 11.8088 -0.2786
# 2 34.0577 75.6160 20.1803 0.1005 10.0584 -0.1342
# 3 28.8692 20.1803 69.6842 0.0010 18.2431 -0.1051
# 4 0.1075 0.1005 0.0010 30.9716 -0.0021 1.2578
# 5 11.8088 10.0584 18.2431 -0.0021 26.2324 0.0981
# 6 -0.2786 -0.1342 -0.1051 1.2578 0.0981 35.8035
#
#
#
# Elastic Compliance Matrix: (Units=1/GPa)
#
#
# Indices 1 2 3 4 5 6 
#
# 1 0.013347 -0.004808 -0.003725 -0.000034 -0.001575 0.000080
# 2 -0.004808 0.016286 -0.002025 -0.000037 -0.002672 0.000026
# 3 -0.003725 -0.002025 0.019363 0.000016 -0.011013 0.000050
# 4 -0.000034 -0.000037 0.000016 0.032334 0.000025 -0.001136
# 5 -0.001575 -0.002672 -0.011013 0.000025 0.047514 -0.000186
# 6 0.000080 0.000026 0.000050 -0.001136 -0.000186 0.027972
#
#
# Mechanical properties :
#
#
# Convention : Reuss Voigt Hill
#
# Bulk Modulus (GPa) = 35.86631 45.35073 40.60852
# Shear Modulus (GPa) = 26.70583 29.19052 27.94817
#
# Velocity S-wave (km/s) = 3.70129 3.86964 3.78640
# Velocity P-wave (km/s) = 6.05514 6.57492 6.32037
#
# Compressibility (1/GPa) = 0.02788132
#
# Stress axis : x y z
#
# Youngs Moduli (GPa) = 74.92228 61.40184 51.64426
#
# Poissons Ratio (x) = 0.29521 0.19236
# Poissons Ratio (y) = 0.36022 0.10458
# Poissons Ratio (z) = 0.27907 0.12434
#
# Static dielectric constant tensor:
#      x y z
#    x 3.605180 -0.000150 0.092040 
#    y -0.000150 3.633190 0.000020 
#    z 0.092040 0.000020 3.251850 
# 
# 
# High freq. dielectric constant tensor:
#      x y z
#    x 1.762340 -0.000010 0.007040 
#    y -0.000010 1.768400 0.000000 
#    z 0.007040 0.000000 1.756120 
# 
# From -- ./inp_files/237443.got.cif
#   From: 2010.06.25/outbox.cif.g09.slc.cpg/sg12_119_cif.got.tgz:237443.got - 2010.06.28 00:19:55.
