data_PCOD8102805
_publ_section_title
;
Structure prediction by ZEFSAII (Michael W. Deem and Ramdas Pophale) SiO2 
 PCOD8102805
Probable space group: C 2/M
;
_chemical_formula_sum "Si O2"
_cell_formula_units_Z 64
_cell_length_a 22.846329
_cell_length_b 8.640444
_cell_length_c 16.439876
_cell_angle_alpha 90.000000
_cell_angle_beta 86.998143
_cell_angle_gamma 90.000000
_cell_volume 3240.818373
_symmetry_space_group_name_H-M "C 2/M"
_symmetry_group_IT_number 12
_symmetry_cell_setting 'monoclinic'
loop_
_space_group_symop_operation_xyz
x,y,z
-x,y,-z
-x,-y,-z
x,-y,z
1/2+x,1/2+y,z
1/2-x,1/2+y,-z
1/2-x,1/2-y,-z
1/2+x,1/2-y,z
loop_
_atom_site_type_symbol
_atom_site_label
_atom_site_fract_x
_atom_site_fract_y
_atom_site_fract_z
Si Si1 0.026808 0.175983 0.910048
Si Si2 0.079447 0.317156 0.684184
Si Si3 0.663312 0.681736 0.221346
Si Si4 0.746651 0.182636 0.090381
Si Si5 0.834568 0.316778 0.454652
Si Si6 0.961900 0.681028 0.768815
Si Si7 0.286984 0.317627 0.612249
Si Si8 0.138382 0.683941 0.844868
O O1 0.092625 0.242934 0.912128
O O2 0.988149 0.285344 0.855478
O O3 0.027226 0.000000 0.876842
O O4 0.000000 0.183520 0.000000
O O5 0.083532 0.500000 0.685455
O O6 0.107971 0.255109 0.598114
O O7 0.118348 0.258105 0.757173
O O8 0.011363 0.267740 0.698628
O O9 0.671536 0.500000 0.206667
O O10 0.686117 0.770008 0.139300
O O11 0.595451 0.718222 0.241895
O O12 0.698840 0.740949 0.298046
O O13 0.797650 0.251302 0.142515
O O14 0.751426 0.000000 0.083824
O O15 0.750000 0.250000 0.000000
O O16 0.834624 0.500000 0.461537
O O17 0.777433 0.259140 0.408764
O O18 0.834886 0.248097 0.545223
O O19 0.946806 0.500000 0.763012
O O20 0.291616 0.500000 0.609080
O O21 0.139236 0.500000 0.853393
#
# Coordination Sequence:
#
# PCOD8102805 Si02
#       8
#     8   8   8   8   8   8   8   8
#     4  10  21  36  56  81 111 146 188 236 284 336
#     4   8  16  33  57  83 111 147 187 232 284 334
#     4  11  23  41  61  80 114 155 191 234 289 348
#     4  12  26  42  60  84 113 147 189 234 285 343
#     4   9  16  31  57  84 112 144 187 235 280 337
#     4  10  21  37  57  82 111 148 196 241 288 345
#     4   9  19  34  54  84 116 149 185 229 289 344
#     4  10  20  37  59  83 113 146 187 233 281 337
#
# _framework density 19.748097999999999
#
# number of rings (size 3 to 8) (size 9 to 14) (size 15 to 20)
#    0.000    2.125    0.000    4.125    1.750    4.000 
#    0.000    6.875    0.000    3.750    0.000    0.000 
#    0.000    0.000    0.000    0.000    0.000    0.000 
#
# Total GULP energy -396776.973686 kJ/mol
# GULP energy per Si atom -12399.280428 kJ/mol
# Density = 1.970315 g / cm^3
# Si number density = 19.748098 Si / 1000 Ang^3
#
#
#
# Elastic Constant Matrix: (Units=GPa)
#
#
# Indices 1 2 3 4 5 6 
#
# 1 91.9498 18.3743 41.6383 0.0000 -20.3649 0.0000
# 2 18.3743 52.1062 30.4955 0.0000 -13.4833 0.0000
# 3 41.6383 30.4955 110.1948 0.0000 -27.1739 0.0000
# 4 0.0000 0.0000 0.0000 28.6810 0.0000 -0.9778
# 5 -20.3649 -13.4833 -27.1739 0.0000 31.5164 0.0000
# 6 0.0000 0.0000 0.0000 -0.9778 0.0000 32.5951
#
#
#
# Elastic Compliance Matrix: (Units=1/GPa)
#
#
# Indices 1 2 3 4 5 6 
#
# 1 0.013958 -0.001462 -0.003556 0.000000 0.005328 0.000000
# 2 -0.001462 0.023831 -0.004777 0.000000 0.005132 0.000000
# 3 -0.003556 -0.004777 0.013551 0.000000 0.007343 0.000000
# 4 0.000000 0.000000 0.000000 0.034902 0.000000 0.001047
# 5 0.005328 0.005132 0.007343 0.000000 0.043699 0.000000
# 6 0.000000 0.000000 0.000000 0.001047 0.000000 0.030711
#
#
# Mechanical properties :
#
#
# Convention : Reuss Voigt Hill
#
# Bulk Modulus (GPa) = 31.49617 48.36297 39.92957
# Shear Modulus (GPa) = 26.20209 29.47468 27.83839
#
# Velocity S-wave (km/s) = 3.64650 3.86752 3.75864
# Velocity P-wave (km/s) = 5.80628 6.66984 6.25298
#
# Compressibility (1/GPa) = 0.03174989
#
# Stress axis : x y z
#
# Youngs Moduli (GPa) = 71.64445 41.96232 73.79497
#
# Poissons Ratio (x) = 0.06137 0.26238
# Poissons Ratio (y) = 0.10477 0.35252
# Poissons Ratio (z) = 0.25474 0.20045
#
# Static dielectric constant tensor:
#      x y z
#    x 3.771960 0.000000 -0.199110 
#    y 0.000000 3.542910 0.000000 
#    z -0.199110 0.000000 3.647700 
# 
# 
# High freq. dielectric constant tensor:
#      x y z
#    x 1.770160 0.000000 -0.018180 
#    y 0.000000 1.762200 0.000000 
#    z -0.018180 0.000000 1.765580 
# 
# From -- ./inp_files/281273.got.cif
#   From: 2010.06.25/outbox.cif.g09.slc.cpg/sg12_141_cif.got.tgz:281273.got - 2010.06.28 00:19:55.
