data_PCOD8102735
_publ_section_title
;
Structure prediction by ZEFSAII (Michael W. Deem and Ramdas Pophale) SiO2 
 PCOD8102735
Probable space group: C 2/M
;
_chemical_formula_sum "Si O2"
_cell_formula_units_Z 52
_cell_length_a 18.623270
_cell_length_b 11.793211
_cell_length_c 18.981211
_cell_angle_alpha 90.000000
_cell_angle_beta 42.287723
_cell_angle_gamma 90.000000
_cell_volume 2804.999404
_symmetry_space_group_name_H-M "C 2/M"
_symmetry_group_IT_number 12
_symmetry_cell_setting 'monoclinic'
loop_
_space_group_symop_operation_xyz
x,y,z
-x,y,-z
-x,-y,-z
x,-y,z
1/2+x,1/2+y,z
1/2-x,1/2+y,-z
1/2-x,1/2-y,-z
1/2+x,1/2-y,z
loop_
_atom_site_type_symbol
_atom_site_label
_atom_site_fract_x
_atom_site_fract_y
_atom_site_fract_z
Si Si1 0.925667 0.211899 0.989899
Si Si2 0.900446 0.000000 0.916786
Si Si3 0.718576 0.278041 0.600608
Si Si4 0.762513 0.800854 0.783960
Si Si5 0.125764 0.366198 0.398795
Si Si6 0.595817 0.130117 0.792314
Si Si7 0.623178 0.500000 0.223229
Si Si8 0.087363 0.000000 0.690896
O O1 0.992730 0.301866 0.895095
O O2 0.877501 0.111558 0.978154
O O3 0.818897 0.267685 0.095965
O O4 0.000000 0.166347 0.000000
O O5 0.835601 0.000000 0.888974
O O6 0.027047 0.000000 0.809707
O O7 0.750000 0.250000 0.500000
O O8 0.821281 0.299855 0.574615
O O9 0.638013 0.182431 0.688560
O O10 0.658690 0.392992 0.636663
O O11 0.828681 0.693064 0.705432
O O12 0.694650 0.864065 0.773713
O O13 0.844223 0.888012 0.758943
O O14 0.155463 0.500000 0.374740
O O15 0.000000 0.349130 0.500000
O O16 0.561438 0.000000 0.805608
O O17 0.494521 0.500000 0.315431
#
# Coordination Sequence:
#
# PCOD8102735 Si02
#       8
#     8   4   8   8   8   8   4   4
#     4  10  21  35  63  88 117 152 199 253 288 347
#     4  10  21  38  58  85 118 156 195 242 295 346
#     4  11  23  39  64  88 118 158 200 249 299 355
#     4  10  22  37  61  88 117 161 196 241 295 356
#     4  10  23  42  63  88 120 154 200 252 299 355
#     4  10  20  37  58  92 119 151 203 243 295 351
#     4  10  22  39  59  81 128 156 193 238 301 356
#     4  10  22  41  60  81 120 152 197 247 294 341
#
# _framework density 18.538328
#
# number of rings (size 3 to 8) (size 9 to 14) (size 15 to 20)
#    0.462    1.385    3.077    0.231    5.385    1.538 
#    0.000    0.385    0.000    0.000    0.000    0.000 
#    0.000    0.000    0.000    0.000    0.000    0.000 
#
# Total GULP energy -322251.044002 kJ/mol
# GULP energy per Si atom -12394.270923 kJ/mol
# Density = 1.849613 g / cm^3
# Si number density = 18.538328 Si / 1000 Ang^3
#
#
#
# Elastic Constant Matrix: (Units=GPa)
#
#
# Indices 1 2 3 4 5 6 
#
# 1 62.0082 28.5442 28.4666 0.0000 4.7200 0.0000
# 2 28.5442 119.4705 48.0763 0.0000 12.8434 0.0000
# 3 28.4666 48.0763 129.1083 0.0000 10.7346 0.0000
# 4 0.0000 0.0000 0.0000 35.4282 0.0000 0.0173
# 5 4.7200 12.8434 10.7346 0.0000 32.4192 0.0000
# 6 0.0000 0.0000 0.0000 0.0173 0.0000 38.8384
#
#
#
# Elastic Compliance Matrix: (Units=1/GPa)
#
#
# Indices 1 2 3 4 5 6 
#
# 1 0.019033 -0.003320 -0.002920 0.000000 -0.000489 0.000000
# 2 -0.003320 0.010671 -0.003013 0.000000 -0.002747 0.000000
# 3 -0.002920 -0.003013 0.009642 0.000000 -0.001574 0.000000
# 4 0.000000 0.000000 0.000000 0.028226 0.000000 -0.000013
# 5 -0.000489 -0.002747 -0.001574 0.000000 0.032526 0.000000
# 6 0.000000 0.000000 0.000000 -0.000013 0.000000 0.025748
#
#
# Mechanical properties :
#
#
# Convention : Reuss Voigt Hill
#
# Bulk Modulus (GPa) = 47.98348 57.86234 52.92291
# Shear Modulus (GPa) = 33.04721 35.03715 34.04218
#
# Velocity S-wave (km/s) = 4.22672 4.35211 4.28987
# Velocity P-wave (km/s) = 7.05406 7.51895 7.29021
#
# Compressibility (1/GPa) = 0.02084051
#
# Stress axis : x y z
#
# Youngs Moduli (GPa) = 52.54123 93.70908 103.71196
#
# Poissons Ratio (x) = 0.31110 0.30279
# Poissons Ratio (y) = 0.17443 0.31252
# Poissons Ratio (z) = 0.15340 0.28238
#
# Static dielectric constant tensor:
#      x y z
#    x 3.313750 0.000000 0.004040 
#    y 0.000000 3.333830 0.000000 
#    z 0.004040 0.000000 3.383390 
# 
# 
# High freq. dielectric constant tensor:
#      x y z
#    x 1.708910 0.000000 0.000840 
#    y 0.000000 1.727140 0.000000 
#    z 0.000840 0.000000 1.723540 
# 
# From -- ./inp_files/283258.got.cif
#   From: 2010.06.25/outbox.cif.g09.slc.cpg/sg12_142_cif.got.tgz:283258.got - 2010.06.28 00:19:55.
